MODEL 1
REMARK VINA RESULT:     -10.1      0.000      0.000
REMARK SMILES C[C@@H]1CCC[C@H](NC(=O)N(C)CC(=O)OCCOCCOCCOC(=O)c2ccc(-c3c4nc(c(-c5c(F)c(F)c(F)c(F)c5F)c5ccc([nH]5)c(-c5c(F)c(F)c(F)c(F)c5F)c5nc(c(-c6c(F)c(F)c(F)c(F)c6F)c6ccc3[nH]6)C=C5)C=C4)cc2)C1
REMARK SMILES IDX 19 1 18 2 17 3 16 4 15 5 13 6 14 7 12 8 10 9 11 10 8 11 7 12
REMARK SMILES IDX 9 14 6 15 1 16 2 17 3 18 90 19 4 20 5 21 20 22 21 23 22 24
REMARK SMILES IDX 23 25 24 26 25 27 26 28 27 29 28 30 89 31 29 32 88 33 30 34
REMARK SMILES IDX 31 35 32 36 82 37 33 38 87 39 81 40 83 41 34 42 86 43 80 44
REMARK SMILES IDX 79 45 35 47 67 48 47 49 66 50 48 51 51 52 65 53 84 54 49 55
REMARK SMILES IDX 50 56 64 58 85 59 52 60 36 61 37 62 45 63 38 64 39 65 43 66
REMARK SMILES IDX 46 67 40 68 41 69 44 70 42 71 68 72 69 73 77 74 70 75 71 76
REMARK SMILES IDX 75 77 78 78 72 79 73 80 76 81 74 82 53 83 54 84 62 85 55 86
REMARK SMILES IDX 56 87 60 88 63 89 57 90 58 91 61 92 59 93
REMARK H PARENT 7 13 83 46 51 57
REMARK Flexibility Score: inf
ROOT
ATOM      1  C   UNL A   1      36.910  23.213  25.083  1.00  0.00     0.188 C 
ENDROOT
BRANCH   1   2
ATOM      2  O   UNL A   1      35.650  23.617  24.542  1.00  0.00    -0.376 OA
BRANCH   2   3
ATOM      3  C   UNL A   1      34.911  22.659  23.796  1.00  0.00     0.202 C 
BRANCH   3   4
ATOM      4  C   UNL A   1      34.000  23.244  22.716  1.00  0.00     0.261 C 
BRANCH   4   5
ATOM      5  O   UNL A   1      33.986  24.686  22.729  1.00  0.00    -0.462 OA
BRANCH   5   6
ATOM      6  C   UNL A   1      33.281  25.284  21.731  1.00  0.00     0.325 C 
ATOM      7  O   UNL A   1      33.256  24.894  20.567  1.00  0.00    -0.250 OA
BRANCH   6   8
ATOM      8  C   UNL A   1      32.517  26.538  22.173  1.00  0.00     0.243 C 
BRANCH   8   9
ATOM      9  N   UNL A   1      31.319  26.419  23.028  1.00  0.00    -0.317 N 
ATOM     10  C   UNL A   1      30.757  25.086  23.115  1.00  0.00     0.149 C 
BRANCH   9  11
ATOM     11  C   UNL A   1      30.869  27.552  23.639  1.00  0.00     0.317 C 
ATOM     12  N   UNL A   1      31.025  27.809  24.952  1.00  0.00    -0.335 N 
ATOM     13  H   UNL A   1      30.482  28.577  25.244  1.00  0.00     0.165 HD
ATOM     14  O   UNL A   1      30.290  28.433  22.996  1.00  0.00    -0.249 OA
BRANCH  12  15
ATOM     15  C   UNL A   1      31.796  27.234  26.055  1.00  0.00     0.084 C 
ATOM     16  C   UNL A   1      31.961  30.503  26.716  1.00  0.00     0.008 C 
ATOM     17  C   UNL A   1      32.520  29.309  27.480  1.00  0.00    -0.012 C 
ATOM     18  C   UNL A   1      33.970  29.036  27.080  1.00  0.00     0.003 C 
ATOM     19  C   UNL A   1      31.633  28.053  27.350  1.00  0.00     0.028 C 
ATOM     20  C   UNL A   1      34.079  28.370  25.715  1.00  0.00     0.002 C 
ATOM     21  C   UNL A   1      33.277  27.071  25.669  1.00  0.00     0.025 C 
ENDBRANCH  12  15
ENDBRANCH   9  11
ENDBRANCH   8   9
ENDBRANCH   6   8
ENDBRANCH   5   6
ENDBRANCH   4   5
ENDBRANCH   3   4
ENDBRANCH   2   3
ENDBRANCH   1   2
BRANCH   1  22
ATOM     22  C   UNL A   1      37.051  21.767  25.577  1.00  0.00     0.188 C 
BRANCH  22  23
ATOM     23  O   UNL A   1      38.382  21.289  25.363  1.00  0.00    -0.376 OA
BRANCH  23  24
ATOM     24  C   UNL A   1      38.448  19.912  25.020  1.00  0.00     0.202 C 
BRANCH  24  25
ATOM     25  C   UNL A   1      39.477  19.202  25.896  1.00  0.00     0.261 C 
BRANCH  25  26
ATOM     26  O   UNL A   1      40.825  19.664  25.683  1.00  0.00    -0.460 OA
BRANCH  26  27
ATOM     27  C   UNL A   1      41.567  19.866  26.793  1.00  0.00     0.338 C 
ATOM     28  O   UNL A   1      42.158  19.026  27.446  1.00  0.00    -0.246 OA
BRANCH  27  29
ATOM     29  C   UNL A   1      41.633  21.315  27.059  1.00  0.00     0.060 A 
ATOM     30  C   UNL A   1      41.318  22.208  26.031  1.00  0.00     0.016 A 
ATOM     31  C   UNL A   1      42.056  21.789  28.302  1.00  0.00     0.016 A 
ATOM     32  C   UNL A   1      41.447  23.585  26.236  1.00  0.00     0.010 A 
ATOM     33  C   UNL A   1      42.201  23.164  28.502  1.00  0.00     0.010 A 
ATOM     34  C   UNL A   1      41.923  24.068  27.462  1.00  0.00    -0.014 A 
BRANCH  34  35
ATOM     35  C   UNL A   1      42.279  25.500  27.619  1.00  0.00     0.031 A 
ATOM     36  C   UNL A   1      43.600  25.980  27.084  1.00  0.00     0.074 A 
ATOM     37  C   UNL A   1      41.451  26.364  28.231  1.00  0.00     0.049 A 
ATOM     38  N   UNL A   1      44.164  27.156  27.187  1.00  0.00    -0.248 NA
ATOM     39  C   UNL A   1      44.392  24.995  26.331  1.00  0.00     0.031 C 
ATOM     40  C   UNL A   1      40.126  26.039  28.755  1.00  0.00     0.029 A 
ATOM     41  N   UNL A   1      41.614  27.696  28.525  1.00  0.00    -0.354 N 
ATOM     42  C   UNL A   1      45.379  27.051  26.523  1.00  0.00     0.074 A 
ATOM     43  C   UNL A   1      45.482  25.690  26.039  1.00  0.00     0.031 C 
ATOM     44  C   UNL A   1      39.599  27.141  29.317  1.00  0.00     0.029 A 
ATOM     45  C   UNL A   1      40.564  28.236  29.224  1.00  0.00     0.049 A 
ATOM     46  H   UNL A   1      42.409  28.213  28.261  1.00  0.00     0.167 HD
ATOM     47  C   UNL A   1      46.323  28.003  26.329  1.00  0.00     0.037 A 
ATOM     48  C   UNL A   1      40.411  29.469  29.747  1.00  0.00     0.037 A 
ATOM     49  C   UNL A   1      46.225  29.356  26.808  1.00  0.00     0.049 A 
ATOM     50  C   UNL A   1      41.506  30.491  29.578  1.00  0.00     0.074 A 
ATOM     51  C   UNL A   1      47.128  30.394  26.656  1.00  0.00     0.029 A 
ATOM     52  N   UNL A   1      45.157  29.859  27.536  1.00  0.00    -0.354 N 
ATOM     53  N   UNL A   1      42.650  30.387  28.947  1.00  0.00    -0.248 NA
ATOM     54  C   UNL A   1      41.287  31.805  30.201  1.00  0.00     0.031 C 
ATOM     55  C   UNL A   1      46.625  31.515  27.326  1.00  0.00     0.029 A 
ATOM     56  C   UNL A   1      45.387  31.187  27.858  1.00  0.00     0.049 A 
ATOM     57  H   UNL A   1      44.354  29.347  27.788  1.00  0.00     0.167 HD
ATOM     58  C   UNL A   1      43.274  31.621  29.076  1.00  0.00     0.074 A 
ATOM     59  C   UNL A   1      42.376  32.466  29.835  1.00  0.00     0.031 C 
ATOM     60  C   UNL A   1      44.483  32.018  28.608  1.00  0.00     0.037 A 
BRANCH  47  61
ATOM     61  C   UNL A   1      47.561  27.602  25.585  1.00  0.00     0.064 A 
ATOM     62  C   UNL A   1      47.623  27.654  24.184  1.00  0.00     0.173 A 
ATOM     63  C   UNL A   1      48.704  27.184  26.281  1.00  0.00     0.173 A 
ATOM     64  F   UNL A   1      46.550  28.031  23.473  1.00  0.00    -0.203 F 
ATOM     65  C   UNL A   1      48.781  27.281  23.507  1.00  0.00     0.198 A 
ATOM     66  C   UNL A   1      49.867  26.835  25.602  1.00  0.00     0.198 A 
ATOM     67  F   UNL A   1      48.694  27.119  27.621  1.00  0.00    -0.203 F 
ATOM     68  F   UNL A   1      48.807  27.297  22.167  1.00  0.00    -0.200 F 
ATOM     69  C   UNL A   1      49.903  26.877  24.216  1.00  0.00     0.200 A 
ATOM     70  F   UNL A   1      50.954  26.454  26.288  1.00  0.00    -0.200 F 
ATOM     71  F   UNL A   1      51.018  26.522  23.562  1.00  0.00    -0.200 F 
ENDBRANCH  47  61
BRANCH  48  72
ATOM     72  C   UNL A   1      39.174  29.809  30.496  1.00  0.00     0.064 A 
ATOM     73  C   UNL A   1      38.048  30.321  29.837  1.00  0.00     0.173 A 
ATOM     74  C   UNL A   1      39.103  29.657  31.889  1.00  0.00     0.173 A 
ATOM     75  F   UNL A   1      38.081  30.516  28.510  1.00  0.00    -0.203 F 
ATOM     76  C   UNL A   1      36.902  30.680  30.542  1.00  0.00     0.198 A 
ATOM     77  C   UNL A   1      37.947  29.992  32.591  1.00  0.00     0.198 A 
ATOM     78  F   UNL A   1      40.157  29.184  32.568  1.00  0.00    -0.203 F 
ATOM     79  F   UNL A   1      35.857  31.211  29.894  1.00  0.00    -0.200 F 
ATOM     80  C   UNL A   1      36.851  30.510  31.918  1.00  0.00     0.200 A 
ATOM     81  F   UNL A   1      37.900  29.825  33.920  1.00  0.00    -0.200 F 
ATOM     82  F   UNL A   1      35.749  30.859  32.597  1.00  0.00    -0.200 F 
ENDBRANCH  48  72
BRANCH  60  83
ATOM     83  C   UNL A   1      44.893  33.437  28.873  1.00  0.00     0.064 A 
ATOM     84  C   UNL A   1      45.656  33.784  29.996  1.00  0.00     0.173 A 
ATOM     85  C   UNL A   1      44.549  34.456  27.970  1.00  0.00     0.173 A 
ATOM     86  F   UNL A   1      45.998  32.849  30.895  1.00  0.00    -0.203 F 
ATOM     87  C   UNL A   1      46.043  35.104  30.218  1.00  0.00     0.198 A 
ATOM     88  C   UNL A   1      44.959  35.769  28.182  1.00  0.00     0.198 A 
ATOM     89  F   UNL A   1      43.825  34.176  26.876  1.00  0.00    -0.203 F 
ATOM     90  F   UNL A   1      46.738  35.420  31.320  1.00  0.00    -0.200 F 
ATOM     91  C   UNL A   1      45.700  36.093  29.309  1.00  0.00     0.200 A 
ATOM     92  F   UNL A   1      44.637  36.722  27.297  1.00  0.00    -0.200 F 
ATOM     93  F   UNL A   1      46.077  37.362  29.522  1.00  0.00    -0.200 F 
ENDBRANCH  60  83
ENDBRANCH  34  35
ENDBRANCH  27  29
ENDBRANCH  26  27
ENDBRANCH  25  26
ENDBRANCH  24  25
ENDBRANCH  23  24
ENDBRANCH  22  23
ENDBRANCH   1  22
TORSDOF 20
ENDMDL
MODEL 2
REMARK VINA RESULT:     -10.1      1.255      2.516
REMARK SMILES C[C@@H]1CCC[C@H](NC(=O)N(C)CC(=O)OCCOCCOCCOC(=O)c2ccc(-c3c4nc(c(-c5c(F)c(F)c(F)c(F)c5F)c5ccc([nH]5)c(-c5c(F)c(F)c(F)c(F)c5F)c5nc(c(-c6c(F)c(F)c(F)c(F)c6F)c6ccc3[nH]6)C=C5)C=C4)cc2)C1
REMARK SMILES IDX 19 1 18 2 17 3 16 4 15 5 13 6 14 7 12 8 10 9 11 10 8 11 7 12
REMARK SMILES IDX 9 14 6 15 1 16 2 17 3 18 90 19 4 20 5 21 20 22 21 23 22 24
REMARK SMILES IDX 23 25 24 26 25 27 26 28 27 29 28 30 89 31 29 32 88 33 30 34
REMARK SMILES IDX 31 35 32 36 82 37 33 38 87 39 81 40 83 41 34 42 86 43 80 44
REMARK SMILES IDX 79 45 35 47 67 48 47 49 66 50 48 51 51 52 65 53 84 54 49 55
REMARK SMILES IDX 50 56 64 58 85 59 52 60 36 61 37 62 45 63 38 64 39 65 43 66
REMARK SMILES IDX 46 67 40 68 41 69 44 70 42 71 68 72 69 73 77 74 70 75 71 76
REMARK SMILES IDX 75 77 78 78 72 79 73 80 76 81 74 82 53 83 54 84 62 85 55 86
REMARK SMILES IDX 56 87 60 88 63 89 57 90 58 91 61 92 59 93
REMARK H PARENT 7 13 83 46 51 57
REMARK Flexibility Score: inf
ROOT
ATOM      1  C   UNL A   1      37.057  23.224  25.327  1.00  0.00     0.188 C 
ENDROOT
BRANCH   1   2
ATOM      2  O   UNL A   1      35.792  23.723  24.886  1.00  0.00    -0.376 OA
BRANCH   2   3
ATOM      3  C   UNL A   1      35.166  23.067  23.791  1.00  0.00     0.202 C 
BRANCH   3   4
ATOM      4  C   UNL A   1      34.068  23.873  23.097  1.00  0.00     0.261 C 
BRANCH   4   5
ATOM      5  O   UNL A   1      34.057  25.256  23.506  1.00  0.00    -0.462 OA
BRANCH   5   6
ATOM      6  C   UNL A   1      32.846  25.874  23.488  1.00  0.00     0.325 C 
ATOM      7  O   UNL A   1      31.907  25.542  22.769  1.00  0.00    -0.250 OA
BRANCH   6   8
ATOM      8  C   UNL A   1      32.742  27.072  24.438  1.00  0.00     0.243 C 
BRANCH   8   9
ATOM      9  N   UNL A   1      32.920  28.447  23.928  1.00  0.00    -0.317 N 
ATOM     10  C   UNL A   1      34.057  28.633  23.049  1.00  0.00     0.149 C 
BRANCH   9  11
ATOM     11  C   UNL A   1      32.014  29.385  24.325  1.00  0.00     0.317 C 
ATOM     12  N   UNL A   1      30.944  29.752  23.594  1.00  0.00    -0.335 N 
ATOM     13  H   UNL A   1      30.513  30.562  23.953  1.00  0.00     0.165 HD
ATOM     14  O   UNL A   1      32.126  29.955  25.415  1.00  0.00    -0.249 OA
BRANCH  12  15
ATOM     15  C   UNL A   1      30.260  29.252  22.400  1.00  0.00     0.084 C 
ATOM     16  C   UNL A   1      27.965  31.287  23.721  1.00  0.00     0.008 C 
ATOM     17  C   UNL A   1      27.935  30.456  22.444  1.00  0.00    -0.012 C 
ATOM     18  C   UNL A   1      27.274  29.100  22.691  1.00  0.00     0.003 C 
ATOM     19  C   UNL A   1      29.326  30.316  21.792  1.00  0.00     0.028 C 
ATOM     20  C   UNL A   1      28.187  28.139  23.441  1.00  0.00     0.002 C 
ATOM     21  C   UNL A   1      29.509  27.943  22.701  1.00  0.00     0.025 C 
ENDBRANCH  12  15
ENDBRANCH   9  11
ENDBRANCH   8   9
ENDBRANCH   6   8
ENDBRANCH   5   6
ENDBRANCH   4   5
ENDBRANCH   3   4
ENDBRANCH   2   3
ENDBRANCH   1   2
BRANCH   1  22
ATOM     22  C   UNL A   1      37.160  21.735  25.683  1.00  0.00     0.188 C 
BRANCH  22  23
ATOM     23  O   UNL A   1      38.475  21.243  25.415  1.00  0.00    -0.376 OA
BRANCH  23  24
ATOM     24  C   UNL A   1      38.508  19.874  25.036  1.00  0.00     0.202 C 
BRANCH  24  25
ATOM     25  C   UNL A   1      39.527  19.119  25.885  1.00  0.00     0.261 C 
BRANCH  25  26
ATOM     26  O   UNL A   1      40.893  19.442  25.562  1.00  0.00    -0.460 OA
BRANCH  26  27
ATOM     27  C   UNL A   1      41.719  19.650  26.610  1.00  0.00     0.338 C 
ATOM     28  O   UNL A   1      42.383  18.818  27.201  1.00  0.00    -0.246 OA
BRANCH  27  29
ATOM     29  C   UNL A   1      41.771  21.098  26.889  1.00  0.00     0.060 A 
ATOM     30  C   UNL A   1      41.553  21.999  25.843  1.00  0.00     0.016 A 
ATOM     31  C   UNL A   1      42.087  21.562  28.167  1.00  0.00     0.016 A 
ATOM     32  C   UNL A   1      41.672  23.373  26.067  1.00  0.00     0.010 A 
ATOM     33  C   UNL A   1      42.223  22.935  28.387  1.00  0.00     0.010 A 
ATOM     34  C   UNL A   1      42.042  23.847  27.332  1.00  0.00    -0.014 A 
BRANCH  34  35
ATOM     35  C   UNL A   1      42.392  25.275  27.528  1.00  0.00     0.031 A 
ATOM     36  C   UNL A   1      43.747  25.755  27.086  1.00  0.00     0.074 A 
ATOM     37  C   UNL A   1      41.528  26.136  28.094  1.00  0.00     0.049 A 
ATOM     38  N   UNL A   1      44.308  26.928  27.240  1.00  0.00    -0.248 NA
ATOM     39  C   UNL A   1      44.584  24.775  26.376  1.00  0.00     0.031 C 
ATOM     40  C   UNL A   1      40.172  25.811  28.526  1.00  0.00     0.029 A 
ATOM     41  N   UNL A   1      41.677  27.464  28.413  1.00  0.00    -0.354 N 
ATOM     42  C   UNL A   1      45.564  26.824  26.656  1.00  0.00     0.074 A 
ATOM     43  C   UNL A   1      45.693  25.469  26.165  1.00  0.00     0.031 C 
ATOM     44  C   UNL A   1      39.612  26.909  29.064  1.00  0.00     0.029 A 
ATOM     45  C   UNL A   1      40.585  28.001  29.047  1.00  0.00     0.049 A 
ATOM     46  H   UNL A   1      42.489  27.980  28.207  1.00  0.00     0.167 HD
ATOM     47  C   UNL A   1      46.521  27.774  26.536  1.00  0.00     0.037 A 
ATOM     48  C   UNL A   1      40.402  29.229  29.572  1.00  0.00     0.037 A 
ATOM     49  C   UNL A   1      46.397  29.122  27.022  1.00  0.00     0.049 A 
ATOM     50  C   UNL A   1      41.509  30.248  29.488  1.00  0.00     0.074 A 
ATOM     51  C   UNL A   1      47.312  30.158  26.942  1.00  0.00     0.029 A 
ATOM     52  N   UNL A   1      45.285  29.622  27.684  1.00  0.00    -0.354 N 
ATOM     53  N   UNL A   1      42.693  30.145  28.932  1.00  0.00    -0.248 NA
ATOM     54  C   UNL A   1      41.255  31.556  30.109  1.00  0.00     0.031 C 
ATOM     55  C   UNL A   1      46.770  31.274  27.589  1.00  0.00     0.029 A 
ATOM     56  C   UNL A   1      45.499  30.945  28.035  1.00  0.00     0.049 A 
ATOM     57  H   UNL A   1      44.466  29.111  27.876  1.00  0.00     0.167 HD
ATOM     58  C   UNL A   1      43.311  31.376  29.115  1.00  0.00     0.074 A 
ATOM     59  C   UNL A   1      42.368  32.216  29.823  1.00  0.00     0.031 C 
ATOM     60  C   UNL A   1      44.549  31.773  28.732  1.00  0.00     0.037 A 
BRANCH  47  61
ATOM     61  C   UNL A   1      47.804  27.376  25.870  1.00  0.00     0.064 A 
ATOM     62  C   UNL A   1      48.898  26.901  26.609  1.00  0.00     0.173 A 
ATOM     63  C   UNL A   1      47.932  27.448  24.475  1.00  0.00     0.173 A 
ATOM     64  F   UNL A   1      48.830  26.831  27.947  1.00  0.00    -0.203 F 
ATOM     65  C   UNL A   1      50.082  26.533  25.975  1.00  0.00     0.198 A 
ATOM     66  C   UNL A   1      49.108  27.055  23.843  1.00  0.00     0.198 A 
ATOM     67  F   UNL A   1      46.913  27.893  23.724  1.00  0.00    -0.203 F 
ATOM     68  F   UNL A   1      51.130  26.123  26.703  1.00  0.00    -0.200 F 
ATOM     69  C   UNL A   1      50.184  26.605  24.594  1.00  0.00     0.200 A 
ATOM     70  F   UNL A   1      49.203  27.116  22.508  1.00  0.00    -0.200 F 
ATOM     71  F   UNL A   1      51.323  26.247  23.985  1.00  0.00    -0.200 F 
ENDBRANCH  47  61
BRANCH  48  72
ATOM     72  C   UNL A   1      39.120  29.566  30.242  1.00  0.00     0.064 A 
ATOM     73  C   UNL A   1      38.069  30.164  29.532  1.00  0.00     0.173 A 
ATOM     74  C   UNL A   1      38.929  29.324  31.611  1.00  0.00     0.173 A 
ATOM     75  F   UNL A   1      38.218  30.446  28.229  1.00  0.00    -0.203 F 
ATOM     76  C   UNL A   1      36.882  30.520  30.167  1.00  0.00     0.198 A 
ATOM     77  C   UNL A   1      37.731  29.657  32.240  1.00  0.00     0.198 A 
ATOM     78  F   UNL A   1      39.908  28.766  32.337  1.00  0.00    -0.203 F 
ATOM     79  F   UNL A   1      35.912  31.134  29.476  1.00  0.00    -0.200 F 
ATOM     80  C   UNL A   1      36.712  30.261  31.520  1.00  0.00     0.200 A 
ATOM     81  F   UNL A   1      37.570  29.404  33.546  1.00  0.00    -0.200 F 
ATOM     82  F   UNL A   1      35.571  30.607  32.131  1.00  0.00    -0.200 F 
ENDBRANCH  48  72
BRANCH  60  83
ATOM     83  C   UNL A   1      44.946  33.187  29.039  1.00  0.00     0.064 A 
ATOM     84  C   UNL A   1      44.616  34.246  28.182  1.00  0.00     0.173 A 
ATOM     85  C   UNL A   1      45.633  33.491  30.225  1.00  0.00     0.173 A 
ATOM     86  F   UNL A   1      43.972  34.005  27.029  1.00  0.00    -0.203 F 
ATOM     87  C   UNL A   1      44.977  35.555  28.489  1.00  0.00     0.198 A 
ATOM     88  C   UNL A   1      45.969  34.804  30.542  1.00  0.00     0.198 A 
ATOM     89  F   UNL A   1      45.967  32.514  31.083  1.00  0.00    -0.203 F 
ATOM     90  F   UNL A   1      44.687  36.547  27.636  1.00  0.00    -0.200 F 
ATOM     91  C   UNL A   1      45.648  35.833  29.671  1.00  0.00     0.200 A 
ATOM     92  F   UNL A   1      46.607  35.073  31.690  1.00  0.00    -0.200 F 
ATOM     93  F   UNL A   1      45.990  37.095  29.968  1.00  0.00    -0.200 F 
ENDBRANCH  60  83
ENDBRANCH  34  35
ENDBRANCH  27  29
ENDBRANCH  26  27
ENDBRANCH  25  26
ENDBRANCH  24  25
ENDBRANCH  23  24
ENDBRANCH  22  23
ENDBRANCH   1  22
TORSDOF 20
ENDMDL
MODEL 3
REMARK VINA RESULT:     -10.0      1.391      7.398
REMARK SMILES C[C@@H]1CCC[C@H](NC(=O)N(C)CC(=O)OCCOCCOCCOC(=O)c2ccc(-c3c4nc(c(-c5c(F)c(F)c(F)c(F)c5F)c5ccc([nH]5)c(-c5c(F)c(F)c(F)c(F)c5F)c5nc(c(-c6c(F)c(F)c(F)c(F)c6F)c6ccc3[nH]6)C=C5)C=C4)cc2)C1
REMARK SMILES IDX 19 1 18 2 17 3 16 4 15 5 13 6 14 7 12 8 10 9 11 10 8 11 7 12
REMARK SMILES IDX 9 14 6 15 1 16 2 17 3 18 90 19 4 20 5 21 20 22 21 23 22 24
REMARK SMILES IDX 23 25 24 26 25 27 26 28 27 29 28 30 89 31 29 32 88 33 30 34
REMARK SMILES IDX 31 35 32 36 82 37 33 38 87 39 81 40 83 41 34 42 86 43 80 44
REMARK SMILES IDX 79 45 35 47 67 48 47 49 66 50 48 51 51 52 65 53 84 54 49 55
REMARK SMILES IDX 50 56 64 58 85 59 52 60 36 61 37 62 45 63 38 64 39 65 43 66
REMARK SMILES IDX 46 67 40 68 41 69 44 70 42 71 68 72 69 73 77 74 70 75 71 76
REMARK SMILES IDX 75 77 78 78 72 79 73 80 76 81 74 82 53 83 54 84 62 85 55 86
REMARK SMILES IDX 56 87 60 88 63 89 57 90 58 91 61 92 59 93
REMARK H PARENT 7 13 83 46 51 57
REMARK Flexibility Score: inf
ROOT
ATOM      1  C   UNL A   1      37.085  23.327  24.976  1.00  0.00     0.188 C 
ENDROOT
BRANCH   1   2
ATOM      2  O   UNL A   1      35.828  24.003  25.053  1.00  0.00    -0.376 OA
BRANCH   2   3
ATOM      3  C   UNL A   1      34.865  23.511  25.976  1.00  0.00     0.202 C 
BRANCH   3   4
ATOM      4  C   UNL A   1      33.702  22.742  25.348  1.00  0.00     0.261 C 
BRANCH   4   5
ATOM      5  O   UNL A   1      33.952  22.394  23.971  1.00  0.00    -0.462 OA
BRANCH   5   6
ATOM      6  C   UNL A   1      33.028  22.823  23.070  1.00  0.00     0.325 C 
ATOM      7  O   UNL A   1      32.093  22.144  22.656  1.00  0.00    -0.250 OA
BRANCH   6   8
ATOM      8  C   UNL A   1      33.262  24.253  22.570  1.00  0.00     0.243 C 
BRANCH   8   9
ATOM      9  N   UNL A   1      32.215  25.282  22.731  1.00  0.00    -0.317 N 
ATOM     10  C   UNL A   1      31.810  25.942  21.506  1.00  0.00     0.149 C 
BRANCH   9  11
ATOM     11  C   UNL A   1      31.741  25.503  23.991  1.00  0.00     0.317 C 
ATOM     12  N   UNL A   1      32.379  26.250  24.912  1.00  0.00    -0.335 N 
ATOM     13  H   UNL A   1      31.983  26.146  25.808  1.00  0.00     0.165 HD
ATOM     14  O   UNL A   1      30.662  25.025  24.356  1.00  0.00    -0.249 OA
BRANCH  12  15
ATOM     15  C   UNL A   1      33.512  27.176  24.920  1.00  0.00     0.084 C 
ATOM     16  C   UNL A   1      31.778  28.171  27.595  1.00  0.00     0.008 C 
ATOM     17  C   UNL A   1      33.098  28.677  27.025  1.00  0.00    -0.012 C 
ATOM     18  C   UNL A   1      32.870  29.866  26.092  1.00  0.00     0.003 C 
ATOM     19  C   UNL A   1      33.924  27.560  26.354  1.00  0.00     0.028 C 
ATOM     20  C   UNL A   1      32.307  29.442  24.741  1.00  0.00     0.002 C 
ATOM     21  C   UNL A   1      33.216  28.419  24.062  1.00  0.00     0.025 C 
ENDBRANCH  12  15
ENDBRANCH   9  11
ENDBRANCH   8   9
ENDBRANCH   6   8
ENDBRANCH   5   6
ENDBRANCH   4   5
ENDBRANCH   3   4
ENDBRANCH   2   3
ENDBRANCH   1   2
BRANCH   1  22
ATOM     22  C   UNL A   1      37.151  21.873  25.461  1.00  0.00     0.188 C 
BRANCH  22  23
ATOM     23  O   UNL A   1      38.487  21.372  25.371  1.00  0.00    -0.376 OA
BRANCH  23  24
ATOM     24  C   UNL A   1      38.560  19.966  25.178  1.00  0.00     0.202 C 
BRANCH  24  25
ATOM     25  C   UNL A   1      39.637  19.368  26.080  1.00  0.00     0.261 C 
BRANCH  25  26
ATOM     26  O   UNL A   1      40.869  19.086  25.390  1.00  0.00    -0.460 OA
BRANCH  26  27
ATOM     27  C   UNL A   1      41.999  19.195  26.121  1.00  0.00     0.338 C 
ATOM     28  O   UNL A   1      42.768  18.302  26.425  1.00  0.00    -0.246 OA
BRANCH  27  29
ATOM     29  C   UNL A   1      42.222  20.619  26.434  1.00  0.00     0.060 A 
ATOM     30  C   UNL A   1      42.371  21.530  25.385  1.00  0.00     0.016 A 
ATOM     31  C   UNL A   1      42.337  21.043  27.760  1.00  0.00     0.016 A 
ATOM     32  C   UNL A   1      42.658  22.870  25.657  1.00  0.00     0.010 A 
ATOM     33  C   UNL A   1      42.642  22.379  28.031  1.00  0.00     0.010 A 
ATOM     34  C   UNL A   1      42.830  23.295  26.981  1.00  0.00    -0.014 A 
BRANCH  34  35
ATOM     35  C   UNL A   1      43.355  24.651  27.274  1.00  0.00     0.031 A 
ATOM     36  C   UNL A   1      42.424  25.677  27.859  1.00  0.00     0.074 A 
ATOM     37  C   UNL A   1      44.634  24.976  27.020  1.00  0.00     0.049 A 
ATOM     38  N   UNL A   1      42.629  26.945  28.108  1.00  0.00    -0.248 NA
ATOM     39  C   UNL A   1      41.075  25.205  28.209  1.00  0.00     0.031 C 
ATOM     40  C   UNL A   1      45.649  24.066  26.495  1.00  0.00     0.029 A 
ATOM     41  N   UNL A   1      45.293  26.173  27.162  1.00  0.00    -0.354 N 
ATOM     42  C   UNL A   1      41.436  27.424  28.633  1.00  0.00     0.074 A 
ATOM     43  C   UNL A   1      40.503  26.318  28.647  1.00  0.00     0.031 C 
ATOM     44  C   UNL A   1      46.804  24.741  26.349  1.00  0.00     0.029 A 
ATOM     45  C   UNL A   1      46.597  26.136  26.735  1.00  0.00     0.049 A 
ATOM     46  H   UNL A   1      44.870  26.980  27.533  1.00  0.00     0.167 HD
ATOM     47  C   UNL A   1      41.145  28.673  29.069  1.00  0.00     0.037 A 
ATOM     48  C   UNL A   1      47.510  27.123  26.646  1.00  0.00     0.037 A 
ATOM     49  C   UNL A   1      42.069  29.776  29.058  1.00  0.00     0.049 A 
ATOM     50  C   UNL A   1      47.140  28.521  27.072  1.00  0.00     0.074 A 
ATOM     51  C   UNL A   1      41.867  31.077  29.484  1.00  0.00     0.029 A 
ATOM     52  N   UNL A   1      43.374  29.706  28.592  1.00  0.00    -0.354 N 
ATOM     53  N   UNL A   1      46.013  28.967  27.570  1.00  0.00    -0.248 NA
ATOM     54  C   UNL A   1      48.175  29.556  26.919  1.00  0.00     0.031 C 
ATOM     55  C   UNL A   1      43.037  31.805  29.240  1.00  0.00     0.029 A 
ATOM     56  C   UNL A   1      43.982  30.946  28.702  1.00  0.00     0.049 A 
ATOM     57  H   UNL A   1      43.803  28.895  28.235  1.00  0.00     0.167 HD
ATOM     58  C   UNL A   1      46.208  30.321  27.811  1.00  0.00     0.074 A 
ATOM     59  C   UNL A   1      47.567  30.624  27.416  1.00  0.00     0.031 C 
ATOM     60  C   UNL A   1      45.338  31.232  28.312  1.00  0.00     0.037 A 
BRANCH  47  61
ATOM     61  C   UNL A   1      39.755  28.918  29.574  1.00  0.00     0.064 A 
ATOM     62  C   UNL A   1      38.721  29.316  28.713  1.00  0.00     0.173 A 
ATOM     63  C   UNL A   1      39.448  28.728  30.929  1.00  0.00     0.173 A 
ATOM     64  F   UNL A   1      38.970  29.526  27.411  1.00  0.00    -0.203 F 
ATOM     65  C   UNL A   1      37.435  29.537  29.197  1.00  0.00     0.198 A 
ATOM     66  C   UNL A   1      38.155  28.927  31.404  1.00  0.00     0.198 A 
ATOM     67  F   UNL A   1      40.402  28.346  31.792  1.00  0.00    -0.203 F 
ATOM     68  F   UNL A   1      36.471  29.959  28.365  1.00  0.00    -0.200 F 
ATOM     69  C   UNL A   1      37.151  29.337  30.540  1.00  0.00     0.200 A 
ATOM     70  F   UNL A   1      37.880  28.724  32.700  1.00  0.00    -0.200 F 
ATOM     71  F   UNL A   1      35.911  29.547  31.003  1.00  0.00    -0.200 F 
ENDBRANCH  47  61
BRANCH  48  72
ATOM     72  C   UNL A   1      48.867  26.833  26.117  1.00  0.00     0.064 A 
ATOM     73  C   UNL A   1      49.165  27.010  24.758  1.00  0.00     0.173 A 
ATOM     74  C   UNL A   1      49.884  26.345  26.950  1.00  0.00     0.173 A 
ATOM     75  F   UNL A   1      48.214  27.441  23.916  1.00  0.00    -0.203 F 
ATOM     76  C   UNL A   1      50.424  26.698  24.251  1.00  0.00     0.198 A 
ATOM     77  C   UNL A   1      51.151  26.057  26.447  1.00  0.00     0.198 A 
ATOM     78  F   UNL A   1      49.646  26.146  28.254  1.00  0.00    -0.203 F 
ATOM     79  F   UNL A   1      50.668  26.831  22.940  1.00  0.00    -0.200 F 
ATOM     80  C   UNL A   1      51.417  26.227  25.097  1.00  0.00     0.200 A 
ATOM     81  F   UNL A   1      52.109  25.604  27.267  1.00  0.00    -0.200 F 
ATOM     82  F   UNL A   1      52.628  25.923  24.607  1.00  0.00    -0.200 F 
ENDBRANCH  48  72
BRANCH  60  83
ATOM     83  C   UNL A   1      45.838  32.635  28.496  1.00  0.00     0.064 A 
ATOM     84  C   UNL A   1      45.682  33.607  27.497  1.00  0.00     0.173 A 
ATOM     85  C   UNL A   1      46.445  33.021  29.701  1.00  0.00     0.173 A 
ATOM     86  F   UNL A   1      45.120  33.284  26.322  1.00  0.00    -0.203 F 
ATOM     87  C   UNL A   1      46.136  34.910  27.690  1.00  0.00     0.198 A 
ATOM     88  C   UNL A   1      46.875  34.330  29.899  1.00  0.00     0.198 A 
ATOM     89  F   UNL A   1      46.612  32.131  30.690  1.00  0.00    -0.203 F 
ATOM     90  F   UNL A   1      46.014  35.812  26.707  1.00  0.00    -0.200 F 
ATOM     91  C   UNL A   1      46.726  35.271  28.892  1.00  0.00     0.200 A 
ATOM     92  F   UNL A   1      47.434  34.681  31.065  1.00  0.00    -0.200 F 
ATOM     93  F   UNL A   1      47.158  36.527  29.077  1.00  0.00    -0.200 F 
ENDBRANCH  60  83
ENDBRANCH  34  35
ENDBRANCH  27  29
ENDBRANCH  26  27
ENDBRANCH  25  26
ENDBRANCH  24  25
ENDBRANCH  23  24
ENDBRANCH  22  23
ENDBRANCH   1  22
TORSDOF 20
ENDMDL
