MODEL 1
REMARK VINA RESULT:     -10.7      0.000      0.000
REMARK SMILES C[C@@H](NS(=O)(=O)c1ccc2c(c1)CCC2)C(=O)OCCOCCOCCOC(=O)c1ccc(-c2c3nc(c(-c4c(F)c(F)c(F)c(F)c4F)c4ccc([nH]4)c(-c4c(F)c(F)c(F)c(F)c4F)c4nc(c(-c5c(F)c(F)c(F)c(F)c5F)c5ccc2[nH]5)C=C4)C=C3)cc1
REMARK SMILES IDX 22 1 21 2 20 3 19 4 18 5 16 6 17 7 2 8 1 9 3 10 4 12 5 13
REMARK SMILES IDX 6 14 7 15 8 16 12 17 9 18 11 19 10 20 13 21 15 22 14 23
REMARK SMILES IDX 23 24 24 25 25 26 26 27 27 28 28 29 29 30 30 31 31 32 92 33
REMARK SMILES IDX 32 34 91 35 33 36 34 37 35 38 85 39 36 40 90 41 84 42 86 43
REMARK SMILES IDX 37 44 89 45 83 46 82 47 38 49 70 50 50 51 69 52 51 53 54 54
REMARK SMILES IDX 68 55 87 56 52 57 53 58 67 60 88 61 55 62 39 63 40 64 48 65
REMARK SMILES IDX 41 66 42 67 46 68 49 69 43 70 44 71 47 72 45 73 71 74 72 75
REMARK SMILES IDX 80 76 73 77 74 78 78 79 81 80 75 81 76 82 79 83 77 84 56 85
REMARK SMILES IDX 57 86 65 87 58 88 59 89 63 90 66 91 60 92 61 93 64 94 62 95
REMARK H PARENT 3 11 86 48 54 59
REMARK Flexibility Score: inf
ROOT
ATOM      1  C   UNL A   1      33.535  27.040  24.790  1.00  0.00     0.188 C 
ENDROOT
BRANCH   1   2
ATOM      2  O   UNL A   1      34.193  25.855  24.383  1.00  0.00    -0.376 OA
BRANCH   2   3
ATOM      3  C   UNL A   1      34.528  24.901  25.377  1.00  0.00     0.202 C 
BRANCH   3   4
ATOM      4  C   UNL A   1      35.602  23.895  25.005  1.00  0.00     0.261 C 
BRANCH   4   5
ATOM      5  O   UNL A   1      35.851  22.888  26.000  1.00  0.00    -0.462 OA
BRANCH   5   6
ATOM      6  C   UNL A   1      36.567  21.797  25.601  1.00  0.00     0.323 C 
ATOM      7  O   UNL A   1      37.789  21.716  25.628  1.00  0.00    -0.250 OA
BRANCH   6   8
ATOM      8  C   UNL A   1      35.674  20.717  25.001  1.00  0.00     0.176 C 
ATOM      9  C   UNL A   1      36.381  19.368  24.887  1.00  0.00     0.038 C 
BRANCH   8  10
ATOM     10  N   UNL A   1      34.432  20.551  25.790  1.00  0.00    -0.197 NA
ATOM     11  H   UNL A   1      34.383  21.333  26.443  1.00  0.00     0.142 HD
BRANCH  10  12
ATOM     12  S   UNL A   1      32.959  20.498  24.962  1.00  0.00     0.241 S 
ATOM     13  O   UNL A   1      33.260  20.358  23.555  1.00  0.00    -0.207 OA
ATOM     14  O   UNL A   1      32.155  19.522  25.665  1.00  0.00    -0.207 OA
BRANCH  12  15
ATOM     15  C   UNL A   1      32.235  22.090  25.266  1.00  0.00     0.082 A 
ATOM     16  C   UNL A   1      32.075  22.535  26.591  1.00  0.00     0.022 A 
ATOM     17  C   UNL A   1      31.751  22.836  24.184  1.00  0.00     0.025 A 
ATOM     18  C   UNL A   1      31.367  23.709  26.857  1.00  0.00     0.005 A 
ATOM     19  C   UNL A   1      31.060  24.007  24.463  1.00  0.00    -0.043 A 
ATOM     20  C   UNL A   1      30.849  24.422  25.785  1.00  0.00    -0.045 A 
ATOM     21  C   UNL A   1      30.315  24.883  23.502  1.00  0.00     0.036 C 
ATOM     22  C   UNL A   1      29.896  25.576  25.837  1.00  0.00     0.036 C 
ATOM     23  C   UNL A   1      29.947  26.082  24.390  1.00  0.00     0.010 C 
ENDBRANCH  12  15
ENDBRANCH  10  12
ENDBRANCH   8  10
ENDBRANCH   6   8
ENDBRANCH   5   6
ENDBRANCH   4   5
ENDBRANCH   3   4
ENDBRANCH   2   3
ENDBRANCH   1   2
BRANCH   1  24
ATOM     24  C   UNL A   1      33.458  27.369  26.291  1.00  0.00     0.188 C 
BRANCH  24  25
ATOM     25  O   UNL A   1      32.281  27.898  26.879  1.00  0.00    -0.376 OA
BRANCH  25  26
ATOM     26  C   UNL A   1      31.580  28.948  26.232  1.00  0.00     0.202 C 
BRANCH  26  27
ATOM     27  C   UNL A   1      31.778  30.377  26.741  1.00  0.00     0.261 C 
BRANCH  27  28
ATOM     28  O   UNL A   1      33.059  30.931  26.407  1.00  0.00    -0.460 OA
BRANCH  28  29
ATOM     29  C   UNL A   1      33.510  31.889  27.251  1.00  0.00     0.338 C 
ATOM     30  O   UNL A   1      32.894  32.850  27.679  1.00  0.00    -0.246 OA
BRANCH  29  31
ATOM     31  C   UNL A   1      34.842  31.500  27.761  1.00  0.00     0.060 A 
ATOM     32  C   UNL A   1      35.070  30.139  28.014  1.00  0.00     0.016 A 
ATOM     33  C   UNL A   1      35.843  32.442  28.006  1.00  0.00     0.016 A 
ATOM     34  C   UNL A   1      36.285  29.720  28.550  1.00  0.00     0.010 A 
ATOM     35  C   UNL A   1      37.050  32.026  28.574  1.00  0.00     0.010 A 
ATOM     36  C   UNL A   1      37.257  30.670  28.885  1.00  0.00    -0.014 A 
BRANCH  36  37
ATOM     37  C   UNL A   1      38.357  30.282  29.797  1.00  0.00     0.031 A 
ATOM     38  C   UNL A   1      39.373  29.298  29.284  1.00  0.00     0.074 A 
ATOM     39  C   UNL A   1      38.472  30.795  31.033  1.00  0.00     0.049 A 
ATOM     40  N   UNL A   1      40.397  28.761  29.895  1.00  0.00    -0.248 NA
ATOM     41  C   UNL A   1      39.208  28.863  27.887  1.00  0.00     0.031 C 
ATOM     42  C   UNL A   1      37.587  31.796  31.623  1.00  0.00     0.029 A 
ATOM     43  N   UNL A   1      39.391  30.530  32.017  1.00  0.00    -0.354 N 
ATOM     44  C   UNL A   1      40.995  27.929  28.959  1.00  0.00     0.074 A 
ATOM     45  C   UNL A   1      40.211  28.012  27.747  1.00  0.00     0.031 C 
ATOM     46  C   UNL A   1      37.996  32.048  32.880  1.00  0.00     0.029 A 
ATOM     47  C   UNL A   1      39.152  31.206  33.188  1.00  0.00     0.049 A 
ATOM     48  H   UNL A   1      40.149  29.914  31.896  1.00  0.00     0.167 HD
ATOM     49  C   UNL A   1      42.103  27.165  29.095  1.00  0.00     0.037 A 
ATOM     50  C   UNL A   1      39.784  31.128  34.375  1.00  0.00     0.037 A 
ATOM     51  C   UNL A   1      42.876  27.068  30.301  1.00  0.00     0.049 A 
ATOM     52  C   UNL A   1      40.964  30.199  34.530  1.00  0.00     0.074 A 
ATOM     53  C   UNL A   1      44.014  26.319  30.540  1.00  0.00     0.029 A 
ATOM     54  N   UNL A   1      42.578  27.737  31.478  1.00  0.00    -0.354 N 
ATOM     55  N   UNL A   1      41.534  29.426  33.637  1.00  0.00    -0.248 NA
ATOM     56  C   UNL A   1      41.585  30.132  35.861  1.00  0.00     0.031 C 
ATOM     57  C   UNL A   1      44.382  26.503  31.877  1.00  0.00     0.029 A 
ATOM     58  C   UNL A   1      43.499  27.400  32.456  1.00  0.00     0.049 A 
ATOM     59  H   UNL A   1      41.825  28.359  31.601  1.00  0.00     0.167 HD
ATOM     60  C   UNL A   1      42.593  28.805  34.289  1.00  0.00     0.074 A 
ATOM     61  C   UNL A   1      42.593  29.297  35.650  1.00  0.00     0.031 C 
ATOM     62  C   UNL A   1      43.487  27.909  33.803  1.00  0.00     0.037 A 
BRANCH  49  63
ATOM     63  C   UNL A   1      42.518  26.348  27.910  1.00  0.00     0.064 A 
ATOM     64  C   UNL A   1      43.470  26.817  26.992  1.00  0.00     0.173 A 
ATOM     65  C   UNL A   1      41.959  25.081  27.692  1.00  0.00     0.173 A 
ATOM     66  F   UNL A   1      44.015  28.032  27.146  1.00  0.00    -0.203 F 
ATOM     67  C   UNL A   1      43.834  26.052  25.887  1.00  0.00     0.198 A 
ATOM     68  C   UNL A   1      42.342  24.309  26.599  1.00  0.00     0.198 A 
ATOM     69  F   UNL A   1      41.040  24.592  28.539  1.00  0.00    -0.203 F 
ATOM     70  F   UNL A   1      44.711  26.537  24.998  1.00  0.00    -0.200 F 
ATOM     71  C   UNL A   1      43.274  24.798  25.695  1.00  0.00     0.200 A 
ATOM     72  F   UNL A   1      41.804  23.095  26.417  1.00  0.00    -0.200 F 
ATOM     73  F   UNL A   1      43.625  24.062  24.630  1.00  0.00    -0.200 F 
ENDBRANCH  49  63
BRANCH  50  74
ATOM     74  C   UNL A   1      39.306  31.933  35.529  1.00  0.00     0.064 A 
ATOM     75  C   UNL A   1      39.792  33.228  35.758  1.00  0.00     0.173 A 
ATOM     76  C   UNL A   1      38.384  31.409  36.446  1.00  0.00     0.173 A 
ATOM     77  F   UNL A   1      40.701  33.759  34.927  1.00  0.00    -0.203 F 
ATOM     78  C   UNL A   1      39.387  33.961  36.872  1.00  0.00     0.198 A 
ATOM     79  C   UNL A   1      37.961  32.153  37.546  1.00  0.00     0.198 A 
ATOM     80  F   UNL A   1      37.899  30.170  36.278  1.00  0.00    -0.203 F 
ATOM     81  F   UNL A   1      39.906  35.175  37.097  1.00  0.00    -0.200 F 
ATOM     82  C   UNL A   1      38.468  33.425  37.762  1.00  0.00     0.200 A 
ATOM     83  F   UNL A   1      37.073  31.631  38.403  1.00  0.00    -0.200 F 
ATOM     84  F   UNL A   1      38.085  34.127  38.837  1.00  0.00    -0.200 F 
ENDBRANCH  50  74
BRANCH  62  85
ATOM     85  C   UNL A   1      44.561  27.427  34.733  1.00  0.00     0.064 A 
ATOM     86  C   UNL A   1      45.760  28.134  34.902  1.00  0.00     0.173 A 
ATOM     87  C   UNL A   1      44.361  26.276  35.511  1.00  0.00     0.173 A 
ATOM     88  F   UNL A   1      46.004  29.233  34.172  1.00  0.00    -0.203 F 
ATOM     89  C   UNL A   1      46.729  27.694  35.799  1.00  0.00     0.198 A 
ATOM     90  C   UNL A   1      45.320  25.854  36.427  1.00  0.00     0.198 A 
ATOM     91  F   UNL A   1      43.226  25.570  35.394  1.00  0.00    -0.203 F 
ATOM     92  F   UNL A   1      47.883  28.364  35.917  1.00  0.00    -0.200 F 
ATOM     93  C   UNL A   1      46.504  26.559  36.566  1.00  0.00     0.200 A 
ATOM     94  F   UNL A   1      45.095  24.766  37.177  1.00  0.00    -0.200 F 
ATOM     95  F   UNL A   1      47.434  26.144  37.439  1.00  0.00    -0.200 F 
ENDBRANCH  62  85
ENDBRANCH  36  37
ENDBRANCH  29  31
ENDBRANCH  28  29
ENDBRANCH  27  28
ENDBRANCH  26  27
ENDBRANCH  25  26
ENDBRANCH  24  25
ENDBRANCH   1  24
TORSDOF 20
ENDMDL
MODEL 2
REMARK VINA RESULT:     -10.6      2.118      7.870
REMARK SMILES C[C@@H](NS(=O)(=O)c1ccc2c(c1)CCC2)C(=O)OCCOCCOCCOC(=O)c1ccc(-c2c3nc(c(-c4c(F)c(F)c(F)c(F)c4F)c4ccc([nH]4)c(-c4c(F)c(F)c(F)c(F)c4F)c4nc(c(-c5c(F)c(F)c(F)c(F)c5F)c5ccc2[nH]5)C=C4)C=C3)cc1
REMARK SMILES IDX 22 1 21 2 20 3 19 4 18 5 16 6 17 7 2 8 1 9 3 10 4 12 5 13
REMARK SMILES IDX 6 14 7 15 8 16 12 17 9 18 11 19 10 20 13 21 15 22 14 23
REMARK SMILES IDX 23 24 24 25 25 26 26 27 27 28 28 29 29 30 30 31 31 32 92 33
REMARK SMILES IDX 32 34 91 35 33 36 34 37 35 38 85 39 36 40 90 41 84 42 86 43
REMARK SMILES IDX 37 44 89 45 83 46 82 47 38 49 70 50 50 51 69 52 51 53 54 54
REMARK SMILES IDX 68 55 87 56 52 57 53 58 67 60 88 61 55 62 39 63 40 64 48 65
REMARK SMILES IDX 41 66 42 67 46 68 49 69 43 70 44 71 47 72 45 73 71 74 72 75
REMARK SMILES IDX 80 76 73 77 74 78 78 79 81 80 75 81 76 82 79 83 77 84 56 85
REMARK SMILES IDX 57 86 65 87 58 88 59 89 63 90 66 91 60 92 61 93 64 94 62 95
REMARK H PARENT 3 11 86 48 54 59
REMARK Flexibility Score: inf
ROOT
ATOM      1  C   UNL A   1      32.155  28.098  26.493  1.00  0.00     0.188 C 
ENDROOT
BRANCH   1   2
ATOM      2  O   UNL A   1      33.202  27.852  25.573  1.00  0.00    -0.376 OA
BRANCH   2   3
ATOM      3  C   UNL A   1      33.630  28.922  24.746  1.00  0.00     0.202 C 
BRANCH   3   4
ATOM      4  C   UNL A   1      33.058  28.951  23.340  1.00  0.00     0.261 C 
BRANCH   4   5
ATOM      5  O   UNL A   1      31.660  29.274  23.269  1.00  0.00    -0.462 OA
BRANCH   5   6
ATOM      6  C   UNL A   1      30.863  28.402  22.588  1.00  0.00     0.323 C 
ATOM      7  O   UNL A   1      29.896  28.724  21.908  1.00  0.00    -0.250 OA
BRANCH   6   8
ATOM      8  C   UNL A   1      31.241  26.950  22.861  1.00  0.00     0.176 C 
ATOM      9  C   UNL A   1      30.189  26.215  23.688  1.00  0.00     0.038 C 
BRANCH   8  10
ATOM     10  N   UNL A   1      31.472  26.212  21.598  1.00  0.00    -0.197 NA
ATOM     11  H   UNL A   1      31.201  26.830  20.833  1.00  0.00     0.142 HD
BRANCH  10  12
ATOM     12  S   UNL A   1      33.035  25.660  21.266  1.00  0.00     0.241 S 
ATOM     13  O   UNL A   1      33.031  25.139  19.918  1.00  0.00    -0.207 OA
ATOM     14  O   UNL A   1      33.917  26.737  21.659  1.00  0.00    -0.207 OA
BRANCH  12  15
ATOM     15  C   UNL A   1      33.278  24.335  22.422  1.00  0.00     0.082 A 
ATOM     16  C   UNL A   1      34.316  24.424  23.368  1.00  0.00     0.022 A 
ATOM     17  C   UNL A   1      32.492  23.181  22.311  1.00  0.00     0.025 A 
ATOM     18  C   UNL A   1      34.624  23.328  24.177  1.00  0.00     0.005 A 
ATOM     19  C   UNL A   1      32.802  22.105  23.131  1.00  0.00    -0.043 A 
ATOM     20  C   UNL A   1      33.872  22.171  24.033  1.00  0.00    -0.045 A 
ATOM     21  C   UNL A   1      32.222  20.724  23.089  1.00  0.00     0.036 C 
ATOM     22  C   UNL A   1      34.147  20.827  24.634  1.00  0.00     0.036 C 
ATOM     23  C   UNL A   1      32.835  20.087  24.345  1.00  0.00     0.010 C 
ENDBRANCH  12  15
ENDBRANCH  10  12
ENDBRANCH   8  10
ENDBRANCH   6   8
ENDBRANCH   5   6
ENDBRANCH   4   5
ENDBRANCH   3   4
ENDBRANCH   2   3
ENDBRANCH   1   2
BRANCH   1  24
ATOM     24  C   UNL A   1      32.132  29.435  27.253  1.00  0.00     0.188 C 
BRANCH  24  25
ATOM     25  O   UNL A   1      32.470  30.659  26.621  1.00  0.00    -0.376 OA
BRANCH  25  26
ATOM     26  C   UNL A   1      31.496  31.683  26.502  1.00  0.00     0.202 C 
BRANCH  26  27
ATOM     27  C   UNL A   1      31.832  33.074  27.044  1.00  0.00     0.261 C 
BRANCH  27  28
ATOM     28  O   UNL A   1      33.235  33.373  27.019  1.00  0.00    -0.460 OA
BRANCH  28  29
ATOM     29  C   UNL A   1      33.763  33.758  28.205  1.00  0.00     0.338 C 
ATOM     30  O   UNL A   1      33.263  34.500  29.033  1.00  0.00    -0.246 OA
BRANCH  29  31
ATOM     31  C   UNL A   1      34.992  32.979  28.467  1.00  0.00     0.060 A 
ATOM     32  C   UNL A   1      34.851  31.606  28.715  1.00  0.00     0.016 A 
ATOM     33  C   UNL A   1      36.253  33.576  28.488  1.00  0.00     0.016 A 
ATOM     34  C   UNL A   1      35.966  30.832  29.026  1.00  0.00     0.010 A 
ATOM     35  C   UNL A   1      37.368  32.806  28.831  1.00  0.00     0.010 A 
ATOM     36  C   UNL A   1      37.221  31.442  29.141  1.00  0.00    -0.014 A 
BRANCH  36  37
ATOM     37  C   UNL A   1      38.309  30.723  29.841  1.00  0.00     0.031 A 
ATOM     38  C   UNL A   1      38.558  31.071  31.283  1.00  0.00     0.074 A 
ATOM     39  C   UNL A   1      39.043  29.776  29.234  1.00  0.00     0.049 A 
ATOM     40  N   UNL A   1      39.476  30.627  32.102  1.00  0.00    -0.248 NA
ATOM     41  C   UNL A   1      37.642  32.058  31.881  1.00  0.00     0.031 C 
ATOM     42  C   UNL A   1      38.862  29.310  27.862  1.00  0.00     0.029 A 
ATOM     43  N   UNL A   1      40.101  29.040  29.707  1.00  0.00    -0.354 N 
ATOM     44  C   UNL A   1      39.247  31.277  33.306  1.00  0.00     0.074 A 
ATOM     45  C   UNL A   1      38.121  32.162  33.110  1.00  0.00     0.031 C 
ATOM     46  C   UNL A   1      39.794  28.377  27.595  1.00  0.00     0.029 A 
ATOM     47  C   UNL A   1      40.650  28.204  28.768  1.00  0.00     0.049 A 
ATOM     48  H   UNL A   1      40.434  29.107  30.631  1.00  0.00     0.167 HD
ATOM     49  C   UNL A   1      39.914  31.145  34.477  1.00  0.00     0.037 A 
ATOM     50  C   UNL A   1      41.737  27.410  28.848  1.00  0.00     0.037 A 
ATOM     51  C   UNL A   1      41.042  30.280  34.672  1.00  0.00     0.049 A 
ATOM     52  C   UNL A   1      42.519  27.348  30.137  1.00  0.00     0.074 A 
ATOM     53  C   UNL A   1      41.787  30.078  35.819  1.00  0.00     0.029 A 
ATOM     54  N   UNL A   1      41.594  29.477  33.685  1.00  0.00    -0.354 N 
ATOM     55  N   UNL A   1      42.289  27.954  31.277  1.00  0.00    -0.248 NA
ATOM     56  C   UNL A   1      43.716  26.493  30.146  1.00  0.00     0.031 C 
ATOM     57  C   UNL A   1      42.819  29.183  35.515  1.00  0.00     0.029 A 
ATOM     58  C   UNL A   1      42.687  28.795  34.192  1.00  0.00     0.049 A 
ATOM     59  H   UNL A   1      41.259  29.403  32.763  1.00  0.00     0.167 HD
ATOM     60  C   UNL A   1      43.291  27.533  32.143  1.00  0.00     0.074 A 
ATOM     61  C   UNL A   1      44.127  26.614  31.400  1.00  0.00     0.031 C 
ATOM     62  C   UNL A   1      43.500  27.875  33.438  1.00  0.00     0.037 A 
BRANCH  49  63
ATOM     63  C   UNL A   1      39.452  31.992  35.623  1.00  0.00     0.064 A 
ATOM     64  C   UNL A   1      39.969  33.277  35.842  1.00  0.00     0.173 A 
ATOM     65  C   UNL A   1      38.478  31.512  36.511  1.00  0.00     0.173 A 
ATOM     66  F   UNL A   1      40.919  33.769  35.034  1.00  0.00    -0.203 F 
ATOM     67  C   UNL A   1      39.541  34.045  36.922  1.00  0.00     0.198 A 
ATOM     68  C   UNL A   1      38.035  32.292  37.576  1.00  0.00     0.198 A 
ATOM     69  F   UNL A   1      37.958  30.287  36.346  1.00  0.00    -0.203 F 
ATOM     70  F   UNL A   1      40.081  35.252  37.139  1.00  0.00    -0.200 F 
ATOM     71  C   UNL A   1      38.571  33.554  37.783  1.00  0.00     0.200 A 
ATOM     72  F   UNL A   1      37.095  31.819  38.404  1.00  0.00    -0.200 F 
ATOM     73  F   UNL A   1      38.160  34.295  38.822  1.00  0.00    -0.200 F 
ENDBRANCH  49  63
BRANCH  50  74
ATOM     74  C   UNL A   1      42.172  26.621  27.666  1.00  0.00     0.064 A 
ATOM     75  C   UNL A   1      41.646  25.346  27.414  1.00  0.00     0.173 A 
ATOM     76  C   UNL A   1      43.151  27.110  26.790  1.00  0.00     0.173 A 
ATOM     77  F   UNL A   1      40.731  24.823  28.244  1.00  0.00    -0.203 F 
ATOM     78  C   UNL A   1      42.096  24.583  26.339  1.00  0.00     0.198 A 
ATOM     79  C   UNL A   1      43.583  26.355  25.701  1.00  0.00     0.198 A 
ATOM     80  F   UNL A   1      43.695  28.318  26.995  1.00  0.00    -0.203 F 
ATOM     81  F   UNL A   1      41.615  23.347  26.149  1.00  0.00    -0.200 F 
ATOM     82  C   UNL A   1      43.061  25.090  25.480  1.00  0.00     0.200 A 
ATOM     83  F   UNL A   1      44.514  26.848  24.874  1.00  0.00    -0.200 F 
ATOM     84  F   UNL A   1      43.499  24.352  24.451  1.00  0.00    -0.200 F 
ENDBRANCH  50  74
BRANCH  62  85
ATOM     85  C   UNL A   1      44.653  27.231  34.149  1.00  0.00     0.064 A 
ATOM     86  C   UNL A   1      45.912  27.846  34.217  1.00  0.00     0.173 A 
ATOM     87  C   UNL A   1      44.480  26.011  34.820  1.00  0.00     0.173 A 
ATOM     88  F   UNL A   1      46.131  29.006  33.580  1.00  0.00    -0.203 F 
ATOM     89  C   UNL A   1      46.960  27.252  34.915  1.00  0.00     0.198 A 
ATOM     90  C   UNL A   1      45.522  25.433  35.540  1.00  0.00     0.198 A 
ATOM     91  F   UNL A   1      43.292  25.387  34.794  1.00  0.00    -0.203 F 
ATOM     92  F   UNL A   1      48.165  27.839  34.936  1.00  0.00    -0.200 F 
ATOM     93  C   UNL A   1      46.762  26.052  35.582  1.00  0.00     0.200 A 
ATOM     94  F   UNL A   1      45.326  24.281  36.195  1.00  0.00    -0.200 F 
ATOM     95  F   UNL A   1      47.770  25.488  36.263  1.00  0.00    -0.200 F 
ENDBRANCH  62  85
ENDBRANCH  36  37
ENDBRANCH  29  31
ENDBRANCH  28  29
ENDBRANCH  27  28
ENDBRANCH  26  27
ENDBRANCH  25  26
ENDBRANCH  24  25
ENDBRANCH   1  24
TORSDOF 20
ENDMDL
MODEL 3
REMARK VINA RESULT:     -10.6      4.234      7.483
REMARK SMILES C[C@@H](NS(=O)(=O)c1ccc2c(c1)CCC2)C(=O)OCCOCCOCCOC(=O)c1ccc(-c2c3nc(c(-c4c(F)c(F)c(F)c(F)c4F)c4ccc([nH]4)c(-c4c(F)c(F)c(F)c(F)c4F)c4nc(c(-c5c(F)c(F)c(F)c(F)c5F)c5ccc2[nH]5)C=C4)C=C3)cc1
REMARK SMILES IDX 22 1 21 2 20 3 19 4 18 5 16 6 17 7 2 8 1 9 3 10 4 12 5 13
REMARK SMILES IDX 6 14 7 15 8 16 12 17 9 18 11 19 10 20 13 21 15 22 14 23
REMARK SMILES IDX 23 24 24 25 25 26 26 27 27 28 28 29 29 30 30 31 31 32 92 33
REMARK SMILES IDX 32 34 91 35 33 36 34 37 35 38 85 39 36 40 90 41 84 42 86 43
REMARK SMILES IDX 37 44 89 45 83 46 82 47 38 49 70 50 50 51 69 52 51 53 54 54
REMARK SMILES IDX 68 55 87 56 52 57 53 58 67 60 88 61 55 62 39 63 40 64 48 65
REMARK SMILES IDX 41 66 42 67 46 68 49 69 43 70 44 71 47 72 45 73 71 74 72 75
REMARK SMILES IDX 80 76 73 77 74 78 78 79 81 80 75 81 76 82 79 83 77 84 56 85
REMARK SMILES IDX 57 86 65 87 58 88 59 89 63 90 66 91 60 92 61 93 64 94 62 95
REMARK H PARENT 3 11 86 48 54 59
REMARK Flexibility Score: inf
ROOT
ATOM      1  C   UNL A   1      35.934  22.802  24.976  1.00  0.00     0.188 C 
ENDROOT
BRANCH   1   2
ATOM      2  O   UNL A   1      35.099  22.802  26.119  1.00  0.00    -0.376 OA
BRANCH   2   3
ATOM      3  C   UNL A   1      34.394  21.612  26.432  1.00  0.00     0.202 C 
BRANCH   3   4
ATOM      4  C   UNL A   1      33.992  20.744  25.254  1.00  0.00     0.261 C 
BRANCH   4   5
ATOM      5  O   UNL A   1      32.578  20.698  24.999  1.00  0.00    -0.462 OA
BRANCH   5   6
ATOM      6  C   UNL A   1      31.989  21.863  24.601  1.00  0.00     0.323 C 
ATOM      7  O   UNL A   1      31.184  22.502  25.269  1.00  0.00    -0.250 OA
BRANCH   6   8
ATOM      8  C   UNL A   1      32.357  22.228  23.167  1.00  0.00     0.176 C 
ATOM      9  C   UNL A   1      32.008  21.124  22.172  1.00  0.00     0.038 C 
BRANCH   8  10
ATOM     10  N   UNL A   1      31.696  23.487  22.751  1.00  0.00    -0.197 NA
ATOM     11  H   UNL A   1      31.005  23.716  23.465  1.00  0.00     0.142 HD
BRANCH  10  12
ATOM     12  S   UNL A   1      32.657  24.860  22.526  1.00  0.00     0.241 S 
ATOM     13  O   UNL A   1      34.031  24.417  22.460  1.00  0.00    -0.207 OA
ATOM     14  O   UNL A   1      32.042  25.588  21.438  1.00  0.00    -0.207 OA
BRANCH  12  15
ATOM     15  C   UNL A   1      32.402  25.810  24.003  1.00  0.00     0.082 A 
ATOM     16  C   UNL A   1      31.137  25.806  24.619  1.00  0.00     0.022 A 
ATOM     17  C   UNL A   1      33.440  26.623  24.478  1.00  0.00     0.025 A 
ATOM     18  C   UNL A   1      30.873  26.668  25.686  1.00  0.00     0.005 A 
ATOM     19  C   UNL A   1      33.165  27.465  25.546  1.00  0.00    -0.043 A 
ATOM     20  C   UNL A   1      31.889  27.505  26.123  1.00  0.00    -0.045 A 
ATOM     21  C   UNL A   1      34.046  28.532  26.122  1.00  0.00     0.036 C 
ATOM     22  C   UNL A   1      31.778  28.638  27.096  1.00  0.00     0.036 C 
ATOM     23  C   UNL A   1      33.254  28.956  27.367  1.00  0.00     0.010 C 
ENDBRANCH  12  15
ENDBRANCH  10  12
ENDBRANCH   8  10
ENDBRANCH   6   8
ENDBRANCH   5   6
ENDBRANCH   4   5
ENDBRANCH   3   4
ENDBRANCH   2   3
ENDBRANCH   1   2
BRANCH   1  24
ATOM     24  C   UNL A   1      37.342  22.191  25.085  1.00  0.00     0.188 C 
BRANCH  24  25
ATOM     25  O   UNL A   1      37.561  20.923  25.681  1.00  0.00    -0.376 OA
BRANCH  25  26
ATOM     26  C   UNL A   1      38.344  19.953  25.005  1.00  0.00     0.202 C 
BRANCH  26  27
ATOM     27  C   UNL A   1      39.533  19.334  25.743  1.00  0.00     0.261 C 
BRANCH  27  28
ATOM     28  O   UNL A   1      40.702  20.164  25.741  1.00  0.00    -0.460 OA
BRANCH  28  29
ATOM     29  C   UNL A   1      41.349  20.250  26.928  1.00  0.00     0.338 C 
ATOM     30  O   UNL A   1      41.955  19.365  27.507  1.00  0.00    -0.246 OA
BRANCH  29  31
ATOM     31  C   UNL A   1      41.392  21.663  27.358  1.00  0.00     0.060 A 
ATOM     32  C   UNL A   1      40.698  22.601  26.580  1.00  0.00     0.016 A 
ATOM     33  C   UNL A   1      42.108  22.070  28.486  1.00  0.00     0.016 A 
ATOM     34  C   UNL A   1      40.750  23.955  26.902  1.00  0.00     0.010 A 
ATOM     35  C   UNL A   1      42.186  23.431  28.791  1.00  0.00     0.010 A 
ATOM     36  C   UNL A   1      41.542  24.380  27.976  1.00  0.00    -0.014 A 
BRANCH  36  37
ATOM     37  C   UNL A   1      41.911  25.811  28.076  1.00  0.00     0.031 A 
ATOM     38  C   UNL A   1      43.232  26.231  27.493  1.00  0.00     0.074 A 
ATOM     39  C   UNL A   1      41.099  26.717  28.643  1.00  0.00     0.049 A 
ATOM     40  N   UNL A   1      43.809  27.405  27.493  1.00  0.00    -0.248 NA
ATOM     41  C   UNL A   1      44.008  25.178  26.814  1.00  0.00     0.031 C 
ATOM     42  C   UNL A   1      39.773  26.445  29.192  1.00  0.00     0.029 A 
ATOM     43  N   UNL A   1      41.286  28.061  28.855  1.00  0.00    -0.354 N 
ATOM     44  C   UNL A   1      45.008  27.231  26.818  1.00  0.00     0.074 A 
ATOM     45  C   UNL A   1      45.092  25.838  26.441  1.00  0.00     0.031 C 
ATOM     46  C   UNL A   1      39.271  27.587  29.698  1.00  0.00     0.029 A 
ATOM     47  C   UNL A   1      40.253  28.659  29.532  1.00  0.00     0.049 A 
ATOM     48  H   UNL A   1      42.086  28.548  28.551  1.00  0.00     0.167 HD
ATOM     49  C   UNL A   1      45.957  28.153  26.533  1.00  0.00     0.037 A 
ATOM     50  C   UNL A   1      40.133  29.923  29.983  1.00  0.00     0.037 A 
ATOM     51  C   UNL A   1      45.886  29.533  26.919  1.00  0.00     0.049 A 
ATOM     52  C   UNL A   1      41.246  30.911  29.733  1.00  0.00     0.074 A 
ATOM     53  C   UNL A   1      46.798  30.545  26.680  1.00  0.00     0.029 A 
ATOM     54  N   UNL A   1      44.842  30.093  27.639  1.00  0.00    -0.354 N 
ATOM     55  N   UNL A   1      42.372  30.745  29.081  1.00  0.00    -0.248 NA
ATOM     56  C   UNL A   1      41.069  32.262  30.285  1.00  0.00     0.031 C 
ATOM     57  C   UNL A   1      46.325  31.710  27.293  1.00  0.00     0.029 A 
ATOM     58  C   UNL A   1      45.097  31.433  27.874  1.00  0.00     0.049 A 
ATOM     59  H   UNL A   1      44.038  29.610  27.938  1.00  0.00     0.167 HD
ATOM     60  C   UNL A   1      43.022  31.973  29.121  1.00  0.00     0.074 A 
ATOM     61  C   UNL A   1      42.162  32.877  29.853  1.00  0.00     0.031 C 
ATOM     62  C   UNL A   1      44.223  32.320  28.596  1.00  0.00     0.037 A 
BRANCH  49  63
ATOM     63  C   UNL A   1      47.171  27.676  25.795  1.00  0.00     0.064 A 
ATOM     64  C   UNL A   1      47.249  27.734  24.396  1.00  0.00     0.173 A 
ATOM     65  C   UNL A   1      48.269  27.160  26.497  1.00  0.00     0.173 A 
ATOM     66  F   UNL A   1      46.213  28.198  23.681  1.00  0.00    -0.203 F 
ATOM     67  C   UNL A   1      48.377  27.272  23.724  1.00  0.00     0.198 A 
ATOM     68  C   UNL A   1      49.406  26.721  25.823  1.00  0.00     0.198 A 
ATOM     69  F   UNL A   1      48.240  27.079  27.835  1.00  0.00    -0.203 F 
ATOM     70  F   UNL A   1      48.413  27.294  22.384  1.00  0.00    -0.200 F 
ATOM     71  C   UNL A   1      49.456  26.772  24.438  1.00  0.00     0.200 A 
ATOM     72  F   UNL A   1      50.449  26.242  26.514  1.00  0.00    -0.200 F 
ATOM     73  F   UNL A   1      50.542  26.328  23.789  1.00  0.00    -0.200 F 
ENDBRANCH  49  63
BRANCH  50  74
ATOM     74  C   UNL A   1      38.923  30.331  30.744  1.00  0.00     0.064 A 
ATOM     75  C   UNL A   1      37.795  30.841  30.087  1.00  0.00     0.173 A 
ATOM     76  C   UNL A   1      38.888  30.257  32.143  1.00  0.00     0.173 A 
ATOM     77  F   UNL A   1      37.795  30.963  28.751  1.00  0.00    -0.203 F 
ATOM     78  C   UNL A   1      36.682  31.278  30.804  1.00  0.00     0.198 A 
ATOM     79  C   UNL A   1      37.765  30.671  32.857  1.00  0.00     0.198 A 
ATOM     80  F   UNL A   1      39.947  29.788  32.819  1.00  0.00    -0.203 F 
ATOM     81  F   UNL A   1      35.637  31.809  30.156  1.00  0.00    -0.200 F 
ATOM     82  C   UNL A   1      36.667  31.188  32.188  1.00  0.00     0.200 A 
ATOM     83  F   UNL A   1      37.754  30.581  34.194  1.00  0.00    -0.200 F 
ATOM     84  F   UNL A   1      35.599  31.615  32.878  1.00  0.00    -0.200 F 
ENDBRANCH  50  74
BRANCH  62  85
ATOM     85  C   UNL A   1      44.666  33.744  28.762  1.00  0.00     0.064 A 
ATOM     86  C   UNL A   1      44.301  34.740  27.845  1.00  0.00     0.173 A 
ATOM     87  C   UNL A   1      45.415  34.127  29.886  1.00  0.00     0.173 A 
ATOM     88  F   UNL A   1      43.596  34.421  26.748  1.00  0.00    -0.203 F 
ATOM     89  C   UNL A   1      44.687  36.064  28.036  1.00  0.00     0.198 A 
ATOM     90  C   UNL A   1      45.776  35.456  30.088  1.00  0.00     0.198 A 
ATOM     91  F   UNL A   1      45.780  33.213  30.798  1.00  0.00    -0.203 F 
ATOM     92  F   UNL A   1      44.359  36.992  27.128  1.00  0.00    -0.200 F 
ATOM     93  C   UNL A   1      45.417  36.421  29.160  1.00  0.00     0.200 A 
ATOM     94  F   UNL A   1      46.468  35.802  31.181  1.00  0.00    -0.200 F 
ATOM     95  F   UNL A   1      45.777  37.699  29.348  1.00  0.00    -0.200 F 
ENDBRANCH  62  85
ENDBRANCH  36  37
ENDBRANCH  29  31
ENDBRANCH  28  29
ENDBRANCH  27  28
ENDBRANCH  26  27
ENDBRANCH  25  26
ENDBRANCH  24  25
ENDBRANCH   1  24
TORSDOF 20
ENDMDL
