MODEL 1
REMARK VINA RESULT:     -10.5      0.000      0.000
REMARK SMILES C[C@H]1CCc2sc3ncn4nc(/C=C\C(=O)OCCOCCOCCOC(=O)c5ccc(-c6c7nc(c(-c8c(F)c(F)c(F)c(F)c8F)c8ccc([nH]8)c(-c8c(F)c(F)c(F)c(F)c8F)c8nc(c(-c9c(F)c(F)c(F)c(F)c9F)c9ccc6[nH]9)C=C8)C=C7)cc5)nc4c3c2C1
REMARK SMILES IDX 22 1 21 2 20 3 19 4 18 5 17 6 15 7 16 8 14 9 13 10 12 11
REMARK SMILES IDX 1 12 2 13 3 14 96 15 4 16 95 17 5 18 94 19 6 20 7 21 93 22
REMARK SMILES IDX 8 23 10 24 92 25 9 26 11 27 23 28 24 29 25 30 26 31 27 32
REMARK SMILES IDX 28 33 29 34 30 35 91 36 31 37 90 38 32 39 33 40 34 41 84 42
REMARK SMILES IDX 35 43 89 44 83 45 85 46 36 47 88 48 82 49 81 50 37 52 69 53
REMARK SMILES IDX 49 54 68 55 50 56 53 57 67 58 86 59 51 60 52 61 66 63 87 64
REMARK SMILES IDX 54 65 38 66 39 67 47 68 40 69 41 70 45 71 48 72 42 73 43 74
REMARK SMILES IDX 46 75 44 76 70 77 71 78 79 79 72 80 73 81 77 82 80 83 74 84
REMARK SMILES IDX 75 85 78 86 76 87 55 88 56 89 64 90 57 91 58 92 62 93 65 94
REMARK SMILES IDX 59 95 60 96 63 97 61 98
REMARK H PARENT 85 51 53 62
REMARK Flexibility Score: inf
ROOT
ATOM      1  C   UNL A   1      32.370  36.052  31.166  1.00  0.00     0.188 C 
ENDROOT
BRANCH   1   2
ATOM      2  C   UNL A   1      33.313  37.259  31.389  1.00  0.00     0.188 C 
BRANCH   2   3
ATOM      3  O   UNL A   1      34.298  37.229  32.402  1.00  0.00    -0.376 OA
BRANCH   3   4
ATOM      4  C   UNL A   1      34.014  36.552  33.621  1.00  0.00     0.202 C 
BRANCH   4   5
ATOM      5  C   UNL A   1      34.777  35.285  34.031  1.00  0.00     0.261 C 
BRANCH   5   6
ATOM      6  O   UNL A   1      34.345  34.109  33.338  1.00  0.00    -0.460 OA
BRANCH   6   7
ATOM      7  C   UNL A   1      35.190  33.630  32.402  1.00  0.00     0.330 C 
ATOM      8  O   UNL A   1      35.611  34.244  31.431  1.00  0.00    -0.247 OA
BRANCH   7   9
ATOM      9  C   UNL A   1      35.778  32.332  32.781  1.00  0.00     0.097 C 
ATOM     10  C   UNL A   1      37.002  32.031  33.238  1.00  0.00     0.058 C 
BRANCH  10  11
ATOM     11  C   UNL A   1      38.124  32.861  33.516  1.00  0.00     0.175 A 
ATOM     12  C   UNL A   1      41.536  35.704  28.379  1.00  0.00     0.008 C 
ATOM     13  C   UNL A   1      42.118  34.439  29.011  1.00  0.00    -0.009 C 
ATOM     14  C   UNL A   1      43.623  34.585  29.334  1.00  0.00     0.009 C 
ATOM     15  C   UNL A   1      41.300  34.025  30.249  1.00  0.00     0.041 C 
ATOM     16  C   UNL A   1      43.922  35.554  30.493  1.00  0.00     0.047 C 
ATOM     17  C   UNL A   1      41.778  34.641  31.518  1.00  0.00    -0.020 A 
ATOM     18  C   UNL A   1      42.977  35.315  31.628  1.00  0.00     0.011 A 
ATOM     19  C   UNL A   1      41.140  34.579  32.773  1.00  0.00     0.060 A 
ATOM     20  S   UNL A   1      43.275  35.886  33.212  1.00  0.00    -0.120 S 
ATOM     21  C   UNL A   1      41.820  35.203  33.807  1.00  0.00     0.129 A 
ATOM     22  C   UNL A   1      39.887  33.933  33.183  1.00  0.00     0.168 A 
ATOM     23  N   UNL A   1      41.445  35.283  35.129  1.00  0.00    -0.225 NA
ATOM     24  N   UNL A   1      39.563  33.988  34.501  1.00  0.00    -0.201 N 
ATOM     25  N   UNL A   1      38.972  33.279  32.518  1.00  0.00    -0.207 NA
ATOM     26  C   UNL A   1      40.330  34.668  35.446  1.00  0.00     0.227 A 
ATOM     27  N   UNL A   1      38.434  33.304  34.751  1.00  0.00    -0.145 NA
ENDBRANCH  10  11
ENDBRANCH   7   9
ENDBRANCH   6   7
ENDBRANCH   5   6
ENDBRANCH   4   5
ENDBRANCH   3   4
ENDBRANCH   2   3
ENDBRANCH   1   2
BRANCH   1  28
ATOM     28  O   UNL A   1      32.369  35.280  29.983  1.00  0.00    -0.376 OA
BRANCH  28  29
ATOM     29  C   UNL A   1      33.517  35.030  29.191  1.00  0.00     0.202 C 
BRANCH  29  30
ATOM     30  C   UNL A   1      33.744  33.763  28.382  1.00  0.00     0.261 C 
BRANCH  30  31
ATOM     31  O   UNL A   1      34.451  32.771  29.098  1.00  0.00    -0.460 OA
BRANCH  31  32
ATOM     32  C   UNL A   1      34.605  31.635  28.410  1.00  0.00     0.338 C 
ATOM     33  O   UNL A   1      33.716  30.872  28.002  1.00  0.00    -0.246 OA
BRANCH  32  34
ATOM     34  C   UNL A   1      36.013  31.359  28.214  1.00  0.00     0.060 A 
ATOM     35  C   UNL A   1      36.334  30.151  27.591  1.00  0.00     0.016 A 
ATOM     36  C   UNL A   1      36.957  32.135  28.900  1.00  0.00     0.016 A 
ATOM     37  C   UNL A   1      37.562  29.602  27.851  1.00  0.00     0.010 A 
ATOM     38  C   UNL A   1      38.183  31.581  29.166  1.00  0.00     0.010 A 
ATOM     39  C   UNL A   1      38.423  30.285  28.720  1.00  0.00    -0.014 A 
BRANCH  39  40
ATOM     40  C   UNL A   1      39.593  29.569  29.167  1.00  0.00     0.031 A 
ATOM     41  C   UNL A   1      39.816  29.665  30.616  1.00  0.00     0.074 A 
ATOM     42  C   UNL A   1      40.361  28.868  28.314  1.00  0.00     0.049 A 
ATOM     43  N   UNL A   1      40.779  30.274  31.219  1.00  0.00    -0.248 NA
ATOM     44  C   UNL A   1      38.772  29.141  31.508  1.00  0.00     0.031 C 
ATOM     45  C   UNL A   1      40.033  28.492  26.935  1.00  0.00     0.029 A 
ATOM     46  N   UNL A   1      41.555  28.250  28.531  1.00  0.00    -0.354 N 
ATOM     47  C   UNL A   1      40.582  30.018  32.567  1.00  0.00     0.074 A 
ATOM     48  C   UNL A   1      39.253  29.484  32.703  1.00  0.00     0.031 C 
ATOM     49  C   UNL A   1      40.881  27.523  26.528  1.00  0.00     0.029 A 
ATOM     50  C   UNL A   1      41.891  27.325  27.555  1.00  0.00     0.049 A 
ATOM     51  H   UNL A   1      42.126  28.443  29.309  1.00  0.00     0.167 HD
ATOM     52  C   UNL A   1      41.647  29.965  33.409  1.00  0.00     0.037 A 
ATOM     53  C   UNL A   1      42.883  26.409  27.639  1.00  0.00     0.037 A 
ATOM     54  C   UNL A   1      42.820  30.555  32.822  1.00  0.00     0.049 A 
ATOM     55  C   UNL A   1      43.880  26.906  28.620  1.00  0.00     0.074 A 
ATOM     56  C   UNL A   1      43.343  31.819  32.673  1.00  0.00     0.029 A 
ATOM     57  N   UNL A   1      43.474  29.737  31.942  1.00  0.00    -0.354 N 
ATOM     58  N   UNL A   1      44.610  27.972  28.434  1.00  0.00    -0.248 NA
ATOM     59  C   UNL A   1      43.866  26.389  29.987  1.00  0.00     0.031 C 
ATOM     60  C   UNL A   1      44.283  31.747  31.601  1.00  0.00     0.029 A 
ATOM     61  C   UNL A   1      44.322  30.439  31.127  1.00  0.00     0.049 A 
ATOM     62  H   UNL A   1      43.351  28.761  31.900  1.00  0.00     0.167 HD
ATOM     63  C   UNL A   1      44.791  28.481  29.703  1.00  0.00     0.074 A 
ATOM     64  C   UNL A   1      44.486  27.391  30.616  1.00  0.00     0.031 C 
ATOM     65  C   UNL A   1      44.825  29.826  29.920  1.00  0.00     0.037 A 
BRANCH  52  66
ATOM     66  C   UNL A   1      41.763  28.965  34.528  1.00  0.00     0.064 A 
ATOM     67  C   UNL A   1      42.470  29.314  35.693  1.00  0.00     0.173 A 
ATOM     68  C   UNL A   1      41.475  27.590  34.374  1.00  0.00     0.173 A 
ATOM     69  F   UNL A   1      42.837  30.586  35.911  1.00  0.00    -0.203 F 
ATOM     70  C   UNL A   1      42.881  28.352  36.620  1.00  0.00     0.198 A 
ATOM     71  C   UNL A   1      41.836  26.641  35.328  1.00  0.00     0.198 A 
ATOM     72  F   UNL A   1      40.946  27.097  33.247  1.00  0.00    -0.203 F 
ATOM     73  F   UNL A   1      43.642  28.712  37.661  1.00  0.00    -0.200 F 
ATOM     74  C   UNL A   1      42.559  27.017  36.438  1.00  0.00     0.200 A 
ATOM     75  F   UNL A   1      41.542  25.350  35.117  1.00  0.00    -0.200 F 
ATOM     76  F   UNL A   1      42.987  26.090  37.303  1.00  0.00    -0.200 F 
ENDBRANCH  52  66
BRANCH  53  77
ATOM     77  C   UNL A   1      42.848  24.995  27.195  1.00  0.00     0.064 A 
ATOM     78  C   UNL A   1      41.976  24.083  27.815  1.00  0.00     0.173 A 
ATOM     79  C   UNL A   1      43.420  24.584  25.975  1.00  0.00     0.173 A 
ATOM     80  F   UNL A   1      41.372  24.405  28.967  1.00  0.00    -0.203 F 
ATOM     81  C   UNL A   1      41.641  22.867  27.215  1.00  0.00     0.198 A 
ATOM     82  C   UNL A   1      43.096  23.363  25.384  1.00  0.00     0.198 A 
ATOM     83  F   UNL A   1      44.226  25.397  25.277  1.00  0.00    -0.203 F 
ATOM     84  F   UNL A   1      40.733  22.067  27.790  1.00  0.00    -0.200 F 
ATOM     85  C   UNL A   1      42.186  22.516  25.991  1.00  0.00     0.200 A 
ATOM     86  F   UNL A   1      43.610  23.047  24.188  1.00  0.00    -0.200 F 
ATOM     87  F   UNL A   1      41.804  21.388  25.377  1.00  0.00    -0.200 F 
ENDBRANCH  53  77
BRANCH  65  88
ATOM     88  C   UNL A   1      45.240  30.700  28.781  1.00  0.00     0.064 A 
ATOM     89  C   UNL A   1      44.352  31.267  27.852  1.00  0.00     0.173 A 
ATOM     90  C   UNL A   1      46.599  31.017  28.657  1.00  0.00     0.173 A 
ATOM     91  F   UNL A   1      43.031  31.067  27.951  1.00  0.00    -0.203 F 
ATOM     92  C   UNL A   1      44.817  32.082  26.821  1.00  0.00     0.198 A 
ATOM     93  C   UNL A   1      47.055  31.859  27.650  1.00  0.00     0.198 A 
ATOM     94  F   UNL A   1      47.485  30.529  29.540  1.00  0.00    -0.203 F 
ATOM     95  F   UNL A   1      43.957  32.595  25.929  1.00  0.00    -0.200 F 
ATOM     96  C   UNL A   1      46.167  32.382  26.726  1.00  0.00     0.200 A 
ATOM     97  F   UNL A   1      48.357  32.176  27.585  1.00  0.00    -0.200 F 
ATOM     98  F   UNL A   1      46.610  33.191  25.752  1.00  0.00    -0.200 F 
ENDBRANCH  65  88
ENDBRANCH  39  40
ENDBRANCH  32  34
ENDBRANCH  31  32
ENDBRANCH  30  31
ENDBRANCH  29  30
ENDBRANCH  28  29
ENDBRANCH   1  28
TORSDOF 18
ENDMDL
MODEL 2
REMARK VINA RESULT:     -10.3      4.861      8.617
REMARK SMILES C[C@H]1CCc2sc3ncn4nc(/C=C\C(=O)OCCOCCOCCOC(=O)c5ccc(-c6c7nc(c(-c8c(F)c(F)c(F)c(F)c8F)c8ccc([nH]8)c(-c8c(F)c(F)c(F)c(F)c8F)c8nc(c(-c9c(F)c(F)c(F)c(F)c9F)c9ccc6[nH]9)C=C8)C=C7)cc5)nc4c3c2C1
REMARK SMILES IDX 22 1 21 2 20 3 19 4 18 5 17 6 15 7 16 8 14 9 13 10 12 11
REMARK SMILES IDX 1 12 2 13 3 14 96 15 4 16 95 17 5 18 94 19 6 20 7 21 93 22
REMARK SMILES IDX 8 23 10 24 92 25 9 26 11 27 23 28 24 29 25 30 26 31 27 32
REMARK SMILES IDX 28 33 29 34 30 35 91 36 31 37 90 38 32 39 33 40 34 41 84 42
REMARK SMILES IDX 35 43 89 44 83 45 85 46 36 47 88 48 82 49 81 50 37 52 69 53
REMARK SMILES IDX 49 54 68 55 50 56 53 57 67 58 86 59 51 60 52 61 66 63 87 64
REMARK SMILES IDX 54 65 38 66 39 67 47 68 40 69 41 70 45 71 48 72 42 73 43 74
REMARK SMILES IDX 46 75 44 76 70 77 71 78 79 79 72 80 73 81 77 82 80 83 74 84
REMARK SMILES IDX 75 85 78 86 76 87 55 88 56 89 64 90 57 91 58 92 62 93 65 94
REMARK SMILES IDX 59 95 60 96 63 97 61 98
REMARK H PARENT 85 51 53 62
REMARK Flexibility Score: inf
ROOT
ATOM      1  C   UNL A   1      32.771  28.202  26.909  1.00  0.00     0.188 C 
ENDROOT
BRANCH   1   2
ATOM      2  C   UNL A   1      31.532  28.603  26.073  1.00  0.00     0.188 C 
BRANCH   2   3
ATOM      3  O   UNL A   1      31.602  28.665  24.662  1.00  0.00    -0.376 OA
BRANCH   3   4
ATOM      4  C   UNL A   1      30.393  28.710  23.913  1.00  0.00     0.202 C 
BRANCH   4   5
ATOM      5  C   UNL A   1      29.701  27.429  23.428  1.00  0.00     0.261 C 
BRANCH   5   6
ATOM      6  O   UNL A   1      30.613  26.372  23.111  1.00  0.00    -0.460 OA
BRANCH   6   7
ATOM      7  C   UNL A   1      30.362  25.180  23.693  1.00  0.00     0.330 C 
ATOM      8  O   UNL A   1      30.331  24.096  23.126  1.00  0.00    -0.247 OA
BRANCH   7   9
ATOM      9  C   UNL A   1      30.364  25.257  25.165  1.00  0.00     0.097 C 
ATOM     10  C   UNL A   1      31.237  24.777  26.061  1.00  0.00     0.058 C 
BRANCH  10  11
ATOM     11  C   UNL A   1      32.447  24.047  25.887  1.00  0.00     0.175 A 
ATOM     12  C   UNL A   1      32.385  18.263  22.331  1.00  0.00     0.008 C 
ATOM     13  C   UNL A   1      32.364  18.164  23.857  1.00  0.00    -0.009 C 
ATOM     14  C   UNL A   1      33.401  17.152  24.393  1.00  0.00     0.009 C 
ATOM     15  C   UNL A   1      32.536  19.557  24.493  1.00  0.00     0.041 C 
ATOM     16  C   UNL A   1      34.863  17.610  24.235  1.00  0.00     0.047 C 
ATOM     17  C   UNL A   1      33.956  19.936  24.734  1.00  0.00    -0.020 A 
ATOM     18  C   UNL A   1      35.004  19.045  24.636  1.00  0.00     0.011 A 
ATOM     19  C   UNL A   1      34.429  21.196  25.150  1.00  0.00     0.060 A 
ATOM     20  S   UNL A   1      36.517  19.755  24.999  1.00  0.00    -0.120 S 
ATOM     21  C   UNL A   1      35.799  21.273  25.344  1.00  0.00     0.129 A 
ATOM     22  C   UNL A   1      33.711  22.442  25.447  1.00  0.00     0.168 A 
ATOM     23  N   UNL A   1      36.528  22.364  25.762  1.00  0.00    -0.225 NA
ATOM     24  N   UNL A   1      34.447  23.489  25.901  1.00  0.00    -0.201 N 
ATOM     25  N   UNL A   1      32.450  22.774  25.368  1.00  0.00    -0.207 NA
ATOM     26  C   UNL A   1      35.834  23.443  26.038  1.00  0.00     0.227 A 
ATOM     27  N   UNL A   1      33.663  24.540  26.198  1.00  0.00    -0.145 NA
ENDBRANCH  10  11
ENDBRANCH   7   9
ENDBRANCH   6   7
ENDBRANCH   5   6
ENDBRANCH   4   5
ENDBRANCH   3   4
ENDBRANCH   2   3
ENDBRANCH   1   2
BRANCH   1  28
ATOM     28  O   UNL A   1      33.758  29.124  27.323  1.00  0.00    -0.376 OA
BRANCH  28  29
ATOM     29  C   UNL A   1      33.743  30.506  27.007  1.00  0.00     0.202 C 
BRANCH  29  30
ATOM     30  C   UNL A   1      34.130  31.613  27.973  1.00  0.00     0.261 C 
BRANCH  30  31
ATOM     31  O   UNL A   1      35.485  31.997  27.858  1.00  0.00    -0.460 OA
BRANCH  31  32
ATOM     32  C   UNL A   1      35.939  32.654  28.931  1.00  0.00     0.338 C 
ATOM     33  O   UNL A   1      35.690  33.822  29.264  1.00  0.00    -0.246 OA
BRANCH  32  34
ATOM     34  C   UNL A   1      36.837  31.807  29.688  1.00  0.00     0.060 A 
ATOM     35  C   UNL A   1      38.058  32.369  30.067  1.00  0.00     0.016 A 
ATOM     36  C   UNL A   1      36.585  30.429  29.742  1.00  0.00     0.016 A 
ATOM     37  C   UNL A   1      39.113  31.522  30.285  1.00  0.00     0.010 A 
ATOM     38  C   UNL A   1      37.643  29.583  29.952  1.00  0.00     0.010 A 
ATOM     39  C   UNL A   1      38.904  30.147  30.121  1.00  0.00    -0.014 A 
BRANCH  39  40
ATOM     40  C   UNL A   1      40.079  29.310  30.112  1.00  0.00     0.031 A 
ATOM     41  C   UNL A   1      40.671  29.122  31.444  1.00  0.00     0.074 A 
ATOM     42  C   UNL A   1      40.537  28.749  28.979  1.00  0.00     0.049 A 
ATOM     43  N   UNL A   1      41.808  29.565  31.861  1.00  0.00    -0.248 NA
ATOM     44  C   UNL A   1      39.845  28.486  32.480  1.00  0.00     0.031 C 
ATOM     45  C   UNL A   1      39.836  28.652  27.694  1.00  0.00     0.029 A 
ATOM     46  N   UNL A   1      41.685  28.049  28.762  1.00  0.00    -0.354 N 
ATOM     47  C   UNL A   1      41.939  29.070  33.150  1.00  0.00     0.074 A 
ATOM     48  C   UNL A   1      40.644  28.578  33.544  1.00  0.00     0.031 C 
ATOM     49  C   UNL A   1      40.460  27.740  26.918  1.00  0.00     0.029 A 
ATOM     50  C   UNL A   1      41.676  27.309  27.589  1.00  0.00     0.049 A 
ATOM     51  H   UNL A   1      42.451  28.067  29.380  1.00  0.00     0.167 HD
ATOM     52  C   UNL A   1      43.173  28.813  33.655  1.00  0.00     0.037 A 
ATOM     53  C   UNL A   1      42.568  26.351  27.249  1.00  0.00     0.037 A 
ATOM     54  C   UNL A   1      44.206  29.450  32.885  1.00  0.00     0.049 A 
ATOM     55  C   UNL A   1      43.823  26.611  27.998  1.00  0.00     0.074 A 
ATOM     56  C   UNL A   1      44.788  30.695  32.817  1.00  0.00     0.029 A 
ATOM     57  N   UNL A   1      44.538  28.784  31.737  1.00  0.00    -0.354 N 
ATOM     58  N   UNL A   1      44.576  27.660  27.807  1.00  0.00    -0.248 NA
ATOM     59  C   UNL A   1      44.110  25.848  29.211  1.00  0.00     0.031 C 
ATOM     60  C   UNL A   1      45.414  30.785  31.537  1.00  0.00     0.029 A 
ATOM     61  C   UNL A   1      45.210  29.589  30.856  1.00  0.00     0.049 A 
ATOM     62  H   UNL A   1      44.319  27.840  31.565  1.00  0.00     0.167 HD
ATOM     63  C   UNL A   1      45.120  27.914  29.048  1.00  0.00     0.074 A 
ATOM     64  C   UNL A   1      44.959  26.686  29.811  1.00  0.00     0.031 C 
ATOM     65  C   UNL A   1      45.332  29.192  29.473  1.00  0.00     0.037 A 
BRANCH  52  66
ATOM     66  C   UNL A   1      43.478  27.616  34.516  1.00  0.00     0.064 A 
ATOM     67  C   UNL A   1      43.410  26.328  33.955  1.00  0.00     0.173 A 
ATOM     68  C   UNL A   1      43.532  27.669  35.928  1.00  0.00     0.173 A 
ATOM     69  F   UNL A   1      43.304  26.168  32.628  1.00  0.00    -0.203 F 
ATOM     70  C   UNL A   1      43.370  25.181  34.753  1.00  0.00     0.198 A 
ATOM     71  C   UNL A   1      43.550  26.522  36.717  1.00  0.00     0.198 A 
ATOM     72  F   UNL A   1      43.445  28.825  36.598  1.00  0.00    -0.203 F 
ATOM     73  F   UNL A   1      43.199  23.980  34.184  1.00  0.00    -0.200 F 
ATOM     74  C   UNL A   1      43.445  25.279  36.132  1.00  0.00     0.200 A 
ATOM     75  F   UNL A   1      43.591  26.641  38.051  1.00  0.00    -0.200 F 
ATOM     76  F   UNL A   1      43.367  24.184  36.898  1.00  0.00    -0.200 F 
ENDBRANCH  52  66
BRANCH  53  77
ATOM     77  C   UNL A   1      42.292  25.048  26.598  1.00  0.00     0.064 A 
ATOM     78  C   UNL A   1      43.047  24.644  25.483  1.00  0.00     0.173 A 
ATOM     79  C   UNL A   1      41.519  24.051  27.225  1.00  0.00     0.173 A 
ATOM     80  F   UNL A   1      43.828  25.525  24.843  1.00  0.00    -0.203 F 
ATOM     81  C   UNL A   1      43.084  23.310  25.069  1.00  0.00     0.198 A 
ATOM     82  C   UNL A   1      41.544  22.724  26.800  1.00  0.00     0.198 A 
ATOM     83  F   UNL A   1      40.801  24.319  28.325  1.00  0.00    -0.203 F 
ATOM     84  F   UNL A   1      43.890  22.947  24.062  1.00  0.00    -0.200 F 
ATOM     85  C   UNL A   1      42.347  22.348  25.738  1.00  0.00     0.200 A 
ATOM     86  F   UNL A   1      40.847  21.797  27.473  1.00  0.00    -0.200 F 
ATOM     87  F   UNL A   1      42.444  21.057  25.392  1.00  0.00    -0.200 F 
ENDBRANCH  53  77
BRANCH  65  88
ATOM     88  C   UNL A   1      45.520  30.244  28.429  1.00  0.00     0.064 A 
ATOM     89  C   UNL A   1      44.475  30.975  27.841  1.00  0.00     0.173 A 
ATOM     90  C   UNL A   1      46.830  30.561  28.046  1.00  0.00     0.173 A 
ATOM     91  F   UNL A   1      43.204  30.777  28.212  1.00  0.00    -0.203 F 
ATOM     92  C   UNL A   1      44.735  31.951  26.880  1.00  0.00     0.198 A 
ATOM     93  C   UNL A   1      47.089  31.559  27.114  1.00  0.00     0.198 A 
ATOM     94  F   UNL A   1      47.868  29.916  28.604  1.00  0.00    -0.203 F 
ATOM     95  F   UNL A   1      43.722  32.622  26.312  1.00  0.00    -0.200 F 
ATOM     96  C   UNL A   1      46.042  32.246  26.523  1.00  0.00     0.200 A 
ATOM     97  F   UNL A   1      48.356  31.866  26.800  1.00  0.00    -0.200 F 
ATOM     98  F   UNL A   1      46.293  33.205  25.621  1.00  0.00    -0.200 F 
ENDBRANCH  65  88
ENDBRANCH  39  40
ENDBRANCH  32  34
ENDBRANCH  31  32
ENDBRANCH  30  31
ENDBRANCH  29  30
ENDBRANCH  28  29
ENDBRANCH   1  28
TORSDOF 18
ENDMDL
MODEL 3
REMARK VINA RESULT:     -10.2      4.265      9.253
REMARK SMILES C[C@H]1CCc2sc3ncn4nc(/C=C\C(=O)OCCOCCOCCOC(=O)c5ccc(-c6c7nc(c(-c8c(F)c(F)c(F)c(F)c8F)c8ccc([nH]8)c(-c8c(F)c(F)c(F)c(F)c8F)c8nc(c(-c9c(F)c(F)c(F)c(F)c9F)c9ccc6[nH]9)C=C8)C=C7)cc5)nc4c3c2C1
REMARK SMILES IDX 22 1 21 2 20 3 19 4 18 5 17 6 15 7 16 8 14 9 13 10 12 11
REMARK SMILES IDX 1 12 2 13 3 14 96 15 4 16 95 17 5 18 94 19 6 20 7 21 93 22
REMARK SMILES IDX 8 23 10 24 92 25 9 26 11 27 23 28 24 29 25 30 26 31 27 32
REMARK SMILES IDX 28 33 29 34 30 35 91 36 31 37 90 38 32 39 33 40 34 41 84 42
REMARK SMILES IDX 35 43 89 44 83 45 85 46 36 47 88 48 82 49 81 50 37 52 69 53
REMARK SMILES IDX 49 54 68 55 50 56 53 57 67 58 86 59 51 60 52 61 66 63 87 64
REMARK SMILES IDX 54 65 38 66 39 67 47 68 40 69 41 70 45 71 48 72 42 73 43 74
REMARK SMILES IDX 46 75 44 76 70 77 71 78 79 79 72 80 73 81 77 82 80 83 74 84
REMARK SMILES IDX 75 85 78 86 76 87 55 88 56 89 64 90 57 91 58 92 62 93 65 94
REMARK SMILES IDX 59 95 60 96 63 97 61 98
REMARK H PARENT 85 51 53 62
REMARK Flexibility Score: inf
ROOT
ATOM      1  C   UNL A   1      41.529  28.842  35.653  1.00  0.00     0.188 C 
ENDROOT
BRANCH   1   2
ATOM      2  C   UNL A   1      41.314  28.479  34.164  1.00  0.00     0.188 C 
BRANCH   2   3
ATOM      3  O   UNL A   1      40.010  28.378  33.626  1.00  0.00    -0.376 OA
BRANCH   3   4
ATOM      4  C   UNL A   1      39.448  29.505  32.964  1.00  0.00     0.202 C 
BRANCH   4   5
ATOM      5  C   UNL A   1      38.474  30.452  33.680  1.00  0.00     0.261 C 
BRANCH   5   6
ATOM      6  O   UNL A   1      38.088  31.580  32.887  1.00  0.00    -0.460 OA
BRANCH   6   7
ATOM      7  C   UNL A   1      37.459  31.301  31.726  1.00  0.00     0.330 C 
ATOM      8  O   UNL A   1      36.342  30.814  31.613  1.00  0.00    -0.247 OA
BRANCH   7   9
ATOM      9  C   UNL A   1      38.152  31.870  30.556  1.00  0.00     0.097 C 
ATOM     10  C   UNL A   1      37.663  32.375  29.415  1.00  0.00     0.058 C 
BRANCH  10  11
ATOM     11  C   UNL A   1      36.322  32.537  28.966  1.00  0.00     0.175 A 
ATOM     12  C   UNL A   1      32.833  27.120  26.824  1.00  0.00     0.008 C 
ATOM     13  C   UNL A   1      33.462  28.029  25.767  1.00  0.00    -0.009 C 
ATOM     14  C   UNL A   1      32.466  28.396  24.644  1.00  0.00     0.009 C 
ATOM     15  C   UNL A   1      34.077  29.278  26.424  1.00  0.00     0.041 C 
ATOM     16  C   UNL A   1      31.340  29.346  25.093  1.00  0.00     0.047 C 
ATOM     17  C   UNL A   1      33.127  30.418  26.555  1.00  0.00    -0.020 A 
ATOM     18  C   UNL A   1      31.897  30.453  25.933  1.00  0.00     0.011 A 
ATOM     19  C   UNL A   1      33.352  31.623  27.251  1.00  0.00     0.060 A 
ATOM     20  S   UNL A   1      31.037  31.899  26.238  1.00  0.00    -0.120 S 
ATOM     21  C   UNL A   1      32.317  32.542  27.180  1.00  0.00     0.129 A 
ATOM     22  C   UNL A   1      34.515  32.087  28.015  1.00  0.00     0.168 A 
ATOM     23  N   UNL A   1      32.270  33.797  27.744  1.00  0.00    -0.225 NA
ATOM     24  N   UNL A   1      34.462  33.346  28.523  1.00  0.00    -0.201 N 
ATOM     25  N   UNL A   1      35.652  31.522  28.325  1.00  0.00    -0.207 NA
ATOM     26  C   UNL A   1      33.345  34.172  28.396  1.00  0.00     0.227 A 
ATOM     27  N   UNL A   1      35.612  33.670  29.139  1.00  0.00    -0.145 NA
ENDBRANCH  10  11
ENDBRANCH   7   9
ENDBRANCH   6   7
ENDBRANCH   5   6
ENDBRANCH   4   5
ENDBRANCH   3   4
ENDBRANCH   2   3
ENDBRANCH   1   2
BRANCH   1  28
ATOM     28  O   UNL A   1      41.974  27.913  36.619  1.00  0.00    -0.376 OA
BRANCH  28  29
ATOM     29  C   UNL A   1      41.629  26.539  36.626  1.00  0.00     0.202 C 
BRANCH  29  30
ATOM     30  C   UNL A   1      42.604  25.410  36.915  1.00  0.00     0.261 C 
BRANCH  30  31
ATOM     31  O   UNL A   1      43.896  25.648  36.395  1.00  0.00    -0.460 OA
BRANCH  31  32
ATOM     32  C   UNL A   1      44.517  24.534  35.996  1.00  0.00     0.338 C 
ATOM     33  O   UNL A   1      44.646  23.473  36.625  1.00  0.00    -0.246 OA
BRANCH  32  34
ATOM     34  C   UNL A   1      45.088  24.727  34.679  1.00  0.00     0.060 A 
ATOM     35  C   UNL A   1      44.977  26.006  34.129  1.00  0.00     0.016 A 
ATOM     36  C   UNL A   1      45.439  23.602  33.921  1.00  0.00     0.016 A 
ATOM     37  C   UNL A   1      44.994  26.120  32.764  1.00  0.00     0.010 A 
ATOM     38  C   UNL A   1      45.448  23.716  32.555  1.00  0.00     0.010 A 
ATOM     39  C   UNL A   1      45.128  24.953  32.003  1.00  0.00    -0.014 A 
BRANCH  39  40
ATOM     40  C   UNL A   1      44.893  25.074  30.584  1.00  0.00     0.031 A 
ATOM     41  C   UNL A   1      45.857  25.952  29.907  1.00  0.00     0.074 A 
ATOM     42  C   UNL A   1      43.898  24.406  29.974  1.00  0.00     0.049 A 
ATOM     43  N   UNL A   1      45.622  27.098  29.367  1.00  0.00    -0.248 NA
ATOM     44  C   UNL A   1      47.279  25.580  29.956  1.00  0.00     0.031 C 
ATOM     45  C   UNL A   1      43.105  23.303  30.526  1.00  0.00     0.029 A 
ATOM     46  N   UNL A   1      43.454  24.498  28.689  1.00  0.00    -0.354 N 
ATOM     47  C   UNL A   1      46.829  27.491  28.808  1.00  0.00     0.074 A 
ATOM     48  C   UNL A   1      47.843  26.626  29.351  1.00  0.00     0.031 C 
ATOM     49  C   UNL A   1      42.455  22.679  29.520  1.00  0.00     0.029 A 
ATOM     50  C   UNL A   1      42.669  23.426  28.291  1.00  0.00     0.049 A 
ATOM     51  H   UNL A   1      43.670  25.255  28.099  1.00  0.00     0.167 HD
ATOM     52  C   UNL A   1      46.839  28.280  27.703  1.00  0.00     0.037 A 
ATOM     53  C   UNL A   1      42.301  23.142  27.021  1.00  0.00     0.037 A 
ATOM     54  C   UNL A   1      45.563  28.904  27.482  1.00  0.00     0.049 A 
ATOM     55  C   UNL A   1      42.357  24.402  26.238  1.00  0.00     0.074 A 
ATOM     56  C   UNL A   1      44.893  30.016  27.940  1.00  0.00     0.029 A 
ATOM     57  N   UNL A   1      44.638  28.088  26.890  1.00  0.00    -0.354 N 
ATOM     58  N   UNL A   1      41.571  25.422  26.449  1.00  0.00    -0.248 NA
ATOM     59  C   UNL A   1      43.516  24.671  25.389  1.00  0.00     0.031 C 
ATOM     60  C   UNL A   1      43.508  29.795  27.676  1.00  0.00     0.029 A 
ATOM     61  C   UNL A   1      43.363  28.560  27.053  1.00  0.00     0.049 A 
ATOM     62  H   UNL A   1      44.863  27.261  26.405  1.00  0.00     0.167 HD
ATOM     63  C   UNL A   1      42.344  26.516  26.122  1.00  0.00     0.074 A 
ATOM     64  C   UNL A   1      43.437  26.002  25.311  1.00  0.00     0.031 C 
ATOM     65  C   UNL A   1      42.240  27.682  26.820  1.00  0.00     0.037 A 
BRANCH  52  66
ATOM     66  C   UNL A   1      47.818  28.102  26.573  1.00  0.00     0.064 A 
ATOM     67  C   UNL A   1      47.682  26.999  25.711  1.00  0.00     0.173 A 
ATOM     68  C   UNL A   1      49.048  28.794  26.494  1.00  0.00     0.173 A 
ATOM     69  F   UNL A   1      46.574  26.244  25.741  1.00  0.00    -0.203 F 
ATOM     70  C   UNL A   1      48.714  26.604  24.855  1.00  0.00     0.198 A 
ATOM     71  C   UNL A   1      50.051  28.433  25.600  1.00  0.00     0.198 A 
ATOM     72  F   UNL A   1      49.372  29.764  27.359  1.00  0.00    -0.203 F 
ATOM     73  F   UNL A   1      48.585  25.487  24.127  1.00  0.00    -0.200 F 
ATOM     74  C   UNL A   1      49.895  27.324  24.797  1.00  0.00     0.200 A 
ATOM     75  F   UNL A   1      51.200  29.124  25.583  1.00  0.00    -0.200 F 
ATOM     76  F   UNL A   1      50.900  26.923  24.008  1.00  0.00    -0.200 F 
ENDBRANCH  52  66
BRANCH  53  77
ATOM     77  C   UNL A   1      42.243  21.810  26.373  1.00  0.00     0.064 A 
ATOM     78  C   UNL A   1      43.431  21.134  26.046  1.00  0.00     0.173 A 
ATOM     79  C   UNL A   1      41.060  21.046  26.347  1.00  0.00     0.173 A 
ATOM     80  F   UNL A   1      44.604  21.783  26.069  1.00  0.00    -0.203 F 
ATOM     81  C   UNL A   1      43.444  19.762  25.781  1.00  0.00     0.198 A 
ATOM     82  C   UNL A   1      41.072  19.680  26.069  1.00  0.00     0.198 A 
ATOM     83  F   UNL A   1      39.880  21.581  26.691  1.00  0.00    -0.203 F 
ATOM     84  F   UNL A   1      44.608  19.135  25.568  1.00  0.00    -0.200 F 
ATOM     85  C   UNL A   1      42.267  19.033  25.811  1.00  0.00     0.200 A 
ATOM     86  F   UNL A   1      39.930  18.980  26.126  1.00  0.00    -0.200 F 
ATOM     87  F   UNL A   1      42.289  17.704  25.637  1.00  0.00    -0.200 F 
ENDBRANCH  53  77
BRANCH  65  88
ATOM     88  C   UNL A   1      40.946  27.958  27.515  1.00  0.00     0.064 A 
ATOM     89  C   UNL A   1      40.609  27.467  28.787  1.00  0.00     0.173 A 
ATOM     90  C   UNL A   1      40.027  28.803  26.880  1.00  0.00     0.173 A 
ATOM     91  F   UNL A   1      41.468  26.712  29.484  1.00  0.00    -0.203 F 
ATOM     92  C   UNL A   1      39.383  27.779  29.374  1.00  0.00     0.198 A 
ATOM     93  C   UNL A   1      38.822  29.142  27.483  1.00  0.00     0.198 A 
ATOM     94  F   UNL A   1      40.316  29.328  25.678  1.00  0.00    -0.203 F 
ATOM     95  F   UNL A   1      39.068  27.282  30.579  1.00  0.00    -0.200 F 
ATOM     96  C   UNL A   1      38.495  28.622  28.724  1.00  0.00     0.200 A 
ATOM     97  F   UNL A   1      37.983  29.988  26.867  1.00  0.00    -0.200 F 
ATOM     98  F   UNL A   1      37.329  28.946  29.302  1.00  0.00    -0.200 F 
ENDBRANCH  65  88
ENDBRANCH  39  40
ENDBRANCH  32  34
ENDBRANCH  31  32
ENDBRANCH  30  31
ENDBRANCH  29  30
ENDBRANCH  28  29
ENDBRANCH   1  28
TORSDOF 18
ENDMDL
