MODEL 1
REMARK VINA RESULT:     -12.7      0.000      0.000
REMARK SMILES N#Cc1cc2c(nc1N1CC[NH+]([C@H](C(=O)OCCOCCOCCOC(=O)c3ccc(-c4c5nc(c(-c6c(F)c(F)c(F)c(F)c6F)c6ccc([nH]6)c(-c6c(F)c(F)c(F)c(F)c6F)c6nc(c(-c7c(F)c(F)c(F)c(F)c7F)c7ccc4[nH]7)C=C6)C=C5)cc3)c3c[nH]c4cc(Cl)ccc34)CC1)CCCC2
REMARK SMILES IDX 20 1 19 2 18 3 17 4 16 5 14 6 15 7 13 8 12 9 9 10 10 11
REMARK SMILES IDX 102 12 11 13 101 14 8 16 3 17 4 18 5 19 7 20 6 21 106 22
REMARK SMILES IDX 103 23 105 24 104 25 2 26 1 27 91 28 92 29 100 30 93 31
REMARK SMILES IDX 94 32 99 33 95 35 98 36 96 37 97 38 21 39 22 40 23 41 24 42
REMARK SMILES IDX 25 43 26 44 27 45 28 46 29 47 90 48 30 49 89 50 31 51 32 52
REMARK SMILES IDX 33 53 83 54 34 55 88 56 82 57 84 58 35 59 87 60 81 61 80 62
REMARK SMILES IDX 36 64 68 65 48 66 67 67 49 68 52 69 66 70 85 71 50 72 51 73
REMARK SMILES IDX 65 75 86 76 53 77 37 78 38 79 46 80 39 81 40 82 44 83 47 84
REMARK SMILES IDX 41 85 42 86 45 87 43 88 69 89 70 90 78 91 71 92 72 93 76 94
REMARK SMILES IDX 79 95 73 96 74 97 77 98 75 99 54 100 55 101 63 102 56 103
REMARK SMILES IDX 57 104 61 105 64 106 58 107 59 108 62 109 60 110
REMARK H PARENT 12 15 93 34 84 63 52 74
REMARK Flexibility Score: inf
ROOT
ATOM      1  C   UNL A   1      35.586  32.284  28.258  1.00  0.00     0.188 C 
ENDROOT
BRANCH   1   2
ATOM      2  O   UNL A   1      34.680  31.224  28.433  1.00  0.00    -0.376 OA
BRANCH   2   3
ATOM      3  C   UNL A   1      33.546  31.297  27.577  1.00  0.00     0.202 C 
BRANCH   3   4
ATOM      4  C   UNL A   1      33.280  30.086  26.641  1.00  0.00     0.261 C 
BRANCH   4   5
ATOM      5  O   UNL A   1      31.907  29.566  26.614  1.00  0.00    -0.459 OA
BRANCH   5   6
ATOM      6  C   UNL A   1      31.663  28.227  26.815  1.00  0.00     0.370 C 
ATOM      7  O   UNL A   1      31.121  27.827  27.846  1.00  0.00    -0.245 OA
BRANCH   6   8
ATOM      8  C   UNL A   1      32.090  27.212  25.642  1.00  0.00     0.328 C 
BRANCH   8   9
ATOM      9  N   UNL A   1      32.267  25.806  26.191  1.00  0.00    -0.316 N 
ATOM     10  N   UNL A   1      32.911  22.968  25.768  1.00  0.00    -0.344 N 
ATOM     11  C   UNL A   1      33.987  23.755  26.363  1.00  0.00     0.179 C 
ATOM     12  C   UNL A   1      31.608  23.396  26.243  1.00  0.00     0.179 C 
ATOM     13  C   UNL A   1      33.688  25.312  26.123  1.00  0.00     0.285 C 
ATOM     14  C   UNL A   1      31.347  24.795  25.669  1.00  0.00     0.285 C 
ATOM     15  H   UNL A   1      32.012  25.927  27.171  1.00  0.00     0.349 HD
BRANCH  10  16
ATOM     16  C   UNL A   1      32.948  21.774  25.081  1.00  0.00     0.147 A 
ATOM     17  C   UNL A   1      32.761  21.761  23.694  1.00  0.00     0.095 A 
ATOM     18  C   UNL A   1      32.526  20.591  22.991  1.00  0.00     0.029 A 
ATOM     19  C   UNL A   1      32.609  19.393  23.640  1.00  0.00    -0.025 A 
ATOM     20  N   UNL A   1      32.989  20.589  25.739  1.00  0.00    -0.234 NA
ATOM     21  C   UNL A   1      32.827  19.423  25.018  1.00  0.00     0.046 A 
ATOM     22  C   UNL A   1      32.481  18.162  22.799  1.00  0.00     0.037 C 
ATOM     23  C   UNL A   1      32.935  18.108  25.756  1.00  0.00     0.056 C 
ATOM     24  C   UNL A   1      33.072  16.961  23.502  1.00  0.00     0.005 C 
ATOM     25  C   UNL A   1      32.498  16.900  24.910  1.00  0.00     0.007 C 
BRANCH  17  26
ATOM     26  C   UNL A   1      32.944  22.852  22.813  1.00  0.00     0.103 C 
ATOM     27  N   UNL A   1      32.898  23.903  22.352  1.00  0.00    -0.192 NA
ENDBRANCH  17  26
ENDBRANCH  10  16
ENDBRANCH   8   9
BRANCH   8  28
ATOM     28  C   UNL A   1      31.431  27.445  24.219  1.00  0.00     0.046 A 
ATOM     29  C   UNL A   1      32.230  27.903  23.162  1.00  0.00     0.094 A 
ATOM     30  C   UNL A   1      30.221  28.111  23.787  1.00  0.00     0.009 A 
ATOM     31  N   UNL A   1      31.987  29.284  23.354  1.00  0.00    -0.361 N 
ATOM     32  C   UNL A   1      30.632  29.414  23.537  1.00  0.00     0.047 A 
ATOM     33  C   UNL A   1      28.937  27.805  23.300  1.00  0.00     0.012 A 
ATOM     34  H   UNL A   1      32.656  30.007  23.357  1.00  0.00     0.166 HD
ATOM     35  C   UNL A   1      29.760  30.492  23.383  1.00  0.00     0.047 A 
ATOM     36  C   UNL A   1      28.031  28.861  23.034  1.00  0.00     0.021 A 
ATOM     37  C   UNL A   1      28.419  30.184  23.188  1.00  0.00     0.043 A 
ATOM     38  Cl  UNL A   1      27.278  31.460  22.999  1.00  0.00    -0.084 Cl
ENDBRANCH   8  28
ENDBRANCH   6   8
ENDBRANCH   5   6
ENDBRANCH   4   5
ENDBRANCH   3   4
ENDBRANCH   2   3
ENDBRANCH   1   2
BRANCH   1  39
ATOM     39  C   UNL A   1      35.328  33.540  29.092  1.00  0.00     0.188 C 
BRANCH  39  40
ATOM     40  O   UNL A   1      34.643  34.678  28.617  1.00  0.00    -0.376 OA
BRANCH  40  41
ATOM     41  C   UNL A   1      33.293  34.836  29.042  1.00  0.00     0.202 C 
BRANCH  41  42
ATOM     42  C   UNL A   1      32.713  36.224  29.457  1.00  0.00     0.261 C 
BRANCH  42  43
ATOM     43  O   UNL A   1      33.028  36.732  30.776  1.00  0.00    -0.460 OA
BRANCH  43  44
ATOM     44  C   UNL A   1      32.554  36.011  31.831  1.00  0.00     0.338 C 
ATOM     45  O   UNL A   1      31.390  35.853  32.151  1.00  0.00    -0.246 OA
BRANCH  44  46
ATOM     46  C   UNL A   1      33.637  35.212  32.453  1.00  0.00     0.060 A 
ATOM     47  C   UNL A   1      34.930  35.731  32.468  1.00  0.00     0.016 A 
ATOM     48  C   UNL A   1      33.439  33.903  32.876  1.00  0.00     0.016 A 
ATOM     49  C   UNL A   1      36.017  34.970  32.876  1.00  0.00     0.010 A 
ATOM     50  C   UNL A   1      34.538  33.146  33.336  1.00  0.00     0.010 A 
ATOM     51  C   UNL A   1      35.847  33.668  33.332  1.00  0.00    -0.014 A 
BRANCH  51  52
ATOM     52  C   UNL A   1      37.058  32.880  33.714  1.00  0.00     0.031 A 
ATOM     53  C   UNL A   1      37.680  33.069  35.073  1.00  0.00     0.074 A 
ATOM     54  C   UNL A   1      37.557  31.931  32.889  1.00  0.00     0.049 A 
ATOM     55  N   UNL A   1      38.843  32.661  35.514  1.00  0.00    -0.248 NA
ATOM     56  C   UNL A   1      36.900  33.828  36.067  1.00  0.00     0.031 C 
ATOM     57  C   UNL A   1      36.991  31.545  31.592  1.00  0.00     0.029 A 
ATOM     58  N   UNL A   1      38.640  31.092  33.023  1.00  0.00    -0.354 N 
ATOM     59  C   UNL A   1      38.963  33.171  36.801  1.00  0.00     0.074 A 
ATOM     60  C   UNL A   1      37.755  33.917  37.077  1.00  0.00     0.031 C 
ATOM     61  C   UNL A   1      37.687  30.519  31.085  1.00  0.00     0.029 A 
ATOM     62  C   UNL A   1      38.836  30.263  31.941  1.00  0.00     0.049 A 
ATOM     63  H   UNL A   1      39.221  31.086  33.818  1.00  0.00     0.167 HD
ATOM     64  C   UNL A   1      39.996  33.023  37.664  1.00  0.00     0.037 A 
ATOM     65  C   UNL A   1      39.859  29.441  31.628  1.00  0.00     0.037 A 
ATOM     66  C   UNL A   1      41.145  32.195  37.410  1.00  0.00     0.049 A 
ATOM     67  C   UNL A   1      41.027  29.361  32.572  1.00  0.00     0.074 A 
ATOM     68  C   UNL A   1      42.237  31.973  38.229  1.00  0.00     0.029 A 
ATOM     69  N   UNL A   1      41.329  31.427  36.272  1.00  0.00    -0.354 N 
ATOM     70  N   UNL A   1      41.179  29.923  33.746  1.00  0.00    -0.248 NA
ATOM     71  C   UNL A   1      42.180  28.559  32.139  1.00  0.00     0.031 C 
ATOM     72  C   UNL A   1      43.114  31.119  37.558  1.00  0.00     0.029 A 
ATOM     73  C   UNL A   1      42.538  30.755  36.353  1.00  0.00     0.049 A 
ATOM     74  H   UNL A   1      40.698  31.368  35.519  1.00  0.00     0.167 HD
ATOM     75  C   UNL A   1      42.428  29.528  34.200  1.00  0.00     0.074 A 
ATOM     76  C   UNL A   1      42.985  28.658  33.187  1.00  0.00     0.031 C 
ATOM     77  C   UNL A   1      43.062  29.868  35.347  1.00  0.00     0.037 A 
BRANCH  64  78
ATOM     78  C   UNL A   1      39.960  33.765  38.967  1.00  0.00     0.064 A 
ATOM     79  C   UNL A   1      40.443  35.073  39.076  1.00  0.00     0.173 A 
ATOM     80  C   UNL A   1      39.320  33.209  40.087  1.00  0.00     0.173 A 
ATOM     81  F   UNL A   1      41.028  35.653  38.020  1.00  0.00    -0.203 F 
ATOM     82  C   UNL A   1      40.320  35.790  40.263  1.00  0.00     0.198 A 
ATOM     83  C   UNL A   1      39.156  33.944  41.259  1.00  0.00     0.198 A 
ATOM     84  F   UNL A   1      38.811  31.970  40.027  1.00  0.00    -0.203 F 
ATOM     85  F   UNL A   1      40.830  37.027  40.355  1.00  0.00    -0.200 F 
ATOM     86  C   UNL A   1      39.664  35.231  41.349  1.00  0.00     0.200 A 
ATOM     87  F   UNL A   1      38.490  33.413  42.293  1.00  0.00    -0.200 F 
ATOM     88  F   UNL A   1      39.512  35.936  42.478  1.00  0.00    -0.200 F 
ENDBRANCH  64  78
BRANCH  65  89
ATOM     89  C   UNL A   1      39.860  28.694  30.337  1.00  0.00     0.064 A 
ATOM     90  C   UNL A   1      39.290  27.417  30.236  1.00  0.00     0.173 A 
ATOM     91  C   UNL A   1      40.442  29.232  29.177  1.00  0.00     0.173 A 
ATOM     92  F   UNL A   1      38.749  26.837  31.317  1.00  0.00    -0.203 F 
ATOM     93  C   UNL A   1      39.312  26.707  29.034  1.00  0.00     0.198 A 
ATOM     94  C   UNL A   1      40.422  28.542  27.967  1.00  0.00     0.198 A 
ATOM     95  F   UNL A   1      41.016  30.445  29.211  1.00  0.00    -0.203 F 
ATOM     96  F   UNL A   1      38.808  25.467  28.982  1.00  0.00    -0.200 F 
ATOM     97  C   UNL A   1      39.866  27.276  27.898  1.00  0.00     0.200 A 
ATOM     98  F   UNL A   1      40.943  29.106  26.868  1.00  0.00    -0.200 F 
ATOM     99  F   UNL A   1      39.875  26.599  26.741  1.00  0.00    -0.200 F 
ENDBRANCH  65  89
BRANCH  77 100
ATOM    100  C   UNL A   1      44.415  29.274  35.599  1.00  0.00     0.064 A 
ATOM    101  C   UNL A   1      44.563  28.036  36.238  1.00  0.00     0.173 A 
ATOM    102  C   UNL A   1      45.568  29.905  35.105  1.00  0.00     0.173 A 
ATOM    103  F   UNL A   1      43.491  27.401  36.738  1.00  0.00    -0.203 F 
ATOM    104  C   UNL A   1      45.818  27.453  36.383  1.00  0.00     0.198 A 
ATOM    105  C   UNL A   1      46.816  29.301  35.219  1.00  0.00     0.198 A 
ATOM    106  F   UNL A   1      45.477  31.086  34.475  1.00  0.00    -0.203 F 
ATOM    107  F   UNL A   1      45.941  26.285  37.028  1.00  0.00    -0.200 F 
ATOM    108  C   UNL A   1      46.941  28.079  35.861  1.00  0.00     0.200 A 
ATOM    109  F   UNL A   1      47.896  29.896  34.691  1.00  0.00    -0.200 F 
ATOM    110  F   UNL A   1      48.145  27.501  35.975  1.00  0.00    -0.200 F 
ENDBRANCH  77 100
ENDBRANCH  51  52
ENDBRANCH  44  46
ENDBRANCH  43  44
ENDBRANCH  42  43
ENDBRANCH  41  42
ENDBRANCH  40  41
ENDBRANCH  39  40
ENDBRANCH   1  39
TORSDOF 21
ENDMDL
MODEL 2
REMARK VINA RESULT:     -12.4      0.929      2.069
REMARK SMILES N#Cc1cc2c(nc1N1CC[NH+]([C@H](C(=O)OCCOCCOCCOC(=O)c3ccc(-c4c5nc(c(-c6c(F)c(F)c(F)c(F)c6F)c6ccc([nH]6)c(-c6c(F)c(F)c(F)c(F)c6F)c6nc(c(-c7c(F)c(F)c(F)c(F)c7F)c7ccc4[nH]7)C=C6)C=C5)cc3)c3c[nH]c4cc(Cl)ccc34)CC1)CCCC2
REMARK SMILES IDX 20 1 19 2 18 3 17 4 16 5 14 6 15 7 13 8 12 9 9 10 10 11
REMARK SMILES IDX 102 12 11 13 101 14 8 16 3 17 4 18 5 19 7 20 6 21 106 22
REMARK SMILES IDX 103 23 105 24 104 25 2 26 1 27 91 28 92 29 100 30 93 31
REMARK SMILES IDX 94 32 99 33 95 35 98 36 96 37 97 38 21 39 22 40 23 41 24 42
REMARK SMILES IDX 25 43 26 44 27 45 28 46 29 47 90 48 30 49 89 50 31 51 32 52
REMARK SMILES IDX 33 53 83 54 34 55 88 56 82 57 84 58 35 59 87 60 81 61 80 62
REMARK SMILES IDX 36 64 68 65 48 66 67 67 49 68 52 69 66 70 85 71 50 72 51 73
REMARK SMILES IDX 65 75 86 76 53 77 37 78 38 79 46 80 39 81 40 82 44 83 47 84
REMARK SMILES IDX 41 85 42 86 45 87 43 88 69 89 70 90 78 91 71 92 72 93 76 94
REMARK SMILES IDX 79 95 73 96 74 97 77 98 75 99 54 100 55 101 63 102 56 103
REMARK SMILES IDX 57 104 61 105 64 106 58 107 59 108 62 109 60 110
REMARK H PARENT 12 15 93 34 84 63 52 74
REMARK Flexibility Score: inf
ROOT
ATOM      1  C   UNL A   1      34.759  31.568  27.834  1.00  0.00     0.188 C 
ENDROOT
BRANCH   1   2
ATOM      2  O   UNL A   1      34.060  30.400  27.486  1.00  0.00    -0.376 OA
BRANCH   2   3
ATOM      3  C   UNL A   1      32.703  30.633  27.132  1.00  0.00     0.202 C 
BRANCH   3   4
ATOM      4  C   UNL A   1      32.150  29.881  25.889  1.00  0.00     0.261 C 
BRANCH   4   5
ATOM      5  O   UNL A   1      32.549  28.476  25.740  1.00  0.00    -0.459 OA
BRANCH   5   6
ATOM      6  C   UNL A   1      31.653  27.464  25.994  1.00  0.00     0.370 C 
ATOM      7  O   UNL A   1      31.030  27.416  27.055  1.00  0.00    -0.245 OA
BRANCH   6   8
ATOM      8  C   UNL A   1      31.433  26.363  24.840  1.00  0.00     0.328 C 
BRANCH   8   9
ATOM      9  N   UNL A   1      31.255  24.982  25.448  1.00  0.00    -0.316 N 
ATOM     10  N   UNL A   1      32.279  22.274  25.964  1.00  0.00    -0.344 N 
ATOM     11  C   UNL A   1      32.375  23.189  27.099  1.00  0.00     0.179 C 
ATOM     12  C   UNL A   1      31.071  22.504  25.193  1.00  0.00     0.179 C 
ATOM     13  C   UNL A   1      32.220  24.694  26.569  1.00  0.00     0.285 C 
ATOM     14  C   UNL A   1      31.219  23.866  24.503  1.00  0.00     0.285 C 
ATOM     15  H   UNL A   1      30.314  25.041  25.838  1.00  0.00     0.349 HD
BRANCH  10  16
ATOM     16  C   UNL A   1      32.971  21.115  25.685  1.00  0.00     0.147 A 
ATOM     17  C   UNL A   1      34.304  21.183  25.264  1.00  0.00     0.095 A 
ATOM     18  C   UNL A   1      34.963  20.092  24.721  1.00  0.00     0.029 A 
ATOM     19  C   UNL A   1      34.348  18.874  24.717  1.00  0.00    -0.025 A 
ATOM     20  N   UNL A   1      32.339  19.916  25.644  1.00  0.00    -0.234 NA
ATOM     21  C   UNL A   1      33.029  18.819  25.171  1.00  0.00     0.046 A 
ATOM     22  C   UNL A   1      35.161  17.711  24.245  1.00  0.00     0.037 C 
ATOM     23  C   UNL A   1      32.331  17.477  25.187  1.00  0.00     0.056 C 
ATOM     24  C   UNL A   1      34.583  16.405  24.742  1.00  0.00     0.005 C 
ATOM     25  C   UNL A   1      33.096  16.386  24.417  1.00  0.00     0.007 C 
BRANCH  17  26
ATOM     26  C   UNL A   1      35.194  22.261  25.469  1.00  0.00     0.103 C 
ATOM     27  N   UNL A   1      35.765  23.249  25.331  1.00  0.00    -0.192 NA
ENDBRANCH  17  26
ENDBRANCH  10  16
ENDBRANCH   8   9
BRANCH   8  28
ATOM     28  C   UNL A   1      30.576  26.807  23.582  1.00  0.00     0.046 A 
ATOM     29  C   UNL A   1      31.223  27.022  22.356  1.00  0.00     0.094 A 
ATOM     30  C   UNL A   1      29.553  27.812  23.386  1.00  0.00     0.009 A 
ATOM     31  N   UNL A   1      31.447  28.409  22.527  1.00  0.00    -0.361 N 
ATOM     32  C   UNL A   1      30.265  28.936  22.990  1.00  0.00     0.047 A 
ATOM     33  C   UNL A   1      28.162  27.912  23.202  1.00  0.00     0.012 A 
ATOM     34  H   UNL A   1      32.283  28.899  22.350  1.00  0.00     0.166 HD
ATOM     35  C   UNL A   1      29.739  30.228  22.972  1.00  0.00     0.047 A 
ATOM     36  C   UNL A   1      27.573  29.195  23.084  1.00  0.00     0.021 A 
ATOM     37  C   UNL A   1      28.359  30.338  23.084  1.00  0.00     0.043 A 
ATOM     38  Cl  UNL A   1      27.633  31.900  23.081  1.00  0.00    -0.084 Cl
ENDBRANCH   8  28
ENDBRANCH   6   8
ENDBRANCH   5   6
ENDBRANCH   4   5
ENDBRANCH   3   4
ENDBRANCH   2   3
ENDBRANCH   1   2
BRANCH   1  39
ATOM     39  C   UNL A   1      34.049  32.521  28.797  1.00  0.00     0.188 C 
BRANCH  39  40
ATOM     40  O   UNL A   1      33.276  33.628  28.389  1.00  0.00    -0.376 OA
BRANCH  40  41
ATOM     41  C   UNL A   1      33.855  34.916  28.573  1.00  0.00     0.202 C 
BRANCH  41  42
ATOM     42  C   UNL A   1      33.226  35.977  29.529  1.00  0.00     0.261 C 
BRANCH  42  43
ATOM     43  O   UNL A   1      32.320  35.517  30.561  1.00  0.00    -0.460 OA
BRANCH  43  44
ATOM     44  C   UNL A   1      32.577  35.948  31.828  1.00  0.00     0.338 C 
ATOM     45  O   UNL A   1      31.918  36.733  32.487  1.00  0.00    -0.246 OA
BRANCH  44  46
ATOM     46  C   UNL A   1      33.670  35.157  32.444  1.00  0.00     0.060 A 
ATOM     47  C   UNL A   1      34.951  35.702  32.484  1.00  0.00     0.016 A 
ATOM     48  C   UNL A   1      33.495  33.834  32.834  1.00  0.00     0.016 A 
ATOM     49  C   UNL A   1      36.050  34.955  32.886  1.00  0.00     0.010 A 
ATOM     50  C   UNL A   1      34.605  33.090  33.288  1.00  0.00     0.010 A 
ATOM     51  C   UNL A   1      35.903  33.639  33.310  1.00  0.00    -0.014 A 
BRANCH  51  52
ATOM     52  C   UNL A   1      37.126  32.867  33.687  1.00  0.00     0.031 A 
ATOM     53  C   UNL A   1      37.746  33.059  35.046  1.00  0.00     0.074 A 
ATOM     54  C   UNL A   1      37.638  31.929  32.857  1.00  0.00     0.049 A 
ATOM     55  N   UNL A   1      38.916  32.667  35.484  1.00  0.00    -0.248 NA
ATOM     56  C   UNL A   1      36.957  33.800  36.044  1.00  0.00     0.031 C 
ATOM     57  C   UNL A   1      37.076  31.542  31.558  1.00  0.00     0.029 A 
ATOM     58  N   UNL A   1      38.734  31.107  32.985  1.00  0.00    -0.354 N 
ATOM     59  C   UNL A   1      39.030  33.172  36.773  1.00  0.00     0.074 A 
ATOM     60  C   UNL A   1      37.811  33.898  37.055  1.00  0.00     0.031 C 
ATOM     61  C   UNL A   1      37.787  30.529  31.046  1.00  0.00     0.029 A 
ATOM     62  C   UNL A   1      38.941  30.287  31.899  1.00  0.00     0.049 A 
ATOM     63  H   UNL A   1      39.316  31.106  33.780  1.00  0.00     0.167 HD
ATOM     64  C   UNL A   1      40.066  33.035  37.634  1.00  0.00     0.037 A 
ATOM     65  C   UNL A   1      39.975  29.482  31.581  1.00  0.00     0.037 A 
ATOM     66  C   UNL A   1      41.227  32.226  37.375  1.00  0.00     0.049 A 
ATOM     67  C   UNL A   1      41.146  29.414  32.523  1.00  0.00     0.074 A 
ATOM     68  C   UNL A   1      42.324  32.016  38.191  1.00  0.00     0.029 A 
ATOM     69  N   UNL A   1      41.422  31.466  36.233  1.00  0.00    -0.354 N 
ATOM     70  N   UNL A   1      41.291  29.973  33.700  1.00  0.00    -0.248 NA
ATOM     71  C   UNL A   1      42.311  28.631  32.084  1.00  0.00     0.031 C 
ATOM     72  C   UNL A   1      43.213  31.179  37.515  1.00  0.00     0.029 A 
ATOM     73  C   UNL A   1      42.640  30.812  36.309  1.00  0.00     0.049 A 
ATOM     74  H   UNL A   1      40.790  31.401  35.481  1.00  0.00     0.167 HD
ATOM     75  C   UNL A   1      42.546  29.594  34.150  1.00  0.00     0.074 A 
ATOM     76  C   UNL A   1      43.115  28.737  33.132  1.00  0.00     0.031 C 
ATOM     77  C   UNL A   1      43.177  29.938  35.298  1.00  0.00     0.037 A 
BRANCH  64  78
ATOM     78  C   UNL A   1      40.021  33.770  38.941  1.00  0.00     0.064 A 
ATOM     79  C   UNL A   1      39.374  33.232  40.060  1.00  0.00     0.173 A 
ATOM     80  C   UNL A   1      40.740  34.963  39.113  1.00  0.00     0.173 A 
ATOM     81  F   UNL A   1      38.707  32.076  39.947  1.00  0.00    -0.203 F 
ATOM     82  C   UNL A   1      39.419  33.874  41.294  1.00  0.00     0.198 A 
ATOM     83  C   UNL A   1      40.822  35.579  40.359  1.00  0.00     0.198 A 
ATOM     84  F   UNL A   1      41.405  35.505  38.081  1.00  0.00    -0.203 F 
ATOM     85  F   UNL A   1      38.755  33.361  42.340  1.00  0.00    -0.200 F 
ATOM     86  C   UNL A   1      40.155  35.040  41.447  1.00  0.00     0.200 A 
ATOM     87  F   UNL A   1      41.565  36.685  40.510  1.00  0.00    -0.200 F 
ATOM     88  F   UNL A   1      40.228  35.636  42.645  1.00  0.00    -0.200 F 
ENDBRANCH  64  78
BRANCH  65  89
ATOM     89  C   UNL A   1      39.986  28.740  30.286  1.00  0.00     0.064 A 
ATOM     90  C   UNL A   1      40.555  29.299  29.133  1.00  0.00     0.173 A 
ATOM     91  C   UNL A   1      39.417  27.462  30.167  1.00  0.00     0.173 A 
ATOM     92  F   UNL A   1      41.085  30.531  29.176  1.00  0.00    -0.203 F 
ATOM     93  C   UNL A   1      40.545  28.616  27.916  1.00  0.00     0.198 A 
ATOM     94  C   UNL A   1      39.448  26.761  28.963  1.00  0.00     0.198 A 
ATOM     95  F   UNL A   1      38.844  26.877  31.230  1.00  0.00    -0.203 F 
ATOM     96  F   UNL A   1      41.047  29.199  26.819  1.00  0.00    -0.200 F 
ATOM     97  C   UNL A   1      40.003  27.343  27.836  1.00  0.00     0.200 A 
ATOM     98  F   UNL A   1      38.939  25.523  28.897  1.00  0.00    -0.200 F 
ATOM     99  F   UNL A   1      40.005  26.682  26.669  1.00  0.00    -0.200 F 
ENDBRANCH  65  89
BRANCH  77 100
ATOM    100  C   UNL A   1      44.539  29.363  35.546  1.00  0.00     0.064 A 
ATOM    101  C   UNL A   1      45.702  30.049  35.169  1.00  0.00     0.173 A 
ATOM    102  C   UNL A   1      44.681  28.162  36.258  1.00  0.00     0.173 A 
ATOM    103  F   UNL A   1      45.616  31.195  34.476  1.00  0.00    -0.203 F 
ATOM    104  C   UNL A   1      46.960  29.548  35.488  1.00  0.00     0.198 A 
ATOM    105  C   UNL A   1      45.940  27.684  36.607  1.00  0.00     0.198 A 
ATOM    106  F   UNL A   1      43.598  27.475  36.651  1.00  0.00    -0.203 F 
ATOM    107  F   UNL A   1      48.059  30.202  35.088  1.00  0.00    -0.200 F 
ATOM    108  C   UNL A   1      47.078  28.375  36.218  1.00  0.00     0.200 A 
ATOM    109  F   UNL A   1      46.050  26.564  37.334  1.00  0.00    -0.200 F 
ATOM    110  F   UNL A   1      48.290  27.910  36.550  1.00  0.00    -0.200 F 
ENDBRANCH  77 100
ENDBRANCH  51  52
ENDBRANCH  44  46
ENDBRANCH  43  44
ENDBRANCH  42  43
ENDBRANCH  41  42
ENDBRANCH  40  41
ENDBRANCH  39  40
ENDBRANCH   1  39
TORSDOF 21
ENDMDL
MODEL 3
REMARK VINA RESULT:     -10.5      2.068      3.146
REMARK SMILES N#Cc1cc2c(nc1N1CC[NH+]([C@H](C(=O)OCCOCCOCCOC(=O)c3ccc(-c4c5nc(c(-c6c(F)c(F)c(F)c(F)c6F)c6ccc([nH]6)c(-c6c(F)c(F)c(F)c(F)c6F)c6nc(c(-c7c(F)c(F)c(F)c(F)c7F)c7ccc4[nH]7)C=C6)C=C5)cc3)c3c[nH]c4cc(Cl)ccc34)CC1)CCCC2
REMARK SMILES IDX 20 1 19 2 18 3 17 4 16 5 14 6 15 7 13 8 12 9 9 10 10 11
REMARK SMILES IDX 102 12 11 13 101 14 8 16 3 17 4 18 5 19 7 20 6 21 106 22
REMARK SMILES IDX 103 23 105 24 104 25 2 26 1 27 91 28 92 29 100 30 93 31
REMARK SMILES IDX 94 32 99 33 95 35 98 36 96 37 97 38 21 39 22 40 23 41 24 42
REMARK SMILES IDX 25 43 26 44 27 45 28 46 29 47 90 48 30 49 89 50 31 51 32 52
REMARK SMILES IDX 33 53 83 54 34 55 88 56 82 57 84 58 35 59 87 60 81 61 80 62
REMARK SMILES IDX 36 64 68 65 48 66 67 67 49 68 52 69 66 70 85 71 50 72 51 73
REMARK SMILES IDX 65 75 86 76 53 77 37 78 38 79 46 80 39 81 40 82 44 83 47 84
REMARK SMILES IDX 41 85 42 86 45 87 43 88 69 89 70 90 78 91 71 92 72 93 76 94
REMARK SMILES IDX 79 95 73 96 74 97 77 98 75 99 54 100 55 101 63 102 56 103
REMARK SMILES IDX 57 104 61 105 64 106 58 107 59 108 62 109 60 110
REMARK H PARENT 12 15 93 34 84 63 52 74
REMARK Flexibility Score: inf
ROOT
ATOM      1  C   UNL A   1      35.387  30.781  27.583  1.00  0.00     0.188 C 
ENDROOT
BRANCH   1   2
ATOM      2  O   UNL A   1      35.041  29.421  27.504  1.00  0.00    -0.376 OA
BRANCH   2   3
ATOM      3  C   UNL A   1      34.496  29.044  26.246  1.00  0.00     0.202 C 
BRANCH   3   4
ATOM      4  C   UNL A   1      33.906  27.612  26.124  1.00  0.00     0.261 C 
BRANCH   4   5
ATOM      5  O   UNL A   1      32.694  27.332  26.904  1.00  0.00    -0.459 OA
BRANCH   5   6
ATOM      6  C   UNL A   1      31.503  27.059  26.273  1.00  0.00     0.370 C 
ATOM      7  O   UNL A   1      30.427  27.380  26.778  1.00  0.00    -0.245 OA
BRANCH   6   8
ATOM      8  C   UNL A   1      31.575  26.327  24.841  1.00  0.00     0.328 C 
BRANCH   8   9
ATOM      9  N   UNL A   1      31.169  24.868  24.966  1.00  0.00    -0.316 N 
ATOM     10  N   UNL A   1      31.893  22.050  25.396  1.00  0.00    -0.344 N 
ATOM     11  C   UNL A   1      31.316  22.716  26.561  1.00  0.00     0.179 C 
ATOM     12  C   UNL A   1      31.281  22.506  24.161  1.00  0.00     0.179 C 
ATOM     13  C   UNL A   1      31.392  24.303  26.345  1.00  0.00     0.285 C 
ATOM     14  C   UNL A   1      31.706  23.965  23.949  1.00  0.00     0.285 C 
ATOM     15  H   UNL A   1      30.165  24.911  24.792  1.00  0.00     0.349 HD
BRANCH  10  16
ATOM     16  C   UNL A   1      32.685  20.926  25.307  1.00  0.00     0.147 A 
ATOM     17  C   UNL A   1      34.052  21.056  25.034  1.00  0.00     0.095 A 
ATOM     18  C   UNL A   1      34.839  19.974  24.674  1.00  0.00     0.029 A 
ATOM     19  C   UNL A   1      34.307  18.718  24.715  1.00  0.00    -0.025 A 
ATOM     20  N   UNL A   1      32.140  19.685  25.308  1.00  0.00    -0.234 NA
ATOM     21  C   UNL A   1      32.949  18.605  25.020  1.00  0.00     0.046 A 
ATOM     22  C   UNL A   1      35.243  17.581  24.449  1.00  0.00     0.037 C 
ATOM     23  C   UNL A   1      32.341  17.221  25.083  1.00  0.00     0.056 C 
ATOM     24  C   UNL A   1      34.693  16.284  24.998  1.00  0.00     0.005 C 
ATOM     25  C   UNL A   1      33.260  16.128  24.511  1.00  0.00     0.007 C 
BRANCH  17  26
ATOM     26  C   UNL A   1      34.841  22.211  25.237  1.00  0.00     0.103 C 
ATOM     27  N   UNL A   1      35.217  23.295  25.209  1.00  0.00    -0.192 NA
ENDBRANCH  17  26
ENDBRANCH  10  16
ENDBRANCH   8   9
BRANCH   8  28
ATOM     28  C   UNL A   1      31.134  27.181  23.579  1.00  0.00     0.046 A 
ATOM     29  C   UNL A   1      32.099  27.929  22.890  1.00  0.00     0.094 A 
ATOM     30  C   UNL A   1      30.039  28.095  23.337  1.00  0.00     0.009 A 
ATOM     31  N   UNL A   1      31.917  29.137  23.606  1.00  0.00    -0.361 N 
ATOM     32  C   UNL A   1      30.560  29.335  23.687  1.00  0.00     0.047 A 
ATOM     33  C   UNL A   1      28.819  28.155  22.639  1.00  0.00     0.012 A 
ATOM     34  H   UNL A   1      32.622  29.719  23.972  1.00  0.00     0.166 HD
ATOM     35  C   UNL A   1      29.785  30.475  23.899  1.00  0.00     0.047 A 
ATOM     36  C   UNL A   1      28.025  29.324  22.738  1.00  0.00     0.021 A 
ATOM     37  C   UNL A   1      28.469  30.423  23.459  1.00  0.00     0.043 A 
ATOM     38  Cl  UNL A   1      27.445  31.788  23.694  1.00  0.00    -0.084 Cl
ENDBRANCH   8  28
ENDBRANCH   6   8
ENDBRANCH   5   6
ENDBRANCH   4   5
ENDBRANCH   3   4
ENDBRANCH   2   3
ENDBRANCH   1   2
BRANCH   1  39
ATOM     39  C   UNL A   1      34.392  31.692  28.305  1.00  0.00     0.188 C 
BRANCH  39  40
ATOM     40  O   UNL A   1      33.858  32.875  27.754  1.00  0.00    -0.376 OA
BRANCH  40  41
ATOM     41  C   UNL A   1      34.546  34.087  28.052  1.00  0.00     0.202 C 
BRANCH  41  42
ATOM     42  C   UNL A   1      34.377  34.817  29.421  1.00  0.00     0.261 C 
BRANCH  42  43
ATOM     43  O   UNL A   1      33.340  34.357  30.319  1.00  0.00    -0.460 OA
BRANCH  43  44
ATOM     44  C   UNL A   1      33.490  34.680  31.635  1.00  0.00     0.338 C 
ATOM     45  O   UNL A   1      32.635  35.103  32.392  1.00  0.00    -0.246 OA
BRANCH  44  46
ATOM     46  C   UNL A   1      34.811  34.232  32.140  1.00  0.00     0.060 A 
ATOM     47  C   UNL A   1      34.969  32.900  32.513  1.00  0.00     0.016 A 
ATOM     48  C   UNL A   1      35.842  35.126  32.406  1.00  0.00     0.016 A 
ATOM     49  C   UNL A   1      36.117  32.452  33.152  1.00  0.00     0.010 A 
ATOM     50  C   UNL A   1      37.028  34.661  33.013  1.00  0.00     0.010 A 
ATOM     51  C   UNL A   1      37.177  33.316  33.405  1.00  0.00    -0.014 A 
BRANCH  51  52
ATOM     52  C   UNL A   1      38.369  32.791  34.138  1.00  0.00     0.031 A 
ATOM     53  C   UNL A   1      38.476  32.978  35.629  1.00  0.00     0.074 A 
ATOM     54  C   UNL A   1      39.317  32.071  33.497  1.00  0.00     0.049 A 
ATOM     55  N   UNL A   1      39.511  32.805  36.413  1.00  0.00    -0.248 NA
ATOM     56  C   UNL A   1      37.265  33.431  36.336  1.00  0.00     0.031 C 
ATOM     57  C   UNL A   1      39.292  31.701  32.077  1.00  0.00     0.029 A 
ATOM     58  N   UNL A   1      40.481  31.494  33.953  1.00  0.00    -0.354 N 
ATOM     59  C   UNL A   1      39.099  33.194  37.681  1.00  0.00     0.074 A 
ATOM     60  C   UNL A   1      37.717  33.611  37.570  1.00  0.00     0.031 C 
ATOM     61  C   UNL A   1      40.344  30.920  31.798  1.00  0.00     0.029 A 
ATOM     62  C   UNL A   1      41.200  30.848  32.973  1.00  0.00     0.049 A 
ATOM     63  H   UNL A   1      40.772  31.540  34.892  1.00  0.00     0.167 HD
ATOM     64  C   UNL A   1      39.818  33.199  38.827  1.00  0.00     0.037 A 
ATOM     65  C   UNL A   1      42.441  30.319  32.987  1.00  0.00     0.037 A 
ATOM     66  C   UNL A   1      41.159  32.687  38.938  1.00  0.00     0.049 A 
ATOM     67  C   UNL A   1      43.244  30.412  34.255  1.00  0.00     0.074 A 
ATOM     68  C   UNL A   1      41.966  32.639  40.060  1.00  0.00     0.029 A 
ATOM     69  N   UNL A   1      41.870  32.102  37.903  1.00  0.00    -0.354 N 
ATOM     70  N   UNL A   1      42.882  30.871  35.428  1.00  0.00    -0.248 NA
ATOM     71  C   UNL A   1      44.637  29.944  34.198  1.00  0.00     0.031 C 
ATOM     72  C   UNL A   1      43.191  32.082  39.688  1.00  0.00     0.029 A 
ATOM     73  C   UNL A   1      43.123  31.721  38.353  1.00  0.00     0.049 A 
ATOM     74  H   UNL A   1      41.536  31.977  36.985  1.00  0.00     0.167 HD
ATOM     75  C   UNL A   1      43.989  30.729  36.251  1.00  0.00     0.074 A 
ATOM     76  C   UNL A   1      45.029  30.117  35.452  1.00  0.00     0.031 C 
ATOM     77  C   UNL A   1      44.135  31.086  37.549  1.00  0.00     0.037 A 
BRANCH  64  78
ATOM     78  C   UNL A   1      39.201  33.775  40.066  1.00  0.00     0.064 A 
ATOM     79  C   UNL A   1      38.492  32.976  40.970  1.00  0.00     0.173 A 
ATOM     80  C   UNL A   1      39.428  35.115  40.419  1.00  0.00     0.173 A 
ATOM     81  F   UNL A   1      38.284  31.683  40.688  1.00  0.00    -0.203 F 
ATOM     82  C   UNL A   1      38.005  33.498  42.165  1.00  0.00     0.198 A 
ATOM     83  C   UNL A   1      38.980  35.624  41.636  1.00  0.00     0.198 A 
ATOM     84  F   UNL A   1      40.129  35.918  39.604  1.00  0.00    -0.203 F 
ATOM     85  F   UNL A   1      37.292  32.721  42.993  1.00  0.00    -0.200 F 
ATOM     86  C   UNL A   1      38.261  34.818  42.504  1.00  0.00     0.200 A 
ATOM     87  F   UNL A   1      39.262  36.889  41.976  1.00  0.00    -0.200 F 
ATOM     88  F   UNL A   1      37.824  35.308  43.671  1.00  0.00    -0.200 F 
ENDBRANCH  64  78
BRANCH  65  89
ATOM     89  C   UNL A   1      43.025  29.727  31.748  1.00  0.00     0.064 A 
ATOM     90  C   UNL A   1      43.650  30.531  30.783  1.00  0.00     0.173 A 
ATOM     91  C   UNL A   1      42.961  28.347  31.492  1.00  0.00     0.173 A 
ATOM     92  F   UNL A   1      43.712  31.859  30.956  1.00  0.00    -0.203 F 
ATOM     93  C   UNL A   1      44.175  29.981  29.613  1.00  0.00     0.198 A 
ATOM     94  C   UNL A   1      43.527  27.794  30.346  1.00  0.00     0.198 A 
ATOM     95  F   UNL A   1      42.365  27.526  32.370  1.00  0.00    -0.203 F 
ATOM     96  F   UNL A   1      44.717  30.781  28.685  1.00  0.00    -0.200 F 
ATOM     97  C   UNL A   1      44.125  28.612  29.402  1.00  0.00     0.200 A 
ATOM     98  F   UNL A   1      43.492  26.467  30.157  1.00  0.00    -0.200 F 
ATOM     99  F   UNL A   1      44.642  28.083  28.284  1.00  0.00    -0.200 F 
ENDBRANCH  65  89
BRANCH  77 100
ATOM    100  C   UNL A   1      45.448  30.795  38.211  1.00  0.00     0.064 A 
ATOM    101  C   UNL A   1      46.416  31.793  38.385  1.00  0.00     0.173 A 
ATOM    102  C   UNL A   1      45.697  29.529  38.765  1.00  0.00     0.173 A 
ATOM    103  F   UNL A   1      46.228  33.015  37.863  1.00  0.00    -0.203 F 
ATOM    104  C   UNL A   1      47.592  31.533  39.082  1.00  0.00     0.198 A 
ATOM    105  C   UNL A   1      46.857  29.284  39.493  1.00  0.00     0.198 A 
ATOM    106  F   UNL A   1      44.796  28.544  38.635  1.00  0.00    -0.203 F 
ATOM    107  F   UNL A   1      48.519  32.492  39.208  1.00  0.00    -0.200 F 
ATOM    108  C   UNL A   1      47.804  30.285  39.647  1.00  0.00     0.200 A 
ATOM    109  F   UNL A   1      47.048  28.085  40.059  1.00  0.00    -0.200 F 
ATOM    110  F   UNL A   1      48.924  30.045  40.344  1.00  0.00    -0.200 F 
ENDBRANCH  77 100
ENDBRANCH  51  52
ENDBRANCH  44  46
ENDBRANCH  43  44
ENDBRANCH  42  43
ENDBRANCH  41  42
ENDBRANCH  40  41
ENDBRANCH  39  40
ENDBRANCH   1  39
TORSDOF 21
ENDMDL
