MODEL 1
REMARK VINA RESULT:     -11.2      0.000      0.000
REMARK SMILES CC(C)(C)OC(=O)N[C@@H](C(=O)OCCOCCOCCOC(=O)c1ccc(-c2c3nc(c(-c4c(F)c(F)c(F)c(F)c4F)c4ccc([nH]4)c(-c4c(F)c(F)c(F)c(F)c4F)c4nc(c(-c5c(F)c(F)c(F)c(F)c5F)c5ccc2[nH]5)C=C4)C=C3)cc1)c1ccc([N+](=O)[O-])cc1
REMARK SMILES IDX 16 1 15 2 14 3 13 4 12 5 10 6 11 7 9 8 8 9 6 10 7 11 5 13
REMARK SMILES IDX 2 14 1 15 3 16 4 17 87 18 88 19 95 20 89 21 94 22 90 23
REMARK SMILES IDX 91 24 92 25 93 26 17 27 18 28 19 29 20 30 21 31 22 32 23 33
REMARK SMILES IDX 24 34 25 35 86 36 26 37 85 38 27 39 28 40 29 41 79 42 30 43
REMARK SMILES IDX 84 44 78 45 80 46 31 47 83 48 77 49 76 50 32 52 64 53 44 54
REMARK SMILES IDX 63 55 45 56 48 57 62 58 81 59 46 60 47 61 61 63 82 64 49 65
REMARK SMILES IDX 33 66 34 67 42 68 35 69 36 70 40 71 43 72 37 73 38 74 41 75
REMARK SMILES IDX 39 76 65 77 66 78 74 79 67 80 68 81 72 82 75 83 69 84 70 85
REMARK SMILES IDX 73 86 71 87 50 88 51 89 59 90 52 91 53 92 57 93 60 94 54 95
REMARK SMILES IDX 55 96 58 97 56 98
REMARK H PARENT 8 12 80 51 48 62
REMARK Flexibility Score: inf
ROOT
ATOM      1  C   UNL A   1      40.208  21.003  26.445  1.00  0.00     0.188 C 
ENDROOT
BRANCH   1   2
ATOM      2  O   UNL A   1      39.290  22.073  26.632  1.00  0.00    -0.376 OA
BRANCH   2   3
ATOM      3  C   UNL A   1      38.249  22.262  25.679  1.00  0.00     0.202 C 
BRANCH   3   4
ATOM      4  C   UNL A   1      37.645  23.671  25.500  1.00  0.00     0.261 C 
BRANCH   4   5
ATOM      5  O   UNL A   1      36.202  23.730  25.406  1.00  0.00    -0.461 OA
BRANCH   5   6
ATOM      6  C   UNL A   1      35.658  23.620  24.160  1.00  0.00     0.333 C 
ATOM      7  O   UNL A   1      36.328  23.608  23.130  1.00  0.00    -0.249 OA
BRANCH   6   8
ATOM      8  C   UNL A   1      34.110  23.401  24.147  1.00  0.00     0.226 C 
BRANCH   8   9
ATOM      9  N   UNL A   1      33.332  24.001  25.232  1.00  0.00    -0.304 N 
ATOM     10  C   UNL A   1      32.583  25.125  25.198  1.00  0.00     0.408 C 
ATOM     11  O   UNL A   1      31.926  25.461  26.183  1.00  0.00    -0.225 OA
ATOM     12  H   UNL A   1      33.359  23.526  26.094  1.00  0.00     0.168 HD
BRANCH  10  13
ATOM     13  O   UNL A   1      32.581  25.727  23.997  1.00  0.00    -0.444 OA
BRANCH  13  14
ATOM     14  C   UNL A   1      31.340  25.872  23.260  1.00  0.00     0.106 C 
ATOM     15  C   UNL A   1      31.787  26.057  21.804  1.00  0.00     0.056 C 
ATOM     16  C   UNL A   1      30.565  27.114  23.709  1.00  0.00     0.056 C 
ATOM     17  C   UNL A   1      30.482  24.601  23.346  1.00  0.00     0.056 C 
ENDBRANCH  13  14
ENDBRANCH  10  13
ENDBRANCH   8   9
BRANCH   8  18
ATOM     18  C   UNL A   1      33.687  21.921  24.053  1.00  0.00    -0.014 A 
ATOM     19  C   UNL A   1      32.586  21.466  23.307  1.00  0.00     0.013 A 
ATOM     20  C   UNL A   1      34.446  20.966  24.763  1.00  0.00     0.013 A 
ATOM     21  C   UNL A   1      32.234  20.112  23.293  1.00  0.00     0.086 A 
ATOM     22  C   UNL A   1      34.107  19.610  24.752  1.00  0.00     0.086 A 
ATOM     23  C   UNL A   1      32.986  19.194  24.031  1.00  0.00     0.269 A 
BRANCH  23  24
ATOM     24  N   UNL A   1      32.563  17.793  24.097  1.00  0.00     0.062 N 
ATOM     25  O   UNL A   1      32.048  17.402  25.155  1.00  0.00    -0.258 OA
ATOM     26  O   UNL A   1      32.771  17.085  23.103  1.00  0.00    -0.258 OA
ENDBRANCH  23  24
ENDBRANCH   8  18
ENDBRANCH   6   8
ENDBRANCH   5   6
ENDBRANCH   4   5
ENDBRANCH   3   4
ENDBRANCH   2   3
ENDBRANCH   1   2
BRANCH   1  27
ATOM     27  C   UNL A   1      41.168  20.626  27.583  1.00  0.00     0.188 C 
BRANCH  27  28
ATOM     28  O   UNL A   1      42.349  20.001  27.160  1.00  0.00    -0.376 OA
BRANCH  28  29
ATOM     29  C   UNL A   1      42.777  20.188  25.829  1.00  0.00     0.202 C 
BRANCH  29  30
ATOM     30  C   UNL A   1      43.630  21.408  25.433  1.00  0.00     0.261 C 
BRANCH  30  31
ATOM     31  O   UNL A   1      42.945  22.620  25.072  1.00  0.00    -0.460 OA
BRANCH  31  32
ATOM     32  C   UNL A   1      43.677  23.758  25.023  1.00  0.00     0.338 C 
ATOM     33  O   UNL A   1      44.575  24.022  24.246  1.00  0.00    -0.246 OA
BRANCH  32  34
ATOM     34  C   UNL A   1      43.063  24.738  25.951  1.00  0.00     0.060 A 
ATOM     35  C   UNL A   1      43.518  26.066  25.951  1.00  0.00     0.016 A 
ATOM     36  C   UNL A   1      42.053  24.343  26.830  1.00  0.00     0.016 A 
ATOM     37  C   UNL A   1      42.981  26.994  26.848  1.00  0.00     0.010 A 
ATOM     38  C   UNL A   1      41.534  25.267  27.743  1.00  0.00     0.010 A 
ATOM     39  C   UNL A   1      42.013  26.589  27.777  1.00  0.00    -0.014 A 
BRANCH  39  40
ATOM     40  C   UNL A   1      41.620  27.486  28.894  1.00  0.00     0.031 A 
ATOM     41  C   UNL A   1      42.414  27.440  30.171  1.00  0.00     0.074 A 
ATOM     42  C   UNL A   1      40.568  28.318  28.792  1.00  0.00     0.049 A 
ATOM     43  N   UNL A   1      42.206  28.058  31.306  1.00  0.00    -0.248 NA
ATOM     44  C   UNL A   1      43.598  26.567  30.169  1.00  0.00     0.031 C 
ATOM     45  C   UNL A   1      39.732  28.472  27.607  1.00  0.00     0.029 A 
ATOM     46  N   UNL A   1      40.022  29.184  29.708  1.00  0.00    -0.354 N 
ATOM     47  C   UNL A   1      43.215  27.630  32.158  1.00  0.00     0.074 A 
ATOM     48  C   UNL A   1      44.025  26.686  31.417  1.00  0.00     0.031 C 
ATOM     49  C   UNL A   1      38.777  29.382  27.866  1.00  0.00     0.029 A 
ATOM     50  C   UNL A   1      38.910  29.846  29.246  1.00  0.00     0.049 A 
ATOM     51  H   UNL A   1      40.392  29.316  30.610  1.00  0.00     0.167 HD
ATOM     52  C   UNL A   1      43.446  27.990  33.444  1.00  0.00     0.037 A 
ATOM     53  C   UNL A   1      38.083  30.707  29.875  1.00  0.00     0.037 A 
ATOM     54  C   UNL A   1      42.640  28.928  34.182  1.00  0.00     0.049 A 
ATOM     55  C   UNL A   1      38.334  31.052  31.323  1.00  0.00     0.074 A 
ATOM     56  C   UNL A   1      42.804  29.367  35.484  1.00  0.00     0.029 A 
ATOM     57  N   UNL A   1      41.514  29.567  33.685  1.00  0.00    -0.354 N 
ATOM     58  N   UNL A   1      39.298  30.656  32.119  1.00  0.00    -0.248 NA
ATOM     59  C   UNL A   1      37.369  31.957  31.967  1.00  0.00     0.031 C 
ATOM     60  C   UNL A   1      41.742  30.218  35.797  1.00  0.00     0.029 A 
ATOM     61  C   UNL A   1      40.956  30.371  34.667  1.00  0.00     0.049 A 
ATOM     62  H   UNL A   1      41.163  29.464  32.771  1.00  0.00     0.167 HD
ATOM     63  C   UNL A   1      39.075  31.285  33.339  1.00  0.00     0.074 A 
ATOM     64  C   UNL A   1      37.893  32.103  33.176  1.00  0.00     0.031 C 
ATOM     65  C   UNL A   1      39.783  31.190  34.491  1.00  0.00     0.037 A 
BRANCH  52  66
ATOM     66  C   UNL A   1      44.597  27.336  34.153  1.00  0.00     0.064 A 
ATOM     67  C   UNL A   1      44.423  26.205  34.962  1.00  0.00     0.173 A 
ATOM     68  C   UNL A   1      45.901  27.830  33.986  1.00  0.00     0.173 A 
ATOM     69  F   UNL A   1      43.197  25.702  35.167  1.00  0.00    -0.203 F 
ATOM     70  C   UNL A   1      45.509  25.606  35.598  1.00  0.00     0.198 A 
ATOM     71  C   UNL A   1      46.987  27.209  34.596  1.00  0.00     0.198 A 
ATOM     72  F   UNL A   1      46.124  28.909  33.220  1.00  0.00    -0.203 F 
ATOM     73  F   UNL A   1      45.313  24.556  36.408  1.00  0.00    -0.200 F 
ATOM     74  C   UNL A   1      46.790  26.103  35.408  1.00  0.00     0.200 A 
ATOM     75  F   UNL A   1      48.225  27.681  34.397  1.00  0.00    -0.200 F 
ATOM     76  F   UNL A   1      47.834  25.518  36.011  1.00  0.00    -0.200 F 
ENDBRANCH  52  66
BRANCH  53  77
ATOM     77  C   UNL A   1      36.920  31.294  29.153  1.00  0.00     0.064 A 
ATOM     78  C   UNL A   1      36.899  32.651  28.793  1.00  0.00     0.173 A 
ATOM     79  C   UNL A   1      35.785  30.526  28.850  1.00  0.00     0.173 A 
ATOM     80  F   UNL A   1      37.939  33.441  29.099  1.00  0.00    -0.203 F 
ATOM     81  C   UNL A   1      35.782  33.218  28.181  1.00  0.00     0.198 A 
ATOM     82  C   UNL A   1      34.685  31.087  28.204  1.00  0.00     0.198 A 
ATOM     83  F   UNL A   1      35.743  29.227  29.181  1.00  0.00    -0.203 F 
ATOM     84  F   UNL A   1      35.761  34.532  27.914  1.00  0.00    -0.200 F 
ATOM     85  C   UNL A   1      34.679  32.434  27.882  1.00  0.00     0.200 A 
ATOM     86  F   UNL A   1      33.624  30.322  27.909  1.00  0.00    -0.200 F 
ATOM     87  F   UNL A   1      33.604  32.981  27.297  1.00  0.00    -0.200 F 
ENDBRANCH  53  77
BRANCH  65  88
ATOM     88  C   UNL A   1      39.332  32.025  35.660  1.00  0.00     0.064 A 
ATOM     89  C   UNL A   1      39.746  33.355  35.825  1.00  0.00     0.173 A 
ATOM     90  C   UNL A   1      38.432  31.499  36.600  1.00  0.00     0.173 A 
ATOM     91  F   UNL A   1      40.613  33.906  34.962  1.00  0.00    -0.203 F 
ATOM     92  C   UNL A   1      39.301  34.116  36.904  1.00  0.00     0.198 A 
ATOM     93  C   UNL A   1      37.960  32.274  37.657  1.00  0.00     0.198 A 
ATOM     94  F   UNL A   1      37.993  30.237  36.484  1.00  0.00    -0.203 F 
ATOM     95  F   UNL A   1      39.751  35.367  37.071  1.00  0.00    -0.200 F 
ATOM     96  C   UNL A   1      38.402  33.578  37.813  1.00  0.00     0.200 A 
ATOM     97  F   UNL A   1      37.077  31.758  38.522  1.00  0.00    -0.200 F 
ATOM     98  F   UNL A   1      37.966  34.315  38.845  1.00  0.00    -0.200 F 
ENDBRANCH  65  88
ENDBRANCH  39  40
ENDBRANCH  32  34
ENDBRANCH  31  32
ENDBRANCH  30  31
ENDBRANCH  29  30
ENDBRANCH  28  29
ENDBRANCH  27  28
ENDBRANCH   1  27
TORSDOF 22
ENDMDL
MODEL 2
REMARK VINA RESULT:     -10.0      5.131      9.121
REMARK SMILES CC(C)(C)OC(=O)N[C@@H](C(=O)OCCOCCOCCOC(=O)c1ccc(-c2c3nc(c(-c4c(F)c(F)c(F)c(F)c4F)c4ccc([nH]4)c(-c4c(F)c(F)c(F)c(F)c4F)c4nc(c(-c5c(F)c(F)c(F)c(F)c5F)c5ccc2[nH]5)C=C4)C=C3)cc1)c1ccc([N+](=O)[O-])cc1
REMARK SMILES IDX 16 1 15 2 14 3 13 4 12 5 10 6 11 7 9 8 8 9 6 10 7 11 5 13
REMARK SMILES IDX 2 14 1 15 3 16 4 17 87 18 88 19 95 20 89 21 94 22 90 23
REMARK SMILES IDX 91 24 92 25 93 26 17 27 18 28 19 29 20 30 21 31 22 32 23 33
REMARK SMILES IDX 24 34 25 35 86 36 26 37 85 38 27 39 28 40 29 41 79 42 30 43
REMARK SMILES IDX 84 44 78 45 80 46 31 47 83 48 77 49 76 50 32 52 64 53 44 54
REMARK SMILES IDX 63 55 45 56 48 57 62 58 81 59 46 60 47 61 61 63 82 64 49 65
REMARK SMILES IDX 33 66 34 67 42 68 35 69 36 70 40 71 43 72 37 73 38 74 41 75
REMARK SMILES IDX 39 76 65 77 66 78 74 79 67 80 68 81 72 82 75 83 69 84 70 85
REMARK SMILES IDX 73 86 71 87 50 88 51 89 59 90 52 91 53 92 57 93 60 94 54 95
REMARK SMILES IDX 55 96 58 97 56 98
REMARK H PARENT 8 12 80 51 48 62
REMARK Flexibility Score: inf
ROOT
ATOM      1  C   UNL A   1      40.458  20.966  26.817  1.00  0.00     0.188 C 
ENDROOT
BRANCH   1   2
ATOM      2  O   UNL A   1      39.868  22.029  26.080  1.00  0.00    -0.376 OA
BRANCH   2   3
ATOM      3  C   UNL A   1      38.483  21.960  25.758  1.00  0.00     0.202 C 
BRANCH   3   4
ATOM      4  C   UNL A   1      37.588  23.185  26.036  1.00  0.00     0.261 C 
BRANCH   4   5
ATOM      5  O   UNL A   1      36.168  22.919  26.132  1.00  0.00    -0.461 OA
BRANCH   5   6
ATOM      6  C   UNL A   1      35.437  23.042  24.987  1.00  0.00     0.333 C 
ATOM      7  O   UNL A   1      35.892  23.499  23.941  1.00  0.00    -0.249 OA
BRANCH   6   8
ATOM      8  C   UNL A   1      33.991  22.452  25.077  1.00  0.00     0.226 C 
BRANCH   8   9
ATOM      9  N   UNL A   1      33.181  22.819  26.239  1.00  0.00    -0.304 N 
ATOM     10  C   UNL A   1      32.182  23.726  26.307  1.00  0.00     0.408 C 
ATOM     11  O   UNL A   1      31.545  23.868  27.350  1.00  0.00    -0.225 OA
ATOM     12  H   UNL A   1      33.392  22.347  27.077  1.00  0.00     0.168 HD
BRANCH  10  13
ATOM     13  O   UNL A   1      31.936  24.336  25.135  1.00  0.00    -0.444 OA
BRANCH  13  14
ATOM     14  C   UNL A   1      32.306  25.726  24.948  1.00  0.00     0.106 C 
ATOM     15  C   UNL A   1      33.055  25.738  23.609  1.00  0.00     0.056 C 
ATOM     16  C   UNL A   1      33.247  26.207  26.056  1.00  0.00     0.056 C 
ATOM     17  C   UNL A   1      31.068  26.626  24.820  1.00  0.00     0.056 C 
ENDBRANCH  13  14
ENDBRANCH  10  13
ENDBRANCH   8   9
BRANCH   8  18
ATOM     18  C   UNL A   1      33.931  20.917  24.950  1.00  0.00    -0.014 A 
ATOM     19  C   UNL A   1      35.064  20.096  24.818  1.00  0.00     0.013 A 
ATOM     20  C   UNL A   1      32.662  20.297  24.961  1.00  0.00     0.013 A 
ATOM     21  C   UNL A   1      34.938  18.710  24.671  1.00  0.00     0.086 A 
ATOM     22  C   UNL A   1      32.525  18.914  24.820  1.00  0.00     0.086 A 
ATOM     23  C   UNL A   1      33.668  18.129  24.654  1.00  0.00     0.269 A 
BRANCH  23  24
ATOM     24  N   UNL A   1      33.527  16.693  24.402  1.00  0.00     0.062 N 
ATOM     25  O   UNL A   1      32.579  16.108  24.947  1.00  0.00    -0.258 OA
ATOM     26  O   UNL A   1      34.378  16.153  23.682  1.00  0.00    -0.258 OA
ENDBRANCH  23  24
ENDBRANCH   8  18
ENDBRANCH   6   8
ENDBRANCH   5   6
ENDBRANCH   4   5
ENDBRANCH   3   4
ENDBRANCH   2   3
ENDBRANCH   1   2
BRANCH   1  27
ATOM     27  C   UNL A   1      40.220  19.516  26.369  1.00  0.00     0.188 C 
BRANCH  27  28
ATOM     28  O   UNL A   1      41.257  18.972  25.597  1.00  0.00    -0.376 OA
BRANCH  28  29
ATOM     29  C   UNL A   1      42.577  19.415  25.825  1.00  0.00     0.202 C 
BRANCH  29  30
ATOM     30  C   UNL A   1      43.781  18.495  25.554  1.00  0.00     0.261 C 
BRANCH  30  31
ATOM     31  O   UNL A   1      45.000  19.101  25.089  1.00  0.00    -0.460 OA
BRANCH  31  32
ATOM     32  C   UNL A   1      44.901  20.023  24.102  1.00  0.00     0.338 C 
ATOM     33  O   UNL A   1      44.646  19.820  22.930  1.00  0.00    -0.246 OA
BRANCH  32  34
ATOM     34  C   UNL A   1      44.951  21.368  24.724  1.00  0.00     0.060 A 
ATOM     35  C   UNL A   1      44.580  22.491  23.968  1.00  0.00     0.016 A 
ATOM     36  C   UNL A   1      45.377  21.521  26.043  1.00  0.00     0.016 A 
ATOM     37  C   UNL A   1      44.660  23.771  24.523  1.00  0.00     0.010 A 
ATOM     38  C   UNL A   1      45.480  22.805  26.590  1.00  0.00     0.010 A 
ATOM     39  C   UNL A   1      45.149  23.939  25.825  1.00  0.00    -0.014 A 
BRANCH  39  40
ATOM     40  C   UNL A   1      45.479  25.294  26.337  1.00  0.00     0.031 A 
ATOM     41  C   UNL A   1      44.388  26.113  26.969  1.00  0.00     0.074 A 
ATOM     42  C   UNL A   1      46.720  25.803  26.230  1.00  0.00     0.049 A 
ATOM     43  N   UNL A   1      44.414  27.349  27.401  1.00  0.00    -0.248 NA
ATOM     44  C   UNL A   1      43.084  25.450  27.122  1.00  0.00     0.031 C 
ATOM     45  C   UNL A   1      47.867  25.107  25.657  1.00  0.00     0.029 A 
ATOM     46  N   UNL A   1      47.215  27.032  26.594  1.00  0.00    -0.354 N 
ATOM     47  C   UNL A   1      43.130  27.617  27.854  1.00  0.00     0.074 A 
ATOM     48  C   UNL A   1      42.342  26.424  27.627  1.00  0.00     0.031 C 
ATOM     49  C   UNL A   1      48.937  25.919  25.712  1.00  0.00     0.029 A 
ATOM     50  C   UNL A   1      48.543  27.205  26.286  1.00  0.00     0.049 A 
ATOM     51  H   UNL A   1      46.670  27.723  27.034  1.00  0.00     0.167 HD
ATOM     52  C   UNL A   1      42.650  28.757  28.407  1.00  0.00     0.037 A 
ATOM     53  C   UNL A   1      49.339  28.285  26.428  1.00  0.00     0.037 A 
ATOM     54  C   UNL A   1      43.433  29.944  28.631  1.00  0.00     0.049 A 
ATOM     55  C   UNL A   1      48.764  29.558  27.001  1.00  0.00     0.074 A 
ATOM     56  C   UNL A   1      43.037  31.143  29.199  1.00  0.00     0.029 A 
ATOM     57  N   UNL A   1      44.770  30.086  28.292  1.00  0.00    -0.354 N 
ATOM     58  N   UNL A   1      47.552  29.802  27.440  1.00  0.00    -0.248 NA
ATOM     59  C   UNL A   1      49.668  30.716  27.085  1.00  0.00     0.031 C 
ATOM     60  C   UNL A   1      44.115  32.031  29.143  1.00  0.00     0.029 A 
ATOM     61  C   UNL A   1      45.205  31.364  28.610  1.00  0.00     0.049 A 
ATOM     62  H   UNL A   1      45.328  29.384  27.885  1.00  0.00     0.167 HD
ATOM     63  C   UNL A   1      47.559  31.121  27.879  1.00  0.00     0.074 A 
ATOM     64  C   UNL A   1      48.899  31.624  27.669  1.00  0.00     0.031 C 
ATOM     65  C   UNL A   1      46.545  31.852  28.406  1.00  0.00     0.037 A 
BRANCH  52  66
ATOM     66  C   UNL A   1      41.194  28.791  28.773  1.00  0.00     0.064 A 
ATOM     67  C   UNL A   1      40.200  29.107  27.836  1.00  0.00     0.173 A 
ATOM     68  C   UNL A   1      40.787  28.463  30.076  1.00  0.00     0.173 A 
ATOM     69  F   UNL A   1      40.536  29.444  26.582  1.00  0.00    -0.203 F 
ATOM     70  C   UNL A   1      38.854  29.119  28.196  1.00  0.00     0.198 A 
ATOM     71  C   UNL A   1      39.439  28.442  30.423  1.00  0.00     0.198 A 
ATOM     72  F   UNL A   1      41.696  28.149  31.012  1.00  0.00    -0.203 F 
ATOM     73  F   UNL A   1      37.925  29.474  27.298  1.00  0.00    -0.200 F 
ATOM     74  C   UNL A   1      38.474  28.777  29.486  1.00  0.00     0.200 A 
ATOM     75  F   UNL A   1      39.073  28.096  31.665  1.00  0.00    -0.200 F 
ATOM     76  F   UNL A   1      37.178  28.777  29.826  1.00  0.00    -0.200 F 
ENDBRANCH  52  66
BRANCH  53  77
ATOM     77  C   UNL A   1      50.764  28.229  26.003  1.00  0.00     0.064 A 
ATOM     78  C   UNL A   1      51.120  28.249  24.645  1.00  0.00     0.173 A 
ATOM     79  C   UNL A   1      51.802  28.106  26.941  1.00  0.00     0.173 A 
ATOM     80  F   UNL A   1      50.165  28.319  23.705  1.00  0.00    -0.203 F 
ATOM     81  C   UNL A   1      52.448  28.125  24.243  1.00  0.00     0.198 A 
ATOM     82  C   UNL A   1      53.133  28.021  26.538  1.00  0.00     0.198 A 
ATOM     83  F   UNL A   1      51.523  28.070  28.252  1.00  0.00    -0.203 F 
ATOM     84  F   UNL A   1      52.751  28.075  22.939  1.00  0.00    -0.200 F 
ATOM     85  C   UNL A   1      53.455  28.018  25.191  1.00  0.00     0.200 A 
ATOM     86  F   UNL A   1      54.104  27.926  27.459  1.00  0.00    -0.200 F 
ATOM     87  F   UNL A   1      54.732  27.895  24.805  1.00  0.00    -0.200 F 
ENDBRANCH  53  77
BRANCH  65  88
ATOM     88  C   UNL A   1      46.849  33.261  28.837  1.00  0.00     0.064 A 
ATOM     89  C   UNL A   1      46.676  34.355  27.975  1.00  0.00     0.173 A 
ATOM     90  C   UNL A   1      47.273  33.524  30.150  1.00  0.00     0.173 A 
ATOM     91  F   UNL A   1      46.282  34.161  26.708  1.00  0.00    -0.203 F 
ATOM     92  C   UNL A   1      46.946  35.653  28.402  1.00  0.00     0.198 A 
ATOM     93  C   UNL A   1      47.507  34.827  30.583  1.00  0.00     0.198 A 
ATOM     94  F   UNL A   1      47.444  32.518  31.020  1.00  0.00    -0.203 F 
ATOM     95  F   UNL A   1      46.824  36.677  27.546  1.00  0.00    -0.200 F 
ATOM     96  C   UNL A   1      47.352  35.889  29.707  1.00  0.00     0.200 A 
ATOM     97  F   UNL A   1      47.880  35.053  31.850  1.00  0.00    -0.200 F 
ATOM     98  F   UNL A   1      47.600  37.141  30.118  1.00  0.00    -0.200 F 
ENDBRANCH  65  88
ENDBRANCH  39  40
ENDBRANCH  32  34
ENDBRANCH  31  32
ENDBRANCH  30  31
ENDBRANCH  29  30
ENDBRANCH  28  29
ENDBRANCH  27  28
ENDBRANCH   1  27
TORSDOF 22
ENDMDL
MODEL 3
REMARK VINA RESULT:      -9.0      6.195     13.131
REMARK SMILES CC(C)(C)OC(=O)N[C@@H](C(=O)OCCOCCOCCOC(=O)c1ccc(-c2c3nc(c(-c4c(F)c(F)c(F)c(F)c4F)c4ccc([nH]4)c(-c4c(F)c(F)c(F)c(F)c4F)c4nc(c(-c5c(F)c(F)c(F)c(F)c5F)c5ccc2[nH]5)C=C4)C=C3)cc1)c1ccc([N+](=O)[O-])cc1
REMARK SMILES IDX 16 1 15 2 14 3 13 4 12 5 10 6 11 7 9 8 8 9 6 10 7 11 5 13
REMARK SMILES IDX 2 14 1 15 3 16 4 17 87 18 88 19 95 20 89 21 94 22 90 23
REMARK SMILES IDX 91 24 92 25 93 26 17 27 18 28 19 29 20 30 21 31 22 32 23 33
REMARK SMILES IDX 24 34 25 35 86 36 26 37 85 38 27 39 28 40 29 41 79 42 30 43
REMARK SMILES IDX 84 44 78 45 80 46 31 47 83 48 77 49 76 50 32 52 64 53 44 54
REMARK SMILES IDX 63 55 45 56 48 57 62 58 81 59 46 60 47 61 61 63 82 64 49 65
REMARK SMILES IDX 33 66 34 67 42 68 35 69 36 70 40 71 43 72 37 73 38 74 41 75
REMARK SMILES IDX 39 76 65 77 66 78 74 79 67 80 68 81 72 82 75 83 69 84 70 85
REMARK SMILES IDX 73 86 71 87 50 88 51 89 59 90 52 91 53 92 57 93 60 94 54 95
REMARK SMILES IDX 55 96 58 97 56 98
REMARK H PARENT 8 12 80 51 48 62
REMARK Flexibility Score: inf
ROOT
ATOM      1  C   UNL A   1      38.611  33.026  38.306  1.00  0.00     0.188 C 
ENDROOT
BRANCH   1   2
ATOM      2  O   UNL A   1      39.118  34.325  38.027  1.00  0.00    -0.376 OA
BRANCH   2   3
ATOM      3  C   UNL A   1      40.464  34.629  38.379  1.00  0.00     0.202 C 
BRANCH   3   4
ATOM      4  C   UNL A   1      41.596  33.716  37.863  1.00  0.00     0.261 C 
BRANCH   4   5
ATOM      5  O   UNL A   1      41.402  33.158  36.542  1.00  0.00    -0.461 OA
BRANCH   5   6
ATOM      6  C   UNL A   1      42.434  32.435  36.018  1.00  0.00     0.333 C 
ATOM      7  O   UNL A   1      43.055  31.587  36.655  1.00  0.00    -0.249 OA
BRANCH   6   8
ATOM      8  C   UNL A   1      42.699  32.694  34.499  1.00  0.00     0.226 C 
BRANCH   8   9
ATOM      9  N   UNL A   1      41.674  33.418  33.746  1.00  0.00    -0.304 N 
ATOM     10  C   UNL A   1      41.802  34.579  33.067  1.00  0.00     0.408 C 
ATOM     11  O   UNL A   1      40.855  35.026  32.421  1.00  0.00    -0.225 OA
ATOM     12  H   UNL A   1      40.779  33.008  33.734  1.00  0.00     0.168 HD
BRANCH  10  13
ATOM     13  O   UNL A   1      43.044  35.090  33.115  1.00  0.00    -0.444 OA
BRANCH  13  14
ATOM     14  C   UNL A   1      43.332  36.218  33.981  1.00  0.00     0.106 C 
ATOM     15  C   UNL A   1      42.090  36.333  34.874  1.00  0.00     0.056 C 
ATOM     16  C   UNL A   1      43.496  37.511  33.177  1.00  0.00     0.056 C 
ATOM     17  C   UNL A   1      44.550  35.944  34.876  1.00  0.00     0.056 C 
ENDBRANCH  13  14
ENDBRANCH  10  13
ENDBRANCH   8   9
BRANCH   8  18
ATOM     18  C   UNL A   1      43.035  31.422  33.696  1.00  0.00    -0.014 A 
ATOM     19  C   UNL A   1      44.277  31.188  33.080  1.00  0.00     0.013 A 
ATOM     20  C   UNL A   1      42.035  30.435  33.563  1.00  0.00     0.013 A 
ATOM     21  C   UNL A   1      44.505  30.027  32.334  1.00  0.00     0.086 A 
ATOM     22  C   UNL A   1      42.253  29.269  32.824  1.00  0.00     0.086 A 
ATOM     23  C   UNL A   1      43.486  29.082  32.194  1.00  0.00     0.269 A 
BRANCH  23  24
ATOM     24  N   UNL A   1      43.688  27.914  31.334  1.00  0.00     0.062 N 
ATOM     25  O   UNL A   1      44.313  28.085  30.277  1.00  0.00    -0.258 OA
ATOM     26  O   UNL A   1      43.199  26.839  31.706  1.00  0.00    -0.258 OA
ENDBRANCH  23  24
ENDBRANCH   8  18
ENDBRANCH   6   8
ENDBRANCH   5   6
ENDBRANCH   4   5
ENDBRANCH   3   4
ENDBRANCH   2   3
ENDBRANCH   1   2
BRANCH   1  27
ATOM     27  C   UNL A   1      37.626  32.375  37.323  1.00  0.00     0.188 C 
BRANCH  27  28
ATOM     28  O   UNL A   1      36.770  33.279  36.677  1.00  0.00    -0.376 OA
BRANCH  28  29
ATOM     29  C   UNL A   1      36.987  33.562  35.313  1.00  0.00     0.202 C 
BRANCH  29  30
ATOM     30  C   UNL A   1      35.807  33.701  34.333  1.00  0.00     0.261 C 
BRANCH  30  31
ATOM     31  O   UNL A   1      36.074  33.535  32.929  1.00  0.00    -0.460 OA
BRANCH  31  32
ATOM     32  C   UNL A   1      35.549  32.445  32.320  1.00  0.00     0.338 C 
ATOM     33  O   UNL A   1      34.371  32.192  32.154  1.00  0.00    -0.246 OA
BRANCH  32  34
ATOM     34  C   UNL A   1      36.661  31.692  31.691  1.00  0.00     0.060 A 
ATOM     35  C   UNL A   1      37.619  31.069  32.507  1.00  0.00     0.016 A 
ATOM     36  C   UNL A   1      36.766  31.615  30.302  1.00  0.00     0.016 A 
ATOM     37  C   UNL A   1      38.697  30.389  31.933  1.00  0.00     0.010 A 
ATOM     38  C   UNL A   1      37.859  30.955  29.729  1.00  0.00     0.010 A 
ATOM     39  C   UNL A   1      38.845  30.363  30.539  1.00  0.00    -0.014 A 
BRANCH  39  40
ATOM     40  C   UNL A   1      40.105  29.872  29.925  1.00  0.00     0.031 A 
ATOM     41  C   UNL A   1      41.256  30.829  29.775  1.00  0.00     0.074 A 
ATOM     42  C   UNL A   1      40.229  28.605  29.491  1.00  0.00     0.049 A 
ATOM     43  N   UNL A   1      42.414  30.657  29.190  1.00  0.00    -0.248 NA
ATOM     44  C   UNL A   1      41.067  32.168  30.352  1.00  0.00     0.031 C 
ATOM     45  C   UNL A   1      39.199  27.577  29.595  1.00  0.00     0.029 A 
ATOM     46  N   UNL A   1      41.277  27.974  28.865  1.00  0.00    -0.354 N 
ATOM     47  C   UNL A   1      43.080  31.869  29.308  1.00  0.00     0.074 A 
ATOM     48  C   UNL A   1      42.191  32.775  30.002  1.00  0.00     0.031 C 
ATOM     49  C   UNL A   1      39.668  26.439  29.055  1.00  0.00     0.029 A 
ATOM     50  C   UNL A   1      41.014  26.667  28.531  1.00  0.00     0.049 A 
ATOM     51  H   UNL A   1      42.135  28.417  28.675  1.00  0.00     0.167 HD
ATOM     52  C   UNL A   1      44.321  32.198  28.875  1.00  0.00     0.037 A 
ATOM     53  C   UNL A   1      41.764  25.770  27.859  1.00  0.00     0.037 A 
ATOM     54  C   UNL A   1      45.205  31.296  28.183  1.00  0.00     0.049 A 
ATOM     55  C   UNL A   1      43.123  26.179  27.343  1.00  0.00     0.074 A 
ATOM     56  C   UNL A   1      46.487  31.535  27.718  1.00  0.00     0.029 A 
ATOM     57  N   UNL A   1      44.898  29.986  27.849  1.00  0.00    -0.354 N 
ATOM     58  N   UNL A   1      43.754  27.322  27.470  1.00  0.00    -0.248 NA
ATOM     59  C   UNL A   1      43.873  25.172  26.575  1.00  0.00     0.031 C 
ATOM     60  C   UNL A   1      46.929  30.392  27.046  1.00  0.00     0.029 A 
ATOM     61  C   UNL A   1      45.955  29.414  27.157  1.00  0.00     0.049 A 
ATOM     62  H   UNL A   1      44.054  29.529  28.072  1.00  0.00     0.167 HD
ATOM     63  C   UNL A   1      44.977  27.162  26.830  1.00  0.00     0.074 A 
ATOM     64  C   UNL A   1      45.011  25.806  26.329  1.00  0.00     0.031 C 
ATOM     65  C   UNL A   1      45.982  28.059  26.670  1.00  0.00     0.037 A 
BRANCH  52  66
ATOM     66  C   UNL A   1      44.784  33.608  29.100  1.00  0.00     0.064 A 
ATOM     67  C   UNL A   1      44.519  34.632  28.180  1.00  0.00     0.173 A 
ATOM     68  C   UNL A   1      45.472  33.945  30.277  1.00  0.00     0.173 A 
ATOM     69  F   UNL A   1      43.879  34.361  27.032  1.00  0.00    -0.203 F 
ATOM     70  C   UNL A   1      44.947  35.937  28.417  1.00  0.00     0.198 A 
ATOM     71  C   UNL A   1      45.867  35.257  30.527  1.00  0.00     0.198 A 
ATOM     72  F   UNL A   1      45.749  33.005  31.193  1.00  0.00    -0.203 F 
ATOM     73  F   UNL A   1      44.727  36.890  27.501  1.00  0.00    -0.200 F 
ATOM     74  C   UNL A   1      45.612  36.250  29.594  1.00  0.00     0.200 A 
ATOM     75  F   UNL A   1      46.495  35.559  31.671  1.00  0.00    -0.200 F 
ATOM     76  F   UNL A   1      46.012  37.507  29.826  1.00  0.00    -0.200 F 
ENDBRANCH  52  66
BRANCH  53  77
ATOM     77  C   UNL A   1      41.248  24.396  27.609  1.00  0.00     0.064 A 
ATOM     78  C   UNL A   1      41.843  23.276  28.210  1.00  0.00     0.173 A 
ATOM     79  C   UNL A   1      40.180  24.166  26.727  1.00  0.00     0.173 A 
ATOM     80  F   UNL A   1      42.896  23.435  29.026  1.00  0.00    -0.203 F 
ATOM     81  C   UNL A   1      41.407  21.984  27.921  1.00  0.00     0.198 A 
ATOM     82  C   UNL A   1      39.721  22.876  26.469  1.00  0.00     0.198 A 
ATOM     83  F   UNL A   1      39.580  25.198  26.113  1.00  0.00    -0.203 F 
ATOM     84  F   UNL A   1      42.040  20.929  28.454  1.00  0.00    -0.200 F 
ATOM     85  C   UNL A   1      40.342  21.786  27.056  1.00  0.00     0.200 A 
ATOM     86  F   UNL A   1      38.685  22.691  25.638  1.00  0.00    -0.200 F 
ATOM     87  F   UNL A   1      39.925  20.543  26.775  1.00  0.00    -0.200 F 
ENDBRANCH  53  77
BRANCH  65  88
ATOM     88  C   UNL A   1      47.226  27.595  25.961  1.00  0.00     0.064 A 
ATOM     89  C   UNL A   1      48.323  27.067  26.658  1.00  0.00     0.173 A 
ATOM     90  C   UNL A   1      47.299  27.635  24.559  1.00  0.00     0.173 A 
ATOM     91  F   UNL A   1      48.312  27.013  27.998  1.00  0.00    -0.203 F 
ATOM     92  C   UNL A   1      49.458  26.626  25.980  1.00  0.00     0.198 A 
ATOM     93  C   UNL A   1      48.420  27.160  23.884  1.00  0.00     0.198 A 
ATOM     94  F   UNL A   1      46.275  28.120  23.842  1.00  0.00    -0.203 F 
ATOM     95  F   UNL A   1      50.515  26.173  26.669  1.00  0.00    -0.200 F 
ATOM     96  C   UNL A   1      49.502  26.664  24.594  1.00  0.00     0.200 A 
ATOM     97  F   UNL A   1      48.452  27.180  22.544  1.00  0.00    -0.200 F 
ATOM     98  F   UNL A   1      50.590  26.229  23.943  1.00  0.00    -0.200 F 
ENDBRANCH  65  88
ENDBRANCH  39  40
ENDBRANCH  32  34
ENDBRANCH  31  32
ENDBRANCH  30  31
ENDBRANCH  29  30
ENDBRANCH  28  29
ENDBRANCH  27  28
ENDBRANCH   1  27
TORSDOF 22
ENDMDL
