MODEL 1
REMARK VINA RESULT:     -10.5      0.000      0.000
REMARK SMILES CC[C@](C)([NH3+])C(=O)N1CC[NH+]([C@H](C)C(=O)OCCOCCOCCOC(=O)c2ccc(-c3c4nc(c(-c5c(F)c(F)c(F)c(F)c5F)c5ccc([nH]5)c(-c5c(F)c(F)c(F)c(F)c5F)c5nc(c(-c6c(F)c(F)c(F)c(F)c6F)c6ccc3[nH]6)C=C5)C=C4)cc2)CC1
REMARK SMILES IDX 20 1 19 2 18 3 17 4 16 5 14 6 15 7 12 8 13 9 11 10 6 11 7 12
REMARK SMILES IDX 8 13 9 14 92 15 10 16 91 17 3 19 4 20 2 21 1 22 5 23 21 27
REMARK SMILES IDX 22 28 23 29 24 30 25 31 26 32 27 33 28 34 29 35 90 36 30 37
REMARK SMILES IDX 89 38 31 39 32 40 33 41 83 42 34 43 88 44 82 45 84 46 35 47
REMARK SMILES IDX 87 48 81 49 80 50 36 52 68 53 48 54 67 55 49 56 52 57 66 58
REMARK SMILES IDX 85 59 50 60 51 61 65 63 86 64 53 65 37 66 38 67 46 68 39 69
REMARK SMILES IDX 40 70 44 71 47 72 41 73 42 74 45 75 43 76 69 77 70 78 78 79
REMARK SMILES IDX 71 80 72 81 76 82 79 83 73 84 74 85 77 86 75 87 54 88 55 89
REMARK SMILES IDX 63 90 56 91 57 92 61 93 64 94 58 95 59 96 62 97 60 98
REMARK H PARENT 11 18 5 24 5 25 5 26 84 51 52 62
REMARK Flexibility Score: inf
ROOT
ATOM      1  C   UNL A   1      41.682  21.248  27.049  1.00  0.00     0.188 C 
ENDROOT
BRANCH   1   2
ATOM      2  O   UNL A   1      40.285  21.334  27.292  1.00  0.00    -0.376 OA
BRANCH   2   3
ATOM      3  C   UNL A   1      39.500  22.294  26.594  1.00  0.00     0.202 C 
BRANCH   3   4
ATOM      4  C   UNL A   1      38.414  21.817  25.614  1.00  0.00     0.261 C 
BRANCH   4   5
ATOM      5  O   UNL A   1      37.139  22.489  25.689  1.00  0.00    -0.459 OA
BRANCH   5   6
ATOM      6  C   UNL A   1      36.437  22.583  24.524  1.00  0.00     0.364 C 
ATOM      7  O   UNL A   1      36.920  22.972  23.463  1.00  0.00    -0.245 OA
BRANCH   6   8
ATOM      8  C   UNL A   1      34.938  22.197  24.656  1.00  0.00     0.292 C 
ATOM      9  C   UNL A   1      34.583  20.734  24.981  1.00  0.00     0.088 C 
BRANCH   8  10
ATOM     10  N   UNL A   1      34.302  23.166  25.574  1.00  0.00    -0.321 N 
ATOM     11  C   UNL A   1      31.152  25.688  25.616  1.00  0.00     0.283 C 
ATOM     12  O   UNL A   1      30.073  25.446  26.180  1.00  0.00    -0.268 OA
ATOM     13  N   UNL A   1      32.307  25.132  26.129  1.00  0.00    -0.326 N 
ATOM     14  C   UNL A   1      32.211  23.838  26.796  1.00  0.00     0.181 C 
ATOM     15  C   UNL A   1      33.690  25.562  25.958  1.00  0.00     0.181 C 
ATOM     16  C   UNL A   1      32.909  22.792  25.910  1.00  0.00     0.284 C 
ATOM     17  C   UNL A   1      34.449  24.554  25.089  1.00  0.00     0.284 C 
ATOM     18  H   UNL A   1      34.806  23.127  26.460  1.00  0.00     0.348 HD
BRANCH  11  19
ATOM     19  C   UNL A   1      31.124  26.376  24.204  1.00  0.00     0.171 C 
ATOM     20  C   UNL A   1      29.698  26.906  23.960  1.00  0.00     0.090 C 
BRANCH  19  21
ATOM     21  C   UNL A   1      31.520  25.357  23.100  1.00  0.00     0.075 C 
ATOM     22  C   UNL A   1      31.688  25.929  21.696  1.00  0.00     0.011 C 
ENDBRANCH  19  21
BRANCH  19  23
ATOM     23  N   UNL A   1      32.024  27.548  24.090  1.00  0.00    -0.345 N 
ATOM     24  H   UNL A   1      32.200  27.933  25.019  1.00  0.00     0.345 HD
ATOM     25  H   UNL A   1      31.585  28.259  23.506  1.00  0.00     0.345 HD
ATOM     26  H   UNL A   1      32.908  27.259  23.670  1.00  0.00     0.345 HD
ENDBRANCH  19  23
ENDBRANCH  11  19
ENDBRANCH   8  10
ENDBRANCH   6   8
ENDBRANCH   5   6
ENDBRANCH   4   5
ENDBRANCH   3   4
ENDBRANCH   2   3
ENDBRANCH   1   2
BRANCH   1  27
ATOM     27  C   UNL A   1      42.279  19.936  26.524  1.00  0.00     0.188 C 
BRANCH  27  28
ATOM     28  O   UNL A   1      43.077  20.055  25.374  1.00  0.00    -0.376 OA
BRANCH  28  29
ATOM     29  C   UNL A   1      44.065  21.067  25.348  1.00  0.00     0.202 C 
BRANCH  29  30
ATOM     30  C   UNL A   1      43.969  22.192  24.300  1.00  0.00     0.261 C 
BRANCH  30  31
ATOM     31  O   UNL A   1      43.366  23.430  24.720  1.00  0.00    -0.460 OA
BRANCH  31  32
ATOM     32  C   UNL A   1      44.198  24.446  25.061  1.00  0.00     0.338 C 
ATOM     33  O   UNL A   1      45.246  24.741  24.524  1.00  0.00    -0.246 OA
BRANCH  32  34
ATOM     34  C   UNL A   1      43.488  25.306  26.045  1.00  0.00     0.060 A 
ATOM     35  C   UNL A   1      43.853  26.657  26.149  1.00  0.00     0.016 A 
ATOM     36  C   UNL A   1      42.463  24.797  26.845  1.00  0.00     0.016 A 
ATOM     37  C   UNL A   1      43.214  27.492  27.070  1.00  0.00     0.010 A 
ATOM     38  C   UNL A   1      41.841  25.629  27.785  1.00  0.00     0.010 A 
ATOM     39  C   UNL A   1      42.233  26.975  27.925  1.00  0.00    -0.014 A 
BRANCH  39  40
ATOM     40  C   UNL A   1      41.742  27.786  29.070  1.00  0.00     0.031 A 
ATOM     41  C   UNL A   1      42.472  27.698  30.383  1.00  0.00     0.074 A 
ATOM     42  C   UNL A   1      40.683  28.607  28.951  1.00  0.00     0.049 A 
ATOM     43  N   UNL A   1      42.209  28.275  31.528  1.00  0.00    -0.248 NA
ATOM     44  C   UNL A   1      43.666  26.836  30.406  1.00  0.00     0.031 C 
ATOM     45  C   UNL A   1      39.910  28.820  27.731  1.00  0.00     0.029 A 
ATOM     46  N   UNL A   1      40.071  29.412  29.884  1.00  0.00    -0.354 N 
ATOM     47  C   UNL A   1      43.194  27.842  32.407  1.00  0.00     0.074 A 
ATOM     48  C   UNL A   1      44.042  26.929  31.672  1.00  0.00     0.031 C 
ATOM     49  C   UNL A   1      38.916  29.688  27.992  1.00  0.00     0.029 A 
ATOM     50  C   UNL A   1      38.963  30.066  29.404  1.00  0.00     0.049 A 
ATOM     51  H   UNL A   1      40.396  29.509  30.808  1.00  0.00     0.167 HD
ATOM     52  C   UNL A   1      43.380  28.180  33.705  1.00  0.00     0.037 A 
ATOM     53  C   UNL A   1      38.076  30.859  30.038  1.00  0.00     0.037 A 
ATOM     54  C   UNL A   1      42.534  29.084  34.442  1.00  0.00     0.049 A 
ATOM     55  C   UNL A   1      38.261  31.158  31.505  1.00  0.00     0.074 A 
ATOM     56  C   UNL A   1      42.654  29.501  35.755  1.00  0.00     0.029 A 
ATOM     57  N   UNL A   1      41.400  29.699  33.931  1.00  0.00    -0.354 N 
ATOM     58  N   UNL A   1      39.212  30.770  32.321  1.00  0.00    -0.248 NA
ATOM     59  C   UNL A   1      37.248  32.016  32.139  1.00  0.00     0.031 C 
ATOM     60  C   UNL A   1      41.559  30.317  36.059  1.00  0.00     0.029 A 
ATOM     61  C   UNL A   1      40.794  30.467  34.913  1.00  0.00     0.049 A 
ATOM     62  H   UNL A   1      41.074  29.603  33.006  1.00  0.00     0.167 HD
ATOM     63  C   UNL A   1      38.928  31.357  33.550  1.00  0.00     0.074 A 
ATOM     64  C   UNL A   1      37.730  32.148  33.366  1.00  0.00     0.031 C 
ATOM     65  C   UNL A   1      39.600  31.251  34.724  1.00  0.00     0.037 A 
BRANCH  52  66
ATOM     66  C   UNL A   1      44.534  27.543  34.428  1.00  0.00     0.064 A 
ATOM     67  C   UNL A   1      44.405  26.313  35.091  1.00  0.00     0.173 A 
ATOM     68  C   UNL A   1      45.795  28.158  34.431  1.00  0.00     0.173 A 
ATOM     69  F   UNL A   1      43.218  25.689  35.133  1.00  0.00    -0.203 F 
ATOM     70  C   UNL A   1      45.488  25.737  35.751  1.00  0.00     0.198 A 
ATOM     71  C   UNL A   1      46.884  27.563  35.063  1.00  0.00     0.198 A 
ATOM     72  F   UNL A   1      45.976  29.333  33.810  1.00  0.00    -0.203 F 
ATOM     73  F   UNL A   1      45.328  24.587  36.421  1.00  0.00    -0.200 F 
ATOM     74  C   UNL A   1      46.728  26.357  35.729  1.00  0.00     0.200 A 
ATOM     75  F   UNL A   1      48.084  28.157  35.027  1.00  0.00    -0.200 F 
ATOM     76  F   UNL A   1      47.771  25.798  36.358  1.00  0.00    -0.200 F 
ENDBRANCH  52  66
BRANCH  53  77
ATOM     77  C   UNL A   1      36.913  31.421  29.297  1.00  0.00     0.064 A 
ATOM     78  C   UNL A   1      36.873  32.774  28.931  1.00  0.00     0.173 A 
ATOM     79  C   UNL A   1      35.802  30.627  28.976  1.00  0.00     0.173 A 
ATOM     80  F   UNL A   1      37.895  33.583  29.245  1.00  0.00    -0.203 F 
ATOM     81  C   UNL A   1      35.759  33.316  28.293  1.00  0.00     0.198 A 
ATOM     82  C   UNL A   1      34.703  31.161  28.307  1.00  0.00     0.198 A 
ATOM     83  F   UNL A   1      35.785  29.329  29.312  1.00  0.00    -0.203 F 
ATOM     84  F   UNL A   1      35.723  34.624  28.007  1.00  0.00    -0.200 F 
ATOM     85  C   UNL A   1      34.678  32.508  27.975  1.00  0.00     0.200 A 
ATOM     86  F   UNL A   1      33.664  30.375  27.994  1.00  0.00    -0.200 F 
ATOM     87  F   UNL A   1      33.606  33.028  27.360  1.00  0.00    -0.200 F 
ENDBRANCH  53  77
BRANCH  65  88
ATOM     88  C   UNL A   1      39.077  32.042  35.893  1.00  0.00     0.064 A 
ATOM     89  C   UNL A   1      39.416  33.389  36.090  1.00  0.00     0.173 A 
ATOM     90  C   UNL A   1      38.213  31.445  36.826  1.00  0.00     0.173 A 
ATOM     91  F   UNL A   1      40.245  34.009  35.235  1.00  0.00    -0.203 F 
ATOM     92  C   UNL A   1      38.948  34.095  37.197  1.00  0.00     0.198 A 
ATOM     93  C   UNL A   1      37.715  32.164  37.910  1.00  0.00     0.198 A 
ATOM     94  F   UNL A   1      37.845  30.164  36.683  1.00  0.00    -0.203 F 
ATOM     95  F   UNL A   1      39.341  35.360  37.398  1.00  0.00    -0.200 F 
ATOM     96  C   UNL A   1      38.094  33.483  38.102  1.00  0.00     0.200 A 
ATOM     97  F   UNL A   1      36.876  31.576  38.773  1.00  0.00    -0.200 F 
ATOM     98  F   UNL A   1      37.645  34.163  39.167  1.00  0.00    -0.200 F 
ENDBRANCH  65  88
ENDBRANCH  39  40
ENDBRANCH  32  34
ENDBRANCH  31  32
ENDBRANCH  30  31
ENDBRANCH  29  30
ENDBRANCH  28  29
ENDBRANCH  27  28
ENDBRANCH   1  27
TORSDOF 21
ENDMDL
MODEL 2
REMARK VINA RESULT:     -10.2      4.406      8.711
REMARK SMILES CC[C@](C)([NH3+])C(=O)N1CC[NH+]([C@H](C)C(=O)OCCOCCOCCOC(=O)c2ccc(-c3c4nc(c(-c5c(F)c(F)c(F)c(F)c5F)c5ccc([nH]5)c(-c5c(F)c(F)c(F)c(F)c5F)c5nc(c(-c6c(F)c(F)c(F)c(F)c6F)c6ccc3[nH]6)C=C5)C=C4)cc2)CC1
REMARK SMILES IDX 20 1 19 2 18 3 17 4 16 5 14 6 15 7 12 8 13 9 11 10 6 11 7 12
REMARK SMILES IDX 8 13 9 14 92 15 10 16 91 17 3 19 4 20 2 21 1 22 5 23 21 27
REMARK SMILES IDX 22 28 23 29 24 30 25 31 26 32 27 33 28 34 29 35 90 36 30 37
REMARK SMILES IDX 89 38 31 39 32 40 33 41 83 42 34 43 88 44 82 45 84 46 35 47
REMARK SMILES IDX 87 48 81 49 80 50 36 52 68 53 48 54 67 55 49 56 52 57 66 58
REMARK SMILES IDX 85 59 50 60 51 61 65 63 86 64 53 65 37 66 38 67 46 68 39 69
REMARK SMILES IDX 40 70 44 71 47 72 41 73 42 74 45 75 43 76 69 77 70 78 78 79
REMARK SMILES IDX 71 80 72 81 76 82 79 83 73 84 74 85 77 86 75 87 54 88 55 89
REMARK SMILES IDX 63 90 56 91 57 92 61 93 64 94 58 95 59 96 62 97 60 98
REMARK H PARENT 11 18 5 24 5 25 5 26 84 51 52 62
REMARK Flexibility Score: inf
ROOT
ATOM      1  C   UNL A   1      32.961  19.514  24.104  1.00  0.00     0.188 C 
ENDROOT
BRANCH   1   2
ATOM      2  O   UNL A   1      32.486  20.310  23.027  1.00  0.00    -0.376 OA
BRANCH   2   3
ATOM      3  C   UNL A   1      32.006  21.626  23.273  1.00  0.00     0.202 C 
BRANCH   3   4
ATOM      4  C   UNL A   1      32.847  22.835  22.826  1.00  0.00     0.261 C 
BRANCH   4   5
ATOM      5  O   UNL A   1      34.235  22.834  23.217  1.00  0.00    -0.459 OA
BRANCH   5   6
ATOM      6  C   UNL A   1      34.605  23.773  24.134  1.00  0.00     0.364 C 
ATOM      7  O   UNL A   1      35.772  24.023  24.425  1.00  0.00    -0.245 OA
BRANCH   6   8
ATOM      8  C   UNL A   1      33.410  24.482  24.829  1.00  0.00     0.292 C 
ATOM      9  C   UNL A   1      32.941  23.957  26.199  1.00  0.00     0.088 C 
BRANCH   8  10
ATOM     10  N   UNL A   1      33.684  25.935  24.827  1.00  0.00    -0.321 N 
ATOM     11  C   UNL A   1      31.686  29.399  24.282  1.00  0.00     0.283 C 
ATOM     12  O   UNL A   1      31.309  30.138  25.205  1.00  0.00    -0.268 OA
ATOM     13  N   UNL A   1      32.819  28.632  24.468  1.00  0.00    -0.326 N 
ATOM     14  C   UNL A   1      33.128  28.176  25.819  1.00  0.00     0.181 C 
ATOM     15  C   UNL A   1      33.703  28.037  23.471  1.00  0.00     0.181 C 
ATOM     16  C   UNL A   1      32.915  26.654  25.869  1.00  0.00     0.284 C 
ATOM     17  C   UNL A   1      33.546  26.513  23.475  1.00  0.00     0.284 C 
ATOM     18  H   UNL A   1      34.662  26.063  25.086  1.00  0.00     0.348 HD
BRANCH  11  19
ATOM     19  C   UNL A   1      30.718  29.158  23.068  1.00  0.00     0.171 C 
ATOM     20  C   UNL A   1      29.403  29.909  23.351  1.00  0.00     0.090 C 
BRANCH  19  21
ATOM     21  C   UNL A   1      30.447  27.639  22.887  1.00  0.00     0.075 C 
ATOM     22  C   UNL A   1      29.617  26.977  23.983  1.00  0.00     0.011 C 
ENDBRANCH  19  21
BRANCH  19  23
ATOM     23  N   UNL A   1      31.227  29.690  21.781  1.00  0.00    -0.345 N 
ATOM     24  H   UNL A   1      32.163  30.072  21.918  1.00  0.00     0.345 HD
ATOM     25  H   UNL A   1      30.605  30.426  21.447  1.00  0.00     0.345 HD
ATOM     26  H   UNL A   1      31.264  28.938  21.093  1.00  0.00     0.345 HD
ENDBRANCH  19  23
ENDBRANCH  11  19
ENDBRANCH   8  10
ENDBRANCH   6   8
ENDBRANCH   5   6
ENDBRANCH   4   5
ENDBRANCH   3   4
ENDBRANCH   2   3
ENDBRANCH   1   2
BRANCH   1  27
ATOM     27  C   UNL A   1      34.244  19.923  24.837  1.00  0.00     0.188 C 
BRANCH  27  28
ATOM     28  O   UNL A   1      35.330  19.042  24.690  1.00  0.00    -0.376 OA
BRANCH  28  29
ATOM     29  C   UNL A   1      36.636  19.564  24.827  1.00  0.00     0.202 C 
BRANCH  29  30
ATOM     30  C   UNL A   1      36.830  20.981  25.397  1.00  0.00     0.261 C 
BRANCH  30  31
ATOM     31  O   UNL A   1      38.118  21.596  25.203  1.00  0.00    -0.460 OA
BRANCH  31  32
ATOM     32  C   UNL A   1      39.102  21.274  26.079  1.00  0.00     0.338 C 
ATOM     33  O   UNL A   1      39.573  20.172  26.274  1.00  0.00    -0.246 OA
BRANCH  32  34
ATOM     34  C   UNL A   1      39.694  22.541  26.585  1.00  0.00     0.060 A 
ATOM     35  C   UNL A   1      39.204  23.760  26.092  1.00  0.00     0.016 A 
ATOM     36  C   UNL A   1      40.706  22.535  27.547  1.00  0.00     0.016 A 
ATOM     37  C   UNL A   1      39.742  24.970  26.537  1.00  0.00     0.010 A 
ATOM     38  C   UNL A   1      41.262  23.748  27.973  1.00  0.00     0.010 A 
ATOM     39  C   UNL A   1      40.805  24.973  27.450  1.00  0.00    -0.014 A 
BRANCH  39  40
ATOM     40  C   UNL A   1      41.546  26.232  27.724  1.00  0.00     0.031 A 
ATOM     41  C   UNL A   1      40.846  27.334  28.474  1.00  0.00     0.074 A 
ATOM     42  C   UNL A   1      42.824  26.397  27.339  1.00  0.00     0.049 A 
ATOM     43  N   UNL A   1      41.270  28.531  28.792  1.00  0.00    -0.248 NA
ATOM     44  C   UNL A   1      39.475  27.043  28.926  1.00  0.00     0.031 C 
ATOM     45  C   UNL A   1      43.634  25.401  26.644  1.00  0.00     0.029 A 
ATOM     46  N   UNL A   1      43.664  27.478  27.477  1.00  0.00    -0.354 N 
ATOM     47  C   UNL A   1      40.221  29.137  29.471  1.00  0.00     0.074 A 
ATOM     48  C   UNL A   1      39.128  28.188  29.491  1.00  0.00     0.031 C 
ATOM     49  C   UNL A   1      44.851  25.921  26.402  1.00  0.00     0.029 A 
ATOM     50  C   UNL A   1      44.894  27.298  26.896  1.00  0.00     0.049 A 
ATOM     51  H   UNL A   1      43.406  28.304  27.947  1.00  0.00     0.167 HD
ATOM     52  C   UNL A   1      40.173  30.368  30.034  1.00  0.00     0.037 A 
ATOM     53  C   UNL A   1      45.928  28.152  26.757  1.00  0.00     0.037 A 
ATOM     54  C   UNL A   1      41.256  31.318  30.009  1.00  0.00     0.049 A 
ATOM     55  C   UNL A   1      45.821  29.546  27.325  1.00  0.00     0.074 A 
ATOM     56  C   UNL A   1      41.307  32.582  30.568  1.00  0.00     0.029 A 
ATOM     57  N   UNL A   1      42.475  31.110  29.380  1.00  0.00    -0.354 N 
ATOM     58  N   UNL A   1      44.838  30.101  27.992  1.00  0.00    -0.248 NA
ATOM     59  C   UNL A   1      46.978  30.433  27.125  1.00  0.00     0.031 C 
ATOM     60  C   UNL A   1      42.531  33.165  30.222  1.00  0.00     0.029 A 
ATOM     61  C   UNL A   1      43.272  32.237  29.509  1.00  0.00     0.049 A 
ATOM     62  H   UNL A   1      42.735  30.285  28.910  1.00  0.00     0.167 HD
ATOM     63  C   UNL A   1      45.267  31.384  28.314  1.00  0.00     0.074 A 
ATOM     64  C   UNL A   1      46.610  31.517  27.790  1.00  0.00     0.031 C 
ATOM     65  C   UNL A   1      44.609  32.363  28.984  1.00  0.00     0.037 A 
BRANCH  52  66
ATOM     66  C   UNL A   1      38.889  30.776  30.702  1.00  0.00     0.064 A 
ATOM     67  C   UNL A   1      37.819  31.323  29.980  1.00  0.00     0.173 A 
ATOM     68  C   UNL A   1      38.718  30.585  32.081  1.00  0.00     0.173 A 
ATOM     69  F   UNL A   1      37.935  31.541  28.660  1.00  0.00    -0.203 F 
ATOM     70  C   UNL A   1      36.636  31.690  30.617  1.00  0.00     0.198 A 
ATOM     71  C   UNL A   1      37.521  30.922  32.710  1.00  0.00     0.198 A 
ATOM     72  F   UNL A   1      39.707  30.062  32.821  1.00  0.00    -0.203 F 
ATOM     73  F   UNL A   1      35.647  32.260  29.914  1.00  0.00    -0.200 F 
ATOM     74  C   UNL A   1      36.485  31.481  31.979  1.00  0.00     0.200 A 
ATOM     75  F   UNL A   1      37.373  30.704  34.024  1.00  0.00    -0.200 F 
ATOM     76  F   UNL A   1      35.343  31.826  32.590  1.00  0.00    -0.200 F 
ENDBRANCH  52  66
BRANCH  53  77
ATOM     77  C   UNL A   1      47.158  27.727  26.036  1.00  0.00     0.064 A 
ATOM     78  C   UNL A   1      47.213  27.724  24.635  1.00  0.00     0.173 A 
ATOM     79  C   UNL A   1      48.290  27.276  26.731  1.00  0.00     0.173 A 
ATOM     80  F   UNL A   1      46.146  28.114  23.923  1.00  0.00    -0.203 F 
ATOM     81  C   UNL A   1      48.342  27.267  23.957  1.00  0.00     0.198 A 
ATOM     82  C   UNL A   1      49.432  26.852  26.054  1.00  0.00     0.198 A 
ATOM     83  F   UNL A   1      48.288  27.248  28.072  1.00  0.00    -0.203 F 
ATOM     84  F   UNL A   1      48.345  27.221  22.618  1.00  0.00    -0.200 F 
ATOM     85  C   UNL A   1      49.453  26.838  24.667  1.00  0.00     0.200 A 
ATOM     86  F   UNL A   1      50.506  26.446  26.744  1.00  0.00    -0.200 F 
ATOM     87  F   UNL A   1      50.540  26.399  24.016  1.00  0.00    -0.200 F 
ENDBRANCH  53  77
BRANCH  65  88
ATOM     88  C   UNL A   1      45.347  33.654  29.224  1.00  0.00     0.064 A 
ATOM     89  C   UNL A   1      45.340  34.699  28.288  1.00  0.00     0.173 A 
ATOM     90  C   UNL A   1      46.063  33.851  30.416  1.00  0.00     0.173 A 
ATOM     91  F   UNL A   1      44.680  34.561  27.127  1.00  0.00    -0.203 F 
ATOM     92  C   UNL A   1      46.057  35.872  28.514  1.00  0.00     0.198 A 
ATOM     93  C   UNL A   1      46.746  35.041  30.657  1.00  0.00     0.198 A 
ATOM     94  F   UNL A   1      46.096  32.893  31.353  1.00  0.00    -0.203 F 
ATOM     95  F   UNL A   1      46.090  36.827  27.575  1.00  0.00    -0.200 F 
ATOM     96  C   UNL A   1      46.754  36.044  29.701  1.00  0.00     0.200 A 
ATOM     97  F   UNL A   1      47.405  35.211  31.811  1.00  0.00    -0.200 F 
ATOM     98  F   UNL A   1      47.444  37.173  29.917  1.00  0.00    -0.200 F 
ENDBRANCH  65  88
ENDBRANCH  39  40
ENDBRANCH  32  34
ENDBRANCH  31  32
ENDBRANCH  30  31
ENDBRANCH  29  30
ENDBRANCH  28  29
ENDBRANCH  27  28
ENDBRANCH   1  27
TORSDOF 21
ENDMDL
MODEL 3
REMARK VINA RESULT:     -10.2      5.218     10.750
REMARK SMILES CC[C@](C)([NH3+])C(=O)N1CC[NH+]([C@H](C)C(=O)OCCOCCOCCOC(=O)c2ccc(-c3c4nc(c(-c5c(F)c(F)c(F)c(F)c5F)c5ccc([nH]5)c(-c5c(F)c(F)c(F)c(F)c5F)c5nc(c(-c6c(F)c(F)c(F)c(F)c6F)c6ccc3[nH]6)C=C5)C=C4)cc2)CC1
REMARK SMILES IDX 20 1 19 2 18 3 17 4 16 5 14 6 15 7 12 8 13 9 11 10 6 11 7 12
REMARK SMILES IDX 8 13 9 14 92 15 10 16 91 17 3 19 4 20 2 21 1 22 5 23 21 27
REMARK SMILES IDX 22 28 23 29 24 30 25 31 26 32 27 33 28 34 29 35 90 36 30 37
REMARK SMILES IDX 89 38 31 39 32 40 33 41 83 42 34 43 88 44 82 45 84 46 35 47
REMARK SMILES IDX 87 48 81 49 80 50 36 52 68 53 48 54 67 55 49 56 52 57 66 58
REMARK SMILES IDX 85 59 50 60 51 61 65 63 86 64 53 65 37 66 38 67 46 68 39 69
REMARK SMILES IDX 40 70 44 71 47 72 41 73 42 74 45 75 43 76 69 77 70 78 78 79
REMARK SMILES IDX 71 80 72 81 76 82 79 83 73 84 74 85 77 86 75 87 54 88 55 89
REMARK SMILES IDX 63 90 56 91 57 92 61 93 64 94 58 95 59 96 62 97 60 98
REMARK H PARENT 11 18 5 24 5 25 5 26 84 51 52 62
REMARK Flexibility Score: inf
ROOT
ATOM      1  C   UNL A   1      34.414  31.949  28.537  1.00  0.00     0.188 C 
ENDROOT
BRANCH   1   2
ATOM      2  O   UNL A   1      33.902  31.585  27.264  1.00  0.00    -0.376 OA
BRANCH   2   3
ATOM      3  C   UNL A   1      32.983  30.505  27.149  1.00  0.00     0.202 C 
BRANCH   3   4
ATOM      4  C   UNL A   1      32.473  30.087  25.759  1.00  0.00     0.261 C 
BRANCH   4   5
ATOM      5  O   UNL A   1      33.379  29.310  24.948  1.00  0.00    -0.459 OA
BRANCH   5   6
ATOM      6  C   UNL A   1      32.807  28.430  24.078  1.00  0.00     0.364 C 
ATOM      7  O   UNL A   1      32.572  28.687  22.900  1.00  0.00    -0.245 OA
BRANCH   6   8
ATOM      8  C   UNL A   1      32.425  27.067  24.718  1.00  0.00     0.292 C 
ATOM      9  C   UNL A   1      30.946  26.805  25.058  1.00  0.00     0.088 C 
BRANCH   8  10
ATOM     10  N   UNL A   1      33.029  25.997  23.896  1.00  0.00    -0.321 N 
ATOM     11  C   UNL A   1      33.145  21.964  23.774  1.00  0.00     0.283 C 
ATOM     12  O   UNL A   1      32.467  21.272  22.999  1.00  0.00    -0.268 OA
ATOM     13  N   UNL A   1      33.518  23.232  23.375  1.00  0.00    -0.326 N 
ATOM     14  C   UNL A   1      32.629  23.962  22.477  1.00  0.00     0.181 C 
ATOM     15  C   UNL A   1      34.617  24.063  23.855  1.00  0.00     0.181 C 
ATOM     16  C   UNL A   1      32.009  25.129  23.264  1.00  0.00     0.284 C 
ATOM     17  C   UNL A   1      34.066  25.256  24.644  1.00  0.00     0.284 C 
ATOM     18  H   UNL A   1      33.514  26.444  23.118  1.00  0.00     0.348 HD
BRANCH  11  19
ATOM     19  C   UNL A   1      33.308  21.487  25.262  1.00  0.00     0.171 C 
ATOM     20  C   UNL A   1      32.842  20.021  25.345  1.00  0.00     0.090 C 
BRANCH  19  21
ATOM     21  C   UNL A   1      32.462  22.379  26.211  1.00  0.00     0.075 C 
ATOM     22  C   UNL A   1      31.012  22.606  25.793  1.00  0.00     0.011 C 
ENDBRANCH  19  21
BRANCH  19  23
ATOM     23  N   UNL A   1      34.710  21.502  25.746  1.00  0.00    -0.345 N 
ATOM     24  H   UNL A   1      35.321  21.110  25.028  1.00  0.00     0.345 HD
ATOM     25  H   UNL A   1      34.782  20.945  26.596  1.00  0.00     0.345 HD
ATOM     26  H   UNL A   1      34.991  22.463  25.943  1.00  0.00     0.345 HD
ENDBRANCH  19  23
ENDBRANCH  11  19
ENDBRANCH   8  10
ENDBRANCH   6   8
ENDBRANCH   5   6
ENDBRANCH   4   5
ENDBRANCH   3   4
ENDBRANCH   2   3
ENDBRANCH   1   2
BRANCH   1  27
ATOM     27  C   UNL A   1      34.476  33.430  28.932  1.00  0.00     0.188 C 
BRANCH  27  28
ATOM     28  O   UNL A   1      33.681  33.794  30.033  1.00  0.00    -0.376 OA
BRANCH  28  29
ATOM     29  C   UNL A   1      34.290  34.513  31.087  1.00  0.00     0.202 C 
BRANCH  29  30
ATOM     30  C   UNL A   1      34.572  33.804  32.425  1.00  0.00     0.261 C 
BRANCH  30  31
ATOM     31  O   UNL A   1      35.154  32.489  32.360  1.00  0.00    -0.460 OA
BRANCH  31  32
ATOM     32  C   UNL A   1      36.232  32.243  33.147  1.00  0.00     0.338 C 
ATOM     33  O   UNL A   1      36.298  32.367  34.353  1.00  0.00    -0.246 OA
BRANCH  32  34
ATOM     34  C   UNL A   1      37.252  31.549  32.317  1.00  0.00     0.060 A 
ATOM     35  C   UNL A   1      38.291  30.859  32.962  1.00  0.00     0.016 A 
ATOM     36  C   UNL A   1      37.183  31.560  30.923  1.00  0.00     0.016 A 
ATOM     37  C   UNL A   1      39.273  30.203  32.215  1.00  0.00     0.010 A 
ATOM     38  C   UNL A   1      38.182  30.924  30.175  1.00  0.00     0.010 A 
ATOM     39  C   UNL A   1      39.250  30.266  30.815  1.00  0.00    -0.014 A 
BRANCH  39  40
ATOM     40  C   UNL A   1      40.423  29.798  30.031  1.00  0.00     0.031 A 
ATOM     41  C   UNL A   1      41.539  30.769  29.750  1.00  0.00     0.074 A 
ATOM     42  C   UNL A   1      40.519  28.530  29.592  1.00  0.00     0.049 A 
ATOM     43  N   UNL A   1      42.637  30.604  29.057  1.00  0.00    -0.248 NA
ATOM     44  C   UNL A   1      41.392  32.113  30.332  1.00  0.00     0.031 C 
ATOM     45  C   UNL A   1      39.535  27.477  29.826  1.00  0.00     0.029 A 
ATOM     46  N   UNL A   1      41.497  27.917  28.845  1.00  0.00    -0.354 N 
ATOM     47  C   UNL A   1      43.305  31.821  29.111  1.00  0.00     0.074 A 
ATOM     48  C   UNL A   1      42.475  32.724  29.878  1.00  0.00     0.031 C 
ATOM     49  C   UNL A   1      39.951  26.349  29.223  1.00  0.00     0.029 A 
ATOM     50  C   UNL A   1      41.214  26.610  28.531  1.00  0.00     0.049 A 
ATOM     51  H   UNL A   1      42.322  28.373  28.560  1.00  0.00     0.167 HD
ATOM     52  C   UNL A   1      44.506  32.154  28.579  1.00  0.00     0.037 A 
ATOM     53  C   UNL A   1      41.885  25.734  27.758  1.00  0.00     0.037 A 
ATOM     54  C   UNL A   1      45.332  31.259  27.809  1.00  0.00     0.049 A 
ATOM     55  C   UNL A   1      43.181  26.154  27.110  1.00  0.00     0.074 A 
ATOM     56  C   UNL A   1      46.571  31.501  27.244  1.00  0.00     0.029 A 
ATOM     57  N   UNL A   1      44.994  29.954  27.484  1.00  0.00    -0.354 N 
ATOM     58  N   UNL A   1      43.822  27.295  27.192  1.00  0.00    -0.248 NA
ATOM     59  C   UNL A   1      43.854  25.154  26.266  1.00  0.00     0.031 C 
ATOM     60  C   UNL A   1      46.955  30.365  26.523  1.00  0.00     0.029 A 
ATOM     61  C   UNL A   1      45.987  29.389  26.699  1.00  0.00     0.049 A 
ATOM     62  H   UNL A   1      44.169  29.496  27.768  1.00  0.00     0.167 HD
ATOM     63  C   UNL A   1      44.980  27.141  26.437  1.00  0.00     0.074 A 
ATOM     64  C   UNL A   1      44.966  25.787  25.925  1.00  0.00     0.031 C 
ATOM     65  C   UNL A   1      45.966  28.040  26.191  1.00  0.00     0.037 A 
BRANCH  52  66
ATOM     66  C   UNL A   1      44.988  33.563  28.784  1.00  0.00     0.064 A 
ATOM     67  C   UNL A   1      44.692  34.588  27.874  1.00  0.00     0.173 A 
ATOM     68  C   UNL A   1      45.731  33.897  29.926  1.00  0.00     0.173 A 
ATOM     69  F   UNL A   1      43.997  34.320  26.757  1.00  0.00    -0.203 F 
ATOM     70  C   UNL A   1      45.144  35.888  28.084  1.00  0.00     0.198 A 
ATOM     71  C   UNL A   1      46.154  35.205  30.151  1.00  0.00     0.198 A 
ATOM     72  F   UNL A   1      46.041  32.957  30.831  1.00  0.00    -0.203 F 
ATOM     73  F   UNL A   1      44.893  36.840  27.175  1.00  0.00    -0.200 F 
ATOM     74  C   UNL A   1      45.867  36.198  29.227  1.00  0.00     0.200 A 
ATOM     75  F   UNL A   1      46.839  35.504  31.263  1.00  0.00    -0.200 F 
ATOM     76  F   UNL A   1      46.295  37.451  29.433  1.00  0.00    -0.200 F 
ENDBRANCH  52  66
BRANCH  53  77
ATOM     77  C   UNL A   1      41.341  24.367  27.532  1.00  0.00     0.064 A 
ATOM     78  C   UNL A   1      41.951  23.240  28.102  1.00  0.00     0.173 A 
ATOM     79  C   UNL A   1      40.223  24.155  26.711  1.00  0.00     0.173 A 
ATOM     80  F   UNL A   1      43.042  23.386  28.868  1.00  0.00    -0.203 F 
ATOM     81  C   UNL A   1      41.479  21.955  27.842  1.00  0.00     0.198 A 
ATOM     82  C   UNL A   1      39.731  22.872  26.479  1.00  0.00     0.198 A 
ATOM     83  F   UNL A   1      39.607  25.196  26.133  1.00  0.00    -0.203 F 
ATOM     84  F   UNL A   1      42.118  20.893  28.352  1.00  0.00    -0.200 F 
ATOM     85  C   UNL A   1      40.366  21.772  27.036  1.00  0.00     0.200 A 
ATOM     86  F   UNL A   1      38.650  22.701  25.706  1.00  0.00    -0.200 F 
ATOM     87  F   UNL A   1      39.911  20.536  26.786  1.00  0.00    -0.200 F 
ENDBRANCH  53  77
BRANCH  65  88
ATOM     88  C   UNL A   1      47.134  27.575  25.362  1.00  0.00     0.064 A 
ATOM     89  C   UNL A   1      48.204  26.859  25.921  1.00  0.00     0.173 A 
ATOM     90  C   UNL A   1      47.178  27.840  23.984  1.00  0.00     0.173 A 
ATOM     91  F   UNL A   1      48.220  26.586  27.235  1.00  0.00    -0.203 F 
ATOM     92  C   UNL A   1      49.291  26.467  25.143  1.00  0.00     0.198 A 
ATOM     93  C   UNL A   1      48.248  27.412  23.201  1.00  0.00     0.198 A 
ATOM     94  F   UNL A   1      46.178  28.510  23.391  1.00  0.00    -0.203 F 
ATOM     95  F   UNL A   1      50.332  25.845  25.714  1.00  0.00    -0.200 F 
ATOM     96  C   UNL A   1      49.309  26.738  23.784  1.00  0.00     0.200 A 
ATOM     97  F   UNL A   1      48.254  27.661  21.884  1.00  0.00    -0.200 F 
ATOM     98  F   UNL A   1      50.357  26.361  23.037  1.00  0.00    -0.200 F 
ENDBRANCH  65  88
ENDBRANCH  39  40
ENDBRANCH  32  34
ENDBRANCH  31  32
ENDBRANCH  30  31
ENDBRANCH  29  30
ENDBRANCH  28  29
ENDBRANCH  27  28
ENDBRANCH   1  27
TORSDOF 21
ENDMDL
