MODEL 1
REMARK VINA RESULT:     -11.7      0.000      0.000
REMARK SMILES Cc1cccc(CNC(=O)N[C@@H](CC2=c3ccccc3=NC2)C(=O)OCCOCCOCCOC(=O)c2ccc(-c3c4nc(c(-c5c(F)c(F)c(F)c(F)c5F)c5ccc([nH]5)c(-c5c(F)c(F)c(F)c(F)c5F)c5nc(c(-c6c(F)c(F)c(F)c(F)c6F)c6ccc3[nH]6)C=C5)C=C4)cc2)c1
REMARK SMILES IDX 29 1 28 2 27 3 26 4 25 5 23 6 24 7 12 8 11 9 8 10 9 11 10 13
REMARK SMILES IDX 7 15 6 16 1 17 2 18 3 19 100 20 4 21 5 22 13 23 14 24 15 25
REMARK SMILES IDX 22 26 16 27 20 28 21 29 17 30 19 31 18 32 30 33 31 34 32 35
REMARK SMILES IDX 33 36 34 37 35 38 36 39 37 40 38 41 99 42 39 43 98 44 40 45
REMARK SMILES IDX 41 46 42 47 92 48 43 49 97 50 91 51 93 52 44 53 96 54 90 55
REMARK SMILES IDX 89 56 45 58 77 59 57 60 76 61 58 62 61 63 75 64 94 65 59 66
REMARK SMILES IDX 60 67 74 69 95 70 62 71 46 72 47 73 55 74 48 75 49 76 53 77
REMARK SMILES IDX 56 78 50 79 51 80 54 81 52 82 78 83 79 84 87 85 80 86 81 87
REMARK SMILES IDX 85 88 88 89 82 90 83 91 86 92 84 93 63 94 64 95 72 96 65 97
REMARK SMILES IDX 66 98 70 99 73 100 67 101 68 102 71 103 69 104
REMARK H PARENT 8 12 11 14 93 57 61 68
REMARK Flexibility Score: inf
ROOT
ATOM      1  C   UNL A   1      31.850  30.611  26.043  1.00  0.00     0.188 C 
ENDROOT
BRANCH   1   2
ATOM      2  O   UNL A   1      32.532  30.296  27.240  1.00  0.00    -0.376 OA
BRANCH   2   3
ATOM      3  C   UNL A   1      33.906  29.997  27.063  1.00  0.00     0.202 C 
BRANCH   3   4
ATOM      4  C   UNL A   1      34.312  28.528  26.821  1.00  0.00     0.261 C 
BRANCH   4   5
ATOM      5  O   UNL A   1      33.147  27.473  26.387  1.00  0.00    -0.462 OA
BRANCH   5   6
ATOM      6  C   UNL A   1      32.682  26.151  26.223  1.00  0.00     0.329 C 
ATOM      7  O   UNL A   1      31.683  25.924  26.914  1.00  0.00    -0.250 OA
BRANCH   6   8
ATOM      8  C   UNL A   1      33.176  24.857  25.257  1.00  0.00     0.198 C 
BRANCH   8   9
ATOM      9  N   UNL A   1      32.155  24.398  24.239  1.00  0.00    -0.324 N 
ATOM     10  N   UNL A   1      31.337  22.228  24.725  1.00  0.00    -0.334 N 
ATOM     11  C   UNL A   1      31.379  23.334  23.976  1.00  0.00     0.315 C 
ATOM     12  H   UNL A   1      30.444  21.930  25.011  1.00  0.00     0.165 HD
ATOM     13  O   UNL A   1      30.529  23.471  23.091  1.00  0.00    -0.249 OA
ATOM     14  H   UNL A   1      32.016  25.097  23.559  1.00  0.00     0.166 HD
BRANCH  10  15
ATOM     15  C   UNL A   1      32.446  21.427  25.163  1.00  0.00     0.153 C 
BRANCH  15  16
ATOM     16  C   UNL A   1      32.614  20.095  24.474  1.00  0.00    -0.028 A 
ATOM     17  C   UNL A   1      32.739  16.540  25.809  1.00  0.00     0.044 C 
ATOM     18  C   UNL A   1      32.781  17.680  24.832  1.00  0.00    -0.051 A 
ATOM     19  C   UNL A   1      32.561  17.469  23.468  1.00  0.00     0.003 A 
ATOM     20  C   UNL A   1      32.828  18.992  25.316  1.00  0.00     0.009 A 
ATOM     21  C   UNL A   1      32.392  18.556  22.607  1.00  0.00     0.001 A 
ATOM     22  C   UNL A   1      32.418  19.864  23.104  1.00  0.00     0.005 A 
ENDBRANCH  15  16
ENDBRANCH  10  15
ENDBRANCH   8   9
BRANCH   8  23
ATOM     23  C   UNL A   1      34.772  24.442  24.794  1.00  0.00     0.070 C 
BRANCH  23  24
ATOM     24  C   UNL A   1      36.005  23.604  25.697  1.00  0.00    -0.037 C 
ATOM     25  C   UNL A   1      37.618  23.688  26.406  1.00  0.00     0.001 A 
ATOM     26  C   UNL A   1      35.926  21.929  24.630  1.00  0.00     0.174 C 
ATOM     27  C   UNL A   1      38.716  24.685  26.810  1.00  0.00     0.010 A 
ATOM     28  C   UNL A   1      38.693  22.205  25.931  1.00  0.00     0.065 A 
ATOM     29  N   UNL A   1      38.012  21.303  24.990  1.00  0.00    -0.280 NA
ATOM     30  C   UNL A   1      40.016  24.419  27.000  1.00  0.00     0.001 A 
ATOM     31  C   UNL A   1      40.053  22.056  26.425  1.00  0.00     0.028 A 
ATOM     32  C   UNL A   1      40.638  23.131  26.949  1.00  0.00     0.002 A 
ENDBRANCH  23  24
ENDBRANCH   8  23
ENDBRANCH   6   8
ENDBRANCH   5   6
ENDBRANCH   4   5
ENDBRANCH   3   4
ENDBRANCH   2   3
ENDBRANCH   1   2
BRANCH   1  33
ATOM     33  C   UNL A   1      31.101  31.937  26.131  1.00  0.00     0.188 C 
BRANCH  33  34
ATOM     34  O   UNL A   1      31.390  32.704  27.291  1.00  0.00    -0.376 OA
BRANCH  34  35
ATOM     35  C   UNL A   1      32.097  33.915  27.252  1.00  0.00     0.202 C 
BRANCH  35  36
ATOM     36  C   UNL A   1      33.369  33.778  28.074  1.00  0.00     0.261 C 
BRANCH  36  37
ATOM     37  O   UNL A   1      33.428  34.886  29.012  1.00  0.00    -0.460 OA
BRANCH  37  38
ATOM     38  C   UNL A   1      34.060  34.610  30.186  1.00  0.00     0.338 C 
ATOM     39  O   UNL A   1      33.973  35.281  31.204  1.00  0.00    -0.246 OA
BRANCH  38  40
ATOM     40  C   UNL A   1      35.142  33.600  29.941  1.00  0.00     0.060 A 
ATOM     41  C   UNL A   1      35.086  32.442  30.688  1.00  0.00     0.016 A 
ATOM     42  C   UNL A   1      36.349  33.902  29.306  1.00  0.00     0.016 A 
ATOM     43  C   UNL A   1      36.284  31.781  31.004  1.00  0.00     0.010 A 
ATOM     44  C   UNL A   1      37.541  33.203  29.626  1.00  0.00     0.010 A 
ATOM     45  C   UNL A   1      37.576  32.190  30.599  1.00  0.00    -0.014 A 
BRANCH  45  46
ATOM     46  C   UNL A   1      39.027  31.765  31.115  1.00  0.00     0.031 A 
ATOM     47  C   UNL A   1      39.302  30.113  30.176  1.00  0.00     0.074 A 
ATOM     48  C   UNL A   1      40.107  32.447  32.167  1.00  0.00     0.049 A 
ATOM     49  N   UNL A   1      40.892  29.166  30.220  1.00  0.00    -0.248 NA
ATOM     50  C   UNL A   1      38.075  28.656  29.582  1.00  0.00     0.031 C 
ATOM     51  C   UNL A   1      41.735  32.279  32.351  1.00  0.00     0.029 A 
ATOM     52  N   UNL A   1      40.138  33.352  33.312  1.00  0.00    -0.354 N 
ATOM     53  C   UNL A   1      40.767  27.550  29.759  1.00  0.00     0.074 A 
ATOM     54  C   UNL A   1      38.964  27.336  29.379  1.00  0.00     0.031 C 
ATOM     55  C   UNL A   1      42.342  33.094  33.202  1.00  0.00     0.029 A 
ATOM     56  C   UNL A   1      41.312  33.511  34.053  1.00  0.00     0.049 A 
ATOM     57  H   UNL A   1      39.328  33.852  33.563  1.00  0.00     0.167 HD
ATOM     58  C   UNL A   1      42.044  27.050  29.833  1.00  0.00     0.037 A 
ATOM     59  C   UNL A   1      41.425  33.387  35.402  1.00  0.00     0.037 A 
ATOM     60  C   UNL A   1      42.860  27.824  30.942  1.00  0.00     0.049 A 
ATOM     61  C   UNL A   1      42.086  32.028  35.713  1.00  0.00     0.074 A 
ATOM     62  C   UNL A   1      43.762  28.893  30.879  1.00  0.00     0.029 A 
ATOM     63  N   UNL A   1      42.536  27.769  32.332  1.00  0.00    -0.354 N 
ATOM     64  N   UNL A   1      42.298  31.102  34.799  1.00  0.00    -0.248 NA
ATOM     65  C   UNL A   1      42.614  31.625  37.004  1.00  0.00     0.031 C 
ATOM     66  C   UNL A   1      43.937  29.474  32.179  1.00  0.00     0.029 A 
ATOM     67  C   UNL A   1      43.166  28.787  33.105  1.00  0.00     0.049 A 
ATOM     68  H   UNL A   1      41.934  27.093  32.720  1.00  0.00     0.167 HD
ATOM     69  C   UNL A   1      42.909  30.001  35.313  1.00  0.00     0.074 A 
ATOM     70  C   UNL A   1      43.134  30.415  36.706  1.00  0.00     0.031 C 
ATOM     71  C   UNL A   1      43.169  28.841  34.606  1.00  0.00     0.037 A 
BRANCH  58  72
ATOM     72  C   UNL A   1      42.677  26.704  28.486  1.00  0.00     0.064 A 
ATOM     73  C   UNL A   1      42.445  27.503  27.341  1.00  0.00     0.173 A 
ATOM     74  C   UNL A   1      43.392  25.513  28.242  1.00  0.00     0.173 A 
ATOM     75  F   UNL A   1      41.837  28.694  27.432  1.00  0.00    -0.203 F 
ATOM     76  C   UNL A   1      42.824  27.105  26.054  1.00  0.00     0.198 A 
ATOM     77  C   UNL A   1      43.780  25.122  26.953  1.00  0.00     0.198 A 
ATOM     78  F   UNL A   1      43.735  24.693  29.244  1.00  0.00    -0.203 F 
ATOM     79  F   UNL A   1      42.531  27.883  25.000  1.00  0.00    -0.200 F 
ATOM     80  C   UNL A   1      43.486  25.912  25.859  1.00  0.00     0.200 A 
ATOM     81  F   UNL A   1      44.435  23.965  26.775  1.00  0.00    -0.200 F 
ATOM     82  F   UNL A   1      43.852  25.531  24.627  1.00  0.00    -0.200 F 
ENDBRANCH  58  72
BRANCH  59  83
ATOM     83  C   UNL A   1      40.435  34.221  36.130  1.00  0.00     0.064 A 
ATOM     84  C   UNL A   1      39.344  33.538  36.729  1.00  0.00     0.173 A 
ATOM     85  C   UNL A   1      40.684  35.507  36.584  1.00  0.00     0.173 A 
ATOM     86  F   UNL A   1      38.993  32.321  36.280  1.00  0.00    -0.203 F 
ATOM     87  C   UNL A   1      38.722  34.005  37.887  1.00  0.00     0.198 A 
ATOM     88  C   UNL A   1      40.012  35.993  37.714  1.00  0.00     0.198 A 
ATOM     89  F   UNL A   1      41.666  36.238  36.040  1.00  0.00    -0.203 F 
ATOM     90  F   UNL A   1      37.843  33.231  38.541  1.00  0.00    -0.200 F 
ATOM     91  C   UNL A   1      39.107  35.213  38.421  1.00  0.00     0.200 A 
ATOM     92  F   UNL A   1      40.325  37.200  38.179  1.00  0.00    -0.200 F 
ATOM     93  F   UNL A   1      38.647  35.599  39.620  1.00  0.00    -0.200 F 
ENDBRANCH  59  83
BRANCH  71  94
ATOM     94  C   UNL A   1      43.682  27.635  35.347  1.00  0.00     0.064 A 
ATOM     95  C   UNL A   1      42.869  26.547  35.711  1.00  0.00     0.173 A 
ATOM     96  C   UNL A   1      45.052  27.516  35.653  1.00  0.00     0.173 A 
ATOM     97  F   UNL A   1      41.577  26.492  35.353  1.00  0.00    -0.203 F 
ATOM     98  C   UNL A   1      43.370  25.471  36.440  1.00  0.00     0.198 A 
ATOM     99  C   UNL A   1      45.566  26.395  36.295  1.00  0.00     0.198 A 
ATOM    100  F   UNL A   1      45.928  28.478  35.333  1.00  0.00    -0.203 F 
ATOM    101  F   UNL A   1      42.537  24.510  36.860  1.00  0.00    -0.200 F 
ATOM    102  C   UNL A   1      44.721  25.389  36.718  1.00  0.00     0.200 A 
ATOM    103  F   UNL A   1      46.887  26.297  36.496  1.00  0.00    -0.200 F 
ATOM    104  F   UNL A   1      45.212  24.333  37.378  1.00  0.00    -0.200 F 
ENDBRANCH  71  94
ENDBRANCH  45  46
ENDBRANCH  38  40
ENDBRANCH  37  38
ENDBRANCH  36  37
ENDBRANCH  35  36
ENDBRANCH  34  35
ENDBRANCH  33  34
ENDBRANCH   1  33
TORSDOF 22
ENDMDL
MODEL 2
REMARK VINA RESULT:     -11.7      1.564      3.473
REMARK SMILES Cc1cccc(CNC(=O)N[C@@H](CC2=c3ccccc3=NC2)C(=O)OCCOCCOCCOC(=O)c2ccc(-c3c4nc(c(-c5c(F)c(F)c(F)c(F)c5F)c5ccc([nH]5)c(-c5c(F)c(F)c(F)c(F)c5F)c5nc(c(-c6c(F)c(F)c(F)c(F)c6F)c6ccc3[nH]6)C=C5)C=C4)cc2)c1
REMARK SMILES IDX 29 1 28 2 27 3 26 4 25 5 23 6 24 7 12 8 11 9 8 10 9 11 10 13
REMARK SMILES IDX 7 15 6 16 1 17 2 18 3 19 100 20 4 21 5 22 13 23 14 24 15 25
REMARK SMILES IDX 22 26 16 27 20 28 21 29 17 30 19 31 18 32 30 33 31 34 32 35
REMARK SMILES IDX 33 36 34 37 35 38 36 39 37 40 38 41 99 42 39 43 98 44 40 45
REMARK SMILES IDX 41 46 42 47 92 48 43 49 97 50 91 51 93 52 44 53 96 54 90 55
REMARK SMILES IDX 89 56 45 58 77 59 57 60 76 61 58 62 61 63 75 64 94 65 59 66
REMARK SMILES IDX 60 67 74 69 95 70 62 71 46 72 47 73 55 74 48 75 49 76 53 77
REMARK SMILES IDX 56 78 50 79 51 80 54 81 52 82 78 83 79 84 87 85 80 86 81 87
REMARK SMILES IDX 85 88 88 89 82 90 83 91 86 92 84 93 63 94 64 95 72 96 65 97
REMARK SMILES IDX 66 98 70 99 73 100 67 101 68 102 71 103 69 104
REMARK H PARENT 8 12 11 14 93 57 61 68
REMARK Flexibility Score: inf
ROOT
ATOM      1  C   UNL A   1      31.792  30.303  25.828  1.00  0.00     0.188 C 
ENDROOT
BRANCH   1   2
ATOM      2  O   UNL A   1      32.396  29.996  27.068  1.00  0.00    -0.376 OA
BRANCH   2   3
ATOM      3  C   UNL A   1      33.752  29.599  26.970  1.00  0.00     0.202 C 
BRANCH   3   4
ATOM      4  C   UNL A   1      34.063  28.156  26.520  1.00  0.00     0.261 C 
BRANCH   4   5
ATOM      5  O   UNL A   1      32.883  27.040  26.655  1.00  0.00    -0.462 OA
BRANCH   5   6
ATOM      6  C   UNL A   1      32.397  25.731  26.454  1.00  0.00     0.329 C 
ATOM      7  O   UNL A   1      31.403  25.495  27.149  1.00  0.00    -0.250 OA
BRANCH   6   8
ATOM      8  C   UNL A   1      32.860  24.463  25.439  1.00  0.00     0.198 C 
BRANCH   8   9
ATOM      9  N   UNL A   1      31.793  24.003  24.469  1.00  0.00    -0.324 N 
ATOM     10  N   UNL A   1      31.351  25.632  22.807  1.00  0.00    -0.334 N 
ATOM     11  C   UNL A   1      31.141  24.444  23.381  1.00  0.00     0.315 C 
ATOM     12  H   UNL A   1      31.525  25.621  21.838  1.00  0.00     0.165 HD
ATOM     13  O   UNL A   1      30.439  23.623  22.784  1.00  0.00    -0.249 OA
ATOM     14  H   UNL A   1      31.481  23.101  24.710  1.00  0.00     0.166 HD
BRANCH  10  15
ATOM     15  C   UNL A   1      31.354  26.921  23.440  1.00  0.00     0.153 C 
BRANCH  15  16
ATOM     16  C   UNL A   1      30.361  27.924  22.907  1.00  0.00    -0.028 A 
ATOM     17  C   UNL A   1      26.640  28.389  23.517  1.00  0.00     0.044 C 
ATOM     18  C   UNL A   1      28.012  28.609  22.948  1.00  0.00    -0.051 A 
ATOM     19  C   UNL A   1      28.365  29.832  22.372  1.00  0.00     0.003 A 
ATOM     20  C   UNL A   1      29.011  27.660  23.189  1.00  0.00     0.009 A 
ATOM     21  C   UNL A   1      29.697  30.096  22.043  1.00  0.00     0.001 A 
ATOM     22  C   UNL A   1      30.693  29.148  22.308  1.00  0.00     0.005 A 
ENDBRANCH  15  16
ENDBRANCH  10  15
ENDBRANCH   8   9
BRANCH   8  23
ATOM     23  C   UNL A   1      34.435  24.084  24.883  1.00  0.00     0.070 C 
BRANCH  23  24
ATOM     24  C   UNL A   1      35.731  23.255  25.705  1.00  0.00    -0.037 C 
ATOM     25  C   UNL A   1      37.384  23.351  26.311  1.00  0.00     0.001 A 
ATOM     26  C   UNL A   1      35.598  21.582  24.640  1.00  0.00     0.174 C 
ATOM     27  C   UNL A   1      38.496  24.357  26.647  1.00  0.00     0.010 A 
ATOM     28  C   UNL A   1      38.440  21.879  25.765  1.00  0.00     0.065 A 
ATOM     29  N   UNL A   1      37.708  20.973  24.866  1.00  0.00    -0.280 NA
ATOM     30  C   UNL A   1      39.808  24.103  26.754  1.00  0.00     0.001 A 
ATOM     31  C   UNL A   1      39.829  21.741  26.172  1.00  0.00     0.028 A 
ATOM     32  C   UNL A   1      40.437  22.820  26.661  1.00  0.00     0.002 A 
ENDBRANCH  23  24
ENDBRANCH   8  23
ENDBRANCH   6   8
ENDBRANCH   5   6
ENDBRANCH   4   5
ENDBRANCH   3   4
ENDBRANCH   2   3
ENDBRANCH   1   2
BRANCH   1  33
ATOM     33  C   UNL A   1      31.061  31.642  25.850  1.00  0.00     0.188 C 
BRANCH  33  34
ATOM     34  O   UNL A   1      31.230  32.387  27.048  1.00  0.00    -0.376 OA
BRANCH  34  35
ATOM     35  C   UNL A   1      31.927  33.604  27.100  1.00  0.00     0.202 C 
BRANCH  35  36
ATOM     36  C   UNL A   1      33.309  33.363  27.687  1.00  0.00     0.261 C 
BRANCH  36  37
ATOM     37  O   UNL A   1      33.573  34.395  28.674  1.00  0.00    -0.460 OA
BRANCH  37  38
ATOM     38  C   UNL A   1      34.200  33.963  29.802  1.00  0.00     0.338 C 
ATOM     39  O   UNL A   1      33.948  34.346  30.936  1.00  0.00    -0.246 OA
BRANCH  38  40
ATOM     40  C   UNL A   1      35.462  33.246  29.424  1.00  0.00     0.060 A 
ATOM     41  C   UNL A   1      35.490  31.885  29.645  1.00  0.00     0.016 A 
ATOM     42  C   UNL A   1      36.684  33.893  29.219  1.00  0.00     0.016 A 
ATOM     43  C   UNL A   1      36.720  31.269  29.929  1.00  0.00     0.010 A 
ATOM     44  C   UNL A   1      37.914  33.240  29.490  1.00  0.00     0.010 A 
ATOM     45  C   UNL A   1      37.970  31.928  29.990  1.00  0.00    -0.014 A 
BRANCH  45  46
ATOM     46  C   UNL A   1      39.375  31.470  30.596  1.00  0.00     0.031 A 
ATOM     47  C   UNL A   1      39.708  29.851  29.620  1.00  0.00     0.074 A 
ATOM     48  C   UNL A   1      40.378  32.103  31.751  1.00  0.00     0.049 A 
ATOM     49  N   UNL A   1      41.283  28.887  29.747  1.00  0.00    -0.248 NA
ATOM     50  C   UNL A   1      38.518  28.429  28.882  1.00  0.00     0.031 C 
ATOM     51  C   UNL A   1      41.986  31.911  32.049  1.00  0.00     0.029 A 
ATOM     52  N   UNL A   1      40.330  32.965  32.928  1.00  0.00    -0.354 N 
ATOM     53  C   UNL A   1      41.182  27.290  29.218  1.00  0.00     0.074 A 
ATOM     54  C   UNL A   1      39.410  27.108  28.698  1.00  0.00     0.031 C 
ATOM     55  C   UNL A   1      42.534  32.688  32.973  1.00  0.00     0.029 A 
ATOM     56  C   UNL A   1      41.446  33.084  33.759  1.00  0.00     0.049 A 
ATOM     57  H   UNL A   1      39.508  33.463  33.136  1.00  0.00     0.167 HD
ATOM     58  C   UNL A   1      42.445  26.775  29.369  1.00  0.00     0.037 A 
ATOM     59  C   UNL A   1      41.458  32.910  35.108  1.00  0.00     0.037 A 
ATOM     60  C   UNL A   1      43.182  27.500  30.563  1.00  0.00     0.049 A 
ATOM     61  C   UNL A   1      42.084  31.534  35.416  1.00  0.00     0.074 A 
ATOM     62  C   UNL A   1      44.094  28.561  30.607  1.00  0.00     0.029 A 
ATOM     63  N   UNL A   1      42.754  27.397  31.923  1.00  0.00    -0.354 N 
ATOM     64  N   UNL A   1      42.356  30.640  34.487  1.00  0.00    -0.248 NA
ATOM     65  C   UNL A   1      42.511  31.079  36.727  1.00  0.00     0.031 C 
ATOM     66  C   UNL A   1      44.175  29.092  31.937  1.00  0.00     0.029 A 
ATOM     67  C   UNL A   1      43.332  28.379  32.777  1.00  0.00     0.049 A 
ATOM     68  H   UNL A   1      42.119  26.714  32.239  1.00  0.00     0.167 HD
ATOM     69  C   UNL A   1      42.920  29.515  35.004  1.00  0.00     0.074 A 
ATOM     70  C   UNL A   1      43.042  29.876  36.423  1.00  0.00     0.031 C 
ATOM     71  C   UNL A   1      43.223  28.379  34.275  1.00  0.00     0.037 A 
BRANCH  58  72
ATOM     72  C   UNL A   1      43.175  26.472  28.060  1.00  0.00     0.064 A 
ATOM     73  C   UNL A   1      43.480  25.143  27.683  1.00  0.00     0.173 A 
ATOM     74  C   UNL A   1      43.727  27.467  27.226  1.00  0.00     0.173 A 
ATOM     75  F   UNL A   1      42.970  24.094  28.343  1.00  0.00    -0.203 F 
ATOM     76  C   UNL A   1      44.330  24.838  26.613  1.00  0.00     0.198 A 
ATOM     77  C   UNL A   1      44.568  27.159  26.148  1.00  0.00     0.198 A 
ATOM     78  F   UNL A   1      43.468  28.765  27.431  1.00  0.00    -0.203 F 
ATOM     79  F   UNL A   1      44.622  23.559  26.334  1.00  0.00    -0.200 F 
ATOM     80  C   UNL A   1      44.879  25.847  25.849  1.00  0.00     0.200 A 
ATOM     81  F   UNL A   1      45.088  28.147  25.404  1.00  0.00    -0.200 F 
ATOM     82  F   UNL A   1      45.690  25.556  24.822  1.00  0.00    -0.200 F 
ENDBRANCH  58  72
BRANCH  59  83
ATOM     83  C   UNL A   1      40.422  33.727  35.790  1.00  0.00     0.064 A 
ATOM     84  C   UNL A   1      39.346  33.020  36.390  1.00  0.00     0.173 A 
ATOM     85  C   UNL A   1      40.612  35.035  36.208  1.00  0.00     0.173 A 
ATOM     86  F   UNL A   1      39.051  31.778  35.974  1.00  0.00    -0.203 F 
ATOM     87  C   UNL A   1      38.684  33.499  37.521  1.00  0.00     0.198 A 
ATOM     88  C   UNL A   1      39.900  35.529  37.309  1.00  0.00     0.198 A 
ATOM     89  F   UNL A   1      41.576  35.787  35.659  1.00  0.00    -0.203 F 
ATOM     90  F   UNL A   1      37.823  32.711  38.183  1.00  0.00    -0.200 F 
ATOM     91  C   UNL A   1      39.012  34.737  38.023  1.00  0.00     0.200 A 
ATOM     92  F   UNL A   1      40.157  36.761  37.741  1.00  0.00    -0.200 F 
ATOM     93  F   UNL A   1      38.514  35.142  39.201  1.00  0.00    -0.200 F 
ENDBRANCH  59  83
BRANCH  71  94
ATOM     94  C   UNL A   1      43.670  27.141  35.007  1.00  0.00     0.064 A 
ATOM     95  C   UNL A   1      44.979  26.956  35.484  1.00  0.00     0.173 A 
ATOM     96  C   UNL A   1      42.748  26.120  35.311  1.00  0.00     0.173 A 
ATOM     97  F   UNL A   1      45.906  27.920  35.370  1.00  0.00    -0.203 F 
ATOM     98  C   UNL A   1      45.367  25.776  36.114  1.00  0.00     0.198 A 
ATOM     99  C   UNL A   1      43.117  24.987  36.026  1.00  0.00     0.198 A 
ATOM    100  F   UNL A   1      41.466  26.197  34.930  1.00  0.00    -0.203 F 
ATOM    101  F   UNL A   1      46.651  25.598  36.454  1.00  0.00    -0.200 F 
ATOM    102  C   UNL A   1      44.433  24.799  36.398  1.00  0.00     0.200 A 
ATOM    103  F   UNL A   1      42.186  24.081  36.354  1.00  0.00    -0.200 F 
ATOM    104  F   UNL A   1      44.795  23.684  37.044  1.00  0.00    -0.200 F 
ENDBRANCH  71  94
ENDBRANCH  45  46
ENDBRANCH  38  40
ENDBRANCH  37  38
ENDBRANCH  36  37
ENDBRANCH  35  36
ENDBRANCH  34  35
ENDBRANCH  33  34
ENDBRANCH   1  33
TORSDOF 22
ENDMDL
MODEL 3
REMARK VINA RESULT:     -11.5      5.509      7.991
REMARK SMILES Cc1cccc(CNC(=O)N[C@@H](CC2=c3ccccc3=NC2)C(=O)OCCOCCOCCOC(=O)c2ccc(-c3c4nc(c(-c5c(F)c(F)c(F)c(F)c5F)c5ccc([nH]5)c(-c5c(F)c(F)c(F)c(F)c5F)c5nc(c(-c6c(F)c(F)c(F)c(F)c6F)c6ccc3[nH]6)C=C5)C=C4)cc2)c1
REMARK SMILES IDX 29 1 28 2 27 3 26 4 25 5 23 6 24 7 12 8 11 9 8 10 9 11 10 13
REMARK SMILES IDX 7 15 6 16 1 17 2 18 3 19 100 20 4 21 5 22 13 23 14 24 15 25
REMARK SMILES IDX 22 26 16 27 20 28 21 29 17 30 19 31 18 32 30 33 31 34 32 35
REMARK SMILES IDX 33 36 34 37 35 38 36 39 37 40 38 41 99 42 39 43 98 44 40 45
REMARK SMILES IDX 41 46 42 47 92 48 43 49 97 50 91 51 93 52 44 53 96 54 90 55
REMARK SMILES IDX 89 56 45 58 77 59 57 60 76 61 58 62 61 63 75 64 94 65 59 66
REMARK SMILES IDX 60 67 74 69 95 70 62 71 46 72 47 73 55 74 48 75 49 76 53 77
REMARK SMILES IDX 56 78 50 79 51 80 54 81 52 82 78 83 79 84 87 85 80 86 81 87
REMARK SMILES IDX 85 88 88 89 82 90 83 91 86 92 84 93 63 94 64 95 72 96 65 97
REMARK SMILES IDX 66 98 70 99 73 100 67 101 68 102 71 103 69 104
REMARK H PARENT 8 12 11 14 93 57 61 68
REMARK Flexibility Score: inf
ROOT
ATOM      1  C   UNL A   1      36.955  31.174  28.467  1.00  0.00     0.188 C 
ENDROOT
BRANCH   1   2
ATOM      2  O   UNL A   1      36.648  29.928  27.877  1.00  0.00    -0.376 OA
BRANCH   2   3
ATOM      3  C   UNL A   1      35.285  29.557  27.983  1.00  0.00     0.202 C 
BRANCH   3   4
ATOM      4  C   UNL A   1      34.449  29.454  26.689  1.00  0.00     0.261 C 
BRANCH   4   5
ATOM      5  O   UNL A   1      33.042  28.633  26.749  1.00  0.00    -0.462 OA
BRANCH   5   6
ATOM      6  C   UNL A   1      32.326  27.425  26.877  1.00  0.00     0.329 C 
ATOM      7  O   UNL A   1      31.163  27.614  27.249  1.00  0.00    -0.250 OA
BRANCH   6   8
ATOM      8  C   UNL A   1      32.715  25.807  26.587  1.00  0.00     0.198 C 
BRANCH   8   9
ATOM      9  N   UNL A   1      31.589  24.828  26.841  1.00  0.00    -0.324 N 
ATOM     10  N   UNL A   1      30.284  24.460  24.899  1.00  0.00    -0.334 N 
ATOM     11  C   UNL A   1      30.569  24.248  26.187  1.00  0.00     0.315 C 
ATOM     12  H   UNL A   1      30.181  23.657  24.339  1.00  0.00     0.165 HD
ATOM     13  O   UNL A   1      29.980  23.335  26.773  1.00  0.00    -0.249 OA
ATOM     14  H   UNL A   1      31.612  24.520  27.776  1.00  0.00     0.166 HD
BRANCH  10  15
ATOM     15  C   UNL A   1      30.110  25.723  24.238  1.00  0.00     0.153 C 
BRANCH  15  16
ATOM     16  C   UNL A   1      31.172  26.097  23.233  1.00  0.00    -0.028 A 
ATOM     17  C   UNL A   1      33.683  28.947  23.129  1.00  0.00     0.044 C 
ATOM     18  C   UNL A   1      32.918  27.728  22.702  1.00  0.00    -0.051 A 
ATOM     19  C   UNL A   1      33.437  26.850  21.745  1.00  0.00     0.003 A 
ATOM     20  C   UNL A   1      31.778  27.350  23.419  1.00  0.00     0.009 A 
ATOM     21  C   UNL A   1      32.821  25.618  21.514  1.00  0.00     0.001 A 
ATOM     22  C   UNL A   1      31.694  25.240  22.253  1.00  0.00     0.005 A 
ENDBRANCH  15  16
ENDBRANCH  10  15
ENDBRANCH   8   9
BRANCH   8  23
ATOM     23  C   UNL A   1      33.864  25.186  25.480  1.00  0.00     0.070 C 
BRANCH  23  24
ATOM     24  C   UNL A   1      34.071  23.555  24.897  1.00  0.00    -0.037 C 
ATOM     25  C   UNL A   1      33.423  22.265  23.886  1.00  0.00     0.001 A 
ATOM     26  C   UNL A   1      34.463  22.760  26.676  1.00  0.00     0.174 C 
ATOM     27  C   UNL A   1      32.413  21.998  22.758  1.00  0.00     0.010 A 
ATOM     28  C   UNL A   1      33.322  20.611  24.801  1.00  0.00     0.065 A 
ATOM     29  N   UNL A   1      33.724  20.732  26.211  1.00  0.00    -0.280 NA
ATOM     30  C   UNL A   1      31.864  20.820  22.429  1.00  0.00     0.001 A 
ATOM     31  C   UNL A   1      32.841  19.404  24.149  1.00  0.00     0.028 A 
ATOM     32  C   UNL A   1      32.171  19.547  23.007  1.00  0.00     0.002 A 
ENDBRANCH  23  24
ENDBRANCH   8  23
ENDBRANCH   6   8
ENDBRANCH   5   6
ENDBRANCH   4   5
ENDBRANCH   3   4
ENDBRANCH   2   3
ENDBRANCH   1   2
BRANCH   1  33
ATOM     33  C   UNL A   1      38.013  31.058  29.559  1.00  0.00     0.188 C 
BRANCH  33  34
ATOM     34  O   UNL A   1      37.492  30.875  30.869  1.00  0.00    -0.376 OA
BRANCH  34  35
ATOM     35  C   UNL A   1      38.273  30.432  31.947  1.00  0.00     0.202 C 
BRANCH  35  36
ATOM     36  C   UNL A   1      37.563  30.768  33.250  1.00  0.00     0.261 C 
BRANCH  36  37
ATOM     37  O   UNL A   1      38.378  31.723  33.980  1.00  0.00    -0.460 OA
BRANCH  37  38
ATOM     38  C   UNL A   1      37.847  32.973  34.079  1.00  0.00     0.338 C 
ATOM     39  O   UNL A   1      36.760  33.237  34.571  1.00  0.00    -0.246 OA
BRANCH  38  40
ATOM     40  C   UNL A   1      38.607  33.905  33.182  1.00  0.00     0.060 A 
ATOM     41  C   UNL A   1      38.011  34.229  31.981  1.00  0.00     0.016 A 
ATOM     42  C   UNL A   1      39.975  34.158  33.314  1.00  0.00     0.016 A 
ATOM     43  C   UNL A   1      38.828  34.526  30.878  1.00  0.00     0.010 A 
ATOM     44  C   UNL A   1      40.774  34.480  32.187  1.00  0.00     0.010 A 
ATOM     45  C   UNL A   1      40.243  34.545  30.889  1.00  0.00    -0.014 A 
BRANCH  45  46
ATOM     46  C   UNL A   1      41.306  34.541  29.696  1.00  0.00     0.031 A 
ATOM     47  C   UNL A   1      41.909  32.719  29.721  1.00  0.00     0.074 A 
ATOM     48  C   UNL A   1      41.849  35.704  28.651  1.00  0.00     0.049 A 
ATOM     49  N   UNL A   1      43.063  32.008  28.461  1.00  0.00    -0.248 NA
ATOM     50  C   UNL A   1      42.160  31.381  31.180  1.00  0.00     0.031 C 
ATOM     51  C   UNL A   1      42.568  35.618  27.172  1.00  0.00     0.029 A 
ATOM     52  N   UNL A   1      41.988  37.155  28.561  1.00  0.00    -0.354 N 
ATOM     53  C   UNL A   1      43.838  30.588  28.931  1.00  0.00     0.074 A 
ATOM     54  C   UNL A   1      43.202  30.283  30.647  1.00  0.00     0.031 C 
ATOM     55  C   UNL A   1      42.747  36.754  26.511  1.00  0.00     0.029 A 
ATOM     56  C   UNL A   1      42.715  37.729  27.515  1.00  0.00     0.049 A 
ATOM     57  H   UNL A   1      41.569  37.730  29.240  1.00  0.00     0.167 HD
ATOM     58  C   UNL A   1      44.610  30.220  27.857  1.00  0.00     0.037 A 
ATOM     59  C   UNL A   1      43.724  38.630  27.647  1.00  0.00     0.037 A 
ATOM     60  C   UNL A   1      45.049  31.504  27.047  1.00  0.00     0.049 A 
ATOM     61  C   UNL A   1      45.064  37.899  27.420  1.00  0.00     0.074 A 
ATOM     62  C   UNL A   1      44.536  32.118  25.898  1.00  0.00     0.029 A 
ATOM     63  N   UNL A   1      45.908  32.511  27.584  1.00  0.00    -0.354 N 
ATOM     64  N   UNL A   1      45.163  36.588  27.320  1.00  0.00    -0.248 NA
ATOM     65  C   UNL A   1      46.350  38.541  27.221  1.00  0.00     0.031 C 
ATOM     66  C   UNL A   1      45.044  33.454  25.780  1.00  0.00     0.029 A 
ATOM     67  C   UNL A   1      45.902  33.724  26.836  1.00  0.00     0.049 A 
ATOM     68  H   UNL A   1      46.453  32.380  28.395  1.00  0.00     0.167 HD
ATOM     69  C   UNL A   1      46.443  36.184  27.104  1.00  0.00     0.074 A 
ATOM     70  C   UNL A   1      47.143  37.472  26.996  1.00  0.00     0.031 C 
ATOM     71  C   UNL A   1      46.855  34.864  27.051  1.00  0.00     0.037 A 
BRANCH  58  72
ATOM     72  C   UNL A   1      44.148  28.954  27.136  1.00  0.00     0.064 A 
ATOM     73  C   UNL A   1      45.079  28.063  26.552  1.00  0.00     0.173 A 
ATOM     74  C   UNL A   1      42.795  28.661  26.865  1.00  0.00     0.173 A 
ATOM     75  F   UNL A   1      46.394  28.179  26.779  1.00  0.00    -0.203 F 
ATOM     76  C   UNL A   1      44.693  27.018  25.705  1.00  0.00     0.198 A 
ATOM     77  C   UNL A   1      42.411  27.606  26.024  1.00  0.00     0.198 A 
ATOM     78  F   UNL A   1      41.806  29.386  27.404  1.00  0.00    -0.203 F 
ATOM     79  F   UNL A   1      45.625  26.236  25.140  1.00  0.00    -0.200 F 
ATOM     80  C   UNL A   1      43.359  26.793  25.436  1.00  0.00     0.200 A 
ATOM     81  F   UNL A   1      41.110  27.389  25.778  1.00  0.00    -0.200 F 
ATOM     82  F   UNL A   1      42.988  25.791  24.626  1.00  0.00    -0.200 F 
ENDBRANCH  58  72
BRANCH  59  83
ATOM     83  C   UNL A   1      43.335  39.793  28.484  1.00  0.00     0.064 A 
ATOM     84  C   UNL A   1      42.067  40.374  28.217  1.00  0.00     0.173 A 
ATOM     85  C   UNL A   1      43.910  40.100  29.708  1.00  0.00     0.173 A 
ATOM     86  F   UNL A   1      41.488  40.188  27.020  1.00  0.00    -0.203 F 
ATOM     87  C   UNL A   1      41.311  40.993  29.213  1.00  0.00     0.198 A 
ATOM     88  C   UNL A   1      43.164  40.775  30.683  1.00  0.00     0.198 A 
ATOM     89  F   UNL A   1      45.126  39.630  30.020  1.00  0.00    -0.203 F 
ATOM     90  F   UNL A   1      40.036  41.339  28.976  1.00  0.00    -0.200 F 
ATOM     91  C   UNL A   1      41.841  41.135  30.475  1.00  0.00     0.200 A 
ATOM     92  F   UNL A   1      43.711  40.988  31.877  1.00  0.00    -0.200 F 
ATOM     93  F   UNL A   1      41.073  41.569  31.485  1.00  0.00    -0.200 F 
ENDBRANCH  59  83
BRANCH  71  94
ATOM     94  C   UNL A   1      48.329  34.562  26.991  1.00  0.00     0.064 A 
ATOM     95  C   UNL A   1      49.083  34.163  28.109  1.00  0.00     0.173 A 
ATOM     96  C   UNL A   1      49.016  34.603  25.762  1.00  0.00     0.173 A 
ATOM     97  F   UNL A   1      48.505  33.961  29.303  1.00  0.00    -0.203 F 
ATOM     98  C   UNL A   1      50.455  33.940  28.024  1.00  0.00     0.198 A 
ATOM     99  C   UNL A   1      50.365  34.285  25.664  1.00  0.00     0.198 A 
ATOM    100  F   UNL A   1      48.397  34.945  24.624  1.00  0.00    -0.203 F 
ATOM    101  F   UNL A   1      51.152  33.669  29.135  1.00  0.00    -0.200 F 
ATOM    102  C   UNL A   1      51.092  33.986  26.799  1.00  0.00     0.200 A 
ATOM    103  F   UNL A   1      50.954  34.266  24.460  1.00  0.00    -0.200 F 
ATOM    104  F   UNL A   1      52.402  33.727  26.709  1.00  0.00    -0.200 F 
ENDBRANCH  71  94
ENDBRANCH  45  46
ENDBRANCH  38  40
ENDBRANCH  37  38
ENDBRANCH  36  37
ENDBRANCH  35  36
ENDBRANCH  34  35
ENDBRANCH  33  34
ENDBRANCH   1  33
TORSDOF 22
ENDMDL
