MODEL 1
REMARK VINA RESULT:     -11.0      0.000      0.000
REMARK SMILES C[C@@H]1[C@H](C(=O)OCCOCCOCCOC(=O)c2ccc(-c3c4nc(c(-c5c(F)c(F)c(F)c(F)c5F)c5ccc([nH]5)c(-c5c(F)c(F)c(F)c(F)c5F)c5nc(c(-c6c(F)c(F)c(F)c(F)c6F)c6ccc3[nH]6)C=C5)C=C4)cc2)CC[N@@H+]1[C@@H](C)c1cccc(C(F)(F)F)c1
REMARK SMILES IDX 10 1 9 2 8 3 7 4 6 5 4 6 5 7 3 8 1 9 2 10 83 11 81 12 82 13
REMARK SMILES IDX 84 15 85 16 86 17 87 18 95 19 88 20 90 21 89 22 91 23 92 24
REMARK SMILES IDX 93 25 94 26 11 27 12 28 13 29 14 30 15 31 16 32 17 33 18 34
REMARK SMILES IDX 19 35 80 36 20 37 79 38 21 39 22 40 23 41 73 42 24 43 78 44
REMARK SMILES IDX 72 45 74 46 25 47 77 48 71 49 70 50 26 52 58 53 38 54 57 55
REMARK SMILES IDX 39 56 42 57 56 58 75 59 40 60 41 61 55 63 76 64 43 65 27 66
REMARK SMILES IDX 28 67 36 68 29 69 30 70 34 71 37 72 31 73 32 74 35 75 33 76
REMARK SMILES IDX 59 77 60 78 68 79 61 80 62 81 66 82 69 83 63 84 64 85 67 86
REMARK SMILES IDX 65 87 44 88 45 89 53 90 46 91 47 92 51 93 54 94 48 95 49 96
REMARK SMILES IDX 52 97 50 98
REMARK H PARENT 83 14 74 51 42 62
REMARK Flexibility Score: inf
ROOT
ATOM      1  C   UNL A   1      38.932  19.848  25.453  1.00  0.00     0.188 C 
ENDROOT
BRANCH   1   2
ATOM      2  O   UNL A   1      38.095  20.895  25.014  1.00  0.00    -0.376 OA
BRANCH   2   3
ATOM      3  C   UNL A   1      36.692  20.648  24.986  1.00  0.00     0.202 C 
BRANCH   3   4
ATOM      4  C   UNL A   1      35.769  21.530  25.830  1.00  0.00     0.261 C 
BRANCH   4   5
ATOM      5  O   UNL A   1      34.966  22.396  25.004  1.00  0.00    -0.463 OA
BRANCH   5   6
ATOM      6  C   UNL A   1      33.688  22.593  25.393  1.00  0.00     0.315 C 
ATOM      7  O   UNL A   1      32.920  21.677  25.675  1.00  0.00    -0.252 OA
BRANCH   6   8
ATOM      8  C   UNL A   1      33.274  24.050  25.548  1.00  0.00     0.162 C 
ATOM      9  C   UNL A   1      32.834  24.425  23.005  1.00  0.00     0.076 C 
ATOM     10  C   UNL A   1      33.016  25.034  24.384  1.00  0.00     0.196 C 
ATOM     11  N   UNL A   1      31.916  25.905  24.860  1.00  0.00    -0.326 N 
ATOM     12  C   UNL A   1      31.962  24.061  26.320  1.00  0.00     0.083 C 
ATOM     13  C   UNL A   1      31.438  25.465  26.161  1.00  0.00     0.264 C 
ATOM     14  H   UNL A   1      32.391  26.804  24.944  1.00  0.00     0.348 HD
BRANCH  11  15
ATOM     15  C   UNL A   1      30.972  26.578  23.957  1.00  0.00     0.212 C 
ATOM     16  C   UNL A   1      29.559  25.957  23.899  1.00  0.00     0.081 C 
BRANCH  15  17
ATOM     17  C   UNL A   1      30.876  28.097  24.212  1.00  0.00     0.010 A 
ATOM     18  C   UNL A   1      31.737  28.752  25.115  1.00  0.00     0.010 A 
ATOM     19  C   UNL A   1      29.901  28.868  23.556  1.00  0.00     0.023 A 
ATOM     20  C   UNL A   1      31.584  30.103  25.419  1.00  0.00     0.001 A 
ATOM     21  C   UNL A   1      29.757  30.242  23.833  1.00  0.00     0.056 A 
ATOM     22  C   UNL A   1      30.592  30.842  24.789  1.00  0.00     0.013 A 
BRANCH  21  23
ATOM     23  C   UNL A   1      28.721  31.087  23.137  1.00  0.00     0.416 C 
ATOM     24  F   UNL A   1      27.488  30.973  23.707  1.00  0.00    -0.166 F 
ATOM     25  F   UNL A   1      29.025  32.416  23.177  1.00  0.00    -0.166 F 
ATOM     26  F   UNL A   1      28.554  30.784  21.820  1.00  0.00    -0.166 F 
ENDBRANCH  21  23
ENDBRANCH  15  17
ENDBRANCH  11  15
ENDBRANCH   6   8
ENDBRANCH   5   6
ENDBRANCH   4   5
ENDBRANCH   3   4
ENDBRANCH   2   3
ENDBRANCH   1   2
BRANCH   1  27
ATOM     27  C   UNL A   1      40.238  20.189  26.178  1.00  0.00     0.188 C 
BRANCH  27  28
ATOM     28  O   UNL A   1      41.447  20.513  25.522  1.00  0.00    -0.376 OA
BRANCH  28  29
ATOM     29  C   UNL A   1      42.684  20.535  26.217  1.00  0.00     0.202 C 
BRANCH  29  30
ATOM     30  C   UNL A   1      43.939  21.220  25.649  1.00  0.00     0.261 C 
BRANCH  30  31
ATOM     31  O   UNL A   1      44.344  22.418  26.312  1.00  0.00    -0.460 OA
BRANCH  31  32
ATOM     32  C   UNL A   1      44.143  23.557  25.601  1.00  0.00     0.338 C 
ATOM     33  O   UNL A   1      44.270  23.715  24.398  1.00  0.00    -0.246 OA
BRANCH  32  34
ATOM     34  C   UNL A   1      43.482  24.532  26.496  1.00  0.00     0.060 A 
ATOM     35  C   UNL A   1      43.860  25.880  26.403  1.00  0.00     0.016 A 
ATOM     36  C   UNL A   1      42.440  24.143  27.340  1.00  0.00     0.016 A 
ATOM     37  C   UNL A   1      43.214  26.843  27.176  1.00  0.00     0.010 A 
ATOM     38  C   UNL A   1      41.813  25.103  28.134  1.00  0.00     0.010 A 
ATOM     39  C   UNL A   1      42.218  26.450  28.078  1.00  0.00    -0.014 A 
BRANCH  39  40
ATOM     40  C   UNL A   1      41.769  27.380  29.139  1.00  0.00     0.031 A 
ATOM     41  C   UNL A   1      42.513  27.350  30.445  1.00  0.00     0.074 A 
ATOM     42  C   UNL A   1      40.734  28.220  28.966  1.00  0.00     0.049 A 
ATOM     43  N   UNL A   1      42.253  27.967  31.569  1.00  0.00    -0.248 NA
ATOM     44  C   UNL A   1      43.711  26.495  30.489  1.00  0.00     0.031 C 
ATOM     45  C   UNL A   1      39.970  28.384  27.732  1.00  0.00     0.029 A 
ATOM     46  N   UNL A   1      40.140  29.086  29.850  1.00  0.00    -0.354 N 
ATOM     47  C   UNL A   1      43.250  27.570  32.450  1.00  0.00     0.074 A 
ATOM     48  C   UNL A   1      44.097  26.632  31.747  1.00  0.00     0.031 C 
ATOM     49  C   UNL A   1      38.994  29.285  27.943  1.00  0.00     0.029 A 
ATOM     50  C   UNL A   1      39.041  29.728  29.336  1.00  0.00     0.049 A 
ATOM     51  H   UNL A   1      40.471  29.232  30.765  1.00  0.00     0.167 HD
ATOM     52  C   UNL A   1      43.447  27.958  33.731  1.00  0.00     0.037 A 
ATOM     53  C   UNL A   1      38.161  30.554  29.938  1.00  0.00     0.037 A 
ATOM     54  C   UNL A   1      42.599  28.884  34.432  1.00  0.00     0.049 A 
ATOM     55  C   UNL A   1      38.344  30.892  31.399  1.00  0.00     0.074 A 
ATOM     56  C   UNL A   1      42.710  29.340  35.732  1.00  0.00     0.029 A 
ATOM     57  N   UNL A   1      41.475  29.488  33.888  1.00  0.00    -0.354 N 
ATOM     58  N   UNL A   1      39.292  30.524  32.227  1.00  0.00    -0.248 NA
ATOM     59  C   UNL A   1      37.327  31.763  32.010  1.00  0.00     0.031 C 
ATOM     60  C   UNL A   1      41.623  30.178  35.994  1.00  0.00     0.029 A 
ATOM     61  C   UNL A   1      40.871  30.296  34.837  1.00  0.00     0.049 A 
ATOM     62  H   UNL A   1      41.156  29.363  32.965  1.00  0.00     0.167 HD
ATOM     63  C   UNL A   1      39.010  31.148  33.437  1.00  0.00     0.074 A 
ATOM     64  C   UNL A   1      37.807  31.927  33.234  1.00  0.00     0.031 C 
ATOM     65  C   UNL A   1      39.685  31.084  34.612  1.00  0.00     0.037 A 
BRANCH  52  66
ATOM     66  C   UNL A   1      44.612  27.360  34.462  1.00  0.00     0.064 A 
ATOM     67  C   UNL A   1      45.853  28.012  34.531  1.00  0.00     0.173 A 
ATOM     68  C   UNL A   1      44.478  26.130  35.125  1.00  0.00     0.173 A 
ATOM     69  F   UNL A   1      46.039  29.180  33.896  1.00  0.00    -0.203 F 
ATOM     70  C   UNL A   1      46.923  27.442  35.215  1.00  0.00     0.198 A 
ATOM     71  C   UNL A   1      45.540  25.581  35.836  1.00  0.00     0.198 A 
ATOM     72  F   UNL A   1      43.314  25.466  35.089  1.00  0.00    -0.203 F 
ATOM     73  F   UNL A   1      48.114  28.058  35.224  1.00  0.00    -0.200 F 
ATOM     74  C   UNL A   1      46.764  26.233  35.874  1.00  0.00     0.200 A 
ATOM     75  F   UNL A   1      45.381  24.418  36.483  1.00  0.00    -0.200 F 
ATOM     76  F   UNL A   1      47.792  25.691  36.542  1.00  0.00    -0.200 F 
ENDBRANCH  52  66
BRANCH  53  77
ATOM     77  C   UNL A   1      37.008  31.111  29.178  1.00  0.00     0.064 A 
ATOM     78  C   UNL A   1      36.970  32.465  28.816  1.00  0.00     0.173 A 
ATOM     79  C   UNL A   1      35.899  30.320  28.849  1.00  0.00     0.173 A 
ATOM     80  F   UNL A   1      37.992  33.273  29.136  1.00  0.00    -0.203 F 
ATOM     81  C   UNL A   1      35.856  33.012  28.180  1.00  0.00     0.198 A 
ATOM     82  C   UNL A   1      34.800  30.858  28.182  1.00  0.00     0.198 A 
ATOM     83  F   UNL A   1      35.879  29.020  29.179  1.00  0.00    -0.203 F 
ATOM     84  F   UNL A   1      35.821  34.322  27.903  1.00  0.00    -0.200 F 
ATOM     85  C   UNL A   1      34.775  32.207  27.859  1.00  0.00     0.200 A 
ATOM     86  F   UNL A   1      33.759  30.075  27.868  1.00  0.00    -0.200 F 
ATOM     87  F   UNL A   1      33.702  32.732  27.252  1.00  0.00    -0.200 F 
ENDBRANCH  53  77
BRANCH  65  88
ATOM     88  C   UNL A   1      39.180  31.919  35.754  1.00  0.00     0.064 A 
ATOM     89  C   UNL A   1      38.271  31.418  36.697  1.00  0.00     0.173 A 
ATOM     90  C   UNL A   1      39.655  33.229  35.934  1.00  0.00     0.173 A 
ATOM     91  F   UNL A   1      37.778  30.178  36.566  1.00  0.00    -0.203 F 
ATOM     92  C   UNL A   1      37.836  32.204  37.761  1.00  0.00     0.198 A 
ATOM     93  C   UNL A   1      39.244  34.000  37.018  1.00  0.00     0.198 A 
ATOM     94  F   UNL A   1      40.534  33.756  35.068  1.00  0.00    -0.203 F 
ATOM     95  F   UNL A   1      36.929  31.721  38.622  1.00  0.00    -0.200 F 
ATOM     96  C   UNL A   1      38.328  33.491  37.926  1.00  0.00     0.200 A 
ATOM     97  F   UNL A   1      39.737  35.235  37.185  1.00  0.00    -0.200 F 
ATOM     98  F   UNL A   1      37.917  34.241  38.957  1.00  0.00    -0.200 F 
ENDBRANCH  65  88
ENDBRANCH  39  40
ENDBRANCH  32  34
ENDBRANCH  31  32
ENDBRANCH  30  31
ENDBRANCH  29  30
ENDBRANCH  28  29
ENDBRANCH  27  28
ENDBRANCH   1  27
TORSDOF 20
ENDMDL
MODEL 2
REMARK VINA RESULT:     -11.0      4.477      9.391
REMARK SMILES C[C@@H]1[C@H](C(=O)OCCOCCOCCOC(=O)c2ccc(-c3c4nc(c(-c5c(F)c(F)c(F)c(F)c5F)c5ccc([nH]5)c(-c5c(F)c(F)c(F)c(F)c5F)c5nc(c(-c6c(F)c(F)c(F)c(F)c6F)c6ccc3[nH]6)C=C5)C=C4)cc2)CC[N@@H+]1[C@@H](C)c1cccc(C(F)(F)F)c1
REMARK SMILES IDX 10 1 9 2 8 3 7 4 6 5 4 6 5 7 3 8 1 9 2 10 83 11 81 12 82 13
REMARK SMILES IDX 84 15 85 16 86 17 87 18 95 19 88 20 90 21 89 22 91 23 92 24
REMARK SMILES IDX 93 25 94 26 11 27 12 28 13 29 14 30 15 31 16 32 17 33 18 34
REMARK SMILES IDX 19 35 80 36 20 37 79 38 21 39 22 40 23 41 73 42 24 43 78 44
REMARK SMILES IDX 72 45 74 46 25 47 77 48 71 49 70 50 26 52 58 53 38 54 57 55
REMARK SMILES IDX 39 56 42 57 56 58 75 59 40 60 41 61 55 63 76 64 43 65 27 66
REMARK SMILES IDX 28 67 36 68 29 69 30 70 34 71 37 72 31 73 32 74 35 75 33 76
REMARK SMILES IDX 59 77 60 78 68 79 61 80 62 81 66 82 69 83 63 84 64 85 67 86
REMARK SMILES IDX 65 87 44 88 45 89 53 90 46 91 47 92 51 93 54 94 48 95 49 96
REMARK SMILES IDX 52 97 50 98
REMARK H PARENT 83 14 74 51 42 62
REMARK Flexibility Score: inf
ROOT
ATOM      1  C   UNL A   1      31.206  29.011  22.548  1.00  0.00     0.188 C 
ENDROOT
BRANCH   1   2
ATOM      2  O   UNL A   1      30.307  27.946  22.325  1.00  0.00    -0.376 OA
BRANCH   2   3
ATOM      3  C   UNL A   1      29.385  27.635  23.365  1.00  0.00     0.202 C 
BRANCH   3   4
ATOM      4  C   UNL A   1      29.272  26.185  23.842  1.00  0.00     0.261 C 
BRANCH   4   5
ATOM      5  O   UNL A   1      29.404  26.090  25.274  1.00  0.00    -0.463 OA
BRANCH   5   6
ATOM      6  C   UNL A   1      30.606  25.698  25.748  1.00  0.00     0.315 C 
ATOM      7  O   UNL A   1      31.435  26.477  26.211  1.00  0.00    -0.252 OA
BRANCH   6   8
ATOM      8  C   UNL A   1      30.842  24.194  25.756  1.00  0.00     0.162 C 
ATOM      9  C   UNL A   1      32.247  24.183  23.558  1.00  0.00     0.076 C 
ATOM     10  C   UNL A   1      31.493  23.387  24.609  1.00  0.00     0.196 C 
ATOM     11  N   UNL A   1      32.259  22.315  25.286  1.00  0.00    -0.326 N 
ATOM     12  C   UNL A   1      31.730  23.887  26.954  1.00  0.00     0.083 C 
ATOM     13  C   UNL A   1      32.196  22.472  26.730  1.00  0.00     0.264 C 
ATOM     14  H   UNL A   1      31.742  21.484  24.999  1.00  0.00     0.348 HD
BRANCH  11  15
ATOM     15  C   UNL A   1      33.448  21.680  24.701  1.00  0.00     0.212 C 
ATOM     16  C   UNL A   1      34.651  21.525  25.657  1.00  0.00     0.081 C 
BRANCH  15  17
ATOM     17  C   UNL A   1      33.135  20.333  24.017  1.00  0.00     0.010 A 
ATOM     18  C   UNL A   1      32.416  20.265  22.807  1.00  0.00     0.010 A 
ATOM     19  C   UNL A   1      33.547  19.124  24.605  1.00  0.00     0.023 A 
ATOM     20  C   UNL A   1      32.048  19.045  22.245  1.00  0.00     0.001 A 
ATOM     21  C   UNL A   1      33.206  17.885  24.029  1.00  0.00     0.056 A 
ATOM     22  C   UNL A   1      32.433  17.861  22.857  1.00  0.00     0.013 A 
BRANCH  21  23
ATOM     23  C   UNL A   1      33.643  16.578  24.641  1.00  0.00     0.416 C 
ATOM     24  F   UNL A   1      33.942  16.699  25.965  1.00  0.00    -0.166 F 
ATOM     25  F   UNL A   1      32.672  15.623  24.568  1.00  0.00    -0.166 F 
ATOM     26  F   UNL A   1      34.744  16.034  24.056  1.00  0.00    -0.166 F 
ENDBRANCH  21  23
ENDBRANCH  15  17
ENDBRANCH  11  15
ENDBRANCH   6   8
ENDBRANCH   5   6
ENDBRANCH   4   5
ENDBRANCH   3   4
ENDBRANCH   2   3
ENDBRANCH   1   2
BRANCH   1  27
ATOM     27  C   UNL A   1      32.301  28.856  23.609  1.00  0.00     0.188 C 
BRANCH  27  28
ATOM     28  O   UNL A   1      32.137  29.192  24.971  1.00  0.00    -0.376 OA
BRANCH  28  29
ATOM     29  C   UNL A   1      31.339  30.297  25.371  1.00  0.00     0.202 C 
BRANCH  29  30
ATOM     30  C   UNL A   1      31.748  31.239  26.516  1.00  0.00     0.261 C 
BRANCH  30  31
ATOM     31  O   UNL A   1      32.946  30.889  27.208  1.00  0.00    -0.460 OA
BRANCH  31  32
ATOM     32  C   UNL A   1      33.716  31.942  27.581  1.00  0.00     0.338 C 
ATOM     33  O   UNL A   1      33.377  33.109  27.694  1.00  0.00    -0.246 OA
BRANCH  32  34
ATOM     34  C   UNL A   1      34.996  31.403  28.092  1.00  0.00     0.060 A 
ATOM     35  C   UNL A   1      35.092  30.020  28.312  1.00  0.00     0.016 A 
ATOM     36  C   UNL A   1      36.110  32.227  28.256  1.00  0.00     0.016 A 
ATOM     37  C   UNL A   1      36.298  29.459  28.725  1.00  0.00     0.010 A 
ATOM     38  C   UNL A   1      37.310  31.669  28.696  1.00  0.00     0.010 A 
ATOM     39  C   UNL A   1      37.401  30.290  28.961  1.00  0.00    -0.014 A 
BRANCH  39  40
ATOM     40  C   UNL A   1      38.566  29.778  29.719  1.00  0.00     0.031 A 
ATOM     41  C   UNL A   1      38.798  30.341  31.094  1.00  0.00     0.074 A 
ATOM     42  C   UNL A   1      39.400  28.854  29.213  1.00  0.00     0.049 A 
ATOM     43  N   UNL A   1      39.801  30.157  31.913  1.00  0.00    -0.248 NA
ATOM     44  C   UNL A   1      37.756  31.244  31.609  1.00  0.00     0.031 C 
ATOM     45  C   UNL A   1      39.252  28.193  27.920  1.00  0.00     0.029 A 
ATOM     46  N   UNL A   1      40.556  28.327  29.734  1.00  0.00    -0.354 N 
ATOM     47  C   UNL A   1      39.512  30.926  33.033  1.00  0.00     0.074 A 
ATOM     48  C   UNL A   1      38.262  31.606  32.776  1.00  0.00     0.031 C 
ATOM     49  C   UNL A   1      40.290  27.356  27.738  1.00  0.00     0.029 A 
ATOM     50  C   UNL A   1      41.195  27.457  28.884  1.00  0.00     0.049 A 
ATOM     51  H   UNL A   1      40.894  28.550  30.630  1.00  0.00     0.167 HD
ATOM     52  C   UNL A   1      40.222  31.048  34.178  1.00  0.00     0.037 A 
ATOM     53  C   UNL A   1      42.387  26.840  29.012  1.00  0.00     0.037 A 
ATOM     54  C   UNL A   1      41.469  30.378  34.428  1.00  0.00     0.049 A 
ATOM     55  C   UNL A   1      43.210  27.074  30.258  1.00  0.00     0.074 A 
ATOM     56  C   UNL A   1      42.269  30.437  35.554  1.00  0.00     0.029 A 
ATOM     57  N   UNL A   1      42.101  29.530  33.530  1.00  0.00    -0.354 N 
ATOM     58  N   UNL A   1      42.930  27.792  31.319  1.00  0.00    -0.248 NA
ATOM     59  C   UNL A   1      44.521  26.408  30.319  1.00  0.00     0.031 C 
ATOM     60  C   UNL A   1      43.412  29.669  35.317  1.00  0.00     0.029 A 
ATOM     61  C   UNL A   1      43.294  29.078  34.070  1.00  0.00     0.049 A 
ATOM     62  H   UNL A   1      41.753  29.285  32.642  1.00  0.00     0.167 HD
ATOM     63  C   UNL A   1      44.006  27.632  32.186  1.00  0.00     0.074 A 
ATOM     64  C   UNL A   1      44.939  26.740  31.532  1.00  0.00     0.031 C 
ATOM     65  C   UNL A   1      44.203  28.173  33.415  1.00  0.00     0.037 A 
BRANCH  52  66
ATOM     66  C   UNL A   1      39.676  31.961  35.234  1.00  0.00     0.064 A 
ATOM     67  C   UNL A   1      40.027  33.319  35.288  1.00  0.00     0.173 A 
ATOM     68  C   UNL A   1      38.770  31.479  36.192  1.00  0.00     0.173 A 
ATOM     69  F   UNL A   1      40.906  33.825  34.409  1.00  0.00    -0.203 F 
ATOM     70  C   UNL A   1      39.511  34.153  36.276  1.00  0.00     0.198 A 
ATOM     71  C   UNL A   1      38.230  32.324  37.156  1.00  0.00     0.198 A 
ATOM     72  F   UNL A   1      38.404  30.189  36.185  1.00  0.00    -0.203 F 
ATOM     73  F   UNL A   1      39.900  35.434  36.338  1.00  0.00    -0.200 F 
ATOM     74  C   UNL A   1      38.606  33.658  37.202  1.00  0.00     0.200 A 
ATOM     75  F   UNL A   1      37.347  31.846  38.043  1.00  0.00    -0.200 F 
ATOM     76  F   UNL A   1      38.101  34.464  38.146  1.00  0.00    -0.200 F 
ENDBRANCH  52  66
BRANCH  53  77
ATOM     77  C   UNL A   1      42.899  25.956  27.930  1.00  0.00     0.064 A 
ATOM     78  C   UNL A   1      43.727  26.461  26.917  1.00  0.00     0.173 A 
ATOM     79  C   UNL A   1      42.529  24.606  27.853  1.00  0.00     0.173 A 
ATOM     80  F   UNL A   1      44.083  27.754  26.926  1.00  0.00    -0.203 F 
ATOM     81  C   UNL A   1      44.140  25.658  25.855  1.00  0.00     0.198 A 
ATOM     82  C   UNL A   1      42.971  23.794  26.810  1.00  0.00     0.198 A 
ATOM     83  F   UNL A   1      41.732  24.073  28.791  1.00  0.00    -0.203 F 
ATOM     84  F   UNL A   1      44.877  26.184  24.867  1.00  0.00    -0.200 F 
ATOM     85  C   UNL A   1      43.766  24.325  25.805  1.00  0.00     0.200 A 
ATOM     86  F   UNL A   1      42.612  22.504  26.769  1.00  0.00    -0.200 F 
ATOM     87  F   UNL A   1      44.159  23.554  24.782  1.00  0.00    -0.200 F 
ENDBRANCH  53  77
BRANCH  65  88
ATOM     88  C   UNL A   1      45.444  27.774  34.161  1.00  0.00     0.064 A 
ATOM     89  C   UNL A   1      46.632  28.516  34.080  1.00  0.00     0.173 A 
ATOM     90  C   UNL A   1      45.427  26.656  35.013  1.00  0.00     0.173 A 
ATOM     91  F   UNL A   1      46.705  29.585  33.274  1.00  0.00    -0.203 F 
ATOM     92  C   UNL A   1      47.762  28.140  34.801  1.00  0.00     0.198 A 
ATOM     93  C   UNL A   1      46.549  26.304  35.758  1.00  0.00     0.198 A 
ATOM     94  F   UNL A   1      44.315  25.916  35.136  1.00  0.00    -0.203 F 
ATOM     95  F   UNL A   1      48.901  28.835  34.669  1.00  0.00    -0.200 F 
ATOM     96  C   UNL A   1      47.718  27.040  35.645  1.00  0.00     0.200 A 
ATOM     97  F   UNL A   1      46.496  25.252  36.588  1.00  0.00    -0.200 F 
ATOM     98  F   UNL A   1      48.804  26.686  36.346  1.00  0.00    -0.200 F 
ENDBRANCH  65  88
ENDBRANCH  39  40
ENDBRANCH  32  34
ENDBRANCH  31  32
ENDBRANCH  30  31
ENDBRANCH  29  30
ENDBRANCH  28  29
ENDBRANCH  27  28
ENDBRANCH   1  27
TORSDOF 20
ENDMDL
MODEL 3
REMARK VINA RESULT:     -11.0      0.928      7.231
REMARK SMILES C[C@@H]1[C@H](C(=O)OCCOCCOCCOC(=O)c2ccc(-c3c4nc(c(-c5c(F)c(F)c(F)c(F)c5F)c5ccc([nH]5)c(-c5c(F)c(F)c(F)c(F)c5F)c5nc(c(-c6c(F)c(F)c(F)c(F)c6F)c6ccc3[nH]6)C=C5)C=C4)cc2)CC[N@@H+]1[C@@H](C)c1cccc(C(F)(F)F)c1
REMARK SMILES IDX 10 1 9 2 8 3 7 4 6 5 4 6 5 7 3 8 1 9 2 10 83 11 81 12 82 13
REMARK SMILES IDX 84 15 85 16 86 17 87 18 95 19 88 20 90 21 89 22 91 23 92 24
REMARK SMILES IDX 93 25 94 26 11 27 12 28 13 29 14 30 15 31 16 32 17 33 18 34
REMARK SMILES IDX 19 35 80 36 20 37 79 38 21 39 22 40 23 41 73 42 24 43 78 44
REMARK SMILES IDX 72 45 74 46 25 47 77 48 71 49 70 50 26 52 58 53 38 54 57 55
REMARK SMILES IDX 39 56 42 57 56 58 75 59 40 60 41 61 55 63 76 64 43 65 27 66
REMARK SMILES IDX 28 67 36 68 29 69 30 70 34 71 37 72 31 73 32 74 35 75 33 76
REMARK SMILES IDX 59 77 60 78 68 79 61 80 62 81 66 82 69 83 63 84 64 85 67 86
REMARK SMILES IDX 65 87 44 88 45 89 53 90 46 91 47 92 51 93 54 94 48 95 49 96
REMARK SMILES IDX 52 97 50 98
REMARK H PARENT 83 14 74 51 42 62
REMARK Flexibility Score: inf
ROOT
ATOM      1  C   UNL A   1      39.815  21.163  26.121  1.00  0.00     0.188 C 
ENDROOT
BRANCH   1   2
ATOM      2  O   UNL A   1      38.758  22.096  26.187  1.00  0.00    -0.376 OA
BRANCH   2   3
ATOM      3  C   UNL A   1      37.743  22.012  25.191  1.00  0.00     0.202 C 
BRANCH   3   4
ATOM      4  C   UNL A   1      36.585  21.033  25.396  1.00  0.00     0.261 C 
BRANCH   4   5
ATOM      5  O   UNL A   1      35.320  21.634  25.055  1.00  0.00    -0.463 OA
BRANCH   5   6
ATOM      6  C   UNL A   1      34.569  22.090  26.080  1.00  0.00     0.315 C 
ATOM      7  O   UNL A   1      34.341  21.436  27.094  1.00  0.00    -0.252 OA
BRANCH   6   8
ATOM      8  C   UNL A   1      34.085  23.527  25.940  1.00  0.00     0.162 C 
ATOM      9  C   UNL A   1      33.865  23.432  23.343  1.00  0.00     0.076 C 
ATOM     10  C   UNL A   1      33.895  24.279  24.603  1.00  0.00     0.196 C 
ATOM     11  N   UNL A   1      32.723  25.157  24.823  1.00  0.00    -0.326 N 
ATOM     12  C   UNL A   1      32.708  23.600  26.586  1.00  0.00     0.083 C 
ATOM     13  C   UNL A   1      32.146  24.924  26.137  1.00  0.00     0.264 C 
ATOM     14  H   UNL A   1      33.152  26.082  24.786  1.00  0.00     0.348 HD
BRANCH  11  15
ATOM     15  C   UNL A   1      31.840  25.611  23.740  1.00  0.00     0.212 C 
ATOM     16  C   UNL A   1      30.580  24.746  23.510  1.00  0.00     0.081 C 
BRANCH  15  17
ATOM     17  C   UNL A   1      31.448  27.098  23.867  1.00  0.00     0.010 A 
ATOM     18  C   UNL A   1      32.264  28.024  24.547  1.00  0.00     0.010 A 
ATOM     19  C   UNL A   1      30.241  27.565  23.319  1.00  0.00     0.023 A 
ATOM     20  C   UNL A   1      31.862  29.342  24.747  1.00  0.00     0.001 A 
ATOM     21  C   UNL A   1      29.837  28.904  23.489  1.00  0.00     0.056 A 
ATOM     22  C   UNL A   1      30.650  29.778  24.229  1.00  0.00     0.013 A 
BRANCH  21  23
ATOM     23  C   UNL A   1      28.550  29.426  22.904  1.00  0.00     0.416 C 
ATOM     24  F   UNL A   1      28.701  29.862  21.622  1.00  0.00    -0.166 F 
ATOM     25  F   UNL A   1      27.578  28.470  22.857  1.00  0.00    -0.166 F 
ATOM     26  F   UNL A   1      28.012  30.469  23.594  1.00  0.00    -0.166 F 
ENDBRANCH  21  23
ENDBRANCH  15  17
ENDBRANCH  11  15
ENDBRANCH   6   8
ENDBRANCH   5   6
ENDBRANCH   4   5
ENDBRANCH   3   4
ENDBRANCH   2   3
ENDBRANCH   1   2
BRANCH   1  27
ATOM     27  C   UNL A   1      41.251  21.644  26.351  1.00  0.00     0.188 C 
BRANCH  27  28
ATOM     28  O   UNL A   1      42.392  21.024  25.796  1.00  0.00    -0.376 OA
BRANCH  28  29
ATOM     29  C   UNL A   1      43.613  21.730  25.631  1.00  0.00     0.202 C 
BRANCH  29  30
ATOM     30  C   UNL A   1      43.856  22.698  24.461  1.00  0.00     0.261 C 
BRANCH  30  31
ATOM     31  O   UNL A   1      43.318  24.010  24.621  1.00  0.00    -0.460 OA
BRANCH  31  32
ATOM     32  C   UNL A   1      44.189  24.926  25.117  1.00  0.00     0.338 C 
ATOM     33  O   UNL A   1      45.260  25.267  24.643  1.00  0.00    -0.246 OA
BRANCH  32  34
ATOM     34  C   UNL A   1      43.503  25.650  26.210  1.00  0.00     0.060 A 
ATOM     35  C   UNL A   1      43.881  26.977  26.466  1.00  0.00     0.016 A 
ATOM     36  C   UNL A   1      42.440  25.068  26.903  1.00  0.00     0.016 A 
ATOM     37  C   UNL A   1      43.215  27.720  27.438  1.00  0.00     0.010 A 
ATOM     38  C   UNL A   1      41.791  25.803  27.894  1.00  0.00     0.010 A 
ATOM     39  C   UNL A   1      42.195  27.120  28.187  1.00  0.00    -0.014 A 
BRANCH  39  40
ATOM     40  C   UNL A   1      41.718  27.757  29.435  1.00  0.00     0.031 A 
ATOM     41  C   UNL A   1      40.458  28.575  29.357  1.00  0.00     0.074 A 
ATOM     42  C   UNL A   1      42.374  27.630  30.602  1.00  0.00     0.049 A 
ATOM     43  N   UNL A   1      39.894  29.330  30.263  1.00  0.00    -0.248 NA
ATOM     44  C   UNL A   1      39.744  28.541  28.070  1.00  0.00     0.031 C 
ATOM     45  C   UNL A   1      43.570  26.822  30.820  1.00  0.00     0.029 A 
ATOM     46  N   UNL A   1      42.123  28.203  31.824  1.00  0.00    -0.354 N 
ATOM     47  C   UNL A   1      38.766  29.863  29.654  1.00  0.00     0.074 A 
ATOM     48  C   UNL A   1      38.744  29.378  28.292  1.00  0.00     0.031 C 
ATOM     49  C   UNL A   1      43.962  26.964  32.099  1.00  0.00     0.029 A 
ATOM     50  C   UNL A   1      43.067  27.905  32.775  1.00  0.00     0.049 A 
ATOM     51  H   UNL A   1      41.341  28.773  32.001  1.00  0.00     0.167 HD
ATOM     52  C   UNL A   1      37.827  30.679  30.185  1.00  0.00     0.037 A 
ATOM     53  C   UNL A   1      43.204  28.366  34.034  1.00  0.00     0.037 A 
ATOM     54  C   UNL A   1      37.856  31.167  31.537  1.00  0.00     0.049 A 
ATOM     55  C   UNL A   1      42.198  29.358  34.572  1.00  0.00     0.074 A 
ATOM     56  C   UNL A   1      36.954  32.002  32.172  1.00  0.00     0.029 A 
ATOM     57  N   UNL A   1      38.846  30.870  32.461  1.00  0.00    -0.354 N 
ATOM     58  N   UNL A   1      41.127  29.852  33.998  1.00  0.00    -0.248 NA
ATOM     59  C   UNL A   1      42.424  29.857  35.937  1.00  0.00     0.031 C 
ATOM     60  C   UNL A   1      37.427  32.253  33.462  1.00  0.00     0.029 A 
ATOM     61  C   UNL A   1      38.589  31.524  33.654  1.00  0.00     0.049 A 
ATOM     62  H   UNL A   1      39.617  30.280  32.294  1.00  0.00     0.167 HD
ATOM     63  C   UNL A   1      40.534  30.684  34.942  1.00  0.00     0.074 A 
ATOM     64  C   UNL A   1      41.359  30.619  36.130  1.00  0.00     0.031 C 
ATOM     65  C   UNL A   1      39.408  31.432  34.836  1.00  0.00     0.037 A 
BRANCH  52  66
ATOM     66  C   UNL A   1      36.705  31.114  29.291  1.00  0.00     0.064 A 
ATOM     67  C   UNL A   1      35.678  30.234  28.915  1.00  0.00     0.173 A 
ATOM     68  C   UNL A   1      36.641  32.435  28.823  1.00  0.00     0.173 A 
ATOM     69  F   UNL A   1      35.703  28.954  29.319  1.00  0.00    -0.203 F 
ATOM     70  C   UNL A   1      34.643  30.655  28.085  1.00  0.00     0.198 A 
ATOM     71  C   UNL A   1      35.587  32.861  28.021  1.00  0.00     0.198 A 
ATOM     72  F   UNL A   1      37.598  33.315  29.152  1.00  0.00    -0.203 F 
ATOM     73  F   UNL A   1      33.701  29.784  27.698  1.00  0.00    -0.200 F 
ATOM     74  C   UNL A   1      34.593  31.969  27.646  1.00  0.00     0.200 A 
ATOM     75  F   UNL A   1      35.534  34.135  27.608  1.00  0.00    -0.200 F 
ATOM     76  F   UNL A   1      33.590  32.376  26.856  1.00  0.00    -0.200 F 
ENDBRANCH  52  66
BRANCH  53  77
ATOM     77  C   UNL A   1      44.344  27.921  34.882  1.00  0.00     0.064 A 
ATOM     78  C   UNL A   1      44.264  26.743  35.638  1.00  0.00     0.173 A 
ATOM     79  C   UNL A   1      45.511  28.689  34.998  1.00  0.00     0.173 A 
ATOM     80  F   UNL A   1      43.155  25.989  35.587  1.00  0.00    -0.203 F 
ATOM     81  C   UNL A   1      45.293  26.365  36.498  1.00  0.00     0.198 A 
ATOM     82  C   UNL A   1      46.555  28.293  35.832  1.00  0.00     0.198 A 
ATOM     83  F   UNL A   1      45.637  29.829  34.304  1.00  0.00    -0.203 F 
ATOM     84  F   UNL A   1      45.162  25.269  37.257  1.00  0.00    -0.200 F 
ATOM     85  C   UNL A   1      46.440  27.138  36.591  1.00  0.00     0.200 A 
ATOM     86  F   UNL A   1      47.665  29.040  35.913  1.00  0.00    -0.200 F 
ATOM     87  F   UNL A   1      47.428  26.779  37.421  1.00  0.00    -0.200 F 
ENDBRANCH  53  77
BRANCH  65  88
ATOM     88  C   UNL A   1      38.963  32.198  36.050  1.00  0.00     0.064 A 
ATOM     89  C   UNL A   1      38.151  31.620  37.038  1.00  0.00     0.173 A 
ATOM     90  C   UNL A   1      39.402  33.517  36.252  1.00  0.00     0.173 A 
ATOM     91  F   UNL A   1      37.696  30.367  36.889  1.00  0.00    -0.203 F 
ATOM     92  C   UNL A   1      37.772  32.342  38.166  1.00  0.00     0.198 A 
ATOM     93  C   UNL A   1      39.049  34.224  37.399  1.00  0.00     0.198 A 
ATOM     94  F   UNL A   1      40.189  34.116  35.345  1.00  0.00    -0.203 F 
ATOM     95  F   UNL A   1      36.955  31.787  39.072  1.00  0.00    -0.200 F 
ATOM     96  C   UNL A   1      38.227  33.640  38.351  1.00  0.00     0.200 A 
ATOM     97  F   UNL A   1      39.507  35.470  37.583  1.00  0.00    -0.200 F 
ATOM     98  F   UNL A   1      37.871  34.329  39.443  1.00  0.00    -0.200 F 
ENDBRANCH  65  88
ENDBRANCH  39  40
ENDBRANCH  32  34
ENDBRANCH  31  32
ENDBRANCH  30  31
ENDBRANCH  29  30
ENDBRANCH  28  29
ENDBRANCH  27  28
ENDBRANCH   1  27
TORSDOF 20
ENDMDL
