MODEL 1
REMARK VINA RESULT:      -9.9      0.000      0.000
REMARK SMILES O=C(OCCOCCOCCOC(=O)[C@@H](CO)NS(=O)(=O)c1cc[nH]c1)c1ccc(-c2c3nc(c(-c4c(F)c(F)c(F)c(F)c4F)c4ccc([nH]4)c(-c4c(F)c(F)c(F)c(F)c4F)c4nc(c(-c5c(F)c(F)c(F)c(F)c5F)c5ccc2[nH]5)C=C4)C=C3)cc1
REMARK SMILES IDX 8 1 7 2 6 3 5 4 4 5 3 6 2 7 1 8 27 9 28 10 89 11 29 12 88 13
REMARK SMILES IDX 30 14 31 15 32 16 82 17 33 18 87 19 81 20 83 21 34 22 86 23
REMARK SMILES IDX 80 24 79 25 35 27 67 28 47 29 66 30 48 31 51 32 65 33 84 34
REMARK SMILES IDX 49 35 50 36 64 38 85 39 52 40 36 41 37 42 45 43 38 44 39 45
REMARK SMILES IDX 43 46 46 47 40 48 41 49 44 50 42 51 68 52 69 53 77 54 70 55
REMARK SMILES IDX 71 56 75 57 78 58 72 59 73 60 76 61 74 62 53 63 54 64 62 65
REMARK SMILES IDX 55 66 56 67 60 68 63 69 57 70 58 71 61 72 59 73 9 74 10 75
REMARK SMILES IDX 11 76 12 77 13 78 14 79 15 80 16 81 17 82 18 84 19 86 20 87
REMARK SMILES IDX 21 88 22 89 23 90 26 91 24 92 25 93
REMARK H PARENT 83 26 51 37 17 83 18 85 25 94
REMARK Flexibility Score: inf
ROOT
ATOM      1  C   UNL A   1      32.746  29.320  24.495  1.00  0.00     0.188 C 
ENDROOT
BRANCH   1   2
ATOM      2  C   UNL A   1      31.624  29.811  25.402  1.00  0.00     0.188 C 
BRANCH   2   3
ATOM      3  O   UNL A   1      31.956  30.060  26.769  1.00  0.00    -0.376 OA
BRANCH   3   4
ATOM      4  C   UNL A   1      33.266  30.559  27.054  1.00  0.00     0.202 C 
BRANCH   4   5
ATOM      5  C   UNL A   1      34.410  29.651  27.563  1.00  0.00     0.261 C 
BRANCH   5   6
ATOM      6  O   UNL A   1      35.741  30.192  27.612  1.00  0.00    -0.460 OA
BRANCH   6   7
ATOM      7  C   UNL A   1      36.606  30.224  28.648  1.00  0.00     0.338 C 
ATOM      8  O   UNL A   1      36.328  30.861  29.662  1.00  0.00    -0.246 OA
BRANCH   7   9
ATOM      9  C   UNL A   1      37.778  29.335  28.664  1.00  0.00     0.060 A 
ATOM     10  C   UNL A   1      38.125  28.510  29.728  1.00  0.00     0.016 A 
ATOM     11  C   UNL A   1      38.635  29.458  27.556  1.00  0.00     0.016 A 
ATOM     12  C   UNL A   1      39.410  28.031  29.816  1.00  0.00     0.010 A 
ATOM     13  C   UNL A   1      39.911  28.936  27.608  1.00  0.00     0.010 A 
ATOM     14  C   UNL A   1      40.304  28.287  28.775  1.00  0.00    -0.014 A 
BRANCH  14  15
ATOM     15  C   UNL A   1      41.615  27.659  28.902  1.00  0.00     0.031 A 
ATOM     16  C   UNL A   1      41.526  26.208  28.398  1.00  0.00     0.074 A 
ATOM     17  C   UNL A   1      42.554  28.422  29.545  1.00  0.00     0.049 A 
ATOM     18  N   UNL A   1      42.148  25.149  28.807  1.00  0.00    -0.248 NA
ATOM     19  C   UNL A   1      40.518  25.858  27.351  1.00  0.00     0.031 C 
ATOM     20  C   UNL A   1      42.396  29.853  29.903  1.00  0.00     0.029 A 
ATOM     21  N   UNL A   1      43.809  28.164  30.049  1.00  0.00    -0.354 N 
ATOM     22  C   UNL A   1      41.799  24.091  27.937  1.00  0.00     0.074 A 
ATOM     23  C   UNL A   1      40.684  24.546  27.170  1.00  0.00     0.031 C 
ATOM     24  C   UNL A   1      43.449  30.297  30.626  1.00  0.00     0.029 A 
ATOM     25  C   UNL A   1      44.399  29.218  30.806  1.00  0.00     0.049 A 
ATOM     26  H   UNL A   1      44.270  27.307  29.897  1.00  0.00     0.167 HD
ATOM     27  C   UNL A   1      42.577  22.977  27.798  1.00  0.00     0.037 A 
ATOM     28  C   UNL A   1      45.546  29.191  31.561  1.00  0.00     0.037 A 
ATOM     29  C   UNL A   1      43.659  23.046  28.722  1.00  0.00     0.049 A 
ATOM     30  C   UNL A   1      46.127  27.876  31.270  1.00  0.00     0.074 A 
ATOM     31  C   UNL A   1      43.700  22.909  30.084  1.00  0.00     0.029 A 
ATOM     32  N   UNL A   1      44.792  23.695  28.293  1.00  0.00    -0.354 N 
ATOM     33  N   UNL A   1      46.706  27.566  30.150  1.00  0.00    -0.248 NA
ATOM     34  C   UNL A   1      45.946  26.793  32.244  1.00  0.00     0.031 C 
ATOM     35  C   UNL A   1      44.609  23.912  30.474  1.00  0.00     0.029 A 
ATOM     36  C   UNL A   1      45.278  24.416  29.352  1.00  0.00     0.049 A 
ATOM     37  H   UNL A   1      45.182  23.650  27.390  1.00  0.00     0.167 HD
ATOM     38  C   UNL A   1      46.634  26.195  30.164  1.00  0.00     0.074 A 
ATOM     39  C   UNL A   1      46.496  25.801  31.550  1.00  0.00     0.031 C 
ATOM     40  C   UNL A   1      46.135  25.545  29.081  1.00  0.00     0.037 A 
BRANCH  27  41
ATOM     41  C   UNL A   1      42.658  21.919  26.733  1.00  0.00     0.064 A 
ATOM     42  C   UNL A   1      42.108  20.645  27.027  1.00  0.00     0.173 A 
ATOM     43  C   UNL A   1      43.545  21.972  25.652  1.00  0.00     0.173 A 
ATOM     44  F   UNL A   1      41.197  20.497  28.002  1.00  0.00    -0.203 F 
ATOM     45  C   UNL A   1      42.555  19.485  26.402  1.00  0.00     0.198 A 
ATOM     46  C   UNL A   1      43.949  20.810  24.988  1.00  0.00     0.198 A 
ATOM     47  F   UNL A   1      44.124  23.119  25.278  1.00  0.00    -0.203 F 
ATOM     48  F   UNL A   1      42.133  18.289  26.834  1.00  0.00    -0.200 F 
ATOM     49  C   UNL A   1      43.495  19.566  25.396  1.00  0.00     0.200 A 
ATOM     50  F   UNL A   1      44.853  20.893  24.002  1.00  0.00    -0.200 F 
ATOM     51  F   UNL A   1      43.992  18.450  24.847  1.00  0.00    -0.200 F 
ENDBRANCH  27  41
BRANCH  28  52
ATOM     52  C   UNL A   1      46.294  30.029  32.580  1.00  0.00     0.064 A 
ATOM     53  C   UNL A   1      47.535  30.650  32.398  1.00  0.00     0.173 A 
ATOM     54  C   UNL A   1      45.696  30.302  33.849  1.00  0.00     0.173 A 
ATOM     55  F   UNL A   1      48.277  30.399  31.315  1.00  0.00    -0.203 F 
ATOM     56  C   UNL A   1      48.066  31.550  33.349  1.00  0.00     0.198 A 
ATOM     57  C   UNL A   1      46.190  31.231  34.763  1.00  0.00     0.198 A 
ATOM     58  F   UNL A   1      44.589  29.670  34.261  1.00  0.00    -0.203 F 
ATOM     59  F   UNL A   1      49.258  32.123  33.131  1.00  0.00    -0.200 F 
ATOM     60  C   UNL A   1      47.373  31.872  34.506  1.00  0.00     0.200 A 
ATOM     61  F   UNL A   1      45.492  31.503  35.875  1.00  0.00    -0.200 F 
ATOM     62  F   UNL A   1      47.847  32.780  35.370  1.00  0.00    -0.200 F 
ENDBRANCH  28  52
BRANCH  40  63
ATOM     63  C   UNL A   1      46.231  26.337  27.784  1.00  0.00     0.064 A 
ATOM     64  C   UNL A   1      47.487  26.753  27.312  1.00  0.00     0.173 A 
ATOM     65  C   UNL A   1      45.125  26.817  27.064  1.00  0.00     0.173 A 
ATOM     66  F   UNL A   1      48.602  26.316  27.915  1.00  0.00    -0.203 F 
ATOM     67  C   UNL A   1      47.619  27.622  26.225  1.00  0.00     0.198 A 
ATOM     68  C   UNL A   1      45.249  27.690  25.978  1.00  0.00     0.198 A 
ATOM     69  F   UNL A   1      43.892  26.441  27.386  1.00  0.00    -0.203 F 
ATOM     70  F   UNL A   1      48.839  27.995  25.813  1.00  0.00    -0.200 F 
ATOM     71  C   UNL A   1      46.500  28.099  25.563  1.00  0.00     0.200 A 
ATOM     72  F   UNL A   1      44.154  28.125  25.337  1.00  0.00    -0.200 F 
ATOM     73  F   UNL A   1      46.627  28.929  24.518  1.00  0.00    -0.200 F 
ENDBRANCH  40  63
ENDBRANCH  14  15
ENDBRANCH   7   9
ENDBRANCH   6   7
ENDBRANCH   5   6
ENDBRANCH   4   5
ENDBRANCH   3   4
ENDBRANCH   2   3
ENDBRANCH   1   2
BRANCH   1  74
ATOM     74  O   UNL A   1      33.303  28.050  24.814  1.00  0.00    -0.376 OA
BRANCH  74  75
ATOM     75  C   UNL A   1      33.631  27.197  23.727  1.00  0.00     0.202 C 
BRANCH  75  76
ATOM     76  C   UNL A   1      33.370  25.705  23.953  1.00  0.00     0.261 C 
BRANCH  76  77
ATOM     77  O   UNL A   1      34.120  24.852  23.068  1.00  0.00    -0.462 OA
BRANCH  77  78
ATOM     78  C   UNL A   1      33.507  23.691  22.695  1.00  0.00     0.326 C 
ATOM     79  O   UNL A   1      33.428  23.300  21.534  1.00  0.00    -0.250 OA
BRANCH  78  80
ATOM     80  C   UNL A   1      32.963  22.877  23.885  1.00  0.00     0.205 C 
BRANCH  80  81
ATOM     81  C   UNL A   1      31.435  22.767  23.959  1.00  0.00     0.188 C 
BRANCH  81  82
ATOM     82  O   UNL A   1      30.786  23.482  22.910  1.00  0.00    -0.394 OA
ATOM     83  H   UNL A   1      29.846  23.586  23.124  1.00  0.00     0.210 HD
ENDBRANCH  81  82
ENDBRANCH  80  81
BRANCH  80  84
ATOM     84  N   UNL A   1      33.630  21.550  23.821  1.00  0.00    -0.194 NA
ATOM     85  H   UNL A   1      34.230  21.559  22.997  1.00  0.00     0.142 HD
BRANCH  84  86
ATOM     86  S   UNL A   1      34.577  21.034  25.104  1.00  0.00     0.242 S 
ATOM     87  O   UNL A   1      33.883  21.335  26.326  1.00  0.00    -0.207 OA
ATOM     88  O   UNL A   1      35.003  19.681  24.787  1.00  0.00    -0.207 OA
BRANCH  86  89
ATOM     89  C   UNL A   1      36.040  21.953  25.210  1.00  0.00     0.099 A 
ATOM     90  C   UNL A   1      36.120  23.341  25.510  1.00  0.00     0.041 A 
ATOM     91  C   UNL A   1      37.335  21.487  25.095  1.00  0.00     0.104 A 
ATOM     92  C   UNL A   1      37.457  23.674  25.560  1.00  0.00     0.083 A 
ATOM     93  N   UNL A   1      38.187  22.538  25.320  1.00  0.00    -0.366 N 
ATOM     94  H   UNL A   1      39.170  22.484  25.311  1.00  0.00     0.165 HD
ENDBRANCH  86  89
ENDBRANCH  84  86
ENDBRANCH  80  84
ENDBRANCH  78  80
ENDBRANCH  77  78
ENDBRANCH  76  77
ENDBRANCH  75  76
ENDBRANCH  74  75
ENDBRANCH   1  74
TORSDOF 22
ENDMDL
MODEL 2
REMARK VINA RESULT:      -9.8      4.654      7.098
REMARK SMILES O=C(OCCOCCOCCOC(=O)[C@@H](CO)NS(=O)(=O)c1cc[nH]c1)c1ccc(-c2c3nc(c(-c4c(F)c(F)c(F)c(F)c4F)c4ccc([nH]4)c(-c4c(F)c(F)c(F)c(F)c4F)c4nc(c(-c5c(F)c(F)c(F)c(F)c5F)c5ccc2[nH]5)C=C4)C=C3)cc1
REMARK SMILES IDX 8 1 7 2 6 3 5 4 4 5 3 6 2 7 1 8 27 9 28 10 89 11 29 12 88 13
REMARK SMILES IDX 30 14 31 15 32 16 82 17 33 18 87 19 81 20 83 21 34 22 86 23
REMARK SMILES IDX 80 24 79 25 35 27 67 28 47 29 66 30 48 31 51 32 65 33 84 34
REMARK SMILES IDX 49 35 50 36 64 38 85 39 52 40 36 41 37 42 45 43 38 44 39 45
REMARK SMILES IDX 43 46 46 47 40 48 41 49 44 50 42 51 68 52 69 53 77 54 70 55
REMARK SMILES IDX 71 56 75 57 78 58 72 59 73 60 76 61 74 62 53 63 54 64 62 65
REMARK SMILES IDX 55 66 56 67 60 68 63 69 57 70 58 71 61 72 59 73 9 74 10 75
REMARK SMILES IDX 11 76 12 77 13 78 14 79 15 80 16 81 17 82 18 84 19 86 20 87
REMARK SMILES IDX 21 88 22 89 23 90 26 91 24 92 25 93
REMARK H PARENT 83 26 51 37 17 83 18 85 25 94
REMARK Flexibility Score: inf
ROOT
ATOM      1  C   UNL A   1      33.636  28.838  25.426  1.00  0.00     0.188 C 
ENDROOT
BRANCH   1   2
ATOM      2  C   UNL A   1      33.612  29.026  26.938  1.00  0.00     0.188 C 
BRANCH   2   3
ATOM      3  O   UNL A   1      33.125  30.276  27.429  1.00  0.00    -0.376 OA
BRANCH   3   4
ATOM      4  C   UNL A   1      32.154  30.967  26.637  1.00  0.00     0.202 C 
BRANCH   4   5
ATOM      5  C   UNL A   1      31.468  32.271  27.112  1.00  0.00     0.261 C 
BRANCH   5   6
ATOM      6  O   UNL A   1      32.230  33.490  27.092  1.00  0.00    -0.460 OA
BRANCH   6   7
ATOM      7  C   UNL A   1      32.946  34.059  28.085  1.00  0.00     0.338 C 
ATOM      8  O   UNL A   1      32.508  35.048  28.669  1.00  0.00    -0.246 OA
BRANCH   7   9
ATOM      9  C   UNL A   1      34.140  33.386  28.619  1.00  0.00     0.060 A 
ATOM     10  C   UNL A   1      34.117  32.409  29.609  1.00  0.00     0.016 A 
ATOM     11  C   UNL A   1      35.367  33.888  28.150  1.00  0.00     0.016 A 
ATOM     12  C   UNL A   1      35.267  32.133  30.308  1.00  0.00     0.010 A 
ATOM     13  C   UNL A   1      36.538  33.577  28.810  1.00  0.00     0.010 A 
ATOM     14  C   UNL A   1      36.458  32.754  29.929  1.00  0.00    -0.014 A 
BRANCH  14  15
ATOM     15  C   UNL A   1      37.648  32.329  30.658  1.00  0.00     0.031 A 
ATOM     16  C   UNL A   1      38.214  31.060  29.998  1.00  0.00     0.074 A 
ATOM     17  C   UNL A   1      37.902  33.040  31.802  1.00  0.00     0.049 A 
ATOM     18  N   UNL A   1      38.812  30.044  30.532  1.00  0.00    -0.248 NA
ATOM     19  C   UNL A   1      37.993  30.835  28.537  1.00  0.00     0.031 C 
ATOM     20  C   UNL A   1      37.209  34.289  32.206  1.00  0.00     0.029 A 
ATOM     21  N   UNL A   1      38.761  32.863  32.864  1.00  0.00    -0.354 N 
ATOM     22  C   UNL A   1      39.238  29.202  29.480  1.00  0.00     0.074 A 
ATOM     23  C   UNL A   1      38.573  29.657  28.301  1.00  0.00     0.031 C 
ATOM     24  C   UNL A   1      37.603  34.693  33.434  1.00  0.00     0.029 A 
ATOM     25  C   UNL A   1      38.591  33.768  33.953  1.00  0.00     0.049 A 
ATOM     26  H   UNL A   1      39.448  32.158  32.872  1.00  0.00     0.167 HD
ATOM     27  C   UNL A   1      40.250  28.298  29.636  1.00  0.00     0.037 A 
ATOM     28  C   UNL A   1      39.173  33.730  35.195  1.00  0.00     0.037 A 
ATOM     29  C   UNL A   1      40.670  28.299  30.996  1.00  0.00     0.049 A 
ATOM     30  C   UNL A   1      40.152  32.642  35.092  1.00  0.00     0.074 A 
ATOM     31  C   UNL A   1      40.068  27.826  32.132  1.00  0.00     0.029 A 
ATOM     32  N   UNL A   1      41.644  29.206  31.338  1.00  0.00    -0.354 N 
ATOM     33  N   UNL A   1      41.267  32.725  34.432  1.00  0.00    -0.248 NA
ATOM     34  C   UNL A   1      39.812  31.332  35.659  1.00  0.00     0.031 C 
ATOM     35  C   UNL A   1      40.357  28.826  33.081  1.00  0.00     0.029 A 
ATOM     36  C   UNL A   1      41.329  29.700  32.577  1.00  0.00     0.049 A 
ATOM     37  H   UNL A   1      42.425  29.456  30.792  1.00  0.00     0.167 HD
ATOM     38  C   UNL A   1      41.569  31.402  34.222  1.00  0.00     0.074 A 
ATOM     39  C   UNL A   1      40.877  30.650  35.246  1.00  0.00     0.031 C 
ATOM     40  C   UNL A   1      41.867  30.981  32.965  1.00  0.00     0.037 A 
BRANCH  27  41
ATOM     41  C   UNL A   1      41.127  27.575  28.653  1.00  0.00     0.064 A 
ATOM     42  C   UNL A   1      42.008  28.353  27.858  1.00  0.00     0.173 A 
ATOM     43  C   UNL A   1      40.878  26.273  28.201  1.00  0.00     0.173 A 
ATOM     44  F   UNL A   1      42.365  29.591  28.237  1.00  0.00    -0.203 F 
ATOM     45  C   UNL A   1      42.457  27.922  26.613  1.00  0.00     0.198 A 
ATOM     46  C   UNL A   1      41.378  25.824  26.975  1.00  0.00     0.198 A 
ATOM     47  F   UNL A   1      40.067  25.445  28.869  1.00  0.00    -0.203 F 
ATOM     48  F   UNL A   1      43.143  28.760  25.824  1.00  0.00    -0.200 F 
ATOM     49  C   UNL A   1      42.121  26.663  26.161  1.00  0.00     0.200 A 
ATOM     50  F   UNL A   1      41.061  24.595  26.543  1.00  0.00    -0.200 F 
ATOM     51  F   UNL A   1      42.477  26.272  24.930  1.00  0.00    -0.200 F 
ENDBRANCH  27  41
BRANCH  28  52
ATOM     52  C   UNL A   1      39.064  34.387  36.558  1.00  0.00     0.064 A 
ATOM     53  C   UNL A   1      38.441  33.854  37.692  1.00  0.00     0.173 A 
ATOM     54  C   UNL A   1      39.695  35.649  36.788  1.00  0.00     0.173 A 
ATOM     55  F   UNL A   1      37.706  32.740  37.614  1.00  0.00    -0.203 F 
ATOM     56  C   UNL A   1      38.544  34.471  38.959  1.00  0.00     0.198 A 
ATOM     57  C   UNL A   1      39.845  36.230  38.046  1.00  0.00     0.198 A 
ATOM     58  F   UNL A   1      40.201  36.381  35.788  1.00  0.00    -0.203 F 
ATOM     59  F   UNL A   1      37.932  33.922  40.019  1.00  0.00    -0.200 F 
ATOM     60  C   UNL A   1      39.281  35.631  39.142  1.00  0.00     0.200 A 
ATOM     61  F   UNL A   1      40.556  37.359  38.175  1.00  0.00    -0.200 F 
ATOM     62  F   UNL A   1      39.435  36.172  40.358  1.00  0.00    -0.200 F 
ENDBRANCH  28  52
BRANCH  40  63
ATOM     63  C   UNL A   1      42.373  32.083  32.045  1.00  0.00     0.064 A 
ATOM     64  C   UNL A   1      43.573  32.748  32.348  1.00  0.00     0.173 A 
ATOM     65  C   UNL A   1      41.654  32.600  30.955  1.00  0.00     0.173 A 
ATOM     66  F   UNL A   1      44.345  32.303  33.350  1.00  0.00    -0.203 F 
ATOM     67  C   UNL A   1      43.995  33.875  31.636  1.00  0.00     0.198 A 
ATOM     68  C   UNL A   1      42.068  33.729  30.241  1.00  0.00     0.198 A 
ATOM     69  F   UNL A   1      40.534  32.013  30.543  1.00  0.00    -0.203 F 
ATOM     70  F   UNL A   1      45.146  34.479  31.965  1.00  0.00    -0.200 F 
ATOM     71  C   UNL A   1      43.238  34.372  30.588  1.00  0.00     0.200 A 
ATOM     72  F   UNL A   1      41.331  34.184  29.216  1.00  0.00    -0.200 F 
ATOM     73  F   UNL A   1      43.645  35.450  29.903  1.00  0.00    -0.200 F 
ENDBRANCH  40  63
ENDBRANCH  14  15
ENDBRANCH   7   9
ENDBRANCH   6   7
ENDBRANCH   5   6
ENDBRANCH   4   5
ENDBRANCH   3   4
ENDBRANCH   2   3
ENDBRANCH   1   2
BRANCH   1  74
ATOM     74  O   UNL A   1      33.055  27.637  24.931  1.00  0.00    -0.376 OA
BRANCH  74  75
ATOM     75  C   UNL A   1      31.644  27.511  25.035  1.00  0.00     0.202 C 
BRANCH  75  76
ATOM     76  C   UNL A   1      31.065  26.160  24.607  1.00  0.00     0.261 C 
BRANCH  76  77
ATOM     77  O   UNL A   1      31.296  25.109  25.565  1.00  0.00    -0.462 OA
BRANCH  77  78
ATOM     78  C   UNL A   1      31.118  23.835  25.107  1.00  0.00     0.326 C 
ATOM     79  O   UNL A   1      30.896  23.554  23.933  1.00  0.00    -0.250 OA
BRANCH  78  80
ATOM     80  C   UNL A   1      31.280  22.764  26.202  1.00  0.00     0.205 C 
BRANCH  80  81
ATOM     81  C   UNL A   1      30.204  22.776  27.294  1.00  0.00     0.188 C 
BRANCH  81  82
ATOM     82  O   UNL A   1      29.158  23.705  27.018  1.00  0.00    -0.394 OA
ATOM     83  H   UNL A   1      29.541  24.561  26.776  1.00  0.00     0.210 HD
ENDBRANCH  81  82
ENDBRANCH  80  81
BRANCH  80  84
ATOM     84  N   UNL A   1      31.366  21.458  25.497  1.00  0.00    -0.194 NA
ATOM     85  H   UNL A   1      30.889  21.571  24.603  1.00  0.00     0.142 HD
BRANCH  84  86
ATOM     86  S   UNL A   1      32.867  20.790  25.164  1.00  0.00     0.242 S 
ATOM     87  O   UNL A   1      33.374  21.399  23.964  1.00  0.00    -0.207 OA
ATOM     88  O   UNL A   1      33.619  20.822  26.406  1.00  0.00    -0.207 OA
BRANCH  86  89
ATOM     89  C   UNL A   1      32.730  19.113  24.763  1.00  0.00     0.099 A 
ATOM     90  C   UNL A   1      32.924  18.558  23.468  1.00  0.00     0.041 A 
ATOM     91  C   UNL A   1      32.488  18.060  25.622  1.00  0.00     0.104 A 
ATOM     92  C   UNL A   1      32.787  17.191  23.581  1.00  0.00     0.083 A 
ATOM     93  N   UNL A   1      32.535  16.898  24.897  1.00  0.00    -0.366 N 
ATOM     94  H   UNL A   1      32.409  15.993  25.264  1.00  0.00     0.165 HD
ENDBRANCH  86  89
ENDBRANCH  84  86
ENDBRANCH  80  84
ENDBRANCH  78  80
ENDBRANCH  77  78
ENDBRANCH  76  77
ENDBRANCH  75  76
ENDBRANCH  74  75
ENDBRANCH   1  74
TORSDOF 22
ENDMDL
MODEL 3
REMARK VINA RESULT:      -9.8      4.573      6.991
REMARK SMILES O=C(OCCOCCOCCOC(=O)[C@@H](CO)NS(=O)(=O)c1cc[nH]c1)c1ccc(-c2c3nc(c(-c4c(F)c(F)c(F)c(F)c4F)c4ccc([nH]4)c(-c4c(F)c(F)c(F)c(F)c4F)c4nc(c(-c5c(F)c(F)c(F)c(F)c5F)c5ccc2[nH]5)C=C4)C=C3)cc1
REMARK SMILES IDX 8 1 7 2 6 3 5 4 4 5 3 6 2 7 1 8 27 9 28 10 89 11 29 12 88 13
REMARK SMILES IDX 30 14 31 15 32 16 82 17 33 18 87 19 81 20 83 21 34 22 86 23
REMARK SMILES IDX 80 24 79 25 35 27 67 28 47 29 66 30 48 31 51 32 65 33 84 34
REMARK SMILES IDX 49 35 50 36 64 38 85 39 52 40 36 41 37 42 45 43 38 44 39 45
REMARK SMILES IDX 43 46 46 47 40 48 41 49 44 50 42 51 68 52 69 53 77 54 70 55
REMARK SMILES IDX 71 56 75 57 78 58 72 59 73 60 76 61 74 62 53 63 54 64 62 65
REMARK SMILES IDX 55 66 56 67 60 68 63 69 57 70 58 71 61 72 59 73 9 74 10 75
REMARK SMILES IDX 11 76 12 77 13 78 14 79 15 80 16 81 17 82 18 84 19 86 20 87
REMARK SMILES IDX 21 88 22 89 23 90 26 91 24 92 25 93
REMARK H PARENT 83 26 51 37 17 83 18 85 25 94
REMARK Flexibility Score: inf
ROOT
ATOM      1  C   UNL A   1      30.113  28.604  23.455  1.00  0.00     0.188 C 
ENDROOT
BRANCH   1   2
ATOM      2  C   UNL A   1      30.306  30.044  23.915  1.00  0.00     0.188 C 
BRANCH   2   3
ATOM      3  O   UNL A   1      31.066  30.249  25.107  1.00  0.00    -0.376 OA
BRANCH   3   4
ATOM      4  C   UNL A   1      30.965  31.524  25.748  1.00  0.00     0.202 C 
BRANCH   4   5
ATOM      5  C   UNL A   1      31.963  31.990  26.834  1.00  0.00     0.261 C 
BRANCH   5   6
ATOM      6  O   UNL A   1      31.964  33.378  27.211  1.00  0.00    -0.460 OA
BRANCH   6   7
ATOM      7  C   UNL A   1      32.822  34.038  28.017  1.00  0.00     0.338 C 
ATOM      8  O   UNL A   1      32.507  35.127  28.490  1.00  0.00    -0.246 OA
BRANCH   7   9
ATOM      9  C   UNL A   1      34.040  33.373  28.508  1.00  0.00     0.060 A 
ATOM     10  C   UNL A   1      34.047  32.269  29.354  1.00  0.00     0.016 A 
ATOM     11  C   UNL A   1      35.246  34.012  28.167  1.00  0.00     0.016 A 
ATOM     12  C   UNL A   1      35.188  31.972  30.060  1.00  0.00     0.010 A 
ATOM     13  C   UNL A   1      36.411  33.686  28.831  1.00  0.00     0.010 A 
ATOM     14  C   UNL A   1      36.347  32.712  29.823  1.00  0.00    -0.014 A 
BRANCH  14  15
ATOM     15  C   UNL A   1      37.536  32.266  30.541  1.00  0.00     0.031 A 
ATOM     16  C   UNL A   1      38.071  30.985  29.876  1.00  0.00     0.074 A 
ATOM     17  C   UNL A   1      37.815  32.974  31.680  1.00  0.00     0.049 A 
ATOM     18  N   UNL A   1      38.655  29.958  30.406  1.00  0.00    -0.248 NA
ATOM     19  C   UNL A   1      37.830  30.762  28.418  1.00  0.00     0.031 C 
ATOM     20  C   UNL A   1      37.151  34.236  32.089  1.00  0.00     0.029 A 
ATOM     21  N   UNL A   1      38.681  32.782  32.734  1.00  0.00    -0.354 N 
ATOM     22  C   UNL A   1      39.053  29.107  29.351  1.00  0.00     0.074 A 
ATOM     23  C   UNL A   1      38.385  29.573  28.179  1.00  0.00     0.031 C 
ATOM     24  C   UNL A   1      37.565  34.635  33.312  1.00  0.00     0.029 A 
ATOM     25  C   UNL A   1      38.540  33.692  33.823  1.00  0.00     0.049 A 
ATOM     26  H   UNL A   1      39.355  32.063  32.736  1.00  0.00     0.167 HD
ATOM     27  C   UNL A   1      40.049  28.184  29.498  1.00  0.00     0.037 A 
ATOM     28  C   UNL A   1      39.135  33.644  35.059  1.00  0.00     0.037 A 
ATOM     29  C   UNL A   1      40.483  28.179  30.854  1.00  0.00     0.049 A 
ATOM     30  C   UNL A   1      40.091  32.538  34.947  1.00  0.00     0.074 A 
ATOM     31  C   UNL A   1      39.884  27.719  31.997  1.00  0.00     0.029 A 
ATOM     32  N   UNL A   1      41.478  29.068  31.184  1.00  0.00    -0.354 N 
ATOM     33  N   UNL A   1      41.201  32.598  34.276  1.00  0.00    -0.248 NA
ATOM     34  C   UNL A   1      39.732  31.235  35.520  1.00  0.00     0.031 C 
ATOM     35  C   UNL A   1      40.203  28.715  32.941  1.00  0.00     0.029 A 
ATOM     36  C   UNL A   1      41.185  29.569  32.425  1.00  0.00     0.049 A 
ATOM     37  H   UNL A   1      42.258  29.302  30.630  1.00  0.00     0.167 HD
ATOM     38  C   UNL A   1      41.475  31.269  34.065  1.00  0.00     0.074 A 
ATOM     39  C   UNL A   1      40.780  30.532  35.098  1.00  0.00     0.031 C 
ATOM     40  C   UNL A   1      41.752  30.840  32.805  1.00  0.00     0.037 A 
BRANCH  27  41
ATOM     41  C   UNL A   1      40.903  27.442  28.507  1.00  0.00     0.064 A 
ATOM     42  C   UNL A   1      40.742  26.035  28.423  1.00  0.00     0.173 A 
ATOM     43  C   UNL A   1      42.077  27.963  27.951  1.00  0.00     0.173 A 
ATOM     44  F   UNL A   1      39.622  25.442  28.866  1.00  0.00    -0.203 F 
ATOM     45  C   UNL A   1      41.764  25.200  27.981  1.00  0.00     0.198 A 
ATOM     46  C   UNL A   1      43.078  27.122  27.455  1.00  0.00     0.198 A 
ATOM     47  F   UNL A   1      42.337  29.275  27.967  1.00  0.00    -0.203 F 
ATOM     48  F   UNL A   1      41.630  23.870  28.083  1.00  0.00    -0.200 F 
ATOM     49  C   UNL A   1      42.943  25.745  27.518  1.00  0.00     0.200 A 
ATOM     50  F   UNL A   1      44.219  27.654  26.993  1.00  0.00    -0.200 F 
ATOM     51  F   UNL A   1      43.962  24.947  27.169  1.00  0.00    -0.200 F 
ENDBRANCH  27  41
BRANCH  28  52
ATOM     52  C   UNL A   1      39.052  34.305  36.421  1.00  0.00     0.064 A 
ATOM     53  C   UNL A   1      38.392  33.807  37.551  1.00  0.00     0.173 A 
ATOM     54  C   UNL A   1      39.751  35.530  36.658  1.00  0.00     0.173 A 
ATOM     55  F   UNL A   1      37.597  32.736  37.465  1.00  0.00    -0.203 F 
ATOM     56  C   UNL A   1      38.520  34.416  38.819  1.00  0.00     0.198 A 
ATOM     57  C   UNL A   1      39.923  36.100  37.918  1.00  0.00     0.198 A 
ATOM     58  F   UNL A   1      40.304  36.233  35.662  1.00  0.00    -0.203 F 
ATOM     59  F   UNL A   1      37.870  33.901  39.873  1.00  0.00    -0.200 F 
ATOM     60  C   UNL A   1      39.319  35.533  39.008  1.00  0.00     0.200 A 
ATOM     61  F   UNL A   1      40.696  37.188  38.053  1.00  0.00    -0.200 F 
ATOM     62  F   UNL A   1      39.494  36.064  40.226  1.00  0.00    -0.200 F 
ENDBRANCH  28  52
BRANCH  40  63
ATOM     63  C   UNL A   1      42.270  31.931  31.879  1.00  0.00     0.064 A 
ATOM     64  C   UNL A   1      43.525  32.513  32.119  1.00  0.00     0.173 A 
ATOM     65  C   UNL A   1      41.519  32.518  30.847  1.00  0.00     0.173 A 
ATOM     66  F   UNL A   1      44.328  31.997  33.062  1.00  0.00    -0.203 F 
ATOM     67  C   UNL A   1      43.974  33.629  31.406  1.00  0.00     0.198 A 
ATOM     68  C   UNL A   1      41.959  33.637  30.132  1.00  0.00     0.198 A 
ATOM     69  F   UNL A   1      40.341  32.013  30.494  1.00  0.00    -0.203 F 
ATOM     70  F   UNL A   1      45.178  34.152  31.674  1.00  0.00    -0.200 F 
ATOM     71  C   UNL A   1      43.187  34.197  30.418  1.00  0.00     0.200 A 
ATOM     72  F   UNL A   1      41.191  34.161  29.165  1.00  0.00    -0.200 F 
ATOM     73  F   UNL A   1      43.619  35.264  29.731  1.00  0.00    -0.200 F 
ENDBRANCH  40  63
ENDBRANCH  14  15
ENDBRANCH   7   9
ENDBRANCH   6   7
ENDBRANCH   5   6
ENDBRANCH   4   5
ENDBRANCH   3   4
ENDBRANCH   2   3
ENDBRANCH   1   2
BRANCH   1  74
ATOM     74  O   UNL A   1      30.412  27.592  24.409  1.00  0.00    -0.376 OA
BRANCH  74  75
ATOM     75  C   UNL A   1      29.545  26.469  24.453  1.00  0.00     0.202 C 
BRANCH  75  76
ATOM     76  C   UNL A   1      29.806  25.472  25.585  1.00  0.00     0.261 C 
BRANCH  76  77
ATOM     77  O   UNL A   1      31.177  25.455  26.027  1.00  0.00    -0.462 OA
BRANCH  77  78
ATOM     78  C   UNL A   1      31.653  24.246  26.449  1.00  0.00     0.326 C 
ATOM     79  O   UNL A   1      31.319  23.708  27.500  1.00  0.00    -0.250 OA
BRANCH  78  80
ATOM     80  C   UNL A   1      32.617  23.585  25.446  1.00  0.00     0.205 C 
BRANCH  80  81
ATOM     81  C   UNL A   1      32.676  22.055  25.506  1.00  0.00     0.188 C 
BRANCH  81  82
ATOM     82  O   UNL A   1      31.415  21.472  25.828  1.00  0.00    -0.394 OA
ATOM     83  H   UNL A   1      30.730  21.845  25.253  1.00  0.00     0.210 HD
ENDBRANCH  81  82
ENDBRANCH  80  81
BRANCH  80  84
ATOM     84  N   UNL A   1      32.230  24.090  24.101  1.00  0.00    -0.194 NA
ATOM     85  H   UNL A   1      31.509  24.797  24.246  1.00  0.00     0.142 HD
BRANCH  84  86
ATOM     86  S   UNL A   1      33.390  24.779  23.107  1.00  0.00     0.242 S 
ATOM     87  O   UNL A   1      34.670  24.229  23.460  1.00  0.00    -0.207 OA
ATOM     88  O   UNL A   1      32.876  24.694  21.751  1.00  0.00    -0.207 OA
BRANCH  86  89
ATOM     89  C   UNL A   1      33.556  26.473  23.420  1.00  0.00     0.099 A 
ATOM     90  C   UNL A   1      33.604  27.492  22.429  1.00  0.00     0.041 A 
ATOM     91  C   UNL A   1      33.595  27.100  24.649  1.00  0.00     0.104 A 
ATOM     92  C   UNL A   1      33.678  28.701  23.087  1.00  0.00     0.083 A 
ATOM     93  N   UNL A   1      33.658  28.453  24.435  1.00  0.00    -0.366 N 
ATOM     94  H   UNL A   1      33.685  29.139  25.141  1.00  0.00     0.165 HD
ENDBRANCH  86  89
ENDBRANCH  84  86
ENDBRANCH  80  84
ENDBRANCH  78  80
ENDBRANCH  77  78
ENDBRANCH  76  77
ENDBRANCH  75  76
ENDBRANCH  74  75
ENDBRANCH   1  74
TORSDOF 22
ENDMDL
