MODEL 1
REMARK VINA RESULT:     -12.3      0.000      0.000
REMARK SMILES Cc1nnc(SCC2=C(C(=O)OCCOCCOCCOC(=O)c3ccc(-c4c5nc(c(-c6c(F)c(F)c(F)c(F)c6F)c6ccc([nH]6)c(-c6c(F)c(F)c(F)c(F)c6F)c6nc(c(-c7c(F)c(F)c(F)c(F)c7F)c7ccc4[nH]7)C=C6)C=C5)cc3)N3C(=O)[C@H](NC(=O)c4ccc(F)cc4F)[C@H]3SC2)s1
REMARK SMILES IDX 16 1 15 2 14 3 13 4 12 5 10 6 11 7 9 8 8 9 104 10 87 11
REMARK SMILES IDX 103 12 88 13 102 14 89 15 90 16 7 17 6 18 5 19 1 20 2 21
REMARK SMILES IDX 3 22 105 23 4 24 91 25 92 26 93 28 94 29 95 30 100 31 96 32
REMARK SMILES IDX 99 33 101 34 97 35 98 36 17 37 18 38 19 39 20 40 21 41 22 42
REMARK SMILES IDX 23 43 24 44 25 45 86 46 26 47 85 48 27 49 28 50 29 51 79 52
REMARK SMILES IDX 30 53 84 54 78 55 80 56 31 57 83 58 77 59 76 60 32 62 64 63
REMARK SMILES IDX 44 64 63 65 45 66 48 67 62 68 81 69 46 70 47 71 61 73 82 74
REMARK SMILES IDX 49 75 33 76 34 77 42 78 35 79 36 80 40 81 43 82 37 83 38 84
REMARK SMILES IDX 41 85 39 86 65 87 66 88 74 89 67 90 68 91 72 92 75 93 69 94
REMARK SMILES IDX 70 95 73 96 71 97 50 98 51 99 59 100 52 101 53 102 57 103
REMARK SMILES IDX 60 104 54 105 55 106 58 107 56 108
REMARK H PARENT 91 27 80 61 48 72
REMARK Flexibility Score: inf
ROOT
ATOM      1  C   UNL A   1      40.719  21.530  27.120  1.00  0.00     0.188 C 
ENDROOT
BRANCH   1   2
ATOM      2  O   UNL A   1      39.589  21.426  26.285  1.00  0.00    -0.376 OA
BRANCH   2   3
ATOM      3  C   UNL A   1      38.649  22.484  26.205  1.00  0.00     0.202 C 
BRANCH   3   4
ATOM      4  C   UNL A   1      37.599  22.659  25.095  1.00  0.00     0.261 C 
BRANCH   4   5
ATOM      5  O   UNL A   1      36.535  23.568  25.365  1.00  0.00    -0.459 OA
BRANCH   5   6
ATOM      6  C   UNL A   1      35.630  23.720  24.363  1.00  0.00     0.355 C 
ATOM      7  O   UNL A   1      35.876  23.767  23.165  1.00  0.00    -0.244 OA
BRANCH   6   8
ATOM      8  C   UNL A   1      34.224  23.656  24.894  1.00  0.00     0.132 C 
ATOM      9  C   UNL A   1      33.544  24.675  25.486  1.00  0.00    -0.019 C 
ATOM     10  C   UNL A   1      32.149  24.507  26.098  1.00  0.00     0.106 C 
ATOM     11  N   UNL A   1      33.618  22.446  24.743  1.00  0.00    -0.289 N 
ATOM     12  S   UNL A   1      31.615  22.779  26.357  1.00  0.00    -0.129 SA
ATOM     13  C   UNL A   1      33.954  21.149  24.606  1.00  0.00     0.253 C 
ATOM     14  C   UNL A   1      32.194  22.276  24.719  1.00  0.00     0.181 C 
ATOM     15  O   UNL A   1      34.999  20.546  24.625  1.00  0.00    -0.272 OA
ATOM     16  C   UNL A   1      32.429  20.756  24.489  1.00  0.00     0.206 C 
BRANCH   9  17
ATOM     17  C   UNL A   1      34.088  26.080  25.705  1.00  0.00     0.111 C 
BRANCH  17  18
ATOM     18  S   UNL A   1      32.782  27.212  26.286  1.00  0.00    -0.089 SA
BRANCH  18  19
ATOM     19  C   UNL A   1      32.199  27.850  24.768  1.00  0.00     0.174 A 
ATOM     20  C   UNL A   1      30.267  29.675  22.008  1.00  0.00     0.081 C 
ATOM     21  C   UNL A   1      31.108  28.880  22.934  1.00  0.00     0.115 A 
ATOM     22  N   UNL A   1      31.923  27.924  22.550  1.00  0.00    -0.143 NA
ATOM     23  S   UNL A   1      31.102  29.159  24.631  1.00  0.00    -0.091 S 
ATOM     24  N   UNL A   1      32.569  27.346  23.615  1.00  0.00    -0.132 NA
ENDBRANCH  18  19
ENDBRANCH  17  18
ENDBRANCH   9  17
BRANCH  16  25
ATOM     25  N   UNL A   1      32.164  20.101  23.172  1.00  0.00    -0.338 N 
ATOM     26  C   UNL A   1      32.335  18.825  22.701  1.00  0.00     0.254 C 
ATOM     27  H   UNL A   1      31.788  20.717  22.502  1.00  0.00     0.164 HD
ATOM     28  O   UNL A   1      32.191  18.587  21.504  1.00  0.00    -0.269 OA
BRANCH  26  29
ATOM     29  C   UNL A   1      32.726  17.733  23.591  1.00  0.00     0.075 A 
ATOM     30  C   UNL A   1      32.034  17.536  24.788  1.00  0.00     0.020 A 
ATOM     31  C   UNL A   1      33.842  16.951  23.294  1.00  0.00     0.138 A 
ATOM     32  C   UNL A   1      32.403  16.478  25.622  1.00  0.00     0.040 A 
ATOM     33  C   UNL A   1      34.180  15.866  24.092  1.00  0.00     0.079 A 
ATOM     34  F   UNL A   1      34.570  17.193  22.194  1.00  0.00    -0.206 F 
ATOM     35  C   UNL A   1      33.448  15.635  25.248  1.00  0.00     0.126 A 
ATOM     36  F   UNL A   1      33.759  14.588  26.022  1.00  0.00    -0.207 F 
ENDBRANCH  26  29
ENDBRANCH  16  25
ENDBRANCH   6   8
ENDBRANCH   5   6
ENDBRANCH   4   5
ENDBRANCH   3   4
ENDBRANCH   2   3
ENDBRANCH   1   2
BRANCH   1  37
ATOM     37  C   UNL A   1      41.813  20.456  26.915  1.00  0.00     0.188 C 
BRANCH  37  38
ATOM     38  O   UNL A   1      42.341  20.176  25.629  1.00  0.00    -0.376 OA
BRANCH  38  39
ATOM     39  C   UNL A   1      43.714  20.436  25.387  1.00  0.00     0.202 C 
BRANCH  39  40
ATOM     40  C   UNL A   1      44.271  21.863  25.544  1.00  0.00     0.261 C 
BRANCH  40  41
ATOM     41  O   UNL A   1      43.411  22.923  25.090  1.00  0.00    -0.460 OA
BRANCH  41  42
ATOM     42  C   UNL A   1      43.977  24.156  25.051  1.00  0.00     0.338 C 
ATOM     43  O   UNL A   1      44.885  24.529  24.328  1.00  0.00    -0.246 OA
BRANCH  42  44
ATOM     44  C   UNL A   1      43.198  25.098  25.886  1.00  0.00     0.060 A 
ATOM     45  C   UNL A   1      43.756  26.359  26.146  1.00  0.00     0.016 A 
ATOM     46  C   UNL A   1      41.973  24.743  26.452  1.00  0.00     0.016 A 
ATOM     47  C   UNL A   1      43.116  27.252  27.004  1.00  0.00     0.010 A 
ATOM     48  C   UNL A   1      41.343  25.629  27.338  1.00  0.00     0.010 A 
ATOM     49  C   UNL A   1      41.934  26.869  27.648  1.00  0.00    -0.014 A 
BRANCH  49  50
ATOM     50  C   UNL A   1      41.462  27.668  28.807  1.00  0.00     0.031 A 
ATOM     51  C   UNL A   1      42.229  27.567  30.099  1.00  0.00     0.074 A 
ATOM     52  C   UNL A   1      40.420  28.513  28.711  1.00  0.00     0.049 A 
ATOM     53  N   UNL A   1      42.030  28.177  31.240  1.00  0.00    -0.248 NA
ATOM     54  C   UNL A   1      43.384  26.654  30.101  1.00  0.00     0.031 C 
ATOM     55  C   UNL A   1      39.620  28.739  27.510  1.00  0.00     0.029 A 
ATOM     56  N   UNL A   1      39.857  29.336  29.655  1.00  0.00    -0.354 N 
ATOM     57  C   UNL A   1      43.032  27.726  32.089  1.00  0.00     0.074 A 
ATOM     58  C   UNL A   1      43.817  26.764  31.347  1.00  0.00     0.031 C 
ATOM     59  C   UNL A   1      38.656  29.635  27.794  1.00  0.00     0.029 A 
ATOM     60  C   UNL A   1      38.760  30.025  29.201  1.00  0.00     0.049 A 
ATOM     61  H   UNL A   1      40.208  29.424  30.571  1.00  0.00     0.167 HD
ATOM     62  C   UNL A   1      43.288  28.088  33.369  1.00  0.00     0.037 A 
ATOM     63  C   UNL A   1      37.927  30.859  29.855  1.00  0.00     0.037 A 
ATOM     64  C   UNL A   1      42.505  29.035  34.118  1.00  0.00     0.049 A 
ATOM     65  C   UNL A   1      38.177  31.176  31.311  1.00  0.00     0.074 A 
ATOM     66  C   UNL A   1      42.694  29.477  35.415  1.00  0.00     0.029 A 
ATOM     67  N   UNL A   1      41.372  29.674  33.639  1.00  0.00    -0.354 N 
ATOM     68  N   UNL A   1      39.150  30.777  32.095  1.00  0.00    -0.248 NA
ATOM     69  C   UNL A   1      37.211  32.068  31.970  1.00  0.00     0.031 C 
ATOM     70  C   UNL A   1      41.643  30.341  35.741  1.00  0.00     0.029 A 
ATOM     71  C   UNL A   1      40.833  30.484  34.626  1.00  0.00     0.049 A 
ATOM     72  H   UNL A   1      41.003  29.568  32.731  1.00  0.00     0.167 HD
ATOM     73  C   UNL A   1      38.931  31.392  33.324  1.00  0.00     0.074 A 
ATOM     74  C   UNL A   1      37.742  32.203  33.177  1.00  0.00     0.031 C 
ATOM     75  C   UNL A   1      39.651  31.293  34.469  1.00  0.00     0.037 A 
BRANCH  62  76
ATOM     76  C   UNL A   1      44.452  27.432  34.052  1.00  0.00     0.064 A 
ATOM     77  C   UNL A   1      44.323  26.195  34.703  1.00  0.00     0.173 A 
ATOM     78  C   UNL A   1      45.718  28.034  34.033  1.00  0.00     0.173 A 
ATOM     79  F   UNL A   1      43.129  25.584  34.762  1.00  0.00    -0.203 F 
ATOM     80  C   UNL A   1      45.412  25.600  35.333  1.00  0.00     0.198 A 
ATOM     81  C   UNL A   1      46.812  27.422  34.639  1.00  0.00     0.198 A 
ATOM     82  F   UNL A   1      45.898  29.214  33.421  1.00  0.00    -0.203 F 
ATOM     83  F   UNL A   1      45.254  24.443  35.991  1.00  0.00    -0.200 F 
ATOM     84  C   UNL A   1      46.656  26.210  35.294  1.00  0.00     0.200 A 
ATOM     85  F   UNL A   1      48.017  28.006  34.589  1.00  0.00    -0.200 F 
ATOM     86  F   UNL A   1      47.706  25.633  35.897  1.00  0.00    -0.200 F 
ENDBRANCH  62  76
BRANCH  63  87
ATOM     87  C   UNL A   1      36.758  31.451  29.151  1.00  0.00     0.064 A 
ATOM     88  C   UNL A   1      36.712  32.818  28.844  1.00  0.00     0.173 A 
ATOM     89  C   UNL A   1      35.643  30.669  28.816  1.00  0.00     0.173 A 
ATOM     90  F   UNL A   1      37.737  33.614  29.182  1.00  0.00    -0.203 F 
ATOM     91  C   UNL A   1      35.587  33.384  28.248  1.00  0.00     0.198 A 
ATOM     92  C   UNL A   1      34.530  31.232  28.193  1.00  0.00     0.198 A 
ATOM     93  F   UNL A   1      35.628  29.360  29.104  1.00  0.00    -0.203 F 
ATOM     94  F   UNL A   1      35.541  34.706  28.028  1.00  0.00    -0.200 F 
ATOM     95  C   UNL A   1      34.499  32.589  27.919  1.00  0.00     0.200 A 
ATOM     96  F   UNL A   1      33.480  30.460  27.878  1.00  0.00    -0.200 F 
ATOM     97  F   UNL A   1      33.412  33.137  27.357  1.00  0.00    -0.200 F 
ENDBRANCH  63  87
BRANCH  75  98
ATOM     98  C   UNL A   1      39.198  32.111  35.647  1.00  0.00     0.064 A 
ATOM     99  C   UNL A   1      38.348  31.582  36.631  1.00  0.00     0.173 A 
ATOM    100  C   UNL A   1      39.652  33.429  35.815  1.00  0.00     0.173 A 
ATOM    101  F   UNL A   1      37.876  30.332  36.515  1.00  0.00    -0.203 F 
ATOM    102  C   UNL A   1      37.943  32.353  37.719  1.00  0.00     0.198 A 
ATOM    103  C   UNL A   1      39.273  34.185  36.921  1.00  0.00     0.198 A 
ATOM    104  F   UNL A   1      40.475  33.981  34.911  1.00  0.00    -0.203 F 
ATOM    105  F   UNL A   1      37.089  31.845  38.617  1.00  0.00    -0.200 F 
ATOM    106  C   UNL A   1      38.411  33.651  37.866  1.00  0.00     0.200 A 
ATOM    107  F   UNL A   1      39.740  35.432  37.070  1.00  0.00    -0.200 F 
ATOM    108  F   UNL A   1      38.027  34.387  38.917  1.00  0.00    -0.200 F 
ENDBRANCH  75  98
ENDBRANCH  49  50
ENDBRANCH  42  44
ENDBRANCH  41  42
ENDBRANCH  40  41
ENDBRANCH  39  40
ENDBRANCH  38  39
ENDBRANCH  37  38
ENDBRANCH   1  37
TORSDOF 22
ENDMDL
MODEL 2
REMARK VINA RESULT:     -12.0      2.489      5.590
REMARK SMILES Cc1nnc(SCC2=C(C(=O)OCCOCCOCCOC(=O)c3ccc(-c4c5nc(c(-c6c(F)c(F)c(F)c(F)c6F)c6ccc([nH]6)c(-c6c(F)c(F)c(F)c(F)c6F)c6nc(c(-c7c(F)c(F)c(F)c(F)c7F)c7ccc4[nH]7)C=C6)C=C5)cc3)N3C(=O)[C@H](NC(=O)c4ccc(F)cc4F)[C@H]3SC2)s1
REMARK SMILES IDX 16 1 15 2 14 3 13 4 12 5 10 6 11 7 9 8 8 9 104 10 87 11
REMARK SMILES IDX 103 12 88 13 102 14 89 15 90 16 7 17 6 18 5 19 1 20 2 21
REMARK SMILES IDX 3 22 105 23 4 24 91 25 92 26 93 28 94 29 95 30 100 31 96 32
REMARK SMILES IDX 99 33 101 34 97 35 98 36 17 37 18 38 19 39 20 40 21 41 22 42
REMARK SMILES IDX 23 43 24 44 25 45 86 46 26 47 85 48 27 49 28 50 29 51 79 52
REMARK SMILES IDX 30 53 84 54 78 55 80 56 31 57 83 58 77 59 76 60 32 62 64 63
REMARK SMILES IDX 44 64 63 65 45 66 48 67 62 68 81 69 46 70 47 71 61 73 82 74
REMARK SMILES IDX 49 75 33 76 34 77 42 78 35 79 36 80 40 81 43 82 37 83 38 84
REMARK SMILES IDX 41 85 39 86 65 87 66 88 74 89 67 90 68 91 72 92 75 93 69 94
REMARK SMILES IDX 70 95 73 96 71 97 50 98 51 99 59 100 52 101 53 102 57 103
REMARK SMILES IDX 60 104 54 105 55 106 58 107 56 108
REMARK H PARENT 91 27 80 61 48 72
REMARK Flexibility Score: inf
ROOT
ATOM      1  C   UNL A   1      39.608  21.489  26.141  1.00  0.00     0.188 C 
ENDROOT
BRANCH   1   2
ATOM      2  O   UNL A   1      38.442  21.270  25.382  1.00  0.00    -0.376 OA
BRANCH   2   3
ATOM      3  C   UNL A   1      37.469  22.291  25.238  1.00  0.00     0.202 C 
BRANCH   3   4
ATOM      4  C   UNL A   1      36.638  22.556  23.972  1.00  0.00     0.261 C 
BRANCH   4   5
ATOM      5  O   UNL A   1      35.765  23.682  24.009  1.00  0.00    -0.459 OA
BRANCH   5   6
ATOM      6  C   UNL A   1      34.575  23.518  23.374  1.00  0.00     0.355 C 
ATOM      7  O   UNL A   1      34.416  23.227  22.196  1.00  0.00    -0.244 OA
BRANCH   6   8
ATOM      8  C   UNL A   1      33.432  23.574  24.350  1.00  0.00     0.132 C 
ATOM      9  C   UNL A   1      33.008  22.556  25.147  1.00  0.00    -0.019 C 
ATOM     10  C   UNL A   1      31.769  22.654  26.044  1.00  0.00     0.106 C 
ATOM     11  N   UNL A   1      32.796  24.777  24.407  1.00  0.00    -0.289 N 
ATOM     12  S   UNL A   1      30.656  24.057  25.683  1.00  0.00    -0.129 SA
ATOM     13  C   UNL A   1      32.589  25.856  23.628  1.00  0.00     0.253 C 
ATOM     14  C   UNL A   1      32.038  25.215  25.543  1.00  0.00     0.181 C 
ATOM     15  O   UNL A   1      32.873  26.137  22.490  1.00  0.00    -0.272 OA
ATOM     16  C   UNL A   1      31.770  26.547  24.789  1.00  0.00     0.206 C 
BRANCH   9  17
ATOM     17  C   UNL A   1      33.632  21.169  25.201  1.00  0.00     0.111 C 
BRANCH  17  18
ATOM     18  S   UNL A   1      33.083  20.141  23.798  1.00  0.00    -0.089 SA
BRANCH  18  19
ATOM     19  C   UNL A   1      32.931  18.581  24.570  1.00  0.00     0.174 A 
ATOM     20  C   UNL A   1      32.755  14.838  25.368  1.00  0.00     0.081 C 
ATOM     21  C   UNL A   1      32.762  16.315  25.239  1.00  0.00     0.115 A 
ATOM     22  N   UNL A   1      32.298  17.136  26.154  1.00  0.00    -0.143 NA
ATOM     23  S   UNL A   1      33.411  17.102  23.854  1.00  0.00    -0.091 S 
ATOM     24  N   UNL A   1      32.418  18.448  25.770  1.00  0.00    -0.132 NA
ENDBRANCH  18  19
ENDBRANCH  17  18
ENDBRANCH   9  17
BRANCH  16  25
ATOM     25  N   UNL A   1      32.423  27.832  25.187  1.00  0.00    -0.338 N 
ATOM     26  C   UNL A   1      32.175  29.148  24.893  1.00  0.00     0.254 C 
ATOM     27  H   UNL A   1      33.194  27.705  25.786  1.00  0.00     0.164 HD
ATOM     28  O   UNL A   1      32.981  30.014  25.223  1.00  0.00    -0.269 OA
BRANCH  26  29
ATOM     29  C   UNL A   1      30.977  29.549  24.155  1.00  0.00     0.075 A 
ATOM     30  C   UNL A   1      30.569  28.806  23.046  1.00  0.00     0.020 A 
ATOM     31  C   UNL A   1      30.302  30.720  24.497  1.00  0.00     0.138 A 
ATOM     32  C   UNL A   1      29.412  29.186  22.360  1.00  0.00     0.040 A 
ATOM     33  C   UNL A   1      29.124  31.073  23.853  1.00  0.00     0.079 A 
ATOM     34  F   UNL A   1      30.743  31.492  25.502  1.00  0.00    -0.206 F 
ATOM     35  C   UNL A   1      28.685  30.293  22.792  1.00  0.00     0.126 A 
ATOM     36  F   UNL A   1      27.546  30.619  22.167  1.00  0.00    -0.207 F 
ENDBRANCH  26  29
ENDBRANCH  16  25
ENDBRANCH   6   8
ENDBRANCH   5   6
ENDBRANCH   4   5
ENDBRANCH   3   4
ENDBRANCH   2   3
ENDBRANCH   1   2
BRANCH   1  37
ATOM     37  C   UNL A   1      40.487  20.245  26.407  1.00  0.00     0.188 C 
BRANCH  37  38
ATOM     38  O   UNL A   1      41.511  19.858  25.504  1.00  0.00    -0.376 OA
BRANCH  38  39
ATOM     39  C   UNL A   1      42.859  19.915  25.942  1.00  0.00     0.202 C 
BRANCH  39  40
ATOM     40  C   UNL A   1      43.709  21.171  25.671  1.00  0.00     0.261 C 
BRANCH  40  41
ATOM     41  O   UNL A   1      43.286  22.369  26.345  1.00  0.00    -0.460 OA
BRANCH  41  42
ATOM     42  C   UNL A   1      43.324  23.502  25.599  1.00  0.00     0.338 C 
ATOM     43  O   UNL A   1      43.679  23.609  24.438  1.00  0.00    -0.246 OA
BRANCH  42  44
ATOM     44  C   UNL A   1      42.666  24.611  26.327  1.00  0.00     0.060 A 
ATOM     45  C   UNL A   1      43.325  25.849  26.368  1.00  0.00     0.016 A 
ATOM     46  C   UNL A   1      41.459  24.436  27.004  1.00  0.00     0.016 A 
ATOM     47  C   UNL A   1      42.804  26.902  27.118  1.00  0.00     0.010 A 
ATOM     48  C   UNL A   1      40.949  25.485  27.782  1.00  0.00     0.010 A 
ATOM     49  C   UNL A   1      41.643  26.708  27.874  1.00  0.00    -0.014 A 
BRANCH  49  50
ATOM     50  C   UNL A   1      41.302  27.698  28.926  1.00  0.00     0.031 A 
ATOM     51  C   UNL A   1      42.188  27.777  30.142  1.00  0.00     0.074 A 
ATOM     52  C   UNL A   1      40.274  28.554  28.791  1.00  0.00     0.049 A 
ATOM     53  N   UNL A   1      42.113  28.568  31.182  1.00  0.00    -0.248 NA
ATOM     54  C   UNL A   1      43.318  26.835  30.185  1.00  0.00     0.031 C 
ATOM     55  C   UNL A   1      39.367  28.615  27.648  1.00  0.00     0.029 A 
ATOM     56  N   UNL A   1      39.823  29.538  29.636  1.00  0.00    -0.354 N 
ATOM     57  C   UNL A   1      43.184  28.222  31.996  1.00  0.00     0.074 A 
ATOM     58  C   UNL A   1      43.872  27.126  31.351  1.00  0.00     0.031 C 
ATOM     59  C   UNL A   1      38.454  29.578  27.870  1.00  0.00     0.029 A 
ATOM     60  C   UNL A   1      38.701  30.185  29.180  1.00  0.00     0.049 A 
ATOM     61  H   UNL A   1      40.262  29.758  30.490  1.00  0.00     0.167 HD
ATOM     62  C   UNL A   1      43.569  28.774  33.172  1.00  0.00     0.037 A 
ATOM     63  C   UNL A   1      37.953  31.142  29.764  1.00  0.00     0.037 A 
ATOM     64  C   UNL A   1      42.882  29.856  33.826  1.00  0.00     0.049 A 
ATOM     65  C   UNL A   1      38.350  31.678  31.120  1.00  0.00     0.074 A 
ATOM     66  C   UNL A   1      43.206  30.493  35.011  1.00  0.00     0.029 A 
ATOM     67  N   UNL A   1      41.722  30.452  33.356  1.00  0.00    -0.354 N 
ATOM     68  N   UNL A   1      39.386  31.375  31.865  1.00  0.00    -0.248 NA
ATOM     69  C   UNL A   1      37.471  32.698  31.711  1.00  0.00     0.031 C 
ATOM     70  C   UNL A   1      42.210  31.435  35.287  1.00  0.00     0.029 A 
ATOM     71  C   UNL A   1      41.299  31.428  34.244  1.00  0.00     0.049 A 
ATOM     72  H   UNL A   1      41.265  30.216  32.515  1.00  0.00     0.167 HD
ATOM     73  C   UNL A   1      39.299  32.185  32.992  1.00  0.00     0.074 A 
ATOM     74  C   UNL A   1      38.119  33.005  32.826  1.00  0.00     0.031 C 
ATOM     75  C   UNL A   1      40.124  32.244  34.067  1.00  0.00     0.037 A 
BRANCH  62  76
ATOM     76  C   UNL A   1      44.780  28.193  33.842  1.00  0.00     0.064 A 
ATOM     77  C   UNL A   1      46.052  28.766  33.691  1.00  0.00     0.173 A 
ATOM     78  C   UNL A   1      44.663  27.064  34.665  1.00  0.00     0.173 A 
ATOM     79  F   UNL A   1      46.221  29.840  32.902  1.00  0.00    -0.203 F 
ATOM     80  C   UNL A   1      47.166  28.214  34.317  1.00  0.00     0.198 A 
ATOM     81  C   UNL A   1      45.774  26.531  35.313  1.00  0.00     0.198 A 
ATOM     82  F   UNL A   1      43.469  26.479  34.846  1.00  0.00    -0.203 F 
ATOM     83  F   UNL A   1      48.378  28.749  34.119  1.00  0.00    -0.200 F 
ATOM     84  C   UNL A   1      47.025  27.102  35.133  1.00  0.00     0.200 A 
ATOM     85  F   UNL A   1      45.633  25.465  36.113  1.00  0.00    -0.200 F 
ATOM     86  F   UNL A   1      48.096  26.574  35.741  1.00  0.00    -0.200 F 
ENDBRANCH  62  76
BRANCH  63  87
ATOM     87  C   UNL A   1      36.735  31.656  29.083  1.00  0.00     0.064 A 
ATOM     88  C   UNL A   1      36.656  32.984  28.641  1.00  0.00     0.173 A 
ATOM     89  C   UNL A   1      35.606  30.842  28.908  1.00  0.00     0.173 A 
ATOM     90  F   UNL A   1      37.695  33.813  28.825  1.00  0.00    -0.203 F 
ATOM     91  C   UNL A   1      35.488  33.484  28.068  1.00  0.00     0.198 A 
ATOM     92  C   UNL A   1      34.448  31.335  28.307  1.00  0.00     0.198 A 
ATOM     93  F   UNL A   1      35.622  29.569  29.329  1.00  0.00    -0.203 F 
ATOM     94  F   UNL A   1      35.416  34.775  27.716  1.00  0.00    -0.200 F 
ATOM     95  C   UNL A   1      34.388  32.657  27.897  1.00  0.00     0.200 A 
ATOM     96  F   UNL A   1      33.387  30.533  28.146  1.00  0.00    -0.200 F 
ATOM     97  F   UNL A   1      33.260  33.142  27.357  1.00  0.00    -0.200 F 
ENDBRANCH  63  87
BRANCH  75  98
ATOM     98  C   UNL A   1      39.805  33.255  35.133  1.00  0.00     0.064 A 
ATOM     99  C   UNL A   1      39.051  32.920  36.268  1.00  0.00     0.173 A 
ATOM    100  C   UNL A   1      40.293  34.568  35.038  1.00  0.00     0.173 A 
ATOM    101  F   UNL A   1      38.551  31.682  36.405  1.00  0.00    -0.203 F 
ATOM    102  C   UNL A   1      38.769  33.868  37.249  1.00  0.00     0.198 A 
ATOM    103  C   UNL A   1      40.039  35.505  36.036  1.00  0.00     0.198 A 
ATOM    104  F   UNL A   1      41.030  34.941  33.980  1.00  0.00    -0.203 F 
ATOM    105  F   UNL A   1      38.002  33.539  38.296  1.00  0.00    -0.200 F 
ATOM    106  C   UNL A   1      39.269  35.158  37.136  1.00  0.00     0.200 A 
ATOM    107  F   UNL A   1      40.538  36.744  35.933  1.00  0.00    -0.200 F 
ATOM    108  F   UNL A   1      39.004  36.066  38.084  1.00  0.00    -0.200 F 
ENDBRANCH  75  98
ENDBRANCH  49  50
ENDBRANCH  42  44
ENDBRANCH  41  42
ENDBRANCH  40  41
ENDBRANCH  39  40
ENDBRANCH  38  39
ENDBRANCH  37  38
ENDBRANCH   1  37
TORSDOF 22
ENDMDL
MODEL 3
REMARK VINA RESULT:     -11.7      2.157      4.768
REMARK SMILES Cc1nnc(SCC2=C(C(=O)OCCOCCOCCOC(=O)c3ccc(-c4c5nc(c(-c6c(F)c(F)c(F)c(F)c6F)c6ccc([nH]6)c(-c6c(F)c(F)c(F)c(F)c6F)c6nc(c(-c7c(F)c(F)c(F)c(F)c7F)c7ccc4[nH]7)C=C6)C=C5)cc3)N3C(=O)[C@H](NC(=O)c4ccc(F)cc4F)[C@H]3SC2)s1
REMARK SMILES IDX 16 1 15 2 14 3 13 4 12 5 10 6 11 7 9 8 8 9 104 10 87 11
REMARK SMILES IDX 103 12 88 13 102 14 89 15 90 16 7 17 6 18 5 19 1 20 2 21
REMARK SMILES IDX 3 22 105 23 4 24 91 25 92 26 93 28 94 29 95 30 100 31 96 32
REMARK SMILES IDX 99 33 101 34 97 35 98 36 17 37 18 38 19 39 20 40 21 41 22 42
REMARK SMILES IDX 23 43 24 44 25 45 86 46 26 47 85 48 27 49 28 50 29 51 79 52
REMARK SMILES IDX 30 53 84 54 78 55 80 56 31 57 83 58 77 59 76 60 32 62 64 63
REMARK SMILES IDX 44 64 63 65 45 66 48 67 62 68 81 69 46 70 47 71 61 73 82 74
REMARK SMILES IDX 49 75 33 76 34 77 42 78 35 79 36 80 40 81 43 82 37 83 38 84
REMARK SMILES IDX 41 85 39 86 65 87 66 88 74 89 67 90 68 91 72 92 75 93 69 94
REMARK SMILES IDX 70 95 73 96 71 97 50 98 51 99 59 100 52 101 53 102 57 103
REMARK SMILES IDX 60 104 54 105 55 106 58 107 56 108
REMARK H PARENT 91 27 80 61 48 72
REMARK Flexibility Score: inf
ROOT
ATOM      1  C   UNL A   1      39.710  21.647  26.256  1.00  0.00     0.188 C 
ENDROOT
BRANCH   1   2
ATOM      2  O   UNL A   1      38.410  21.806  25.736  1.00  0.00    -0.376 OA
BRANCH   2   3
ATOM      3  C   UNL A   1      38.025  23.016  25.106  1.00  0.00     0.202 C 
BRANCH   3   4
ATOM      4  C   UNL A   1      36.697  23.756  25.337  1.00  0.00     0.261 C 
BRANCH   4   5
ATOM      5  O   UNL A   1      36.081  24.329  24.186  1.00  0.00    -0.459 OA
BRANCH   5   6
ATOM      6  C   UNL A   1      35.219  23.517  23.521  1.00  0.00     0.355 C 
ATOM      7  O   UNL A   1      35.517  22.671  22.688  1.00  0.00    -0.244 OA
BRANCH   6   8
ATOM      8  C   UNL A   1      33.821  23.661  24.058  1.00  0.00     0.132 C 
ATOM      9  C   UNL A   1      33.355  23.143  25.227  1.00  0.00    -0.019 C 
ATOM     10  C   UNL A   1      31.889  23.243  25.661  1.00  0.00     0.106 C 
ATOM     11  N   UNL A   1      32.983  24.386  23.266  1.00  0.00    -0.289 N 
ATOM     12  S   UNL A   1      30.718  23.730  24.345  1.00  0.00    -0.129 SA
ATOM     13  C   UNL A   1      32.853  24.731  21.971  1.00  0.00     0.253 C 
ATOM     14  C   UNL A   1      31.810  25.047  23.759  1.00  0.00     0.181 C 
ATOM     15  O   UNL A   1      33.452  24.451  20.963  1.00  0.00    -0.272 OA
ATOM     16  C   UNL A   1      31.565  25.578  22.318  1.00  0.00     0.206 C 
BRANCH   9  17
ATOM     17  C   UNL A   1      34.180  22.330  26.215  1.00  0.00     0.111 C 
BRANCH  17  18
ATOM     18  S   UNL A   1      33.147  21.108  27.090  1.00  0.00    -0.089 SA
BRANCH  18  19
ATOM     19  C   UNL A   1      33.166  19.783  25.951  1.00  0.00     0.174 A 
ATOM     20  C   UNL A   1      33.845  17.440  22.996  1.00  0.00     0.081 C 
ATOM     21  C   UNL A   1      33.441  18.225  24.187  1.00  0.00     0.115 A 
ATOM     22  N   UNL A   1      32.380  17.963  24.917  1.00  0.00    -0.143 NA
ATOM     23  S   UNL A   1      34.359  19.571  24.740  1.00  0.00    -0.091 S 
ATOM     24  N   UNL A   1      32.239  18.856  25.950  1.00  0.00    -0.132 NA
ENDBRANCH  18  19
ENDBRANCH  17  18
ENDBRANCH   9  17
BRANCH  16  25
ATOM     25  N   UNL A   1      31.776  27.012  21.953  1.00  0.00    -0.338 N 
ATOM     26  C   UNL A   1      32.001  28.149  22.685  1.00  0.00     0.254 C 
ATOM     27  H   UNL A   1      31.747  27.173  20.982  1.00  0.00     0.164 HD
ATOM     28  O   UNL A   1      31.971  29.248  22.137  1.00  0.00    -0.269 OA
BRANCH  26  29
ATOM     29  C   UNL A   1      32.241  28.089  24.127  1.00  0.00     0.075 A 
ATOM     30  C   UNL A   1      31.158  28.026  25.005  1.00  0.00     0.020 A 
ATOM     31  C   UNL A   1      33.539  28.192  24.626  1.00  0.00     0.138 A 
ATOM     32  C   UNL A   1      31.398  27.949  26.379  1.00  0.00     0.040 A 
ATOM     33  C   UNL A   1      33.787  28.064  25.986  1.00  0.00     0.079 A 
ATOM     34  F   UNL A   1      34.579  28.350  23.793  1.00  0.00    -0.206 F 
ATOM     35  C   UNL A   1      32.710  27.934  26.852  1.00  0.00     0.126 A 
ATOM     36  F   UNL A   1      32.936  27.803  28.164  1.00  0.00    -0.207 F 
ENDBRANCH  26  29
ENDBRANCH  16  25
ENDBRANCH   6   8
ENDBRANCH   5   6
ENDBRANCH   4   5
ENDBRANCH   3   4
ENDBRANCH   2   3
ENDBRANCH   1   2
BRANCH   1  37
ATOM     37  C   UNL A   1      40.317  20.229  26.141  1.00  0.00     0.188 C 
BRANCH  37  38
ATOM     38  O   UNL A   1      41.659  20.032  25.726  1.00  0.00    -0.376 OA
BRANCH  38  39
ATOM     39  C   UNL A   1      42.675  20.830  26.312  1.00  0.00     0.202 C 
BRANCH  39  40
ATOM     40  C   UNL A   1      43.552  21.737  25.430  1.00  0.00     0.261 C 
BRANCH  40  41
ATOM     41  O   UNL A   1      42.898  22.892  24.877  1.00  0.00    -0.460 OA
BRANCH  41  42
ATOM     42  C   UNL A   1      43.596  24.053  24.959  1.00  0.00     0.338 C 
ATOM     43  O   UNL A   1      44.588  24.364  24.321  1.00  0.00    -0.246 OA
BRANCH  42  44
ATOM     44  C   UNL A   1      42.868  25.025  25.806  1.00  0.00     0.060 A 
ATOM     45  C   UNL A   1      43.474  26.268  26.045  1.00  0.00     0.016 A 
ATOM     46  C   UNL A   1      41.645  24.714  26.402  1.00  0.00     0.016 A 
ATOM     47  C   UNL A   1      42.884  27.186  26.913  1.00  0.00     0.010 A 
ATOM     48  C   UNL A   1      41.066  25.624  27.297  1.00  0.00     0.010 A 
ATOM     49  C   UNL A   1      41.705  26.846  27.586  1.00  0.00    -0.014 A 
BRANCH  49  50
ATOM     50  C   UNL A   1      41.286  27.666  28.751  1.00  0.00     0.031 A 
ATOM     51  C   UNL A   1      42.076  27.543  30.027  1.00  0.00     0.074 A 
ATOM     52  C   UNL A   1      40.273  28.547  28.673  1.00  0.00     0.049 A 
ATOM     53  N   UNL A   1      41.924  28.164  31.169  1.00  0.00    -0.248 NA
ATOM     54  C   UNL A   1      43.198  26.590  30.008  1.00  0.00     0.031 C 
ATOM     55  C   UNL A   1      39.457  28.797  27.488  1.00  0.00     0.029 A 
ATOM     56  N   UNL A   1      39.761  29.394  29.625  1.00  0.00    -0.354 N 
ATOM     57  C   UNL A   1      42.928  27.682  31.998  1.00  0.00     0.074 A 
ATOM     58  C   UNL A   1      43.662  26.689  31.244  1.00  0.00     0.031 C 
ATOM     59  C   UNL A   1      38.531  29.727  27.788  1.00  0.00     0.029 A 
ATOM     60  C   UNL A   1      38.679  30.119  29.191  1.00  0.00     0.049 A 
ATOM     61  H   UNL A   1      40.133  29.473  30.533  1.00  0.00     0.167 HD
ATOM     62  C   UNL A   1      43.223  28.040  33.271  1.00  0.00     0.037 A 
ATOM     63  C   UNL A   1      37.890  30.985  29.859  1.00  0.00     0.037 A 
ATOM     64  C   UNL A   1      42.491  29.016  34.032  1.00  0.00     0.049 A 
ATOM     65  C   UNL A   1      38.183  31.299  31.307  1.00  0.00     0.074 A 
ATOM     66  C   UNL A   1      42.724  29.457  35.322  1.00  0.00     0.029 A 
ATOM     67  N   UNL A   1      41.371  29.694  33.574  1.00  0.00    -0.354 N 
ATOM     68  N   UNL A   1      39.158  30.869  32.072  1.00  0.00    -0.248 NA
ATOM     69  C   UNL A   1      37.263  32.227  31.982  1.00  0.00     0.031 C 
ATOM     70  C   UNL A   1      41.711  30.359  35.666  1.00  0.00     0.029 A 
ATOM     71  C   UNL A   1      40.883  30.526  34.568  1.00  0.00     0.049 A 
ATOM     72  H   UNL A   1      40.980  29.597  32.675  1.00  0.00     0.167 HD
ATOM     73  C   UNL A   1      38.987  31.496  33.302  1.00  0.00     0.074 A 
ATOM     74  C   UNL A   1      37.824  32.349  33.177  1.00  0.00     0.031 C 
ATOM     75  C   UNL A   1      39.727  31.377  34.432  1.00  0.00     0.037 A 
BRANCH  62  76
ATOM     76  C   UNL A   1      44.378  27.344  33.932  1.00  0.00     0.064 A 
ATOM     77  C   UNL A   1      45.678  27.870  33.886  1.00  0.00     0.173 A 
ATOM     78  C   UNL A   1      44.177  26.151  34.641  1.00  0.00     0.173 A 
ATOM     79  F   UNL A   1      45.926  29.002  33.208  1.00  0.00    -0.203 F 
ATOM     80  C   UNL A   1      46.740  27.212  34.502  1.00  0.00     0.198 A 
ATOM     81  C   UNL A   1      45.235  25.512  35.281  1.00  0.00     0.198 A 
ATOM     82  F   UNL A   1      42.953  25.608  34.719  1.00  0.00    -0.203 F 
ATOM     83  F   UNL A   1      47.981  27.707  34.403  1.00  0.00    -0.200 F 
ATOM     84  C   UNL A   1      46.515  26.038  35.205  1.00  0.00     0.200 A 
ATOM     85  F   UNL A   1      45.015  24.384  35.971  1.00  0.00    -0.200 F 
ATOM     86  F   UNL A   1      47.536  25.409  35.803  1.00  0.00    -0.200 F 
ENDBRANCH  62  76
BRANCH  63  87
ATOM     87  C   UNL A   1      36.729  31.615  29.176  1.00  0.00     0.064 A 
ATOM     88  C   UNL A   1      36.717  32.985  28.879  1.00  0.00     0.173 A 
ATOM     89  C   UNL A   1      35.586  30.869  28.854  1.00  0.00     0.173 A 
ATOM     90  F   UNL A   1      37.770  33.749  29.207  1.00  0.00    -0.203 F 
ATOM     91  C   UNL A   1      35.600  33.588  28.305  1.00  0.00     0.198 A 
ATOM     92  C   UNL A   1      34.480  31.467  28.252  1.00  0.00     0.198 A 
ATOM     93  F   UNL A   1      35.538  29.558  29.133  1.00  0.00    -0.203 F 
ATOM     94  F   UNL A   1      35.589  34.911  28.094  1.00  0.00    -0.200 F 
ATOM     95  C   UNL A   1      34.485  32.827  27.987  1.00  0.00     0.200 A 
ATOM     96  F   UNL A   1      33.404  30.728  27.948  1.00  0.00    -0.200 F 
ATOM     97  F   UNL A   1      33.405  33.409  27.446  1.00  0.00    -0.200 F 
ENDBRANCH  63  87
BRANCH  75  98
ATOM     98  C   UNL A   1      39.329  32.214  35.616  1.00  0.00     0.064 A 
ATOM     99  C   UNL A   1      39.777  33.535  35.772  1.00  0.00     0.173 A 
ATOM    100  C   UNL A   1      38.456  31.701  36.589  1.00  0.00     0.173 A 
ATOM    101  F   UNL A   1      40.621  34.072  34.877  1.00  0.00    -0.203 F 
ATOM    102  C   UNL A   1      39.393  34.298  36.873  1.00  0.00     0.198 A 
ATOM    103  C   UNL A   1      38.047  32.478  37.670  1.00  0.00     0.198 A 
ATOM    104  F   UNL A   1      37.987  30.448  36.484  1.00  0.00    -0.203 F 
ATOM    105  F   UNL A   1      39.876  35.538  37.027  1.00  0.00    -0.200 F 
ATOM    106  C   UNL A   1      38.523  33.771  37.817  1.00  0.00     0.200 A 
ATOM    107  F   UNL A   1      37.193  31.973  38.571  1.00  0.00    -0.200 F 
ATOM    108  F   UNL A   1      38.150  34.509  38.870  1.00  0.00    -0.200 F 
ENDBRANCH  75  98
ENDBRANCH  49  50
ENDBRANCH  42  44
ENDBRANCH  41  42
ENDBRANCH  40  41
ENDBRANCH  39  40
ENDBRANCH  38  39
ENDBRANCH  37  38
ENDBRANCH   1  37
TORSDOF 22
ENDMDL
