MODEL 1
REMARK VINA RESULT:     -10.6      0.000      0.000
REMARK SMILES CSc1ncccc1C(=O)N1CSC[C@H]1C(=O)OCCOCCOCCOC(=O)c1ccc(-c2c3nc(c(-c4c(F)c(F)c(F)c(F)c4F)c4ccc([nH]4)c(-c4c(F)c(F)c(F)c(F)c4F)c4nc(c(-c5c(F)c(F)c(F)c(F)c5F)c5ccc2[nH]5)C=C4)C=C3)cc1
REMARK SMILES IDX 22 1 21 2 20 3 19 4 18 5 16 6 17 7 15 8 11 9 12 10 13 11
REMARK SMILES IDX 14 12 9 13 10 14 8 15 3 16 4 17 5 18 7 19 6 20 2 21 1 22
REMARK SMILES IDX 23 23 24 24 25 25 26 26 27 27 28 28 29 29 30 30 31 31 92 32
REMARK SMILES IDX 32 33 91 34 33 35 34 36 35 37 85 38 36 39 90 40 84 41 86 42
REMARK SMILES IDX 37 43 89 44 83 45 82 46 38 48 70 49 50 50 69 51 51 52 54 53
REMARK SMILES IDX 68 54 87 55 52 56 53 57 67 59 88 60 55 61 39 62 40 63 48 64
REMARK SMILES IDX 41 65 42 66 46 67 49 68 43 69 44 70 47 71 45 72 71 73 72 74
REMARK SMILES IDX 80 75 73 76 74 77 78 78 81 79 75 80 76 81 79 82 77 83 56 84
REMARK SMILES IDX 57 85 65 86 58 87 59 88 63 89 66 90 60 91 61 92 64 93 62 94
REMARK H PARENT 86 47 54 58
REMARK Flexibility Score: inf
ROOT
ATOM      1  C   UNL A   1      39.860  19.599  26.061  1.00  0.00     0.188 C 
ENDROOT
BRANCH   1   2
ATOM      2  O   UNL A   1      38.902  20.531  25.568  1.00  0.00    -0.376 OA
BRANCH   2   3
ATOM      3  C   UNL A   1      38.977  21.883  25.990  1.00  0.00     0.202 C 
BRANCH   3   4
ATOM      4  C   UNL A   1      37.777  22.760  25.637  1.00  0.00     0.261 C 
BRANCH   4   5
ATOM      5  O   UNL A   1      36.726  22.055  24.941  1.00  0.00    -0.462 OA
BRANCH   5   6
ATOM      6  C   UNL A   1      36.137  22.737  23.926  1.00  0.00     0.329 C 
ATOM      7  O   UNL A   1      36.720  23.085  22.901  1.00  0.00    -0.250 OA
BRANCH   6   8
ATOM      8  C   UNL A   1      34.691  23.182  24.198  1.00  0.00     0.206 C 
ATOM      9  N   UNL A   1      33.778  23.748  23.187  1.00  0.00    -0.315 N 
ATOM     10  C   UNL A   1      33.063  22.752  22.422  1.00  0.00     0.191 C 
ATOM     11  S   UNL A   1      32.814  21.359  23.539  1.00  0.00    -0.138 SA
ATOM     12  C   UNL A   1      33.969  21.974  24.806  1.00  0.00     0.108 C 
BRANCH   9  13
ATOM     13  C   UNL A   1      33.534  25.118  23.174  1.00  0.00     0.258 C 
ATOM     14  O   UNL A   1      33.744  25.792  22.169  1.00  0.00    -0.269 OA
BRANCH  13  15
ATOM     15  C   UNL A   1      33.211  25.818  24.450  1.00  0.00     0.072 A 
ATOM     16  C   UNL A   1      32.031  25.626  25.173  1.00  0.00     0.108 A 
ATOM     17  N   UNL A   1      31.703  26.394  26.249  1.00  0.00    -0.249 NA
ATOM     18  C   UNL A   1      32.529  27.401  26.595  1.00  0.00     0.112 A 
ATOM     19  C   UNL A   1      34.056  26.866  24.851  1.00  0.00     0.018 A 
ATOM     20  C   UNL A   1      33.713  27.668  25.937  1.00  0.00     0.021 A 
BRANCH  16  21
ATOM     21  S   UNL A   1      30.787  24.433  24.768  1.00  0.00    -0.109 SA
ATOM     22  C   UNL A   1      30.604  23.600  26.356  1.00  0.00     0.092 C 
ENDBRANCH  16  21
ENDBRANCH  13  15
ENDBRANCH   9  13
ENDBRANCH   6   8
ENDBRANCH   5   6
ENDBRANCH   4   5
ENDBRANCH   3   4
ENDBRANCH   2   3
ENDBRANCH   1   2
BRANCH   1  23
ATOM     23  C   UNL A   1      40.924  20.050  27.082  1.00  0.00     0.188 C 
BRANCH  23  24
ATOM     24  O   UNL A   1      42.205  19.460  26.898  1.00  0.00    -0.376 OA
BRANCH  24  25
ATOM     25  C   UNL A   1      42.931  19.946  25.776  1.00  0.00     0.202 C 
BRANCH  25  26
ATOM     26  C   UNL A   1      43.466  21.355  26.016  1.00  0.00     0.261 C 
BRANCH  26  27
ATOM     27  O   UNL A   1      42.549  22.375  25.582  1.00  0.00    -0.460 OA
BRANCH  27  28
ATOM     28  C   UNL A   1      43.097  23.543  25.193  1.00  0.00     0.338 C 
ATOM     29  O   UNL A   1      43.887  23.718  24.277  1.00  0.00    -0.246 OA
BRANCH  28  30
ATOM     30  C   UNL A   1      42.576  24.611  26.064  1.00  0.00     0.060 A 
ATOM     31  C   UNL A   1      42.984  25.933  25.877  1.00  0.00     0.016 A 
ATOM     32  C   UNL A   1      41.729  24.285  27.119  1.00  0.00     0.016 A 
ATOM     33  C   UNL A   1      42.624  26.924  26.786  1.00  0.00     0.010 A 
ATOM     34  C   UNL A   1      41.323  25.289  28.002  1.00  0.00     0.010 A 
ATOM     35  C   UNL A   1      41.800  26.607  27.867  1.00  0.00    -0.014 A 
BRANCH  35  36
ATOM     36  C   UNL A   1      41.512  27.606  28.924  1.00  0.00     0.031 A 
ATOM     37  C   UNL A   1      42.363  27.614  30.162  1.00  0.00     0.074 A 
ATOM     38  C   UNL A   1      40.505  28.487  28.797  1.00  0.00     0.049 A 
ATOM     39  N   UNL A   1      42.159  28.208  31.309  1.00  0.00    -0.248 NA
ATOM     40  C   UNL A   1      43.611  26.835  30.097  1.00  0.00     0.031 C 
ATOM     41  C   UNL A   1      39.664  28.653  27.613  1.00  0.00     0.029 A 
ATOM     42  N   UNL A   1      40.006  29.400  29.695  1.00  0.00    -0.354 N 
ATOM     43  C   UNL A   1      43.225  27.836  32.118  1.00  0.00     0.074 A 
ATOM     44  C   UNL A   1      44.074  26.966  31.332  1.00  0.00     0.031 C 
ATOM     45  C   UNL A   1      38.741  29.595  27.862  1.00  0.00     0.029 A 
ATOM     46  C   UNL A   1      38.883  30.048  29.244  1.00  0.00     0.049 A 
ATOM     47  H   UNL A   1      40.413  29.571  30.575  1.00  0.00     0.167 HD
ATOM     48  C   UNL A   1      43.466  28.188  33.403  1.00  0.00     0.037 A 
ATOM     49  C   UNL A   1      38.036  30.872  29.891  1.00  0.00     0.037 A 
ATOM     50  C   UNL A   1      42.637  29.083  34.166  1.00  0.00     0.049 A 
ATOM     51  C   UNL A   1      38.280  31.190  31.343  1.00  0.00     0.074 A 
ATOM     52  C   UNL A   1      42.795  29.507  35.473  1.00  0.00     0.029 A 
ATOM     53  N   UNL A   1      41.493  29.700  33.680  1.00  0.00    -0.354 N 
ATOM     54  N   UNL A   1      39.255  30.796  32.124  1.00  0.00    -0.248 NA
ATOM     55  C   UNL A   1      37.295  32.056  32.005  1.00  0.00     0.031 C 
ATOM     56  C   UNL A   1      41.726  30.351  35.791  1.00  0.00     0.029 A 
ATOM     57  C   UNL A   1      40.926  30.489  34.668  1.00  0.00     0.049 A 
ATOM     58  H   UNL A   1      41.136  29.593  32.768  1.00  0.00     0.167 HD
ATOM     59  C   UNL A   1      39.016  31.381  33.361  1.00  0.00     0.074 A 
ATOM     60  C   UNL A   1      37.808  32.169  33.222  1.00  0.00     0.031 C 
ATOM     61  C   UNL A   1      39.730  31.275  34.508  1.00  0.00     0.037 A 
BRANCH  48  62
ATOM     62  C   UNL A   1      44.652  27.566  34.080  1.00  0.00     0.064 A 
ATOM     63  C   UNL A   1      45.934  28.127  33.994  1.00  0.00     0.173 A 
ATOM     64  C   UNL A   1      44.492  26.402  34.846  1.00  0.00     0.173 A 
ATOM     65  F   UNL A   1      46.141  29.231  33.262  1.00  0.00    -0.203 F 
ATOM     66  C   UNL A   1      47.019  27.530  34.633  1.00  0.00     0.198 A 
ATOM     67  C   UNL A   1      45.573  25.824  35.506  1.00  0.00     0.198 A 
ATOM     68  F   UNL A   1      43.285  25.828  34.962  1.00  0.00    -0.203 F 
ATOM     69  F   UNL A   1      48.243  28.057  34.503  1.00  0.00    -0.200 F 
ATOM     70  C   UNL A   1      46.836  26.384  35.393  1.00  0.00     0.200 A 
ATOM     71  F   UNL A   1      45.392  24.722  36.249  1.00  0.00    -0.200 F 
ATOM     72  F   UNL A   1      47.880  25.815  36.012  1.00  0.00    -0.200 F 
ENDBRANCH  48  62
BRANCH  49  73
ATOM     73  C   UNL A   1      36.847  31.415  29.185  1.00  0.00     0.064 A 
ATOM     74  C   UNL A   1      36.783  32.766  28.816  1.00  0.00     0.173 A 
ATOM     75  C   UNL A   1      35.745  30.602  28.879  1.00  0.00     0.173 A 
ATOM     76  F   UNL A   1      37.797  33.590  29.115  1.00  0.00    -0.203 F 
ATOM     77  C   UNL A   1      35.657  33.284  28.178  1.00  0.00     0.198 A 
ATOM     78  C   UNL A   1      34.633  31.115  28.217  1.00  0.00     0.198 A 
ATOM     79  F   UNL A   1      35.752  29.304  29.220  1.00  0.00    -0.203 F 
ATOM     80  F   UNL A   1      35.601  34.588  27.877  1.00  0.00    -0.200 F 
ATOM     81  C   UNL A   1      34.586  32.457  27.873  1.00  0.00     0.200 A 
ATOM     82  F   UNL A   1      33.603  30.310  27.918  1.00  0.00    -0.200 F 
ATOM     83  F   UNL A   1      33.504  32.956  27.259  1.00  0.00    -0.200 F 
ENDBRANCH  49  73
BRANCH  61  84
ATOM     84  C   UNL A   1      39.250  32.061  35.693  1.00  0.00     0.064 A 
ATOM     85  C   UNL A   1      39.618  33.401  35.885  1.00  0.00     0.173 A 
ATOM     86  C   UNL A   1      38.376  31.478  36.623  1.00  0.00     0.173 A 
ATOM     87  F   UNL A   1      40.463  33.997  35.032  1.00  0.00    -0.203 F 
ATOM     88  C   UNL A   1      39.143  34.122  36.977  1.00  0.00     0.198 A 
ATOM     89  C   UNL A   1      37.882  32.211  37.698  1.00  0.00     0.198 A 
ATOM     90  F   UNL A   1      37.989  30.201  36.479  1.00  0.00    -0.203 F 
ATOM     91  F   UNL A   1      39.539  35.389  37.164  1.00  0.00    -0.200 F 
ATOM     92  C   UNL A   1      38.270  33.529  37.877  1.00  0.00     0.200 A 
ATOM     93  F   UNL A   1      37.029  31.639  38.560  1.00  0.00    -0.200 F 
ATOM     94  F   UNL A   1      37.808  34.228  38.923  1.00  0.00    -0.200 F 
ENDBRANCH  61  84
ENDBRANCH  35  36
ENDBRANCH  28  30
ENDBRANCH  27  28
ENDBRANCH  26  27
ENDBRANCH  25  26
ENDBRANCH  24  25
ENDBRANCH  23  24
ENDBRANCH   1  23
TORSDOF 20
ENDMDL
MODEL 2
REMARK VINA RESULT:     -10.4      3.615      9.258
REMARK SMILES CSc1ncccc1C(=O)N1CSC[C@H]1C(=O)OCCOCCOCCOC(=O)c1ccc(-c2c3nc(c(-c4c(F)c(F)c(F)c(F)c4F)c4ccc([nH]4)c(-c4c(F)c(F)c(F)c(F)c4F)c4nc(c(-c5c(F)c(F)c(F)c(F)c5F)c5ccc2[nH]5)C=C4)C=C3)cc1
REMARK SMILES IDX 22 1 21 2 20 3 19 4 18 5 16 6 17 7 15 8 11 9 12 10 13 11
REMARK SMILES IDX 14 12 9 13 10 14 8 15 3 16 4 17 5 18 7 19 6 20 2 21 1 22
REMARK SMILES IDX 23 23 24 24 25 25 26 26 27 27 28 28 29 29 30 30 31 31 92 32
REMARK SMILES IDX 32 33 91 34 33 35 34 36 35 37 85 38 36 39 90 40 84 41 86 42
REMARK SMILES IDX 37 43 89 44 83 45 82 46 38 48 70 49 50 50 69 51 51 52 54 53
REMARK SMILES IDX 68 54 87 55 52 56 53 57 67 59 88 60 55 61 39 62 40 63 48 64
REMARK SMILES IDX 41 65 42 66 46 67 49 68 43 69 44 70 47 71 45 72 71 73 72 74
REMARK SMILES IDX 80 75 73 76 74 77 78 78 81 79 75 80 76 81 79 82 77 83 56 84
REMARK SMILES IDX 57 85 65 86 58 87 59 88 63 89 66 90 60 91 61 92 64 93 62 94
REMARK H PARENT 86 47 54 58
REMARK Flexibility Score: inf
ROOT
ATOM      1  C   UNL A   1      34.074  32.038  28.052  1.00  0.00     0.188 C 
ENDROOT
BRANCH   1   2
ATOM      2  O   UNL A   1      34.470  30.925  27.256  1.00  0.00    -0.376 OA
BRANCH   2   3
ATOM      3  C   UNL A   1      33.574  29.838  27.098  1.00  0.00     0.202 C 
BRANCH   3   4
ATOM      4  C   UNL A   1      34.201  28.510  26.676  1.00  0.00     0.261 C 
BRANCH   4   5
ATOM      5  O   UNL A   1      33.826  28.087  25.347  1.00  0.00    -0.462 OA
BRANCH   5   6
ATOM      6  C   UNL A   1      33.416  26.798  25.239  1.00  0.00     0.329 C 
ATOM      7  O   UNL A   1      33.051  26.109  26.189  1.00  0.00    -0.250 OA
BRANCH   6   8
ATOM      8  C   UNL A   1      33.565  26.187  23.836  1.00  0.00     0.206 C 
ATOM      9  N   UNL A   1      32.981  24.901  23.409  1.00  0.00    -0.315 N 
ATOM     10  C   UNL A   1      31.617  25.003  22.947  1.00  0.00     0.191 C 
ATOM     11  S   UNL A   1      31.475  26.633  22.189  1.00  0.00    -0.138 SA
ATOM     12  C   UNL A   1      33.062  27.241  22.844  1.00  0.00     0.108 C 
BRANCH   9  13
ATOM     13  C   UNL A   1      33.799  23.780  23.302  1.00  0.00     0.258 C 
ATOM     14  O   UNL A   1      34.725  23.742  22.495  1.00  0.00    -0.269 OA
BRANCH  13  15
ATOM     15  C   UNL A   1      33.428  22.529  24.024  1.00  0.00     0.072 A 
ATOM     16  C   UNL A   1      33.964  22.146  25.255  1.00  0.00     0.108 A 
ATOM     17  N   UNL A   1      33.717  20.926  25.810  1.00  0.00    -0.249 NA
ATOM     18  C   UNL A   1      32.965  20.047  25.118  1.00  0.00     0.112 A 
ATOM     19  C   UNL A   1      32.634  21.593  23.340  1.00  0.00     0.018 A 
ATOM     20  C   UNL A   1      32.398  20.336  23.893  1.00  0.00     0.021 A 
BRANCH  16  21
ATOM     21  S   UNL A   1      35.070  23.135  26.222  1.00  0.00    -0.109 SA
ATOM     22  C   UNL A   1      36.652  22.407  25.755  1.00  0.00     0.092 C 
ENDBRANCH  16  21
ENDBRANCH  13  15
ENDBRANCH   9  13
ENDBRANCH   6   8
ENDBRANCH   5   6
ENDBRANCH   4   5
ENDBRANCH   3   4
ENDBRANCH   2   3
ENDBRANCH   1   2
BRANCH   1  23
ATOM     23  C   UNL A   1      35.141  32.948  28.694  1.00  0.00     0.188 C 
BRANCH  23  24
ATOM     24  O   UNL A   1      34.617  34.063  29.403  1.00  0.00    -0.376 OA
BRANCH  24  25
ATOM     25  C   UNL A   1      33.823  34.948  28.622  1.00  0.00     0.202 C 
BRANCH  25  26
ATOM     26  C   UNL A   1      33.014  35.903  29.496  1.00  0.00     0.261 C 
BRANCH  26  27
ATOM     27  O   UNL A   1      32.401  35.242  30.617  1.00  0.00    -0.460 OA
BRANCH  27  28
ATOM     28  C   UNL A   1      32.615  35.795  31.826  1.00  0.00     0.338 C 
ATOM     29  O   UNL A   1      32.003  36.726  32.329  1.00  0.00    -0.246 OA
BRANCH  28  30
ATOM     30  C   UNL A   1      33.730  35.080  32.471  1.00  0.00     0.060 A 
ATOM     31  C   UNL A   1      34.993  35.669  32.547  1.00  0.00     0.016 A 
ATOM     32  C   UNL A   1      33.535  33.785  32.941  1.00  0.00     0.016 A 
ATOM     33  C   UNL A   1      36.090  34.946  33.011  1.00  0.00     0.010 A 
ATOM     34  C   UNL A   1      34.623  33.075  33.457  1.00  0.00     0.010 A 
ATOM     35  C   UNL A   1      35.916  33.635  33.457  1.00  0.00    -0.014 A 
BRANCH  35  36
ATOM     36  C   UNL A   1      37.081  32.796  33.826  1.00  0.00     0.031 A 
ATOM     37  C   UNL A   1      37.758  33.038  35.146  1.00  0.00     0.074 A 
ATOM     38  C   UNL A   1      37.542  31.840  33.001  1.00  0.00     0.049 A 
ATOM     39  N   UNL A   1      38.919  32.617  35.575  1.00  0.00    -0.248 NA
ATOM     40  C   UNL A   1      37.025  33.878  36.106  1.00  0.00     0.031 C 
ATOM     41  C   UNL A   1      36.926  31.437  31.738  1.00  0.00     0.029 A 
ATOM     42  N   UNL A   1      38.660  31.047  33.099  1.00  0.00    -0.354 N 
ATOM     43  C   UNL A   1      39.079  33.181  36.834  1.00  0.00     0.074 A 
ATOM     44  C   UNL A   1      37.897  33.973  37.100  1.00  0.00     0.031 C 
ATOM     45  C   UNL A   1      37.683  30.485  31.169  1.00  0.00     0.029 A 
ATOM     46  C   UNL A   1      38.869  30.263  31.992  1.00  0.00     0.049 A 
ATOM     47  H   UNL A   1      39.253  31.042  33.885  1.00  0.00     0.167 HD
ATOM     48  C   UNL A   1      40.124  33.050  37.686  1.00  0.00     0.037 A 
ATOM     49  C   UNL A   1      39.924  29.495  31.657  1.00  0.00     0.037 A 
ATOM     50  C   UNL A   1      41.278  32.231  37.429  1.00  0.00     0.049 A 
ATOM     51  C   UNL A   1      41.109  29.424  32.584  1.00  0.00     0.074 A 
ATOM     52  C   UNL A   1      42.389  32.026  38.228  1.00  0.00     0.029 A 
ATOM     53  N   UNL A   1      41.463  31.470  36.283  1.00  0.00    -0.354 N 
ATOM     54  N   UNL A   1      41.286  29.999  33.748  1.00  0.00    -0.248 NA
ATOM     55  C   UNL A   1      42.248  28.607  32.141  1.00  0.00     0.031 C 
ATOM     56  C   UNL A   1      43.265  31.173  37.550  1.00  0.00     0.029 A 
ATOM     57  C   UNL A   1      42.680  30.809  36.347  1.00  0.00     0.049 A 
ATOM     58  H   UNL A   1      40.826  31.410  35.536  1.00  0.00     0.167 HD
ATOM     59  C   UNL A   1      42.541  29.598  34.187  1.00  0.00     0.074 A 
ATOM     60  C   UNL A   1      43.078  28.719  33.168  1.00  0.00     0.031 C 
ATOM     61  C   UNL A   1      43.191  29.929  35.329  1.00  0.00     0.037 A 
BRANCH  48  62
ATOM     62  C   UNL A   1      40.084  33.847  38.956  1.00  0.00     0.064 A 
ATOM     63  C   UNL A   1      40.704  35.100  39.065  1.00  0.00     0.173 A 
ATOM     64  C   UNL A   1      39.392  33.357  40.073  1.00  0.00     0.173 A 
ATOM     65  F   UNL A   1      41.391  35.607  38.030  1.00  0.00    -0.203 F 
ATOM     66  C   UNL A   1      40.652  35.822  40.256  1.00  0.00     0.198 A 
ATOM     67  C   UNL A   1      39.318  34.092  41.251  1.00  0.00     0.198 A 
ATOM     68  F   UNL A   1      38.778  32.164  40.018  1.00  0.00    -0.203 F 
ATOM     69  F   UNL A   1      41.288  36.997  40.353  1.00  0.00    -0.200 F 
ATOM     70  C   UNL A   1      39.954  35.321  41.345  1.00  0.00     0.200 A 
ATOM     71  F   UNL A   1      38.633  33.611  42.299  1.00  0.00    -0.200 F 
ATOM     72  F   UNL A   1      39.900  36.019  42.487  1.00  0.00    -0.200 F 
ENDBRANCH  48  62
BRANCH  49  73
ATOM     73  C   UNL A   1      39.930  28.770  30.360  1.00  0.00     0.064 A 
ATOM     74  C   UNL A   1      39.380  27.485  30.249  1.00  0.00     0.173 A 
ATOM     75  C   UNL A   1      40.500  29.337  29.210  1.00  0.00     0.173 A 
ATOM     76  F   UNL A   1      38.854  26.888  31.328  1.00  0.00    -0.203 F 
ATOM     77  C   UNL A   1      39.410  26.792  29.041  1.00  0.00     0.198 A 
ATOM     78  C   UNL A   1      40.504  28.655  27.996  1.00  0.00     0.198 A 
ATOM     79  F   UNL A   1      41.049  30.560  29.265  1.00  0.00    -0.203 F 
ATOM     80  F   UNL A   1      38.920  25.548  28.973  1.00  0.00    -0.200 F 
ATOM     81  C   UNL A   1      39.966  27.380  27.914  1.00  0.00     0.200 A 
ATOM     82  F   UNL A   1      41.035  29.229  26.908  1.00  0.00    -0.200 F 
ATOM     83  F   UNL A   1      39.993  26.713  26.752  1.00  0.00    -0.200 F 
ENDBRANCH  49  73
BRANCH  61  84
ATOM     84  C   UNL A   1      44.538  29.306  35.560  1.00  0.00     0.064 A 
ATOM     85  C   UNL A   1      44.676  28.079  36.224  1.00  0.00     0.173 A 
ATOM     86  C   UNL A   1      45.698  29.925  35.069  1.00  0.00     0.173 A 
ATOM     87  F   UNL A   1      43.599  27.457  36.725  1.00  0.00    -0.203 F 
ATOM     88  C   UNL A   1      45.931  27.505  36.408  1.00  0.00     0.198 A 
ATOM     89  C   UNL A   1      46.947  29.334  35.231  1.00  0.00     0.198 A 
ATOM     90  F   UNL A   1      45.616  31.097  34.420  1.00  0.00    -0.203 F 
ATOM     91  F   UNL A   1      46.046  26.351  37.081  1.00  0.00    -0.200 F 
ATOM     92  C   UNL A   1      47.063  28.128  35.904  1.00  0.00     0.200 A 
ATOM     93  F   UNL A   1      48.039  29.932  34.733  1.00  0.00    -0.200 F 
ATOM     94  F   UNL A   1      48.269  27.568  36.075  1.00  0.00    -0.200 F 
ENDBRANCH  61  84
ENDBRANCH  35  36
ENDBRANCH  28  30
ENDBRANCH  27  28
ENDBRANCH  26  27
ENDBRANCH  25  26
ENDBRANCH  24  25
ENDBRANCH  23  24
ENDBRANCH   1  23
TORSDOF 20
ENDMDL
MODEL 3
REMARK VINA RESULT:     -10.3      1.357      2.092
REMARK SMILES CSc1ncccc1C(=O)N1CSC[C@H]1C(=O)OCCOCCOCCOC(=O)c1ccc(-c2c3nc(c(-c4c(F)c(F)c(F)c(F)c4F)c4ccc([nH]4)c(-c4c(F)c(F)c(F)c(F)c4F)c4nc(c(-c5c(F)c(F)c(F)c(F)c5F)c5ccc2[nH]5)C=C4)C=C3)cc1
REMARK SMILES IDX 22 1 21 2 20 3 19 4 18 5 16 6 17 7 15 8 11 9 12 10 13 11
REMARK SMILES IDX 14 12 9 13 10 14 8 15 3 16 4 17 5 18 7 19 6 20 2 21 1 22
REMARK SMILES IDX 23 23 24 24 25 25 26 26 27 27 28 28 29 29 30 30 31 31 92 32
REMARK SMILES IDX 32 33 91 34 33 35 34 36 35 37 85 38 36 39 90 40 84 41 86 42
REMARK SMILES IDX 37 43 89 44 83 45 82 46 38 48 70 49 50 50 69 51 51 52 54 53
REMARK SMILES IDX 68 54 87 55 52 56 53 57 67 59 88 60 55 61 39 62 40 63 48 64
REMARK SMILES IDX 41 65 42 66 46 67 49 68 43 69 44 70 47 71 45 72 71 73 72 74
REMARK SMILES IDX 80 75 73 76 74 77 78 78 81 79 75 80 76 81 79 82 77 83 56 84
REMARK SMILES IDX 57 85 65 86 58 87 59 88 63 89 66 90 60 91 61 92 64 93 62 94
REMARK H PARENT 86 47 54 58
REMARK Flexibility Score: inf
ROOT
ATOM      1  C   UNL A   1      38.794  22.025  26.255  1.00  0.00     0.188 C 
ENDROOT
BRANCH   1   2
ATOM      2  O   UNL A   1      37.819  22.155  25.224  1.00  0.00    -0.376 OA
BRANCH   2   3
ATOM      3  C   UNL A   1      36.448  22.006  25.550  1.00  0.00     0.202 C 
BRANCH   3   4
ATOM      4  C   UNL A   1      35.745  23.259  26.072  1.00  0.00     0.261 C 
BRANCH   4   5
ATOM      5  O   UNL A   1      34.383  23.028  26.491  1.00  0.00    -0.462 OA
BRANCH   5   6
ATOM      6  C   UNL A   1      33.600  22.371  25.597  1.00  0.00     0.329 C 
ATOM      7  O   UNL A   1      33.717  21.178  25.325  1.00  0.00    -0.250 OA
BRANCH   6   8
ATOM      8  C   UNL A   1      32.617  23.262  24.820  1.00  0.00     0.206 C 
ATOM      9  N   UNL A   1      32.903  24.633  24.359  1.00  0.00    -0.315 N 
ATOM     10  C   UNL A   1      33.576  24.693  23.082  1.00  0.00     0.191 C 
ATOM     11  S   UNL A   1      32.982  23.271  22.146  1.00  0.00    -0.138 SA
ATOM     12  C   UNL A   1      32.194  22.467  23.579  1.00  0.00     0.108 C 
BRANCH   9  13
ATOM     13  C   UNL A   1      32.363  25.714  25.049  1.00  0.00     0.258 C 
ATOM     14  O   UNL A   1      32.483  25.816  26.267  1.00  0.00    -0.269 OA
BRANCH  13  15
ATOM     15  C   UNL A   1      31.451  26.657  24.339  1.00  0.00     0.072 A 
ATOM     16  C   UNL A   1      31.720  28.014  24.148  1.00  0.00     0.108 A 
ATOM     17  N   UNL A   1      30.799  28.875  23.633  1.00  0.00    -0.249 NA
ATOM     18  C   UNL A   1      29.572  28.401  23.340  1.00  0.00     0.112 A 
ATOM     19  C   UNL A   1      30.167  26.196  24.006  1.00  0.00     0.018 A 
ATOM     20  C   UNL A   1      29.214  27.077  23.499  1.00  0.00     0.021 A 
BRANCH  16  21
ATOM     21  S   UNL A   1      33.235  28.812  24.601  1.00  0.00    -0.109 SA
ATOM     22  C   UNL A   1      34.101  28.790  23.020  1.00  0.00     0.092 C 
ENDBRANCH  16  21
ENDBRANCH  13  15
ENDBRANCH   9  13
ENDBRANCH   6   8
ENDBRANCH   5   6
ENDBRANCH   4   5
ENDBRANCH   3   4
ENDBRANCH   2   3
ENDBRANCH   1   2
BRANCH   1  23
ATOM     23  C   UNL A   1      39.861  20.915  26.174  1.00  0.00     0.188 C 
BRANCH  23  24
ATOM     24  O   UNL A   1      40.635  20.754  27.356  1.00  0.00    -0.376 OA
BRANCH  24  25
ATOM     25  C   UNL A   1      41.861  20.055  27.178  1.00  0.00     0.202 C 
BRANCH  25  26
ATOM     26  C   UNL A   1      42.696  20.655  26.050  1.00  0.00     0.261 C 
BRANCH  26  27
ATOM     27  O   UNL A   1      43.266  21.928  26.402  1.00  0.00    -0.460 OA
BRANCH  27  28
ATOM     28  C   UNL A   1      42.987  22.956  25.577  1.00  0.00     0.338 C 
ATOM     29  O   UNL A   1      43.093  22.974  24.359  1.00  0.00    -0.246 OA
BRANCH  28  30
ATOM     30  C   UNL A   1      42.513  24.087  26.393  1.00  0.00     0.060 A 
ATOM     31  C   UNL A   1      43.056  25.361  26.212  1.00  0.00     0.016 A 
ATOM     32  C   UNL A   1      41.572  23.866  27.394  1.00  0.00     0.016 A 
ATOM     33  C   UNL A   1      42.733  26.402  27.079  1.00  0.00     0.010 A 
ATOM     34  C   UNL A   1      41.205  24.924  28.231  1.00  0.00     0.010 A 
ATOM     35  C   UNL A   1      41.813  26.188  28.106  1.00  0.00    -0.014 A 
BRANCH  35  36
ATOM     36  C   UNL A   1      41.553  27.234  29.125  1.00  0.00     0.031 A 
ATOM     37  C   UNL A   1      42.400  27.262  30.365  1.00  0.00     0.074 A 
ATOM     38  C   UNL A   1      40.572  28.139  28.961  1.00  0.00     0.049 A 
ATOM     39  N   UNL A   1      42.211  27.904  31.488  1.00  0.00    -0.248 NA
ATOM     40  C   UNL A   1      43.624  26.445  30.333  1.00  0.00     0.031 C 
ATOM     41  C   UNL A   1      39.740  28.286  27.769  1.00  0.00     0.029 A 
ATOM     42  N   UNL A   1      40.098  29.099  29.823  1.00  0.00    -0.354 N 
ATOM     43  C   UNL A   1      43.263  27.531  32.315  1.00  0.00     0.074 A 
ATOM     44  C   UNL A   1      44.088  26.607  31.564  1.00  0.00     0.031 C 
ATOM     45  C   UNL A   1      38.844  29.264  27.980  1.00  0.00     0.029 A 
ATOM     46  C   UNL A   1      38.996  29.763  29.344  1.00  0.00     0.049 A 
ATOM     47  H   UNL A   1      40.508  29.291  30.697  1.00  0.00     0.167 HD
ATOM     48  C   UNL A   1      43.511  27.923  33.586  1.00  0.00     0.037 A 
ATOM     49  C   UNL A   1      38.172  30.635  29.957  1.00  0.00     0.037 A 
ATOM     50  C   UNL A   1      42.707  28.870  34.312  1.00  0.00     0.049 A 
ATOM     51  C   UNL A   1      38.422  30.999  31.397  1.00  0.00     0.074 A 
ATOM     52  C   UNL A   1      42.874  29.337  35.603  1.00  0.00     0.029 A 
ATOM     53  N   UNL A   1      41.583  29.502  33.799  1.00  0.00    -0.354 N 
ATOM     54  N   UNL A   1      39.383  30.605  32.196  1.00  0.00    -0.248 NA
ATOM     55  C   UNL A   1      37.461  31.918  32.024  1.00  0.00     0.031 C 
ATOM     56  C   UNL A   1      41.830  30.223  35.886  1.00  0.00     0.029 A 
ATOM     57  C   UNL A   1      41.037  30.343  34.756  1.00  0.00     0.049 A 
ATOM     58  H   UNL A   1      41.226  29.372  32.891  1.00  0.00     0.167 HD
ATOM     59  C   UNL A   1      39.158  31.243  33.409  1.00  0.00     0.074 A 
ATOM     60  C   UNL A   1      37.974  32.060  33.237  1.00  0.00     0.031 C 
ATOM     61  C   UNL A   1      39.866  31.158  34.562  1.00  0.00     0.037 A 
BRANCH  48  62
ATOM     62  C   UNL A   1      44.676  27.291  34.290  1.00  0.00     0.064 A 
ATOM     63  C   UNL A   1      45.952  27.873  34.282  1.00  0.00     0.173 A 
ATOM     64  C   UNL A   1      44.502  26.096  35.003  1.00  0.00     0.173 A 
ATOM     65  F   UNL A   1      46.173  29.008  33.603  1.00  0.00    -0.203 F 
ATOM     66  C   UNL A   1      47.017  27.267  34.945  1.00  0.00     0.198 A 
ATOM     67  C   UNL A   1      45.561  25.508  35.687  1.00  0.00     0.198 A 
ATOM     68  F   UNL A   1      43.300  25.501  35.044  1.00  0.00    -0.203 F 
ATOM     69  F   UNL A   1      48.238  27.815  34.889  1.00  0.00    -0.200 F 
ATOM     70  C   UNL A   1      46.820  26.089  35.652  1.00  0.00     0.200 A 
ATOM     71  F   UNL A   1      45.366  24.376  36.379  1.00  0.00    -0.200 F 
ATOM     72  F   UNL A   1      47.844  25.511  36.293  1.00  0.00    -0.200 F 
ENDBRANCH  48  62
BRANCH  49  73
ATOM     73  C   UNL A   1      37.002  31.187  29.227  1.00  0.00     0.064 A 
ATOM     74  C   UNL A   1      35.877  30.393  28.963  1.00  0.00     0.173 A 
ATOM     75  C   UNL A   1      36.989  32.512  28.764  1.00  0.00     0.173 A 
ATOM     76  F   UNL A   1      35.855  29.112  29.357  1.00  0.00    -0.203 F 
ATOM     77  C   UNL A   1      34.790  30.901  28.254  1.00  0.00     0.198 A 
ATOM     78  C   UNL A   1      35.890  33.025  28.081  1.00  0.00     0.198 A 
ATOM     79  F   UNL A   1      38.046  33.309  28.981  1.00  0.00    -0.203 F 
ATOM     80  F   UNL A   1      33.747  30.108  27.975  1.00  0.00    -0.200 F 
ATOM     81  C   UNL A   1      34.794  32.218  27.820  1.00  0.00     0.200 A 
ATOM     82  F   UNL A   1      35.896  34.301  27.669  1.00  0.00    -0.200 F 
ATOM     83  F   UNL A   1      33.747  32.705  27.139  1.00  0.00    -0.200 F 
ENDBRANCH  49  73
BRANCH  61  84
ATOM     84  C   UNL A   1      39.406  32.002  35.716  1.00  0.00     0.064 A 
ATOM     85  C   UNL A   1      39.851  33.321  35.886  1.00  0.00     0.173 A 
ATOM     86  C   UNL A   1      38.475  31.497  36.636  1.00  0.00     0.173 A 
ATOM     87  F   UNL A   1      40.753  33.843  35.041  1.00  0.00    -0.203 F 
ATOM     88  C   UNL A   1      39.395  34.096  36.948  1.00  0.00     0.198 A 
ATOM     89  C   UNL A   1      38.001  32.284  37.680  1.00  0.00     0.198 A 
ATOM     90  F   UNL A   1      38.014  30.242  36.512  1.00  0.00    -0.203 F 
ATOM     91  F   UNL A   1      39.863  35.341  37.116  1.00  0.00    -0.200 F 
ATOM     92  C   UNL A   1      38.465  33.581  37.839  1.00  0.00     0.200 A 
ATOM     93  F   UNL A   1      37.094  31.788  38.533  1.00  0.00    -0.200 F 
ATOM     94  F   UNL A   1      38.022  34.332  38.856  1.00  0.00    -0.200 F 
ENDBRANCH  61  84
ENDBRANCH  35  36
ENDBRANCH  28  30
ENDBRANCH  27  28
ENDBRANCH  26  27
ENDBRANCH  25  26
ENDBRANCH  24  25
ENDBRANCH  23  24
ENDBRANCH   1  23
TORSDOF 20
ENDMDL
