MODEL 1
REMARK VINA RESULT:     -11.1      0.000      0.000
REMARK SMILES O=C(OCCOCCOCCOC(=O)[C@@H]1CCCC[C@H]1C(=O)Nc1cccc(O)c1)c1ccc(-c2c3nc(c(-c4c(F)c(F)c(F)c(F)c4F)c4ccc([nH]4)c(-c4c(F)c(F)c(F)c(F)c4F)c4nc(c(-c5c(F)c(F)c(F)c(F)c5F)c5ccc2[nH]5)C=C4)C=C3)cc1
REMARK SMILES IDX 8 1 7 2 6 3 5 4 4 5 3 6 2 7 1 8 31 9 32 10 93 11 33 12 92 13
REMARK SMILES IDX 34 14 35 15 36 16 86 17 37 18 91 19 85 20 87 21 38 22 90 23
REMARK SMILES IDX 84 24 83 25 39 27 71 28 51 29 70 30 52 31 55 32 69 33 88 34
REMARK SMILES IDX 53 35 54 36 68 38 89 39 56 40 40 41 41 42 49 43 42 44 43 45
REMARK SMILES IDX 47 46 50 47 44 48 45 49 48 50 46 51 72 52 73 53 81 54 74 55
REMARK SMILES IDX 75 56 79 57 82 58 76 59 77 60 80 61 78 62 57 63 58 64 66 65
REMARK SMILES IDX 59 66 60 67 64 68 67 69 61 70 62 71 65 72 63 73 9 74 10 75
REMARK SMILES IDX 11 76 12 77 13 78 14 79 15 80 16 81 20 82 17 83 19 84 18 85
REMARK SMILES IDX 21 86 22 87 23 88 24 90 25 91 30 92 26 93 28 94 27 95 29 96
REMARK H PARENT 87 26 55 37 23 89 29 97
REMARK Flexibility Score: inf
ROOT
ATOM      1  C   UNL A   1      39.215  20.940  26.078  1.00  0.00     0.188 C 
ENDROOT
BRANCH   1   2
ATOM      2  C   UNL A   1      40.641  20.615  26.524  1.00  0.00     0.188 C 
BRANCH   2   3
ATOM      3  O   UNL A   1      41.337  19.734  25.632  1.00  0.00    -0.376 OA
BRANCH   3   4
ATOM      4  C   UNL A   1      42.761  19.881  25.687  1.00  0.00     0.202 C 
BRANCH   4   5
ATOM      5  C   UNL A   1      43.271  20.943  26.669  1.00  0.00     0.261 C 
BRANCH   5   6
ATOM      6  O   UNL A   1      43.848  22.091  26.032  1.00  0.00    -0.460 OA
BRANCH   6   7
ATOM      7  C   UNL A   1      43.231  23.167  25.489  1.00  0.00     0.338 C 
ATOM      8  O   UNL A   1      43.022  23.147  24.274  1.00  0.00    -0.246 OA
BRANCH   7   9
ATOM      9  C   UNL A   1      42.791  24.388  26.245  1.00  0.00     0.060 A 
ATOM     10  C   UNL A   1      43.370  25.662  26.194  1.00  0.00     0.016 A 
ATOM     11  C   UNL A   1      41.666  24.225  27.072  1.00  0.00     0.016 A 
ATOM     12  C   UNL A   1      42.893  26.729  26.956  1.00  0.00     0.010 A 
ATOM     13  C   UNL A   1      41.179  25.283  27.842  1.00  0.00     0.010 A 
ATOM     14  C   UNL A   1      41.809  26.537  27.799  1.00  0.00    -0.014 A 
BRANCH  14  15
ATOM     15  C   UNL A   1      41.485  27.546  28.822  1.00  0.00     0.031 A 
ATOM     16  C   UNL A   1      42.242  27.443  30.104  1.00  0.00     0.074 A 
ATOM     17  C   UNL A   1      40.570  28.510  28.630  1.00  0.00     0.049 A 
ATOM     18  N   UNL A   1      42.069  28.085  31.223  1.00  0.00    -0.248 NA
ATOM     19  C   UNL A   1      43.381  26.507  30.106  1.00  0.00     0.031 C 
ATOM     20  C   UNL A   1      39.921  28.833  27.366  1.00  0.00     0.029 A 
ATOM     21  N   UNL A   1      39.970  29.355  29.528  1.00  0.00    -0.354 N 
ATOM     22  C   UNL A   1      43.095  27.656  32.048  1.00  0.00     0.074 A 
ATOM     23  C   UNL A   1      43.841  26.646  31.335  1.00  0.00     0.031 C 
ATOM     24  C   UNL A   1      38.888  29.661  27.593  1.00  0.00     0.029 A 
ATOM     25  C   UNL A   1      38.843  29.956  29.017  1.00  0.00     0.049 A 
ATOM     26  H   UNL A   1      40.309  29.513  30.439  1.00  0.00     0.167 HD
ATOM     27  C   UNL A   1      43.398  28.100  33.287  1.00  0.00     0.037 A 
ATOM     28  C   UNL A   1      37.869  30.630  29.653  1.00  0.00     0.037 A 
ATOM     29  C   UNL A   1      42.595  29.067  33.978  1.00  0.00     0.049 A 
ATOM     30  C   UNL A   1      38.079  30.951  31.102  1.00  0.00     0.074 A 
ATOM     31  C   UNL A   1      42.764  29.588  35.245  1.00  0.00     0.029 A 
ATOM     32  N   UNL A   1      41.438  29.634  33.455  1.00  0.00    -0.354 N 
ATOM     33  N   UNL A   1      39.058  30.571  31.888  1.00  0.00    -0.248 NA
ATOM     34  C   UNL A   1      37.104  31.844  31.737  1.00  0.00     0.031 C 
ATOM     35  C   UNL A   1      41.668  30.414  35.515  1.00  0.00     0.029 A 
ATOM     36  C   UNL A   1      40.856  30.469  34.390  1.00  0.00     0.049 A 
ATOM     37  H   UNL A   1      41.085  29.464  32.551  1.00  0.00     0.167 HD
ATOM     38  C   UNL A   1      38.866  31.236  33.086  1.00  0.00     0.074 A 
ATOM     39  C   UNL A   1      37.650  32.015  32.934  1.00  0.00     0.031 C 
ATOM     40  C   UNL A   1      39.647  31.234  34.195  1.00  0.00     0.037 A 
BRANCH  27  41
ATOM     41  C   UNL A   1      44.591  27.477  33.944  1.00  0.00     0.064 A 
ATOM     42  C   UNL A   1      45.878  28.028  33.819  1.00  0.00     0.173 A 
ATOM     43  C   UNL A   1      44.464  26.255  34.618  1.00  0.00     0.173 A 
ATOM     44  F   UNL A   1      46.060  29.178  33.151  1.00  0.00    -0.203 F 
ATOM     45  C   UNL A   1      46.997  27.349  34.294  1.00  0.00     0.198 A 
ATOM     46  C   UNL A   1      45.582  25.597  35.122  1.00  0.00     0.198 A 
ATOM     47  F   UNL A   1      43.260  25.679  34.753  1.00  0.00    -0.203 F 
ATOM     48  F   UNL A   1      48.224  27.846  34.077  1.00  0.00    -0.200 F 
ATOM     49  C   UNL A   1      46.849  26.134  34.945  1.00  0.00     0.200 A 
ATOM     50  F   UNL A   1      45.437  24.422  35.752  1.00  0.00    -0.200 F 
ATOM     51  F   UNL A   1      47.927  25.468  35.380  1.00  0.00    -0.200 F 
ENDBRANCH  27  41
BRANCH  28  52
ATOM     52  C   UNL A   1      36.649  31.044  28.919  1.00  0.00     0.064 A 
ATOM     53  C   UNL A   1      35.635  30.130  28.612  1.00  0.00     0.173 A 
ATOM     54  C   UNL A   1      36.461  32.384  28.541  1.00  0.00     0.173 A 
ATOM     55  F   UNL A   1      35.772  28.840  28.948  1.00  0.00    -0.203 F 
ATOM     56  C   UNL A   1      34.476  30.538  27.953  1.00  0.00     0.198 A 
ATOM     57  C   UNL A   1      35.300  32.791  27.887  1.00  0.00     0.198 A 
ATOM     58  F   UNL A   1      37.399  33.299  28.824  1.00  0.00    -0.203 F 
ATOM     59  F   UNL A   1      33.514  29.648  27.677  1.00  0.00    -0.200 F 
ATOM     60  C   UNL A   1      34.308  31.868  27.598  1.00  0.00     0.200 A 
ATOM     61  F   UNL A   1      35.132  34.077  27.555  1.00  0.00    -0.200 F 
ATOM     62  F   UNL A   1      33.165  32.268  27.020  1.00  0.00    -0.200 F 
ENDBRANCH  28  52
BRANCH  40  63
ATOM     63  C   UNL A   1      39.251  32.151  35.308  1.00  0.00     0.064 A 
ATOM     64  C   UNL A   1      38.478  31.712  36.389  1.00  0.00     0.173 A 
ATOM     65  C   UNL A   1      39.739  33.467  35.328  1.00  0.00     0.173 A 
ATOM     66  F   UNL A   1      37.974  30.469  36.400  1.00  0.00    -0.203 F 
ATOM     67  C   UNL A   1      38.206  32.562  37.456  1.00  0.00     0.198 A 
ATOM     68  C   UNL A   1      39.494  34.302  36.410  1.00  0.00     0.198 A 
ATOM     69  F   UNL A   1      40.485  33.927  34.311  1.00  0.00    -0.203 F 
ATOM     70  F   UNL A   1      37.440  32.136  38.469  1.00  0.00    -0.200 F 
ATOM     71  C   UNL A   1      38.726  33.849  37.473  1.00  0.00     0.200 A 
ATOM     72  F   UNL A   1      40.012  35.536  36.432  1.00  0.00    -0.200 F 
ATOM     73  F   UNL A   1      38.487  34.655  38.516  1.00  0.00    -0.200 F 
ENDBRANCH  40  63
ENDBRANCH  14  15
ENDBRANCH   7   9
ENDBRANCH   6   7
ENDBRANCH   5   6
ENDBRANCH   4   5
ENDBRANCH   3   4
ENDBRANCH   2   3
ENDBRANCH   1   2
BRANCH   1  74
ATOM     74  O   UNL A   1      38.863  22.309  25.913  1.00  0.00    -0.376 OA
BRANCH  74  75
ATOM     75  C   UNL A   1      37.537  22.629  25.520  1.00  0.00     0.202 C 
BRANCH  75  76
ATOM     76  C   UNL A   1      36.815  23.808  26.194  1.00  0.00     0.261 C 
BRANCH  76  77
ATOM     77  O   UNL A   1      35.476  24.074  25.739  1.00  0.00    -0.463 OA
BRANCH  77  78
ATOM     78  C   UNL A   1      34.537  23.284  26.316  1.00  0.00     0.309 C 
ATOM     79  O   UNL A   1      34.614  22.900  27.482  1.00  0.00    -0.252 OA
BRANCH  78  80
ATOM     80  C   UNL A   1      33.432  22.818  25.373  1.00  0.00     0.111 C 
ATOM     81  C   UNL A   1      33.845  22.277  24.005  1.00  0.00     0.016 C 
ATOM     82  C   UNL A   1      32.360  23.904  25.200  1.00  0.00     0.093 C 
ATOM     83  C   UNL A   1      32.594  21.702  23.324  1.00  0.00     0.001 C 
ATOM     84  C   UNL A   1      31.159  23.463  24.341  1.00  0.00     0.014 C 
ATOM     85  C   UNL A   1      31.566  22.777  23.045  1.00  0.00     0.001 C 
BRANCH  82  86
ATOM     86  C   UNL A   1      31.833  24.576  26.470  1.00  0.00     0.228 C 
ATOM     87  O   UNL A   1      31.443  23.855  27.399  1.00  0.00    -0.274 OA
ATOM     88  N   UNL A   1      31.934  25.915  26.722  1.00  0.00    -0.326 N 
ATOM     89  H   UNL A   1      31.642  26.174  27.625  1.00  0.00     0.169 HD
BRANCH  88  90
ATOM     90  C   UNL A   1      32.371  26.989  25.937  1.00  0.00     0.044 A 
ATOM     91  C   UNL A   1      33.673  27.103  25.449  1.00  0.00     0.026 A 
ATOM     92  C   UNL A   1      31.422  27.919  25.526  1.00  0.00     0.072 A 
ATOM     93  C   UNL A   1      34.074  28.226  24.720  1.00  0.00     0.006 A 
ATOM     94  C   UNL A   1      31.809  29.011  24.754  1.00  0.00     0.117 A 
ATOM     95  C   UNL A   1      33.136  29.192  24.376  1.00  0.00     0.046 A 
BRANCH  94  96
ATOM     96  O   UNL A   1      30.835  29.887  24.382  1.00  0.00    -0.508 OA
ATOM     97  H   UNL A   1      30.016  29.899  24.837  1.00  0.00     0.293 HD
ENDBRANCH  94  96
ENDBRANCH  88  90
ENDBRANCH  82  86
ENDBRANCH  78  80
ENDBRANCH  77  78
ENDBRANCH  76  77
ENDBRANCH  75  76
ENDBRANCH  74  75
ENDBRANCH   1  74
TORSDOF 20
ENDMDL
MODEL 2
REMARK VINA RESULT:     -10.9      4.635      9.071
REMARK SMILES O=C(OCCOCCOCCOC(=O)[C@@H]1CCCC[C@H]1C(=O)Nc1cccc(O)c1)c1ccc(-c2c3nc(c(-c4c(F)c(F)c(F)c(F)c4F)c4ccc([nH]4)c(-c4c(F)c(F)c(F)c(F)c4F)c4nc(c(-c5c(F)c(F)c(F)c(F)c5F)c5ccc2[nH]5)C=C4)C=C3)cc1
REMARK SMILES IDX 8 1 7 2 6 3 5 4 4 5 3 6 2 7 1 8 31 9 32 10 93 11 33 12 92 13
REMARK SMILES IDX 34 14 35 15 36 16 86 17 37 18 91 19 85 20 87 21 38 22 90 23
REMARK SMILES IDX 84 24 83 25 39 27 71 28 51 29 70 30 52 31 55 32 69 33 88 34
REMARK SMILES IDX 53 35 54 36 68 38 89 39 56 40 40 41 41 42 49 43 42 44 43 45
REMARK SMILES IDX 47 46 50 47 44 48 45 49 48 50 46 51 72 52 73 53 81 54 74 55
REMARK SMILES IDX 75 56 79 57 82 58 76 59 77 60 80 61 78 62 57 63 58 64 66 65
REMARK SMILES IDX 59 66 60 67 64 68 67 69 61 70 62 71 65 72 63 73 9 74 10 75
REMARK SMILES IDX 11 76 12 77 13 78 14 79 15 80 16 81 20 82 17 83 19 84 18 85
REMARK SMILES IDX 21 86 22 87 23 88 24 90 25 91 30 92 26 93 28 94 27 95 29 96
REMARK H PARENT 87 26 55 37 23 89 29 97
REMARK Flexibility Score: inf
ROOT
ATOM      1  C   UNL A   1      35.017  22.670  23.943  1.00  0.00     0.188 C 
ENDROOT
BRANCH   1   2
ATOM      2  C   UNL A   1      36.210  22.381  24.856  1.00  0.00     0.188 C 
BRANCH   2   3
ATOM      3  O   UNL A   1      36.287  21.016  25.289  1.00  0.00    -0.376 OA
BRANCH   3   4
ATOM      4  C   UNL A   1      37.504  20.367  24.902  1.00  0.00     0.202 C 
BRANCH   4   5
ATOM      5  C   UNL A   1      38.752  20.803  25.681  1.00  0.00     0.261 C 
BRANCH   5   6
ATOM      6  O   UNL A   1      39.689  19.742  25.912  1.00  0.00    -0.460 OA
BRANCH   6   7
ATOM      7  C   UNL A   1      41.038  19.800  26.010  1.00  0.00     0.338 C 
ATOM      8  O   UNL A   1      41.676  18.808  25.651  1.00  0.00    -0.246 OA
BRANCH   7   9
ATOM      9  C   UNL A   1      41.820  20.972  26.531  1.00  0.00     0.060 A 
ATOM     10  C   UNL A   1      42.123  21.252  27.869  1.00  0.00     0.016 A 
ATOM     11  C   UNL A   1      42.311  21.863  25.560  1.00  0.00     0.016 A 
ATOM     12  C   UNL A   1      42.843  22.385  28.249  1.00  0.00     0.010 A 
ATOM     13  C   UNL A   1      43.031  23.001  25.926  1.00  0.00     0.010 A 
ATOM     14  C   UNL A   1      43.281  23.275  27.280  1.00  0.00    -0.014 A 
BRANCH  14  15
ATOM     15  C   UNL A   1      43.768  24.608  27.671  1.00  0.00     0.031 A 
ATOM     16  C   UNL A   1      42.722  25.596  28.067  1.00  0.00     0.074 A 
ATOM     17  C   UNL A   1      45.072  24.933  27.683  1.00  0.00     0.049 A 
ATOM     18  N   UNL A   1      42.834  26.869  28.310  1.00  0.00    -0.248 NA
ATOM     19  C   UNL A   1      41.362  25.055  28.251  1.00  0.00     0.031 C 
ATOM     20  C   UNL A   1      46.185  24.008  27.515  1.00  0.00     0.029 A 
ATOM     21  N   UNL A   1      45.678  26.159  27.770  1.00  0.00    -0.354 N 
ATOM     22  C   UNL A   1      41.570  27.275  28.707  1.00  0.00     0.074 A 
ATOM     23  C   UNL A   1      40.689  26.135  28.600  1.00  0.00     0.031 C 
ATOM     24  C   UNL A   1      47.317  24.703  27.320  1.00  0.00     0.029 A 
ATOM     25  C   UNL A   1      47.003  26.121  27.398  1.00  0.00     0.049 A 
ATOM     26  H   UNL A   1      45.217  26.978  28.066  1.00  0.00     0.167 HD
ATOM     27  C   UNL A   1      41.195  28.493  29.151  1.00  0.00     0.037 A 
ATOM     28  C   UNL A   1      47.842  27.133  27.114  1.00  0.00     0.037 A 
ATOM     29  C   UNL A   1      42.093  29.611  29.189  1.00  0.00     0.049 A 
ATOM     30  C   UNL A   1      47.368  28.527  27.394  1.00  0.00     0.074 A 
ATOM     31  C   UNL A   1      41.847  30.909  29.587  1.00  0.00     0.029 A 
ATOM     32  N   UNL A   1      43.419  29.557  28.773  1.00  0.00    -0.354 N 
ATOM     33  N   UNL A   1      46.182  28.921  27.793  1.00  0.00    -0.248 NA
ATOM     34  C   UNL A   1      48.352  29.606  27.260  1.00  0.00     0.031 C 
ATOM     35  C   UNL A   1      43.003  31.657  29.342  1.00  0.00     0.029 A 
ATOM     36  C   UNL A   1      43.995  30.810  28.864  1.00  0.00     0.049 A 
ATOM     37  H   UNL A   1      43.880  28.745  28.459  1.00  0.00     0.167 HD
ATOM     38  C   UNL A   1      46.291  30.279  28.032  1.00  0.00     0.074 A 
ATOM     39  C   UNL A   1      47.655  30.648  27.696  1.00  0.00     0.031 C 
ATOM     40  C   UNL A   1      45.361  31.134  28.525  1.00  0.00     0.037 A 
BRANCH  27  41
ATOM     41  C   UNL A   1      39.758  28.645  29.546  1.00  0.00     0.064 A 
ATOM     42  C   UNL A   1      38.781  29.075  28.632  1.00  0.00     0.173 A 
ATOM     43  C   UNL A   1      39.372  28.462  30.880  1.00  0.00     0.173 A 
ATOM     44  F   UNL A   1      39.106  29.301  27.349  1.00  0.00    -0.203 F 
ATOM     45  C   UNL A   1      37.487  29.370  29.053  1.00  0.00     0.198 A 
ATOM     46  C   UNL A   1      38.069  28.725  31.290  1.00  0.00     0.198 A 
ATOM     47  F   UNL A   1      40.269  28.065  31.795  1.00  0.00    -0.203 F 
ATOM     48  F   UNL A   1      36.598  29.873  28.184  1.00  0.00    -0.200 F 
ATOM     49  C   UNL A   1      37.132  29.195  30.382  1.00  0.00     0.200 A 
ATOM     50  F   UNL A   1      37.726  28.554  32.575  1.00  0.00    -0.200 F 
ATOM     51  F   UNL A   1      35.894  29.504  30.793  1.00  0.00    -0.200 F 
ENDBRANCH  27  41
BRANCH  28  52
ATOM     52  C   UNL A   1      49.189  26.849  26.562  1.00  0.00     0.064 A 
ATOM     53  C   UNL A   1      49.430  26.858  25.184  1.00  0.00     0.173 A 
ATOM     54  C   UNL A   1      50.274  26.599  27.417  1.00  0.00     0.173 A 
ATOM     55  F   UNL A   1      48.423  27.088  24.329  1.00  0.00    -0.203 F 
ATOM     56  C   UNL A   1      50.708  26.626  24.677  1.00  0.00     0.198 A 
ATOM     57  C   UNL A   1      51.552  26.372  26.909  1.00  0.00     0.198 A 
ATOM     58  F   UNL A   1      50.096  26.591  28.746  1.00  0.00    -0.203 F 
ATOM     59  F   UNL A   1      50.918  26.649  23.355  1.00  0.00    -0.200 F 
ATOM     60  C   UNL A   1      51.767  26.390  25.540  1.00  0.00     0.200 A 
ATOM     61  F   UNL A   1      52.578  26.156  27.743  1.00  0.00    -0.200 F 
ATOM     62  F   UNL A   1      53.006  26.229  25.052  1.00  0.00    -0.200 F 
ENDBRANCH  28  52
BRANCH  40  63
ATOM     63  C   UNL A   1      45.802  32.537  28.796  1.00  0.00     0.064 A 
ATOM     64  C   UNL A   1      46.399  32.904  30.008  1.00  0.00     0.173 A 
ATOM     65  C   UNL A   1      45.705  33.501  27.781  1.00  0.00     0.173 A 
ATOM     66  F   UNL A   1      46.492  32.019  31.012  1.00  0.00    -0.203 F 
ATOM     67  C   UNL A   1      46.885  34.193  30.196  1.00  0.00     0.198 A 
ATOM     68  C   UNL A   1      46.222  34.778  27.960  1.00  0.00     0.198 A 
ATOM     69  F   UNL A   1      45.141  33.190  26.604  1.00  0.00    -0.203 F 
ATOM     70  F   UNL A   1      47.426  34.537  31.372  1.00  0.00    -0.200 F 
ATOM     71  C   UNL A   1      46.810  35.124  29.168  1.00  0.00     0.200 A 
ATOM     72  F   UNL A   1      46.166  35.667  26.960  1.00  0.00    -0.200 F 
ATOM     73  F   UNL A   1      47.306  36.356  29.341  1.00  0.00    -0.200 F 
ENDBRANCH  40  63
ENDBRANCH  14  15
ENDBRANCH   7   9
ENDBRANCH   6   7
ENDBRANCH   5   6
ENDBRANCH   4   5
ENDBRANCH   3   4
ENDBRANCH   2   3
ENDBRANCH   1   2
BRANCH   1  74
ATOM     74  O   UNL A   1      33.712  22.606  24.509  1.00  0.00    -0.376 OA
BRANCH  74  75
ATOM     75  C   UNL A   1      33.489  23.214  25.773  1.00  0.00     0.202 C 
BRANCH  75  76
ATOM     76  C   UNL A   1      32.882  24.625  25.833  1.00  0.00     0.261 C 
BRANCH  76  77
ATOM     77  O   UNL A   1      31.488  24.729  25.490  1.00  0.00    -0.463 OA
BRANCH  77  78
ATOM     78  C   UNL A   1      30.975  25.973  25.661  1.00  0.00     0.309 C 
ATOM     79  O   UNL A   1      29.772  26.215  25.575  1.00  0.00    -0.252 OA
BRANCH  78  80
ATOM     80  C   UNL A   1      32.018  27.069  25.856  1.00  0.00     0.111 C 
ATOM     81  C   UNL A   1      32.044  27.798  27.198  1.00  0.00     0.016 C 
ATOM     82  C   UNL A   1      31.964  28.091  24.710  1.00  0.00     0.093 C 
ATOM     83  C   UNL A   1      33.282  28.706  27.222  1.00  0.00     0.001 C 
ATOM     84  C   UNL A   1      33.061  29.171  24.786  1.00  0.00     0.014 C 
ATOM     85  C   UNL A   1      33.199  29.790  26.169  1.00  0.00     0.001 C 
BRANCH  82  86
ATOM     86  C   UNL A   1      31.916  27.541  23.282  1.00  0.00     0.228 C 
ATOM     87  O   UNL A   1      32.731  26.665  22.962  1.00  0.00    -0.274 OA
ATOM     88  N   UNL A   1      30.919  27.820  22.391  1.00  0.00    -0.326 N 
ATOM     89  H   UNL A   1      30.978  27.308  21.553  1.00  0.00     0.169 HD
BRANCH  88  90
ATOM     90  C   UNL A   1      29.829  28.698  22.444  1.00  0.00     0.044 A 
ATOM     91  C   UNL A   1      29.893  30.025  22.020  1.00  0.00     0.026 A 
ATOM     92  C   UNL A   1      28.596  28.177  22.821  1.00  0.00     0.072 A 
ATOM     93  C   UNL A   1      28.791  30.877  22.150  1.00  0.00     0.006 A 
ATOM     94  C   UNL A   1      27.485  29.011  22.899  1.00  0.00     0.117 A 
ATOM     95  C   UNL A   1      27.579  30.367  22.601  1.00  0.00     0.046 A 
BRANCH  94  96
ATOM     96  O   UNL A   1      26.305  28.443  23.275  1.00  0.00    -0.508 OA
ATOM     97  H   UNL A   1      25.627  28.310  22.642  1.00  0.00     0.293 HD
ENDBRANCH  94  96
ENDBRANCH  88  90
ENDBRANCH  82  86
ENDBRANCH  78  80
ENDBRANCH  77  78
ENDBRANCH  76  77
ENDBRANCH  75  76
ENDBRANCH  74  75
ENDBRANCH   1  74
TORSDOF 20
ENDMDL
MODEL 3
REMARK VINA RESULT:     -10.8      3.506      9.233
REMARK SMILES O=C(OCCOCCOCCOC(=O)[C@@H]1CCCC[C@H]1C(=O)Nc1cccc(O)c1)c1ccc(-c2c3nc(c(-c4c(F)c(F)c(F)c(F)c4F)c4ccc([nH]4)c(-c4c(F)c(F)c(F)c(F)c4F)c4nc(c(-c5c(F)c(F)c(F)c(F)c5F)c5ccc2[nH]5)C=C4)C=C3)cc1
REMARK SMILES IDX 8 1 7 2 6 3 5 4 4 5 3 6 2 7 1 8 31 9 32 10 93 11 33 12 92 13
REMARK SMILES IDX 34 14 35 15 36 16 86 17 37 18 91 19 85 20 87 21 38 22 90 23
REMARK SMILES IDX 84 24 83 25 39 27 71 28 51 29 70 30 52 31 55 32 69 33 88 34
REMARK SMILES IDX 53 35 54 36 68 38 89 39 56 40 40 41 41 42 49 43 42 44 43 45
REMARK SMILES IDX 47 46 50 47 44 48 45 49 48 50 46 51 72 52 73 53 81 54 74 55
REMARK SMILES IDX 75 56 79 57 82 58 76 59 77 60 80 61 78 62 57 63 58 64 66 65
REMARK SMILES IDX 59 66 60 67 64 68 67 69 61 70 62 71 65 72 63 73 9 74 10 75
REMARK SMILES IDX 11 76 12 77 13 78 14 79 15 80 16 81 20 82 17 83 19 84 18 85
REMARK SMILES IDX 21 86 22 87 23 88 24 90 25 91 30 92 26 93 28 94 27 95 29 96
REMARK H PARENT 87 26 55 37 23 89 29 97
REMARK Flexibility Score: inf
ROOT
ATOM      1  C   UNL A   1      34.391  32.078  27.677  1.00  0.00     0.188 C 
ENDROOT
BRANCH   1   2
ATOM      2  C   UNL A   1      34.412  33.165  28.754  1.00  0.00     0.188 C 
BRANCH   2   3
ATOM      3  O   UNL A   1      34.118  34.476  28.254  1.00  0.00    -0.376 OA
BRANCH   3   4
ATOM      4  C   UNL A   1      32.885  35.010  28.751  1.00  0.00     0.202 C 
BRANCH   4   5
ATOM      5  C   UNL A   1      32.967  36.441  29.299  1.00  0.00     0.261 C 
BRANCH   5   6
ATOM      6  O   UNL A   1      32.348  36.606  30.582  1.00  0.00    -0.460 OA
BRANCH   6   7
ATOM      7  C   UNL A   1      32.829  36.295  31.809  1.00  0.00     0.338 C 
ATOM      8  O   UNL A   1      32.447  36.982  32.758  1.00  0.00    -0.246 OA
BRANCH   7   9
ATOM      9  C   UNL A   1      33.799  35.187  32.104  1.00  0.00     0.060 A 
ATOM     10  C   UNL A   1      33.559  34.043  32.875  1.00  0.00     0.016 A 
ATOM     11  C   UNL A   1      35.072  35.314  31.521  1.00  0.00     0.016 A 
ATOM     12  C   UNL A   1      34.542  33.079  33.105  1.00  0.00     0.010 A 
ATOM     13  C   UNL A   1      36.065  34.359  31.744  1.00  0.00     0.010 A 
ATOM     14  C   UNL A   1      35.804  33.245  32.558  1.00  0.00    -0.014 A 
BRANCH  14  15
ATOM     15  C   UNL A   1      36.925  32.413  33.028  1.00  0.00     0.031 A 
ATOM     16  C   UNL A   1      37.607  32.877  34.271  1.00  0.00     0.074 A 
ATOM     17  C   UNL A   1      37.321  31.298  32.392  1.00  0.00     0.049 A 
ATOM     18  N   UNL A   1      38.699  32.443  34.829  1.00  0.00    -0.248 NA
ATOM     19  C   UNL A   1      36.934  33.964  35.007  1.00  0.00     0.031 C 
ATOM     20  C   UNL A   1      36.617  30.641  31.300  1.00  0.00     0.029 A 
ATOM     21  N   UNL A   1      38.467  30.558  32.532  1.00  0.00    -0.354 N 
ATOM     22  C   UNL A   1      38.826  33.178  35.997  1.00  0.00     0.074 A 
ATOM     23  C   UNL A   1      37.747  34.137  36.032  1.00  0.00     0.031 C 
ATOM     24  C   UNL A   1      37.419  29.720  30.740  1.00  0.00     0.029 A 
ATOM     25  C   UNL A   1      38.674  29.701  31.476  1.00  0.00     0.049 A 
ATOM     26  H   UNL A   1      39.075  30.632  33.303  1.00  0.00     0.167 HD
ATOM     27  C   UNL A   1      39.754  33.034  36.967  1.00  0.00     0.037 A 
ATOM     28  C   UNL A   1      39.780  29.016  31.133  1.00  0.00     0.037 A 
ATOM     29  C   UNL A   1      40.841  32.104  36.863  1.00  0.00     0.049 A 
ATOM     30  C   UNL A   1      40.924  29.016  32.100  1.00  0.00     0.074 A 
ATOM     31  C   UNL A   1      41.870  31.869  37.752  1.00  0.00     0.029 A 
ATOM     32  N   UNL A   1      41.051  31.272  35.768  1.00  0.00    -0.354 N 
ATOM     33  N   UNL A   1      41.046  29.689  33.220  1.00  0.00    -0.248 NA
ATOM     34  C   UNL A   1      42.047  28.120  31.807  1.00  0.00     0.031 C 
ATOM     35  C   UNL A   1      42.741  30.948  37.161  1.00  0.00     0.029 A 
ATOM     36  C   UNL A   1      42.217  30.551  35.938  1.00  0.00     0.049 A 
ATOM     37  H   UNL A   1      40.455  31.207  34.986  1.00  0.00     0.167 HD
ATOM     38  C   UNL A   1      42.218  29.245  33.807  1.00  0.00     0.074 A 
ATOM     39  C   UNL A   1      42.790  28.270  32.896  1.00  0.00     0.031 C 
ATOM     40  C   UNL A   1      42.749  29.582  35.008  1.00  0.00     0.037 A 
BRANCH  27  41
ATOM     41  C   UNL A   1      39.634  33.952  38.145  1.00  0.00     0.064 A 
ATOM     42  C   UNL A   1      38.887  33.602  39.283  1.00  0.00     0.173 A 
ATOM     43  C   UNL A   1      40.184  35.239  38.091  1.00  0.00     0.173 A 
ATOM     44  F   UNL A   1      38.309  32.394  39.368  1.00  0.00    -0.203 F 
ATOM     45  C   UNL A   1      38.649  34.528  40.295  1.00  0.00     0.198 A 
ATOM     46  C   UNL A   1      39.972  36.150  39.121  1.00  0.00     0.198 A 
ATOM     47  F   UNL A   1      40.894  35.628  37.021  1.00  0.00    -0.203 F 
ATOM     48  F   UNL A   1      37.852  34.205  41.324  1.00  0.00    -0.200 F 
ATOM     49  C   UNL A   1      39.191  35.802  40.214  1.00  0.00     0.200 A 
ATOM     50  F   UNL A   1      40.498  37.381  39.042  1.00  0.00    -0.200 F 
ATOM     51  F   UNL A   1      38.941  36.701  41.175  1.00  0.00    -0.200 F 
ENDBRANCH  27  41
BRANCH  28  52
ATOM     52  C   UNL A   1      39.830  28.282  29.845  1.00  0.00     0.064 A 
ATOM     53  C   UNL A   1      40.430  28.838  28.710  1.00  0.00     0.173 A 
ATOM     54  C   UNL A   1      39.307  26.983  29.741  1.00  0.00     0.173 A 
ATOM     55  F   UNL A   1      40.940  30.077  28.760  1.00  0.00    -0.203 F 
ATOM     56  C   UNL A   1      40.504  28.125  27.515  1.00  0.00     0.198 A 
ATOM     57  C   UNL A   1      39.386  26.270  28.547  1.00  0.00     0.198 A 
ATOM     58  F   UNL A   1      38.733  26.403  30.805  1.00  0.00    -0.203 F 
ATOM     59  F   UNL A   1      41.091  28.673  26.443  1.00  0.00    -0.200 F 
ATOM     60  C   UNL A   1      39.988  26.840  27.437  1.00  0.00     0.200 A 
ATOM     61  F   UNL A   1      38.898  25.024  28.475  1.00  0.00    -0.200 F 
ATOM     62  F   UNL A   1      40.117  26.133  26.304  1.00  0.00    -0.200 F 
ENDBRANCH  28  52
BRANCH  40  63
ATOM     63  C   UNL A   1      43.976  28.845  35.441  1.00  0.00     0.064 A 
ATOM     64  C   UNL A   1      45.262  29.336  35.188  1.00  0.00     0.173 A 
ATOM     65  C   UNL A   1      43.847  27.676  36.206  1.00  0.00     0.173 A 
ATOM     66  F   UNL A   1      45.431  30.438  34.443  1.00  0.00    -0.203 F 
ATOM     67  C   UNL A   1      46.382  28.678  35.685  1.00  0.00     0.198 A 
ATOM     68  C   UNL A   1      44.965  27.040  36.730  1.00  0.00     0.198 A 
ATOM     69  F   UNL A   1      42.631  27.172  36.473  1.00  0.00    -0.203 F 
ATOM     70  F   UNL A   1      47.606  29.143  35.408  1.00  0.00    -0.200 F 
ATOM     71  C   UNL A   1      46.232  27.541  36.468  1.00  0.00     0.200 A 
ATOM     72  F   UNL A   1      44.817  25.954  37.500  1.00  0.00    -0.200 F 
ATOM     73  F   UNL A   1      47.311  26.926  36.971  1.00  0.00    -0.200 F 
ENDBRANCH  40  63
ENDBRANCH  14  15
ENDBRANCH   7   9
ENDBRANCH   6   7
ENDBRANCH   5   6
ENDBRANCH   4   5
ENDBRANCH   3   4
ENDBRANCH   2   3
ENDBRANCH   1   2
BRANCH   1  74
ATOM     74  O   UNL A   1      35.414  31.089  27.710  1.00  0.00    -0.376 OA
BRANCH  74  75
ATOM     75  C   UNL A   1      35.050  29.727  27.540  1.00  0.00     0.202 C 
BRANCH  75  76
ATOM     76  C   UNL A   1      33.586  29.373  27.227  1.00  0.00     0.261 C 
BRANCH  76  77
ATOM     77  O   UNL A   1      33.325  27.997  26.895  1.00  0.00    -0.463 OA
BRANCH  77  78
ATOM     78  C   UNL A   1      32.006  27.703  26.783  1.00  0.00     0.309 C 
ATOM     79  O   UNL A   1      31.277  27.528  27.758  1.00  0.00    -0.252 OA
BRANCH  78  80
ATOM     80  C   UNL A   1      31.522  27.497  25.351  1.00  0.00     0.111 C 
ATOM     81  C   UNL A   1      31.269  28.739  24.498  1.00  0.00     0.016 C 
ATOM     82  C   UNL A   1      30.290  26.580  25.313  1.00  0.00     0.093 C 
ATOM     83  C   UNL A   1      30.978  28.278  23.062  1.00  0.00     0.001 C 
ATOM     84  C   UNL A   1      29.808  26.243  23.888  1.00  0.00     0.014 C 
ATOM     85  C   UNL A   1      29.706  27.462  22.984  1.00  0.00     0.001 C 
BRANCH  82  86
ATOM     86  C   UNL A   1      30.354  25.286  26.127  1.00  0.00     0.228 C 
ATOM     87  O   UNL A   1      29.391  24.998  26.852  1.00  0.00    -0.274 OA
ATOM     88  N   UNL A   1      31.321  24.334  25.971  1.00  0.00    -0.326 N 
ATOM     89  H   UNL A   1      31.163  23.515  26.493  1.00  0.00     0.169 HD
BRANCH  88  90
ATOM     90  C   UNL A   1      32.495  24.303  25.209  1.00  0.00     0.044 A 
ATOM     91  C   UNL A   1      33.758  24.578  25.734  1.00  0.00     0.026 A 
ATOM     92  C   UNL A   1      32.403  23.854  23.895  1.00  0.00     0.072 A 
ATOM     93  C   UNL A   1      34.892  24.592  24.916  1.00  0.00     0.006 A 
ATOM     94  C   UNL A   1      33.540  23.815  23.094  1.00  0.00     0.117 A 
ATOM     95  C   UNL A   1      34.780  24.215  23.583  1.00  0.00     0.046 A 
BRANCH  94  96
ATOM     96  O   UNL A   1      33.387  23.366  21.817  1.00  0.00    -0.508 OA
ATOM     97  H   UNL A   1      34.115  22.988  21.363  1.00  0.00     0.293 HD
ENDBRANCH  94  96
ENDBRANCH  88  90
ENDBRANCH  82  86
ENDBRANCH  78  80
ENDBRANCH  77  78
ENDBRANCH  76  77
ENDBRANCH  75  76
ENDBRANCH  74  75
ENDBRANCH   1  74
TORSDOF 20
ENDMDL
