MODEL 1
REMARK VINA RESULT:     -11.4      0.000      0.000
REMARK SMILES Cc1ccn2c([C@@H]3C[C@H]3C(=O)OCCOCCOCCOC(=O)c3ccc(-c4c5nc(c(-c6c(F)c(F)c(F)c(F)c6F)c6ccc([nH]6)c(-c6c(F)c(F)c(F)c(F)c6F)c6nc(c(-c7c(F)c(F)c(F)c(F)c7F)c7ccc4[nH]7)C=C6)C=C5)cc3)nnc2c1
REMARK SMILES IDX 17 1 16 2 15 3 14 4 13 5 12 6 10 7 11 8 9 9 7 10 8 11 6 12
REMARK SMILES IDX 1 13 2 14 3 15 90 16 4 17 89 18 5 19 88 20 87 21 18 22 19 23
REMARK SMILES IDX 20 24 21 25 22 26 23 27 24 28 25 29 86 30 26 31 85 32 27 33
REMARK SMILES IDX 28 34 29 35 79 36 30 37 84 38 78 39 80 40 31 41 83 42 77 43
REMARK SMILES IDX 76 44 32 46 64 47 44 48 63 49 45 50 48 51 62 52 81 53 46 54
REMARK SMILES IDX 47 55 61 57 82 58 49 59 33 60 34 61 42 62 35 63 36 64 40 65
REMARK SMILES IDX 43 66 37 67 38 68 41 69 39 70 65 71 66 72 74 73 67 74 68 75
REMARK SMILES IDX 72 76 75 77 69 78 70 79 73 80 71 81 50 82 51 83 59 84 52 85
REMARK SMILES IDX 53 86 57 87 60 88 54 89 55 90 58 91 56 92
REMARK H PARENT 80 45 48 56
REMARK Flexibility Score: inf
ROOT
ATOM      1  C   UNL A   1      41.469  20.956  26.886  1.00  0.00     0.188 C 
ENDROOT
BRANCH   1   2
ATOM      2  C   UNL A   1      40.125  21.718  26.819  1.00  0.00     0.188 C 
BRANCH   2   3
ATOM      3  O   UNL A   1      39.204  21.461  25.773  1.00  0.00    -0.376 OA
BRANCH   3   4
ATOM      4  C   UNL A   1      38.006  22.218  25.745  1.00  0.00     0.202 C 
BRANCH   4   5
ATOM      5  C   UNL A   1      36.799  21.519  25.110  1.00  0.00     0.261 C 
BRANCH   5   6
ATOM      6  O   UNL A   1      35.838  21.145  26.124  1.00  0.00    -0.463 OA
BRANCH   6   7
ATOM      7  C   UNL A   1      34.541  21.129  25.715  1.00  0.00     0.309 C 
ATOM      8  O   UNL A   1      33.977  20.161  25.261  1.00  0.00    -0.252 OA
BRANCH   7   9
ATOM      9  C   UNL A   1      33.762  22.356  26.116  1.00  0.00     0.110 C 
ATOM     10  C   UNL A   1      32.334  22.579  26.566  1.00  0.00     0.073 C 
ATOM     11  C   UNL A   1      33.399  22.340  27.586  1.00  0.00     0.028 C 
BRANCH  10  12
ATOM     12  C   UNL A   1      31.679  23.997  26.524  1.00  0.00     0.141 A 
ATOM     13  C   UNL A   1      32.560  29.334  24.914  1.00  0.00     0.044 C 
ATOM     14  C   UNL A   1      32.373  27.942  25.459  1.00  0.00    -0.046 A 
ATOM     15  C   UNL A   1      33.562  27.114  25.637  1.00  0.00     0.022 A 
ATOM     16  C   UNL A   1      31.159  27.441  25.776  1.00  0.00     0.053 A 
ATOM     17  C   UNL A   1      33.432  25.833  26.038  1.00  0.00     0.095 A 
ATOM     18  C   UNL A   1      31.024  26.085  26.203  1.00  0.00     0.161 A 
ATOM     19  N   UNL A   1      32.167  25.287  26.277  1.00  0.00    -0.286 N 
ATOM     20  N   UNL A   1      29.966  25.370  26.501  1.00  0.00    -0.130 NA
ATOM     21  N   UNL A   1      30.374  24.078  26.712  1.00  0.00    -0.134 NA
ENDBRANCH  10  12
ENDBRANCH   7   9
ENDBRANCH   6   7
ENDBRANCH   5   6
ENDBRANCH   4   5
ENDBRANCH   3   4
ENDBRANCH   2   3
ENDBRANCH   1   2
BRANCH   1  22
ATOM     22  O   UNL A   1      41.882  20.225  25.747  1.00  0.00    -0.376 OA
BRANCH  22  23
ATOM     23  C   UNL A   1      42.642  19.044  25.987  1.00  0.00     0.202 C 
BRANCH  23  24
ATOM     24  C   UNL A   1      43.874  18.831  25.088  1.00  0.00     0.261 C 
BRANCH  24  25
ATOM     25  O   UNL A   1      44.149  20.022  24.317  1.00  0.00    -0.460 OA
BRANCH  25  26
ATOM     26  C   UNL A   1      45.257  20.730  24.662  1.00  0.00     0.338 C 
ATOM     27  O   UNL A   1      46.392  20.552  24.263  1.00  0.00    -0.246 OA
BRANCH  26  28
ATOM     28  C   UNL A   1      44.778  21.986  25.301  1.00  0.00     0.060 A 
ATOM     29  C   UNL A   1      43.844  22.845  24.708  1.00  0.00     0.016 A 
ATOM     30  C   UNL A   1      45.491  22.418  26.420  1.00  0.00     0.016 A 
ATOM     31  C   UNL A   1      43.692  24.162  25.191  1.00  0.00     0.010 A 
ATOM     32  C   UNL A   1      45.347  23.733  26.864  1.00  0.00     0.010 A 
ATOM     33  C   UNL A   1      44.477  24.640  26.253  1.00  0.00    -0.014 A 
BRANCH  33  34
ATOM     34  C   UNL A   1      44.116  25.881  26.989  1.00  0.00     0.031 A 
ATOM     35  C   UNL A   1      45.030  26.997  26.663  1.00  0.00     0.074 A 
ATOM     36  C   UNL A   1      43.045  26.198  27.769  1.00  0.00     0.049 A 
ATOM     37  N   UNL A   1      45.647  27.712  27.543  1.00  0.00    -0.248 NA
ATOM     38  C   UNL A   1      45.369  27.320  25.272  1.00  0.00     0.031 C 
ATOM     39  C   UNL A   1      42.012  25.312  28.275  1.00  0.00     0.029 A 
ATOM     40  N   UNL A   1      42.596  27.429  28.229  1.00  0.00    -0.354 N 
ATOM     41  C   UNL A   1      46.308  28.693  26.834  1.00  0.00     0.074 A 
ATOM     42  C   UNL A   1      46.178  28.368  25.437  1.00  0.00     0.031 C 
ATOM     43  C   UNL A   1      40.933  26.015  28.698  1.00  0.00     0.029 A 
ATOM     44  C   UNL A   1      41.271  27.428  28.686  1.00  0.00     0.049 A 
ATOM     45  H   UNL A   1      43.160  28.236  28.233  1.00  0.00     0.167 HD
ATOM     46  C   UNL A   1      46.698  29.822  27.470  1.00  0.00     0.037 A 
ATOM     47  C   UNL A   1      40.517  28.444  29.185  1.00  0.00     0.037 A 
ATOM     48  C   UNL A   1      46.747  29.653  28.898  1.00  0.00     0.049 A 
ATOM     49  C   UNL A   1      41.437  29.293  29.963  1.00  0.00     0.074 A 
ATOM     50  C   UNL A   1      47.615  29.073  29.796  1.00  0.00     0.029 A 
ATOM     51  N   UNL A   1      45.562  29.840  29.548  1.00  0.00    -0.354 N 
ATOM     52  N   UNL A   1      41.996  28.895  31.070  1.00  0.00    -0.248 NA
ATOM     53  C   UNL A   1      41.900  30.572  29.440  1.00  0.00     0.031 C 
ATOM     54  C   UNL A   1      46.873  28.825  30.989  1.00  0.00     0.029 A 
ATOM     55  C   UNL A   1      45.570  29.260  30.793  1.00  0.00     0.049 A 
ATOM     56  H   UNL A   1      44.795  30.331  29.172  1.00  0.00     0.167 HD
ATOM     57  C   UNL A   1      43.168  29.607  31.102  1.00  0.00     0.074 A 
ATOM     58  C   UNL A   1      42.955  30.757  30.237  1.00  0.00     0.031 C 
ATOM     59  C   UNL A   1      44.323  28.988  31.465  1.00  0.00     0.037 A 
BRANCH  46  60
ATOM     60  C   UNL A   1      46.612  31.181  26.843  1.00  0.00     0.064 A 
ATOM     61  C   UNL A   1      47.735  32.024  26.877  1.00  0.00     0.173 A 
ATOM     62  C   UNL A   1      45.384  31.787  26.502  1.00  0.00     0.173 A 
ATOM     63  F   UNL A   1      48.936  31.544  27.233  1.00  0.00    -0.203 F 
ATOM     64  C   UNL A   1      47.627  33.393  26.625  1.00  0.00     0.198 A 
ATOM     65  C   UNL A   1      45.289  33.144  26.206  1.00  0.00     0.198 A 
ATOM     66  F   UNL A   1      44.226  31.114  26.562  1.00  0.00    -0.203 F 
ATOM     67  F   UNL A   1      48.701  34.181  26.770  1.00  0.00    -0.200 F 
ATOM     68  C   UNL A   1      46.405  33.951  26.290  1.00  0.00     0.200 A 
ATOM     69  F   UNL A   1      44.092  33.673  25.917  1.00  0.00    -0.200 F 
ATOM     70  F   UNL A   1      46.292  35.271  26.100  1.00  0.00    -0.200 F 
ENDBRANCH  46  60
BRANCH  47  71
ATOM     71  C   UNL A   1      39.053  28.716  29.240  1.00  0.00     0.064 A 
ATOM     72  C   UNL A   1      38.341  28.701  30.459  1.00  0.00     0.173 A 
ATOM     73  C   UNL A   1      38.398  29.321  28.154  1.00  0.00     0.173 A 
ATOM     74  F   UNL A   1      38.889  28.170  31.561  1.00  0.00    -0.203 F 
ATOM     75  C   UNL A   1      37.087  29.305  30.597  1.00  0.00     0.198 A 
ATOM     76  C   UNL A   1      37.139  29.923  28.293  1.00  0.00     0.198 A 
ATOM     77  F   UNL A   1      39.013  29.424  26.967  1.00  0.00    -0.203 F 
ATOM     78  F   UNL A   1      36.488  29.336  31.797  1.00  0.00    -0.200 F 
ATOM     79  C   UNL A   1      36.495  29.933  29.518  1.00  0.00     0.200 A 
ATOM     80  F   UNL A   1      36.586  30.560  27.251  1.00  0.00    -0.200 F 
ATOM     81  F   UNL A   1      35.331  30.582  29.670  1.00  0.00    -0.200 F 
ENDBRANCH  47  71
BRANCH  59  82
ATOM     82  C   UNL A   1      44.237  27.828  32.409  1.00  0.00     0.064 A 
ATOM     83  C   UNL A   1      44.007  27.939  33.791  1.00  0.00     0.173 A 
ATOM     84  C   UNL A   1      44.316  26.536  31.876  1.00  0.00     0.173 A 
ATOM     85  F   UNL A   1      43.861  29.134  34.370  1.00  0.00    -0.203 F 
ATOM     86  C   UNL A   1      43.881  26.810  34.599  1.00  0.00     0.198 A 
ATOM     87  C   UNL A   1      44.155  25.410  32.677  1.00  0.00     0.198 A 
ATOM     88  F   UNL A   1      44.512  26.367  30.559  1.00  0.00    -0.203 F 
ATOM     89  F   UNL A   1      43.669  26.947  35.916  1.00  0.00    -0.200 F 
ATOM     90  C   UNL A   1      43.943  25.546  34.039  1.00  0.00     0.200 A 
ATOM     91  F   UNL A   1      44.183  24.190  32.124  1.00  0.00    -0.200 F 
ATOM     92  F   UNL A   1      43.776  24.460  34.806  1.00  0.00    -0.200 F 
ENDBRANCH  59  82
ENDBRANCH  33  34
ENDBRANCH  26  28
ENDBRANCH  25  26
ENDBRANCH  24  25
ENDBRANCH  23  24
ENDBRANCH  22  23
ENDBRANCH   1  22
TORSDOF 18
ENDMDL
MODEL 2
REMARK VINA RESULT:     -11.2      2.086      3.579
REMARK SMILES Cc1ccn2c([C@@H]3C[C@H]3C(=O)OCCOCCOCCOC(=O)c3ccc(-c4c5nc(c(-c6c(F)c(F)c(F)c(F)c6F)c6ccc([nH]6)c(-c6c(F)c(F)c(F)c(F)c6F)c6nc(c(-c7c(F)c(F)c(F)c(F)c7F)c7ccc4[nH]7)C=C6)C=C5)cc3)nnc2c1
REMARK SMILES IDX 17 1 16 2 15 3 14 4 13 5 12 6 10 7 11 8 9 9 7 10 8 11 6 12
REMARK SMILES IDX 1 13 2 14 3 15 90 16 4 17 89 18 5 19 88 20 87 21 18 22 19 23
REMARK SMILES IDX 20 24 21 25 22 26 23 27 24 28 25 29 86 30 26 31 85 32 27 33
REMARK SMILES IDX 28 34 29 35 79 36 30 37 84 38 78 39 80 40 31 41 83 42 77 43
REMARK SMILES IDX 76 44 32 46 64 47 44 48 63 49 45 50 48 51 62 52 81 53 46 54
REMARK SMILES IDX 47 55 61 57 82 58 49 59 33 60 34 61 42 62 35 63 36 64 40 65
REMARK SMILES IDX 43 66 37 67 38 68 41 69 39 70 65 71 66 72 74 73 67 74 68 75
REMARK SMILES IDX 72 76 75 77 69 78 70 79 73 80 71 81 50 82 51 83 59 84 52 85
REMARK SMILES IDX 53 86 57 87 60 88 54 89 55 90 58 91 56 92
REMARK H PARENT 80 45 48 56
REMARK Flexibility Score: inf
ROOT
ATOM      1  C   UNL A   1      41.349  19.205  26.078  1.00  0.00     0.188 C 
ENDROOT
BRANCH   1   2
ATOM      2  C   UNL A   1      41.572  19.914  27.434  1.00  0.00     0.188 C 
BRANCH   2   3
ATOM      3  O   UNL A   1      40.786  21.035  27.798  1.00  0.00    -0.376 OA
BRANCH   3   4
ATOM      4  C   UNL A   1      41.055  22.270  27.156  1.00  0.00     0.202 C 
BRANCH   4   5
ATOM      5  C   UNL A   1      39.827  23.027  26.641  1.00  0.00     0.261 C 
BRANCH   5   6
ATOM      6  O   UNL A   1      38.778  22.100  26.273  1.00  0.00    -0.463 OA
BRANCH   6   7
ATOM      7  C   UNL A   1      37.552  22.659  26.081  1.00  0.00     0.309 C 
ATOM      8  O   UNL A   1      37.337  23.847  26.057  1.00  0.00    -0.252 OA
BRANCH   7   9
ATOM      9  C   UNL A   1      36.501  21.675  25.632  1.00  0.00     0.110 C 
ATOM     10  C   UNL A   1      35.337  21.767  24.669  1.00  0.00     0.073 C 
ATOM     11  C   UNL A   1      36.667  21.297  24.175  1.00  0.00     0.028 C 
BRANCH  10  12
ATOM     12  C   UNL A   1      34.170  20.729  24.701  1.00  0.00     0.141 A 
ATOM     13  C   UNL A   1      33.020  15.244  25.361  1.00  0.00     0.044 C 
ATOM     14  C   UNL A   1      33.335  16.685  25.057  1.00  0.00    -0.046 A 
ATOM     15  C   UNL A   1      34.707  17.020  24.687  1.00  0.00     0.022 A 
ATOM     16  C   UNL A   1      32.406  17.663  25.125  1.00  0.00     0.053 A 
ATOM     17  C   UNL A   1      35.053  18.309  24.493  1.00  0.00     0.095 A 
ATOM     18  C   UNL A   1      32.773  19.027  24.917  1.00  0.00     0.161 A 
ATOM     19  N   UNL A   1      34.111  19.331  24.654  1.00  0.00    -0.286 N 
ATOM     20  N   UNL A   1      32.076  20.135  24.989  1.00  0.00    -0.130 NA
ATOM     21  N   UNL A   1      32.940  21.190  24.842  1.00  0.00    -0.134 NA
ENDBRANCH  10  12
ENDBRANCH   7   9
ENDBRANCH   6   7
ENDBRANCH   5   6
ENDBRANCH   4   5
ENDBRANCH   3   4
ENDBRANCH   2   3
ENDBRANCH   1   2
BRANCH   1  22
ATOM     22  O   UNL A   1      42.461  19.034  25.221  1.00  0.00    -0.376 OA
BRANCH  22  23
ATOM     23  C   UNL A   1      43.597  18.373  25.773  1.00  0.00     0.202 C 
BRANCH  23  24
ATOM     24  C   UNL A   1      44.957  18.702  25.130  1.00  0.00     0.261 C 
BRANCH  24  25
ATOM     25  O   UNL A   1      45.293  20.091  25.342  1.00  0.00    -0.460 OA
BRANCH  25  26
ATOM     26  C   UNL A   1      44.912  20.965  24.373  1.00  0.00     0.338 C 
ATOM     27  O   UNL A   1      44.608  20.699  23.226  1.00  0.00    -0.246 OA
BRANCH  26  28
ATOM     28  C   UNL A   1      44.561  22.237  25.061  1.00  0.00     0.060 A 
ATOM     29  C   UNL A   1      43.665  23.176  24.536  1.00  0.00     0.016 A 
ATOM     30  C   UNL A   1      45.359  22.589  26.150  1.00  0.00     0.016 A 
ATOM     31  C   UNL A   1      43.635  24.489  25.052  1.00  0.00     0.010 A 
ATOM     32  C   UNL A   1      45.336  23.900  26.627  1.00  0.00     0.010 A 
ATOM     33  C   UNL A   1      44.506  24.882  26.081  1.00  0.00    -0.014 A 
BRANCH  33  34
ATOM     34  C   UNL A   1      44.275  26.128  26.860  1.00  0.00     0.031 A 
ATOM     35  C   UNL A   1      45.312  27.147  26.584  1.00  0.00     0.074 A 
ATOM     36  C   UNL A   1      43.237  26.534  27.643  1.00  0.00     0.049 A 
ATOM     37  N   UNL A   1      45.993  27.756  27.494  1.00  0.00    -0.248 NA
ATOM     38  C   UNL A   1      45.702  27.480  25.209  1.00  0.00     0.031 C 
ATOM     39  C   UNL A   1      42.106  25.751  28.106  1.00  0.00     0.029 A 
ATOM     40  N   UNL A   1      42.921  27.790  28.144  1.00  0.00    -0.354 N 
ATOM     41  C   UNL A   1      46.767  28.683  26.828  1.00  0.00     0.074 A 
ATOM     42  C   UNL A   1      46.620  28.425  25.419  1.00  0.00     0.031 C 
ATOM     43  C   UNL A   1      41.106  26.554  28.546  1.00  0.00     0.029 A 
ATOM     44  C   UNL A   1      41.599  27.920  28.590  1.00  0.00     0.049 A 
ATOM     45  H   UNL A   1      43.571  28.528  28.183  1.00  0.00     0.167 HD
ATOM     46  C   UNL A   1      47.272  29.738  27.508  1.00  0.00     0.037 A 
ATOM     47  C   UNL A   1      40.957  28.995  29.121  1.00  0.00     0.037 A 
ATOM     48  C   UNL A   1      47.285  29.513  28.930  1.00  0.00     0.049 A 
ATOM     49  C   UNL A   1      41.955  29.707  29.937  1.00  0.00     0.074 A 
ATOM     50  C   UNL A   1      48.072  28.808  29.813  1.00  0.00     0.029 A 
ATOM     51  N   UNL A   1      46.119  29.807  29.577  1.00  0.00    -0.354 N 
ATOM     52  N   UNL A   1      42.452  29.210  31.033  1.00  0.00    -0.248 NA
ATOM     53  C   UNL A   1      42.563  30.945  29.466  1.00  0.00     0.031 C 
ATOM     54  C   UNL A   1      47.293  28.601  30.989  1.00  0.00     0.029 A 
ATOM     55  C   UNL A   1      46.049  29.185  30.799  1.00  0.00     0.049 A 
ATOM     56  H   UNL A   1      45.416  30.394  29.213  1.00  0.00     0.167 HD
ATOM     57  C   UNL A   1      43.695  29.785  31.101  1.00  0.00     0.074 A 
ATOM     58  C   UNL A   1      43.622  30.983  30.278  1.00  0.00     0.031 C 
ATOM     59  C   UNL A   1      44.771  29.029  31.450  1.00  0.00     0.037 A 
BRANCH  46  60
ATOM     60  C   UNL A   1      47.345  31.120  26.933  1.00  0.00     0.064 A 
ATOM     61  C   UNL A   1      48.573  31.803  26.942  1.00  0.00     0.173 A 
ATOM     62  C   UNL A   1      46.197  31.897  26.669  1.00  0.00     0.173 A 
ATOM     63  F   UNL A   1      49.711  31.153  27.227  1.00  0.00    -0.203 F 
ATOM     64  C   UNL A   1      48.640  33.183  26.742  1.00  0.00     0.198 A 
ATOM     65  C   UNL A   1      46.275  33.265  26.423  1.00  0.00     0.198 A 
ATOM     66  F   UNL A   1      44.962  31.384  26.760  1.00  0.00    -0.203 F 
ATOM     67  F   UNL A   1      49.816  33.814  26.863  1.00  0.00    -0.200 F 
ATOM     68  C   UNL A   1      47.492  33.913  26.483  1.00  0.00     0.200 A 
ATOM     69  F   UNL A   1      45.150  33.961  26.207  1.00  0.00    -0.200 F 
ATOM     70  F   UNL A   1      47.551  35.243  26.342  1.00  0.00    -0.200 F 
ENDBRANCH  46  60
BRANCH  47  71
ATOM     71  C   UNL A   1      39.531  29.426  29.173  1.00  0.00     0.064 A 
ATOM     72  C   UNL A   1      38.767  29.606  28.000  1.00  0.00     0.173 A 
ATOM     73  C   UNL A   1      38.803  29.341  30.373  1.00  0.00     0.173 A 
ATOM     74  F   UNL A   1      39.364  29.673  26.802  1.00  0.00    -0.203 F 
ATOM     75  C   UNL A   1      37.369  29.637  28.019  1.00  0.00     0.198 A 
ATOM     76  C   UNL A   1      37.401  29.375  30.390  1.00  0.00     0.198 A 
ATOM     77  F   UNL A   1      39.438  29.123  31.533  1.00  0.00    -0.203 F 
ATOM     78  F   UNL A   1      36.687  29.728  26.867  1.00  0.00    -0.200 F 
ATOM     79  C   UNL A   1      36.685  29.502  29.212  1.00  0.00     0.200 A 
ATOM     80  F   UNL A   1      36.745  29.210  31.548  1.00  0.00    -0.200 F 
ATOM     81  F   UNL A   1      35.345  29.450  29.222  1.00  0.00    -0.200 F 
ENDBRANCH  47  71
BRANCH  59  82
ATOM     82  C   UNL A   1      44.545  27.853  32.350  1.00  0.00     0.064 A 
ATOM     83  C   UNL A   1      44.387  26.529  31.908  1.00  0.00     0.173 A 
ATOM     84  C   UNL A   1      44.563  28.068  33.733  1.00  0.00     0.173 A 
ATOM     85  F   UNL A   1      44.416  26.230  30.606  1.00  0.00    -0.203 F 
ATOM     86  C   UNL A   1      44.238  25.475  32.809  1.00  0.00     0.198 A 
ATOM     87  C   UNL A   1      44.450  27.011  34.632  1.00  0.00     0.198 A 
ATOM     88  F   UNL A   1      44.733  29.309  34.216  1.00  0.00    -0.203 F 
ATOM     89  F   UNL A   1      44.082  24.222  32.357  1.00  0.00    -0.200 F 
ATOM     90  C   UNL A   1      44.282  25.716  34.171  1.00  0.00     0.200 A 
ATOM     91  F   UNL A   1      44.526  27.247  35.949  1.00  0.00    -0.200 F 
ATOM     92  F   UNL A   1      44.185  24.699  35.039  1.00  0.00    -0.200 F 
ENDBRANCH  59  82
ENDBRANCH  33  34
ENDBRANCH  26  28
ENDBRANCH  25  26
ENDBRANCH  24  25
ENDBRANCH  23  24
ENDBRANCH  22  23
ENDBRANCH   1  22
TORSDOF 18
ENDMDL
MODEL 3
REMARK VINA RESULT:     -11.1      5.226     11.088
REMARK SMILES Cc1ccn2c([C@@H]3C[C@H]3C(=O)OCCOCCOCCOC(=O)c3ccc(-c4c5nc(c(-c6c(F)c(F)c(F)c(F)c6F)c6ccc([nH]6)c(-c6c(F)c(F)c(F)c(F)c6F)c6nc(c(-c7c(F)c(F)c(F)c(F)c7F)c7ccc4[nH]7)C=C6)C=C5)cc3)nnc2c1
REMARK SMILES IDX 17 1 16 2 15 3 14 4 13 5 12 6 10 7 11 8 9 9 7 10 8 11 6 12
REMARK SMILES IDX 1 13 2 14 3 15 90 16 4 17 89 18 5 19 88 20 87 21 18 22 19 23
REMARK SMILES IDX 20 24 21 25 22 26 23 27 24 28 25 29 86 30 26 31 85 32 27 33
REMARK SMILES IDX 28 34 29 35 79 36 30 37 84 38 78 39 80 40 31 41 83 42 77 43
REMARK SMILES IDX 76 44 32 46 64 47 44 48 63 49 45 50 48 51 62 52 81 53 46 54
REMARK SMILES IDX 47 55 61 57 82 58 49 59 33 60 34 61 42 62 35 63 36 64 40 65
REMARK SMILES IDX 43 66 37 67 38 68 41 69 39 70 65 71 66 72 74 73 67 74 68 75
REMARK SMILES IDX 72 76 75 77 69 78 70 79 73 80 71 81 50 82 51 83 59 84 52 85
REMARK SMILES IDX 53 86 57 87 60 88 54 89 55 90 58 91 56 92
REMARK H PARENT 80 45 48 56
REMARK Flexibility Score: inf
ROOT
ATOM      1  C   UNL A   1      34.704  35.100  32.401  1.00  0.00     0.188 C 
ENDROOT
BRANCH   1   2
ATOM      2  C   UNL A   1      36.226  34.851  32.520  1.00  0.00     0.188 C 
BRANCH   2   3
ATOM      3  O   UNL A   1      36.858  34.848  33.788  1.00  0.00    -0.376 OA
BRANCH   3   4
ATOM      4  C   UNL A   1      36.334  33.990  34.787  1.00  0.00     0.202 C 
BRANCH   4   5
ATOM      5  C   UNL A   1      37.361  33.103  35.499  1.00  0.00     0.261 C 
BRANCH   5   6
ATOM      6  O   UNL A   1      37.303  31.751  34.990  1.00  0.00    -0.463 OA
BRANCH   6   7
ATOM      7  C   UNL A   1      38.503  31.114  34.899  1.00  0.00     0.309 C 
ATOM      8  O   UNL A   1      38.767  30.069  35.443  1.00  0.00    -0.252 OA
BRANCH   7   9
ATOM      9  C   UNL A   1      39.412  31.684  33.839  1.00  0.00     0.110 C 
ATOM     10  C   UNL A   1      40.117  33.014  33.681  1.00  0.00     0.073 C 
ATOM     11  C   UNL A   1      40.823  31.881  34.351  1.00  0.00     0.028 C 
BRANCH  10  12
ATOM     12  C   UNL A   1      40.662  33.487  32.296  1.00  0.00     0.141 A 
ATOM     13  C   UNL A   1      45.407  34.378  29.373  1.00  0.00     0.044 C 
ATOM     14  C   UNL A   1      44.147  34.264  30.191  1.00  0.00    -0.046 A 
ATOM     15  C   UNL A   1      44.279  34.225  31.644  1.00  0.00     0.022 A 
ATOM     16  C   UNL A   1      42.921  34.188  29.631  1.00  0.00     0.053 A 
ATOM     17  C   UNL A   1      43.185  34.035  32.410  1.00  0.00     0.095 A 
ATOM     18  C   UNL A   1      41.764  33.989  30.444  1.00  0.00     0.161 A 
ATOM     19  N   UNL A   1      41.926  33.865  31.825  1.00  0.00    -0.286 N 
ATOM     20  N   UNL A   1      40.500  33.827  30.132  1.00  0.00    -0.130 NA
ATOM     21  N   UNL A   1      39.815  33.528  31.282  1.00  0.00    -0.134 NA
ENDBRANCH  10  12
ENDBRANCH   7   9
ENDBRANCH   6   7
ENDBRANCH   5   6
ENDBRANCH   4   5
ENDBRANCH   3   4
ENDBRANCH   2   3
ENDBRANCH   1   2
BRANCH   1  22
ATOM     22  O   UNL A   1      33.931  34.172  31.664  1.00  0.00    -0.376 OA
BRANCH  22  23
ATOM     23  C   UNL A   1      34.602  33.462  30.627  1.00  0.00     0.202 C 
BRANCH  23  24
ATOM     24  C   UNL A   1      34.559  34.098  29.225  1.00  0.00     0.261 C 
BRANCH  24  25
ATOM     25  O   UNL A   1      35.389  33.352  28.307  1.00  0.00    -0.460 OA
BRANCH  25  26
ATOM     26  C   UNL A   1      35.014  32.071  28.049  1.00  0.00     0.338 C 
ATOM     27  O   UNL A   1      33.973  31.702  27.540  1.00  0.00    -0.246 OA
BRANCH  26  28
ATOM     28  C   UNL A   1      36.246  31.241  28.137  1.00  0.00     0.060 A 
ATOM     29  C   UNL A   1      36.267  29.863  27.889  1.00  0.00     0.016 A 
ATOM     30  C   UNL A   1      37.354  31.845  28.732  1.00  0.00     0.016 A 
ATOM     31  C   UNL A   1      37.364  29.085  28.315  1.00  0.00     0.010 A 
ATOM     32  C   UNL A   1      38.417  31.056  29.172  1.00  0.00     0.010 A 
ATOM     33  C   UNL A   1      38.440  29.668  29.005  1.00  0.00    -0.014 A 
BRANCH  33  34
ATOM     34  C   UNL A   1      39.736  28.957  29.167  1.00  0.00     0.031 A 
ATOM     35  C   UNL A   1      40.058  28.722  30.592  1.00  0.00     0.074 A 
ATOM     36  C   UNL A   1      40.576  28.377  28.264  1.00  0.00     0.049 A 
ATOM     37  N   UNL A   1      41.178  29.044  31.146  1.00  0.00    -0.248 NA
ATOM     38  C   UNL A   1      39.062  28.165  31.514  1.00  0.00     0.031 C 
ATOM     39  C   UNL A   1      40.530  28.464  26.816  1.00  0.00     0.029 A 
ATOM     40  N   UNL A   1      41.635  27.499  28.451  1.00  0.00    -0.354 N 
ATOM     41  C   UNL A   1      41.109  28.568  32.439  1.00  0.00     0.074 A 
ATOM     42  C   UNL A   1      39.761  28.107  32.649  1.00  0.00     0.031 C 
ATOM     43  C   UNL A   1      41.279  27.487  26.246  1.00  0.00     0.029 A 
ATOM     44  C   UNL A   1      42.034  26.818  27.293  1.00  0.00     0.049 A 
ATOM     45  H   UNL A   1      42.070  27.365  29.324  1.00  0.00     0.167 HD
ATOM     46  C   UNL A   1      42.251  28.379  33.139  1.00  0.00     0.037 A 
ATOM     47  C   UNL A   1      43.013  25.890  27.117  1.00  0.00     0.037 A 
ATOM     48  C   UNL A   1      43.358  29.111  32.581  1.00  0.00     0.049 A 
ATOM     49  C   UNL A   1      44.116  26.285  28.009  1.00  0.00     0.074 A 
ATOM     50  C   UNL A   1      43.787  30.420  32.597  1.00  0.00     0.029 A 
ATOM     51  N   UNL A   1      44.019  28.483  31.565  1.00  0.00    -0.354 N 
ATOM     52  N   UNL A   1      44.824  27.363  27.820  1.00  0.00    -0.248 NA
ATOM     53  C   UNL A   1      44.366  25.569  29.254  1.00  0.00     0.031 C 
ATOM     54  C   UNL A   1      44.662  30.582  31.483  1.00  0.00     0.029 A 
ATOM     55  C   UNL A   1      44.748  29.370  30.813  1.00  0.00     0.049 A 
ATOM     56  H   UNL A   1      43.978  27.514  31.393  1.00  0.00     0.167 HD
ATOM     57  C   UNL A   1      45.223  27.700  29.088  1.00  0.00     0.074 A 
ATOM     58  C   UNL A   1      45.124  26.477  29.872  1.00  0.00     0.031 C 
ATOM     59  C   UNL A   1      45.179  28.999  29.487  1.00  0.00     0.037 A 
BRANCH  46  60
ATOM     60  C   UNL A   1      42.464  27.209  34.051  1.00  0.00     0.064 A 
ATOM     61  C   UNL A   1      42.129  27.328  35.410  1.00  0.00     0.173 A 
ATOM     62  C   UNL A   1      43.270  26.105  33.698  1.00  0.00     0.173 A 
ATOM     63  F   UNL A   1      41.403  28.370  35.843  1.00  0.00    -0.203 F 
ATOM     64  C   UNL A   1      42.605  26.423  36.360  1.00  0.00     0.198 A 
ATOM     65  C   UNL A   1      43.704  25.179  34.643  1.00  0.00     0.198 A 
ATOM     66  F   UNL A   1      43.759  25.957  32.459  1.00  0.00    -0.203 F 
ATOM     67  F   UNL A   1      42.351  26.630  37.659  1.00  0.00    -0.200 F 
ATOM     68  C   UNL A   1      43.392  25.351  35.976  1.00  0.00     0.200 A 
ATOM     69  F   UNL A   1      44.492  24.165  34.258  1.00  0.00    -0.200 F 
ATOM     70  F   UNL A   1      43.891  24.513  36.894  1.00  0.00    -0.200 F 
ENDBRANCH  46  60
BRANCH  47  71
ATOM     71  C   UNL A   1      43.223  24.779  26.146  1.00  0.00     0.064 A 
ATOM     72  C   UNL A   1      44.302  24.783  25.236  1.00  0.00     0.173 A 
ATOM     73  C   UNL A   1      42.572  23.545  26.321  1.00  0.00     0.173 A 
ATOM     74  F   UNL A   1      45.005  25.904  25.018  1.00  0.00    -0.203 F 
ATOM     75  C   UNL A   1      44.739  23.620  24.593  1.00  0.00     0.198 A 
ATOM     76  C   UNL A   1      43.010  22.381  25.674  1.00  0.00     0.198 A 
ATOM     77  F   UNL A   1      41.565  23.433  27.199  1.00  0.00    -0.203 F 
ATOM     78  F   UNL A   1      45.821  23.661  23.802  1.00  0.00    -0.200 F 
ATOM     79  C   UNL A   1      44.105  22.415  24.828  1.00  0.00     0.200 A 
ATOM     80  F   UNL A   1      42.410  21.210  25.932  1.00  0.00    -0.200 F 
ATOM     81  F   UNL A   1      44.573  21.286  24.275  1.00  0.00    -0.200 F 
ENDBRANCH  47  71
BRANCH  59  82
ATOM     82  C   UNL A   1      45.343  30.063  28.445  1.00  0.00     0.064 A 
ATOM     83  C   UNL A   1      44.282  30.736  27.817  1.00  0.00     0.173 A 
ATOM     84  C   UNL A   1      46.642  30.474  28.121  1.00  0.00     0.173 A 
ATOM     85  F   UNL A   1      43.012  30.445  28.113  1.00  0.00    -0.203 F 
ATOM     86  C   UNL A   1      44.512  31.758  26.896  1.00  0.00     0.198 A 
ATOM     87  C   UNL A   1      46.871  31.517  27.228  1.00  0.00     0.198 A 
ATOM     88  F   UNL A   1      47.696  29.884  28.705  1.00  0.00    -0.203 F 
ATOM     89  F   UNL A   1      43.479  32.378  26.308  1.00  0.00    -0.200 F 
ATOM     90  C   UNL A   1      45.807  32.155  26.612  1.00  0.00     0.200 A 
ATOM     91  F   UNL A   1      48.125  31.920  26.982  1.00  0.00    -0.200 F 
ATOM     92  F   UNL A   1      46.029  33.169  25.763  1.00  0.00    -0.200 F 
ENDBRANCH  59  82
ENDBRANCH  33  34
ENDBRANCH  26  28
ENDBRANCH  25  26
ENDBRANCH  24  25
ENDBRANCH  23  24
ENDBRANCH  22  23
ENDBRANCH   1  22
TORSDOF 18
ENDMDL
