MODEL 1
REMARK VINA RESULT:     -13.8      0.000      0.000
REMARK SMILES Cc1ccc(C(=O)c2cccc(C)c2C(=O)OCCOCCOCCOC(=O)c2ccc(-c3c4nc(c(-c5c(F)c(F)c(F)c(F)c5F)c5ccc([nH]5)c(-c5c(F)c(F)c(F)c(F)c5F)c5nc(c(-c6c(F)c(F)c(F)c(F)c6F)c6ccc3[nH]6)C=C5)C=C4)cc2)c(C)c1
REMARK SMILES IDX 21 1 20 2 19 3 18 4 17 5 15 6 16 7 14 8 8 9 9 10 10 11 12 12
REMARK SMILES IDX 11 13 13 14 6 15 7 16 5 17 1 18 2 19 3 20 94 21 4 22 92 23
REMARK SMILES IDX 93 24 22 25 23 26 24 27 25 28 26 29 27 30 28 31 29 32 30 33
REMARK SMILES IDX 91 34 31 35 90 36 32 37 33 38 34 39 84 40 35 41 89 42 83 43
REMARK SMILES IDX 85 44 36 45 88 46 82 47 81 48 37 50 69 51 49 52 68 53 50 54
REMARK SMILES IDX 53 55 67 56 86 57 51 58 52 59 66 61 87 62 54 63 38 64 39 65
REMARK SMILES IDX 47 66 40 67 41 68 45 69 48 70 42 71 43 72 46 73 44 74 70 75
REMARK SMILES IDX 71 76 79 77 72 78 73 79 77 80 80 81 74 82 75 83 78 84 76 85
REMARK SMILES IDX 55 86 56 87 64 88 57 89 58 90 62 91 65 92 59 93 60 94 63 95
REMARK SMILES IDX 61 96
REMARK H PARENT 85 49 53 60
REMARK Flexibility Score: inf
ROOT
ATOM      1  C   UNL A   1      30.289  27.147  23.069  1.00  0.00     0.188 C 
ENDROOT
BRANCH   1   2
ATOM      2  O   UNL A   1      30.912  26.374  22.015  1.00  0.00    -0.376 OA
BRANCH   2   3
ATOM      3  C   UNL A   1      32.302  25.990  21.864  1.00  0.00     0.202 C 
BRANCH   3   4
ATOM      4  C   UNL A   1      33.696  26.251  22.901  1.00  0.00     0.261 C 
BRANCH   4   5
ATOM      5  O   UNL A   1      34.251  25.356  24.309  1.00  0.00    -0.460 OA
BRANCH   5   6
ATOM      6  C   UNL A   1      33.959  24.176  25.149  1.00  0.00     0.339 C 
ATOM      7  O   UNL A   1      34.078  24.101  26.378  1.00  0.00    -0.246 OA
BRANCH   6   8
ATOM      8  C   UNL A   1      33.651  22.805  24.741  1.00  0.00     0.074 A 
ATOM      9  C   UNL A   1      34.746  21.985  24.513  1.00  0.00     0.037 A 
ATOM     10  C   UNL A   1      34.562  20.602  24.688  1.00  0.00     0.013 A 
ATOM     11  C   UNL A   1      33.312  20.038  24.979  1.00  0.00     0.001 A 
ATOM     12  C   UNL A   1      32.338  22.229  25.080  1.00  0.00    -0.036 A 
ATOM     13  C   UNL A   1      32.199  20.841  25.137  1.00  0.00     0.004 A 
ATOM     14  C   UNL A   1      31.043  22.966  25.445  1.00  0.00     0.045 C 
BRANCH   9  15
ATOM     15  C   UNL A   1      36.053  22.592  24.090  1.00  0.00     0.194 C 
ATOM     16  O   UNL A   1      36.231  22.953  22.931  1.00  0.00    -0.289 OA
BRANCH  15  17
ATOM     17  C   UNL A   1      37.233  22.559  24.956  1.00  0.00     0.025 A 
ATOM     18  C   UNL A   1      40.611  23.112  27.507  1.00  0.00     0.044 C 
ATOM     19  C   UNL A   1      39.406  22.903  26.651  1.00  0.00    -0.051 A 
ATOM     20  C   UNL A   1      38.506  23.947  26.457  1.00  0.00     0.004 A 
ATOM     21  C   UNL A   1      39.174  21.662  26.049  1.00  0.00     0.007 A 
ATOM     22  C   UNL A   1      37.418  23.766  25.631  1.00  0.00     0.013 A 
ATOM     23  C   UNL A   1      38.043  21.447  25.250  1.00  0.00    -0.040 A 
ATOM     24  C   UNL A   1      37.792  20.026  24.842  1.00  0.00     0.045 C 
ENDBRANCH  15  17
ENDBRANCH   9  15
ENDBRANCH   6   8
ENDBRANCH   5   6
ENDBRANCH   4   5
ENDBRANCH   3   4
ENDBRANCH   2   3
ENDBRANCH   1   2
BRANCH   1  25
ATOM     25  C   UNL A   1      29.828  28.588  22.971  1.00  0.00     0.188 C 
BRANCH  25  26
ATOM     26  O   UNL A   1      30.344  29.346  24.033  1.00  0.00    -0.376 OA
BRANCH  26  27
ATOM     27  C   UNL A   1      31.375  28.733  24.781  1.00  0.00     0.202 C 
BRANCH  27  28
ATOM     28  C   UNL A   1      32.704  29.523  24.879  1.00  0.00     0.261 C 
BRANCH  28  29
ATOM     29  O   UNL A   1      33.277  29.534  26.216  1.00  0.00    -0.460 OA
BRANCH  29  30
ATOM     30  C   UNL A   1      33.172  30.679  26.979  1.00  0.00     0.338 C 
ATOM     31  O   UNL A   1      32.241  31.472  26.898  1.00  0.00    -0.246 OA
BRANCH  30  32
ATOM     32  C   UNL A   1      34.384  30.870  27.840  1.00  0.00     0.060 A 
ATOM     33  C   UNL A   1      35.259  31.964  27.971  1.00  0.00     0.016 A 
ATOM     34  C   UNL A   1      34.831  29.729  28.382  1.00  0.00     0.016 A 
ATOM     35  C   UNL A   1      36.647  31.813  28.463  1.00  0.00     0.010 A 
ATOM     36  C   UNL A   1      36.202  29.610  28.520  1.00  0.00     0.010 A 
ATOM     37  C   UNL A   1      37.241  30.571  28.694  1.00  0.00    -0.014 A 
BRANCH  37  38
ATOM     38  C   UNL A   1      38.854  30.191  29.215  1.00  0.00     0.031 A 
ATOM     39  C   UNL A   1      39.934  28.787  28.967  1.00  0.00     0.074 A 
ATOM     40  C   UNL A   1      39.477  31.216  29.824  1.00  0.00     0.049 A 
ATOM     41  N   UNL A   1      41.009  28.495  29.669  1.00  0.00    -0.248 NA
ATOM     42  C   UNL A   1      39.836  27.609  27.966  1.00  0.00     0.031 C 
ATOM     43  C   UNL A   1      40.895  31.439  30.077  1.00  0.00     0.029 A 
ATOM     44  N   UNL A   1      38.889  32.360  30.372  1.00  0.00    -0.354 N 
ATOM     45  C   UNL A   1      41.639  27.373  29.068  1.00  0.00     0.074 A 
ATOM     46  C   UNL A   1      40.666  26.677  28.369  1.00  0.00     0.031 C 
ATOM     47  C   UNL A   1      41.009  32.387  31.030  1.00  0.00     0.029 A 
ATOM     48  C   UNL A   1      39.660  32.672  31.495  1.00  0.00     0.049 A 
ATOM     49  H   UNL A   1      38.098  32.844  30.038  1.00  0.00     0.167 HD
ATOM     50  C   UNL A   1      42.989  27.235  28.948  1.00  0.00     0.037 A 
ATOM     51  C   UNL A   1      39.113  32.397  32.710  1.00  0.00     0.037 A 
ATOM     52  C   UNL A   1      43.551  28.095  29.951  1.00  0.00     0.049 A 
ATOM     53  C   UNL A   1      39.916  31.302  33.385  1.00  0.00     0.074 A 
ATOM     54  C   UNL A   1      43.983  29.402  29.974  1.00  0.00     0.029 A 
ATOM     55  N   UNL A   1      43.159  27.780  31.235  1.00  0.00    -0.354 N 
ATOM     56  N   UNL A   1      40.746  30.499  32.761  1.00  0.00    -0.248 NA
ATOM     57  C   UNL A   1      39.949  31.106  34.826  1.00  0.00     0.031 C 
ATOM     58  C   UNL A   1      43.628  29.916  31.271  1.00  0.00     0.029 A 
ATOM     59  C   UNL A   1      43.016  28.908  32.012  1.00  0.00     0.049 A 
ATOM     60  H   UNL A   1      43.000  26.863  31.557  1.00  0.00     0.167 HD
ATOM     61  C   UNL A   1      41.418  29.720  33.656  1.00  0.00     0.074 A 
ATOM     62  C   UNL A   1      40.892  30.154  34.938  1.00  0.00     0.031 C 
ATOM     63  C   UNL A   1      42.342  28.770  33.307  1.00  0.00     0.037 A 
BRANCH  50  64
ATOM     64  C   UNL A   1      43.764  26.454  27.867  1.00  0.00     0.064 A 
ATOM     65  C   UNL A   1      44.035  25.087  28.091  1.00  0.00     0.173 A 
ATOM     66  C   UNL A   1      44.361  26.946  26.672  1.00  0.00     0.173 A 
ATOM     67  F   UNL A   1      43.516  24.451  29.150  1.00  0.00    -0.203 F 
ATOM     68  C   UNL A   1      44.863  24.317  27.253  1.00  0.00     0.198 A 
ATOM     69  C   UNL A   1      45.193  26.180  25.840  1.00  0.00     0.198 A 
ATOM     70  F   UNL A   1      44.186  28.185  26.214  1.00  0.00    -0.203 F 
ATOM     71  F   UNL A   1      45.093  23.031  27.550  1.00  0.00    -0.200 F 
ATOM     72  C   UNL A   1      45.455  24.867  26.136  1.00  0.00     0.200 A 
ATOM     73  F   UNL A   1      45.744  26.743  24.751  1.00  0.00    -0.200 F 
ATOM     74  F   UNL A   1      46.265  24.141  25.353  1.00  0.00    -0.200 F 
ENDBRANCH  50  64
BRANCH  51  75
ATOM     75  C   UNL A   1      37.627  32.697  32.720  1.00  0.00     0.064 A 
ATOM     76  C   UNL A   1      37.250  34.056  32.911  1.00  0.00     0.173 A 
ATOM     77  C   UNL A   1      36.642  31.869  32.168  1.00  0.00     0.173 A 
ATOM     78  F   UNL A   1      38.122  34.917  33.462  1.00  0.00    -0.203 F 
ATOM     79  C   UNL A   1      36.057  34.586  32.410  1.00  0.00     0.198 A 
ATOM     80  C   UNL A   1      35.403  32.395  31.739  1.00  0.00     0.198 A 
ATOM     81  F   UNL A   1      36.904  30.583  31.899  1.00  0.00    -0.203 F 
ATOM     82  F   UNL A   1      35.842  35.910  32.444  1.00  0.00    -0.200 F 
ATOM     83  C   UNL A   1      35.144  33.758  31.798  1.00  0.00     0.200 A 
ATOM     84  F   UNL A   1      34.521  31.598  31.112  1.00  0.00    -0.200 F 
ATOM     85  F   UNL A   1      34.054  34.273  31.207  1.00  0.00    -0.200 F 
ENDBRANCH  51  75
BRANCH  63  86
ATOM     86  C   UNL A   1      42.626  27.551  34.183  1.00  0.00     0.064 A 
ATOM     87  C   UNL A   1      41.638  26.615  34.544  1.00  0.00     0.173 A 
ATOM     88  C   UNL A   1      43.947  27.176  34.542  1.00  0.00     0.173 A 
ATOM     89  F   UNL A   1      40.374  26.718  34.118  1.00  0.00    -0.203 F 
ATOM     90  C   UNL A   1      41.925  25.484  35.308  1.00  0.00     0.198 A 
ATOM     91  C   UNL A   1      44.243  25.974  35.182  1.00  0.00     0.198 A 
ATOM     92  F   UNL A   1      45.011  27.936  34.244  1.00  0.00    -0.203 F 
ATOM     93  F   UNL A   1      40.921  24.699  35.723  1.00  0.00    -0.200 F 
ATOM     94  C   UNL A   1      43.228  25.152  35.611  1.00  0.00     0.200 A 
ATOM     95  F   UNL A   1      45.522  25.613  35.360  1.00  0.00    -0.200 F 
ATOM     96  F   UNL A   1      43.503  24.035  36.295  1.00  0.00    -0.200 F 
ENDBRANCH  63  86
ENDBRANCH  37  38
ENDBRANCH  30  32
ENDBRANCH  29  30
ENDBRANCH  28  29
ENDBRANCH  27  28
ENDBRANCH  26  27
ENDBRANCH  25  26
ENDBRANCH   1  25
TORSDOF 19
ENDMDL
MODEL 2
REMARK VINA RESULT:     -13.4      2.994      6.097
REMARK SMILES Cc1ccc(C(=O)c2cccc(C)c2C(=O)OCCOCCOCCOC(=O)c2ccc(-c3c4nc(c(-c5c(F)c(F)c(F)c(F)c5F)c5ccc([nH]5)c(-c5c(F)c(F)c(F)c(F)c5F)c5nc(c(-c6c(F)c(F)c(F)c(F)c6F)c6ccc3[nH]6)C=C5)C=C4)cc2)c(C)c1
REMARK SMILES IDX 21 1 20 2 19 3 18 4 17 5 15 6 16 7 14 8 8 9 9 10 10 11 12 12
REMARK SMILES IDX 11 13 13 14 6 15 7 16 5 17 1 18 2 19 3 20 94 21 4 22 92 23
REMARK SMILES IDX 93 24 22 25 23 26 24 27 25 28 26 29 27 30 28 31 29 32 30 33
REMARK SMILES IDX 91 34 31 35 90 36 32 37 33 38 34 39 84 40 35 41 89 42 83 43
REMARK SMILES IDX 85 44 36 45 88 46 82 47 81 48 37 50 69 51 49 52 68 53 50 54
REMARK SMILES IDX 53 55 67 56 86 57 51 58 52 59 66 61 87 62 54 63 38 64 39 65
REMARK SMILES IDX 47 66 40 67 41 68 45 69 48 70 42 71 43 72 46 73 44 74 70 75
REMARK SMILES IDX 71 76 79 77 72 78 73 79 77 80 80 81 74 82 75 83 78 84 76 85
REMARK SMILES IDX 55 86 56 87 64 88 57 89 58 90 62 91 65 92 59 93 60 94 63 95
REMARK SMILES IDX 61 96
REMARK H PARENT 85 49 53 60
REMARK Flexibility Score: inf
ROOT
ATOM      1  C   UNL A   1      33.877  33.332  28.241  1.00  0.00     0.188 C 
ENDROOT
BRANCH   1   2
ATOM      2  O   UNL A   1      33.854  31.886  28.296  1.00  0.00    -0.376 OA
BRANCH   2   3
ATOM      3  C   UNL A   1      33.502  30.939  27.255  1.00  0.00     0.202 C 
BRANCH   3   4
ATOM      4  C   UNL A   1      31.977  30.161  26.863  1.00  0.00     0.261 C 
BRANCH   4   5
ATOM      5  O   UNL A   1      31.619  28.861  25.735  1.00  0.00    -0.460 OA
BRANCH   5   6
ATOM      6  C   UNL A   1      31.394  27.404  25.645  1.00  0.00     0.339 C 
ATOM      7  O   UNL A   1      31.020  26.660  26.559  1.00  0.00    -0.246 OA
BRANCH   6   8
ATOM      8  C   UNL A   1      31.722  26.483  24.555  1.00  0.00     0.074 A 
ATOM      9  C   UNL A   1      30.903  26.558  23.438  1.00  0.00     0.037 A 
ATOM     10  C   UNL A   1      31.459  26.170  22.206  1.00  0.00     0.013 A 
ATOM     11  C   UNL A   1      32.748  25.628  22.097  1.00  0.00     0.001 A 
ATOM     12  C   UNL A   1      33.090  25.947  24.451  1.00  0.00    -0.036 A 
ATOM     13  C   UNL A   1      33.545  25.482  23.215  1.00  0.00     0.004 A 
ATOM     14  C   UNL A   1      34.163  25.861  25.544  1.00  0.00     0.045 C 
BRANCH   9  15
ATOM     15  C   UNL A   1      29.486  27.033  23.586  1.00  0.00     0.194 C 
ATOM     16  O   UNL A   1      28.605  26.269  23.969  1.00  0.00    -0.289 OA
BRANCH  15  17
ATOM     17  C   UNL A   1      29.050  28.328  23.061  1.00  0.00     0.025 A 
ATOM     18  C   UNL A   1      28.409  32.212  21.410  1.00  0.00     0.044 C 
ATOM     19  C   UNL A   1      28.617  30.835  21.948  1.00  0.00    -0.051 A 
ATOM     20  C   UNL A   1      29.844  30.201  21.773  1.00  0.00     0.004 A 
ATOM     21  C   UNL A   1      27.582  30.178  22.622  1.00  0.00     0.007 A 
ATOM     22  C   UNL A   1      30.048  28.949  22.310  1.00  0.00     0.013 A 
ATOM     23  C   UNL A   1      27.758  28.882  23.127  1.00  0.00    -0.040 A 
ATOM     24  C   UNL A   1      26.519  28.205  23.632  1.00  0.00     0.045 C 
ENDBRANCH  15  17
ENDBRANCH   9  15
ENDBRANCH   6   8
ENDBRANCH   5   6
ENDBRANCH   4   5
ENDBRANCH   3   4
ENDBRANCH   2   3
ENDBRANCH   1   2
BRANCH   1  25
ATOM     25  C   UNL A   1      34.101  34.270  29.412  1.00  0.00     0.188 C 
BRANCH  25  26
ATOM     26  O   UNL A   1      32.940  35.006  29.685  1.00  0.00    -0.376 OA
BRANCH  26  27
ATOM     27  C   UNL A   1      33.077  36.038  30.641  1.00  0.00     0.202 C 
BRANCH  27  28
ATOM     28  C   UNL A   1      32.615  35.697  32.080  1.00  0.00     0.261 C 
BRANCH  28  29
ATOM     29  O   UNL A   1      33.703  35.307  32.963  1.00  0.00    -0.460 OA
BRANCH  29  30
ATOM     30  C   UNL A   1      34.059  33.977  33.039  1.00  0.00     0.338 C 
ATOM     31  O   UNL A   1      33.261  33.064  33.218  1.00  0.00    -0.246 OA
BRANCH  30  32
ATOM     32  C   UNL A   1      35.547  33.809  32.971  1.00  0.00     0.060 A 
ATOM     33  C   UNL A   1      36.502  34.380  32.108  1.00  0.00     0.016 A 
ATOM     34  C   UNL A   1      35.994  32.772  33.691  1.00  0.00     0.016 A 
ATOM     35  C   UNL A   1      37.815  33.746  31.851  1.00  0.00     0.010 A 
ATOM     36  C   UNL A   1      37.075  32.082  33.170  1.00  0.00     0.010 A 
ATOM     37  C   UNL A   1      38.151  32.476  32.321  1.00  0.00    -0.014 A 
BRANCH  37  38
ATOM     38  C   UNL A   1      39.603  31.552  32.083  1.00  0.00     0.031 A 
ATOM     39  C   UNL A   1      39.981  30.055  31.180  1.00  0.00     0.074 A 
ATOM     40  C   UNL A   1      40.705  32.150  32.569  1.00  0.00     0.049 A 
ATOM     41  N   UNL A   1      41.047  29.298  31.333  1.00  0.00    -0.248 NA
ATOM     42  C   UNL A   1      39.162  29.296  30.106  1.00  0.00     0.031 C 
ATOM     43  C   UNL A   1      42.112  31.911  32.274  1.00  0.00     0.029 A 
ATOM     44  N   UNL A   1      40.764  33.191  33.500  1.00  0.00    -0.354 N 
ATOM     45  C   UNL A   1      41.016  28.283  30.342  1.00  0.00     0.074 A 
ATOM     46  C   UNL A   1      39.692  28.104  29.972  1.00  0.00     0.031 C 
ATOM     47  C   UNL A   1      42.849  32.468  33.258  1.00  0.00     0.029 A 
ATOM     48  C   UNL A   1      41.909  32.943  34.262  1.00  0.00     0.049 A 
ATOM     49  H   UNL A   1      40.132  33.940  33.599  1.00  0.00     0.167 HD
ATOM     50  C   UNL A   1      42.119  27.840  29.674  1.00  0.00     0.037 A 
ATOM     51  C   UNL A   1      41.715  32.471  35.523  1.00  0.00     0.037 A 
ATOM     52  C   UNL A   1      43.234  28.186  30.508  1.00  0.00     0.049 A 
ATOM     53  C   UNL A   1      42.252  31.055  35.617  1.00  0.00     0.074 A 
ATOM     54  C   UNL A   1      44.082  29.267  30.593  1.00  0.00     0.029 A 
ATOM     55  N   UNL A   1      43.185  27.617  31.764  1.00  0.00    -0.354 N 
ATOM     56  N   UNL A   1      42.501  30.288  34.582  1.00  0.00    -0.248 NA
ATOM     57  C   UNL A   1      42.669  30.438  36.866  1.00  0.00     0.031 C 
ATOM     58  C   UNL A   1      44.362  29.446  31.994  1.00  0.00     0.029 A 
ATOM     59  C   UNL A   1      43.703  28.459  32.723  1.00  0.00     0.049 A 
ATOM     60  H   UNL A   1      42.825  26.720  31.952  1.00  0.00     0.167 HD
ATOM     61  C   UNL A   1      43.103  29.131  34.982  1.00  0.00     0.074 A 
ATOM     62  C   UNL A   1      43.199  29.285  36.423  1.00  0.00     0.031 C 
ATOM     63  C   UNL A   1      43.472  28.122  34.130  1.00  0.00     0.037 A 
BRANCH  50  64
ATOM     64  C   UNL A   1      42.183  27.243  28.253  1.00  0.00     0.064 A 
ATOM     65  C   UNL A   1      42.454  25.865  28.116  1.00  0.00     0.173 A 
ATOM     66  C   UNL A   1      42.109  27.917  27.002  1.00  0.00     0.173 A 
ATOM     67  F   UNL A   1      42.517  25.069  29.192  1.00  0.00    -0.203 F 
ATOM     68  C   UNL A   1      42.689  25.244  26.875  1.00  0.00     0.198 A 
ATOM     69  C   UNL A   1      42.351  27.300  25.764  1.00  0.00     0.198 A 
ATOM     70  F   UNL A   1      41.793  29.206  26.874  1.00  0.00    -0.203 F 
ATOM     71  F   UNL A   1      42.967  23.934  26.831  1.00  0.00    -0.200 F 
ATOM     72  C   UNL A   1      42.654  25.965  25.700  1.00  0.00     0.200 A 
ATOM     73  F   UNL A   1      42.295  28.028  24.636  1.00  0.00    -0.200 F 
ATOM     74  F   UNL A   1      42.905  25.379  24.521  1.00  0.00    -0.200 F 
ENDBRANCH  50  64
BRANCH  51  75
ATOM     75  C   UNL A   1      40.516  33.130  36.175  1.00  0.00     0.064 A 
ATOM     76  C   UNL A   1      39.363  32.315  36.365  1.00  0.00     0.173 A 
ATOM     77  C   UNL A   1      40.569  34.292  36.955  1.00  0.00     0.173 A 
ATOM     78  F   UNL A   1      39.214  31.195  35.639  1.00  0.00    -0.203 F 
ATOM     79  C   UNL A   1      38.440  32.542  37.389  1.00  0.00     0.198 A 
ATOM     80  C   UNL A   1      39.585  34.559  37.933  1.00  0.00     0.198 A 
ATOM     81  F   UNL A   1      41.631  35.106  36.893  1.00  0.00    -0.203 F 
ATOM     82  F   UNL A   1      37.485  31.635  37.648  1.00  0.00    -0.200 F 
ATOM     83  C   UNL A   1      38.567  33.653  38.193  1.00  0.00     0.200 A 
ATOM     84  F   UNL A   1      39.721  35.625  38.741  1.00  0.00    -0.200 F 
ATOM     85  F   UNL A   1      37.760  33.816  39.253  1.00  0.00    -0.200 F 
ENDBRANCH  51  75
BRANCH  63  86
ATOM     86  C   UNL A   1      43.570  26.668  34.589  1.00  0.00     0.064 A 
ATOM     87  C   UNL A   1      42.447  25.885  34.917  1.00  0.00     0.173 A 
ATOM     88  C   UNL A   1      44.792  25.946  34.537  1.00  0.00     0.173 A 
ATOM     89  F   UNL A   1      41.200  26.361  34.825  1.00  0.00    -0.203 F 
ATOM     90  C   UNL A   1      42.553  24.546  35.290  1.00  0.00     0.198 A 
ATOM     91  C   UNL A   1      44.869  24.575  34.774  1.00  0.00     0.198 A 
ATOM     92  F   UNL A   1      45.953  26.530  34.207  1.00  0.00    -0.203 F 
ATOM     93  F   UNL A   1      41.461  23.891  35.710  1.00  0.00    -0.200 F 
ATOM     94  C   UNL A   1      43.759  23.884  35.201  1.00  0.00     0.200 A 
ATOM     95  F   UNL A   1      46.025  23.928  34.564  1.00  0.00    -0.200 F 
ATOM     96  F   UNL A   1      43.845  22.584  35.504  1.00  0.00    -0.200 F 
ENDBRANCH  63  86
ENDBRANCH  37  38
ENDBRANCH  30  32
ENDBRANCH  29  30
ENDBRANCH  28  29
ENDBRANCH  27  28
ENDBRANCH  26  27
ENDBRANCH  25  26
ENDBRANCH   1  25
TORSDOF 19
ENDMDL
MODEL 3
REMARK VINA RESULT:     -13.4      3.760     10.421
REMARK SMILES Cc1ccc(C(=O)c2cccc(C)c2C(=O)OCCOCCOCCOC(=O)c2ccc(-c3c4nc(c(-c5c(F)c(F)c(F)c(F)c5F)c5ccc([nH]5)c(-c5c(F)c(F)c(F)c(F)c5F)c5nc(c(-c6c(F)c(F)c(F)c(F)c6F)c6ccc3[nH]6)C=C5)C=C4)cc2)c(C)c1
REMARK SMILES IDX 21 1 20 2 19 3 18 4 17 5 15 6 16 7 14 8 8 9 9 10 10 11 12 12
REMARK SMILES IDX 11 13 13 14 6 15 7 16 5 17 1 18 2 19 3 20 94 21 4 22 92 23
REMARK SMILES IDX 93 24 22 25 23 26 24 27 25 28 26 29 27 30 28 31 29 32 30 33
REMARK SMILES IDX 91 34 31 35 90 36 32 37 33 38 34 39 84 40 35 41 89 42 83 43
REMARK SMILES IDX 85 44 36 45 88 46 82 47 81 48 37 50 69 51 49 52 68 53 50 54
REMARK SMILES IDX 53 55 67 56 86 57 51 58 52 59 66 61 87 62 54 63 38 64 39 65
REMARK SMILES IDX 47 66 40 67 41 68 45 69 48 70 42 71 43 72 46 73 44 74 70 75
REMARK SMILES IDX 71 76 79 77 72 78 73 79 77 80 80 81 74 82 75 83 78 84 76 85
REMARK SMILES IDX 55 86 56 87 64 88 57 89 58 90 62 91 65 92 59 93 60 94 63 95
REMARK SMILES IDX 61 96
REMARK H PARENT 85 49 53 60
REMARK Flexibility Score: inf
ROOT
ATOM      1  C   UNL A   1      40.252  21.251  26.896  1.00  0.00     0.188 C 
ENDROOT
BRANCH   1   2
ATOM      2  O   UNL A   1      39.518  21.796  25.774  1.00  0.00    -0.376 OA
BRANCH   2   3
ATOM      3  C   UNL A   1      38.305  22.591  25.776  1.00  0.00     0.202 C 
BRANCH   3   4
ATOM      4  C   UNL A   1      37.056  22.803  24.560  1.00  0.00     0.261 C 
BRANCH   4   5
ATOM      5  O   UNL A   1      35.386  23.329  24.723  1.00  0.00    -0.460 OA
BRANCH   5   6
ATOM      6  C   UNL A   1      34.253  23.911  23.974  1.00  0.00     0.339 C 
ATOM      7  O   UNL A   1      34.312  24.483  22.879  1.00  0.00    -0.246 OA
BRANCH   6   8
ATOM      8  C   UNL A   1      32.869  24.117  24.404  1.00  0.00     0.074 A 
ATOM      9  C   UNL A   1      32.079  22.977  24.451  1.00  0.00     0.037 A 
ATOM     10  C   UNL A   1      30.999  22.980  25.353  1.00  0.00     0.013 A 
ATOM     11  C   UNL A   1      30.650  24.109  26.107  1.00  0.00     0.001 A 
ATOM     12  C   UNL A   1      32.534  25.299  25.215  1.00  0.00    -0.036 A 
ATOM     13  C   UNL A   1      31.387  25.273  26.012  1.00  0.00     0.004 A 
ATOM     14  C   UNL A   1      33.322  26.607  25.360  1.00  0.00     0.045 C 
BRANCH   9  15
ATOM     15  C   UNL A   1      32.396  21.815  23.554  1.00  0.00     0.194 C 
ATOM     16  O   UNL A   1      32.342  21.932  22.334  1.00  0.00    -0.289 OA
BRANCH  15  17
ATOM     17  C   UNL A   1      32.543  20.456  24.078  1.00  0.00     0.025 A 
ATOM     18  C   UNL A   1      32.646  16.306  25.072  1.00  0.00     0.044 C 
ATOM     19  C   UNL A   1      32.654  17.755  24.712  1.00  0.00    -0.051 A 
ATOM     20  C   UNL A   1      32.298  18.151  23.426  1.00  0.00     0.004 A 
ATOM     21  C   UNL A   1      33.024  18.715  25.660  1.00  0.00     0.007 A 
ATOM     22  C   UNL A   1      32.263  19.492  23.110  1.00  0.00     0.013 A 
ATOM     23  C   UNL A   1      33.046  20.078  25.337  1.00  0.00    -0.040 A 
ATOM     24  C   UNL A   1      33.664  20.983  26.361  1.00  0.00     0.045 C 
ENDBRANCH  15  17
ENDBRANCH   9  15
ENDBRANCH   6   8
ENDBRANCH   5   6
ENDBRANCH   4   5
ENDBRANCH   3   4
ENDBRANCH   2   3
ENDBRANCH   1   2
BRANCH   1  25
ATOM     25  C   UNL A   1      41.075  19.977  26.895  1.00  0.00     0.188 C 
BRANCH  25  26
ATOM     26  O   UNL A   1      41.943  19.949  25.794  1.00  0.00    -0.376 OA
BRANCH  26  27
ATOM     27  C   UNL A   1      42.849  18.866  25.753  1.00  0.00     0.202 C 
BRANCH  27  28
ATOM     28  C   UNL A   1      44.168  19.112  24.980  1.00  0.00     0.261 C 
BRANCH  28  29
ATOM     29  O   UNL A   1      44.293  20.464  24.458  1.00  0.00    -0.460 OA
BRANCH  29  30
ATOM     30  C   UNL A   1      45.265  21.294  24.976  1.00  0.00     0.338 C 
ATOM     31  O   UNL A   1      46.399  20.926  25.260  1.00  0.00    -0.246 OA
BRANCH  30  32
ATOM     32  C   UNL A   1      44.724  22.668  25.234  1.00  0.00     0.060 A 
ATOM     33  C   UNL A   1      45.007  23.902  24.619  1.00  0.00     0.016 A 
ATOM     34  C   UNL A   1      44.050  22.761  26.388  1.00  0.00     0.016 A 
ATOM     35  C   UNL A   1      44.780  25.196  25.301  1.00  0.00     0.010 A 
ATOM     36  C   UNL A   1      44.164  23.957  27.073  1.00  0.00     0.010 A 
ATOM     37  C   UNL A   1      44.411  25.294  26.643  1.00  0.00    -0.014 A 
BRANCH  37  38
ATOM     38  C   UNL A   1      44.152  26.705  27.623  1.00  0.00     0.031 A 
ATOM     39  C   UNL A   1      42.718  27.713  27.984  1.00  0.00     0.074 A 
ATOM     40  C   UNL A   1      45.216  27.040  28.374  1.00  0.00     0.049 A 
ATOM     41  N   UNL A   1      42.725  28.925  28.494  1.00  0.00    -0.248 NA
ATOM     42  C   UNL A   1      41.213  27.442  27.737  1.00  0.00     0.031 C 
ATOM     43  C   UNL A   1      45.305  27.892  29.553  1.00  0.00     0.029 A 
ATOM     44  N   UNL A   1      46.540  26.627  28.199  1.00  0.00    -0.354 N 
ATOM     45  C   UNL A   1      41.380  29.314  28.732  1.00  0.00     0.074 A 
ATOM     46  C   UNL A   1      40.579  28.583  27.869  1.00  0.00     0.031 C 
ATOM     47  C   UNL A   1      46.598  28.235  29.728  1.00  0.00     0.029 A 
ATOM     48  C   UNL A   1      47.323  27.721  28.576  1.00  0.00     0.049 A 
ATOM     49  H   UNL A   1      46.855  25.751  27.877  1.00  0.00     0.167 HD
ATOM     50  C   UNL A   1      40.974  30.015  29.828  1.00  0.00     0.037 A 
ATOM     51  C   UNL A   1      47.918  28.424  27.575  1.00  0.00     0.037 A 
ATOM     52  C   UNL A   1      42.153  30.673  30.317  1.00  0.00     0.049 A 
ATOM     53  C   UNL A   1      47.322  29.818  27.517  1.00  0.00     0.074 A 
ATOM     54  C   UNL A   1      43.124  30.360  31.242  1.00  0.00     0.029 A 
ATOM     55  N   UNL A   1      42.732  31.526  29.401  1.00  0.00    -0.354 N 
ATOM     56  N   UNL A   1      46.181  30.158  28.069  1.00  0.00    -0.248 NA
ATOM     57  C   UNL A   1      48.017  30.962  26.950  1.00  0.00     0.031 C 
ATOM     58  C   UNL A   1      44.358  30.886  30.716  1.00  0.00     0.029 A 
ATOM     59  C   UNL A   1      44.105  31.526  29.506  1.00  0.00     0.049 A 
ATOM     60  H   UNL A   1      42.227  32.069  28.753  1.00  0.00     0.167 HD
ATOM     61  C   UNL A   1      45.986  31.504  27.964  1.00  0.00     0.074 A 
ATOM     62  C   UNL A   1      47.176  31.962  27.269  1.00  0.00     0.031 C 
ATOM     63  C   UNL A   1      44.876  32.159  28.432  1.00  0.00     0.037 A 
BRANCH  50  64
ATOM     64  C   UNL A   1      39.589  29.986  30.505  1.00  0.00     0.064 A 
ATOM     65  C   UNL A   1      38.739  31.101  30.341  1.00  0.00     0.173 A 
ATOM     66  C   UNL A   1      39.053  29.010  31.392  1.00  0.00     0.173 A 
ATOM     67  F   UNL A   1      39.069  32.097  29.508  1.00  0.00    -0.203 F 
ATOM     68  C   UNL A   1      37.523  31.253  31.035  1.00  0.00     0.198 A 
ATOM     69  C   UNL A   1      37.845  29.165  32.090  1.00  0.00     0.198 A 
ATOM     70  F   UNL A   1      39.641  27.841  31.648  1.00  0.00    -0.203 F 
ATOM     71  F   UNL A   1      36.785  32.355  30.843  1.00  0.00    -0.200 F 
ATOM     72  C   UNL A   1      37.084  30.293  31.922  1.00  0.00     0.200 A 
ATOM     73  F   UNL A   1      37.438  28.204  32.937  1.00  0.00    -0.200 F 
ATOM     74  F   UNL A   1      35.940  30.451  32.602  1.00  0.00    -0.200 F 
ENDBRANCH  50  64
BRANCH  51  75
ATOM     75  C   UNL A   1      48.408  27.501  26.476  1.00  0.00     0.064 A 
ATOM     76  C   UNL A   1      47.726  27.573  25.229  1.00  0.00     0.173 A 
ATOM     77  C   UNL A   1      49.678  26.911  26.438  1.00  0.00     0.173 A 
ATOM     78  F   UNL A   1      46.491  28.099  25.176  1.00  0.00    -0.203 F 
ATOM     79  C   UNL A   1      48.341  27.259  24.013  1.00  0.00     0.198 A 
ATOM     80  C   UNL A   1      50.262  26.518  25.213  1.00  0.00     0.198 A 
ATOM     81  F   UNL A   1      50.429  26.836  27.544  1.00  0.00    -0.203 F 
ATOM     82  F   UNL A   1      47.721  27.533  22.855  1.00  0.00    -0.200 F 
ATOM     83  C   UNL A   1      49.623  26.757  24.004  1.00  0.00     0.200 A 
ATOM     84  F   UNL A   1      51.524  26.056  25.194  1.00  0.00    -0.200 F 
ATOM     85  F   UNL A   1      50.267  26.568  22.841  1.00  0.00    -0.200 F 
ENDBRANCH  51  75
BRANCH  63  86
ATOM     86  C   UNL A   1      44.389  33.471  27.819  1.00  0.00     0.064 A 
ATOM     87  C   UNL A   1      43.905  33.574  26.501  1.00  0.00     0.173 A 
ATOM     88  C   UNL A   1      44.215  34.644  28.600  1.00  0.00     0.173 A 
ATOM     89  F   UNL A   1      43.816  32.511  25.694  1.00  0.00    -0.203 F 
ATOM     90  C   UNL A   1      43.422  34.771  25.974  1.00  0.00     0.198 A 
ATOM     91  C   UNL A   1      43.601  35.795  28.107  1.00  0.00     0.198 A 
ATOM     92  F   UNL A   1      44.589  34.709  29.886  1.00  0.00    -0.203 F 
ATOM     93  F   UNL A   1      43.093  34.833  24.677  1.00  0.00    -0.200 F 
ATOM     94  C   UNL A   1      43.251  35.876  26.780  1.00  0.00     0.200 A 
ATOM     95  F   UNL A   1      43.335  36.813  28.937  1.00  0.00    -0.200 F 
ATOM     96  F   UNL A   1      42.733  37.006  26.284  1.00  0.00    -0.200 F 
ENDBRANCH  63  86
ENDBRANCH  37  38
ENDBRANCH  30  32
ENDBRANCH  29  30
ENDBRANCH  28  29
ENDBRANCH  27  28
ENDBRANCH  26  27
ENDBRANCH  25  26
ENDBRANCH   1  25
TORSDOF 19
ENDMDL
