MODEL 1
REMARK VINA RESULT:     -10.3      0.000      0.000
REMARK SMILES COc1ncnc(N2CCSC[C@@H]2CC(=O)OCCOCCOCCOC(=O)c2ccc(-c3c4nc(c(-c5c(F)c(F)c(F)c(F)c5F)c5ccc([nH]5)c(-c5c(F)c(F)c(F)c(F)c5F)c5nc(c(-c6c(F)c(F)c(F)c(F)c6F)c6ccc3[nH]6)C=C5)C=C4)cc2)c1[N+](=O)[O-]
REMARK SMILES IDX 21 1 20 2 19 3 18 4 17 5 15 6 16 7 14 8 13 9 8 10 9 11 10 12
REMARK SMILES IDX 12 13 11 14 7 15 3 16 4 17 92 18 5 19 6 20 2 21 1 22 93 23
REMARK SMILES IDX 94 24 95 25 22 26 23 27 24 28 25 29 26 30 27 31 28 32 29 33
REMARK SMILES IDX 30 34 91 35 31 36 90 37 32 38 33 39 34 40 84 41 35 42 89 43
REMARK SMILES IDX 83 44 85 45 36 46 88 47 82 48 81 49 37 51 69 52 49 53 68 54
REMARK SMILES IDX 50 55 53 56 67 57 86 58 51 59 52 60 66 62 87 63 54 64 38 65
REMARK SMILES IDX 39 66 47 67 40 68 41 69 45 70 48 71 42 72 43 73 46 74 44 75
REMARK SMILES IDX 70 76 71 77 79 78 72 79 73 80 77 81 80 82 74 83 75 84 78 85
REMARK SMILES IDX 76 86 55 87 56 88 64 89 57 90 58 91 62 92 65 93 59 94 60 95
REMARK SMILES IDX 63 96 61 97
REMARK H PARENT 85 50 53 61
REMARK Flexibility Score: inf
ROOT
ATOM      1  C   UNL A   1      38.963  21.230  25.747  1.00  0.00     0.188 C 
ENDROOT
BRANCH   1   2
ATOM      2  O   UNL A   1      37.935  21.974  25.114  1.00  0.00    -0.376 OA
BRANCH   2   3
ATOM      3  C   UNL A   1      37.539  23.226  25.667  1.00  0.00     0.202 C 
BRANCH   3   4
ATOM      4  C   UNL A   1      36.046  23.559  25.625  1.00  0.00     0.261 C 
BRANCH   4   5
ATOM      5  O   UNL A   1      35.455  22.872  24.508  1.00  0.00    -0.463 OA
BRANCH   5   6
ATOM      6  C   UNL A   1      34.892  23.664  23.562  1.00  0.00     0.307 C 
ATOM      7  O   UNL A   1      34.857  23.403  22.367  1.00  0.00    -0.252 OA
BRANCH   6   8
ATOM      8  C   UNL A   1      34.155  24.823  24.188  1.00  0.00     0.148 C 
BRANCH   8   9
ATOM      9  C   UNL A   1      32.627  24.824  23.948  1.00  0.00     0.105 C 
ATOM     10  N   UNL A   1      31.953  25.823  24.832  1.00  0.00    -0.345 N 
ATOM     11  C   UNL A   1      32.074  25.615  26.289  1.00  0.00     0.129 C 
ATOM     12  C   UNL A   1      31.479  24.288  26.759  1.00  0.00     0.091 C 
ATOM     13  C   UNL A   1      31.989  23.437  24.183  1.00  0.00     0.095 C 
ATOM     14  S   UNL A   1      32.165  22.833  25.906  1.00  0.00    -0.158 SA
BRANCH  10  15
ATOM     15  C   UNL A   1      30.953  26.604  24.258  1.00  0.00     0.215 A 
ATOM     16  C   UNL A   1      30.124  28.304  22.793  1.00  0.00     0.299 A 
ATOM     17  N   UNL A   1      28.854  27.906  22.958  1.00  0.00    -0.196 NA
ATOM     18  C   UNL A   1      31.170  27.732  23.491  1.00  0.00     0.372 A 
ATOM     19  C   UNL A   1      28.693  26.873  23.793  1.00  0.00     0.228 A 
ATOM     20  N   UNL A   1      29.676  26.180  24.406  1.00  0.00    -0.212 NA
BRANCH  16  21
ATOM     21  O   UNL A   1      30.385  29.339  21.919  1.00  0.00    -0.476 OA
ATOM     22  C   UNL A   1      29.290  30.234  21.713  1.00  0.00     0.280 C 
ENDBRANCH  16  21
BRANCH  18  23
ATOM     23  N   UNL A   1      32.411  28.406  23.520  1.00  0.00     0.072 N 
ATOM     24  O   UNL A   1      33.218  28.092  22.628  1.00  0.00    -0.258 OA
ATOM     25  O   UNL A   1      32.580  29.314  24.340  1.00  0.00    -0.258 OA
ENDBRANCH  18  23
ENDBRANCH  10  15
ENDBRANCH   8   9
ENDBRANCH   6   8
ENDBRANCH   5   6
ENDBRANCH   4   5
ENDBRANCH   3   4
ENDBRANCH   2   3
ENDBRANCH   1   2
BRANCH   1  26
ATOM     26  C   UNL A   1      40.269  21.926  26.142  1.00  0.00     0.188 C 
BRANCH  26  27
ATOM     27  O   UNL A   1      41.494  21.213  26.106  1.00  0.00    -0.376 OA
BRANCH  27  28
ATOM     28  C   UNL A   1      41.559  19.905  26.651  1.00  0.00     0.202 C 
BRANCH  28  29
ATOM     29  C   UNL A   1      42.444  18.855  25.973  1.00  0.00     0.261 C 
BRANCH  29  30
ATOM     30  O   UNL A   1      43.009  19.279  24.730  1.00  0.00    -0.460 OA
BRANCH  30  31
ATOM     31  C   UNL A   1      44.357  19.340  24.617  1.00  0.00     0.338 C 
ATOM     32  O   UNL A   1      45.143  18.435  24.418  1.00  0.00    -0.246 OA
BRANCH  31  33
ATOM     33  C   UNL A   1      44.705  20.750  24.864  1.00  0.00     0.060 A 
ATOM     34  C   UNL A   1      44.336  21.716  23.937  1.00  0.00     0.016 A 
ATOM     35  C   UNL A   1      45.255  21.122  26.091  1.00  0.00     0.016 A 
ATOM     36  C   UNL A   1      44.326  23.061  24.309  1.00  0.00     0.010 A 
ATOM     37  C   UNL A   1      45.363  22.477  26.414  1.00  0.00     0.010 A 
ATOM     38  C   UNL A   1      44.856  23.457  25.544  1.00  0.00    -0.014 A 
BRANCH  38  39
ATOM     39  C   UNL A   1      44.989  24.897  25.887  1.00  0.00     0.031 A 
ATOM     40  C   UNL A   1      46.340  25.547  25.784  1.00  0.00     0.074 A 
ATOM     41  C   UNL A   1      43.925  25.610  26.304  1.00  0.00     0.049 A 
ATOM     42  N   UNL A   1      46.704  26.761  26.113  1.00  0.00    -0.248 NA
ATOM     43  C   UNL A   1      47.424  24.731  25.214  1.00  0.00     0.031 C 
ATOM     44  C   UNL A   1      42.544  25.129  26.347  1.00  0.00     0.029 A 
ATOM     45  N   UNL A   1      43.844  26.892  26.793  1.00  0.00    -0.354 N 
ATOM     46  C   UNL A   1      48.043  26.857  25.760  1.00  0.00     0.074 A 
ATOM     47  C   UNL A   1      48.429  25.592  25.182  1.00  0.00     0.031 C 
ATOM     48  C   UNL A   1      41.761  26.085  26.880  1.00  0.00     0.029 A 
ATOM     49  C   UNL A   1      42.589  27.232  27.244  1.00  0.00     0.049 A 
ATOM     50  H   UNL A   1      44.611  27.509  26.819  1.00  0.00     0.167 HD
ATOM     51  C   UNL A   1      48.893  27.896  25.934  1.00  0.00     0.037 A 
ATOM     52  C   UNL A   1      42.174  28.330  27.909  1.00  0.00     0.037 A 
ATOM     53  C   UNL A   1      48.552  29.104  26.629  1.00  0.00     0.049 A 
ATOM     54  C   UNL A   1      43.178  29.408  28.235  1.00  0.00     0.074 A 
ATOM     55  C   UNL A   1      49.367  30.165  26.974  1.00  0.00     0.029 A 
ATOM     56  N   UNL A   1      47.285  29.390  27.117  1.00  0.00    -0.354 N 
ATOM     57  N   UNL A   1      44.450  29.479  27.922  1.00  0.00    -0.248 NA
ATOM     58  C   UNL A   1      42.692  30.554  29.017  1.00  0.00     0.031 C 
ATOM     59  C   UNL A   1      48.603  31.075  27.716  1.00  0.00     0.029 A 
ATOM     60  C   UNL A   1      47.300  30.605  27.782  1.00  0.00     0.049 A 
ATOM     61  H   UNL A   1      46.494  28.817  27.008  1.00  0.00     0.167 HD
ATOM     62  C   UNL A   1      44.907  30.682  28.444  1.00  0.00     0.074 A 
ATOM     63  C   UNL A   1      43.774  31.318  29.082  1.00  0.00     0.031 C 
ATOM     64  C   UNL A   1      46.154  31.216  28.402  1.00  0.00     0.037 A 
BRANCH  51  65
ATOM     65  C   UNL A   1      50.293  27.700  25.441  1.00  0.00     0.064 A 
ATOM     66  C   UNL A   1      50.610  27.805  24.079  1.00  0.00     0.173 A 
ATOM     67  C   UNL A   1      51.315  27.341  26.332  1.00  0.00     0.173 A 
ATOM     68  F   UNL A   1      49.658  28.111  23.186  1.00  0.00    -0.203 F 
ATOM     69  C   UNL A   1      51.898  27.533  23.623  1.00  0.00     0.198 A 
ATOM     70  C   UNL A   1      52.605  27.090  25.875  1.00  0.00     0.198 A 
ATOM     71  F   UNL A   1      51.055  27.210  27.642  1.00  0.00    -0.203 F 
ATOM     72  F   UNL A   1      52.168  27.585  22.311  1.00  0.00    -0.200 F 
ATOM     73  C   UNL A   1      52.893  27.178  24.522  1.00  0.00     0.200 A 
ATOM     74  F   UNL A   1      53.565  26.740  26.743  1.00  0.00    -0.200 F 
ATOM     75  F   UNL A   1      54.129  26.901  24.080  1.00  0.00    -0.200 F 
ENDBRANCH  51  65
BRANCH  52  76
ATOM     76  C   UNL A   1      40.760  28.457  28.359  1.00  0.00     0.064 A 
ATOM     77  C   UNL A   1      39.778  29.006  27.520  1.00  0.00     0.173 A 
ATOM     78  C   UNL A   1      40.371  28.087  29.655  1.00  0.00     0.173 A 
ATOM     79  F   UNL A   1      40.104  29.409  26.284  1.00  0.00    -0.203 F 
ATOM     80  C   UNL A   1      38.471  29.197  27.967  1.00  0.00     0.198 A 
ATOM     81  C   UNL A   1      39.057  28.253  30.091  1.00  0.00     0.198 A 
ATOM     82  F   UNL A   1      41.270  27.571  30.506  1.00  0.00    -0.203 F 
ATOM     83  F   UNL A   1      37.568  29.775  27.162  1.00  0.00    -0.200 F 
ATOM     84  C   UNL A   1      38.110  28.816  29.250  1.00  0.00     0.200 A 
ATOM     85  F   UNL A   1      38.712  27.880  31.331  1.00  0.00    -0.200 F 
ATOM     86  F   UNL A   1      36.854  29.005  29.680  1.00  0.00    -0.200 F 
ENDBRANCH  52  76
BRANCH  64  87
ATOM     87  C   UNL A   1      46.344  32.565  29.029  1.00  0.00     0.064 A 
ATOM     88  C   UNL A   1      46.139  33.750  28.307  1.00  0.00     0.173 A 
ATOM     89  C   UNL A   1      46.699  32.670  30.382  1.00  0.00     0.173 A 
ATOM     90  F   UNL A   1      45.812  33.700  27.007  1.00  0.00    -0.203 F 
ATOM     91  C   UNL A   1      46.310  34.991  28.911  1.00  0.00     0.198 A 
ATOM     92  C   UNL A   1      46.841  33.913  30.990  1.00  0.00     0.198 A 
ATOM     93  F   UNL A   1      46.897  31.565  31.117  1.00  0.00    -0.203 F 
ATOM     94  F   UNL A   1      46.155  36.112  28.191  1.00  0.00    -0.200 F 
ATOM     95  C   UNL A   1      46.654  35.072  30.253  1.00  0.00     0.200 A 
ATOM     96  F   UNL A   1      47.161  33.990  32.290  1.00  0.00    -0.200 F 
ATOM     97  F   UNL A   1      46.815  36.269  30.834  1.00  0.00    -0.200 F 
ENDBRANCH  64  87
ENDBRANCH  38  39
ENDBRANCH  31  33
ENDBRANCH  30  31
ENDBRANCH  29  30
ENDBRANCH  28  29
ENDBRANCH  27  28
ENDBRANCH  26  27
ENDBRANCH   1  26
TORSDOF 21
ENDMDL
MODEL 2
REMARK VINA RESULT:      -9.8      3.392      9.073
REMARK SMILES COc1ncnc(N2CCSC[C@@H]2CC(=O)OCCOCCOCCOC(=O)c2ccc(-c3c4nc(c(-c5c(F)c(F)c(F)c(F)c5F)c5ccc([nH]5)c(-c5c(F)c(F)c(F)c(F)c5F)c5nc(c(-c6c(F)c(F)c(F)c(F)c6F)c6ccc3[nH]6)C=C5)C=C4)cc2)c1[N+](=O)[O-]
REMARK SMILES IDX 21 1 20 2 19 3 18 4 17 5 15 6 16 7 14 8 13 9 8 10 9 11 10 12
REMARK SMILES IDX 12 13 11 14 7 15 3 16 4 17 92 18 5 19 6 20 2 21 1 22 93 23
REMARK SMILES IDX 94 24 95 25 22 26 23 27 24 28 25 29 26 30 27 31 28 32 29 33
REMARK SMILES IDX 30 34 91 35 31 36 90 37 32 38 33 39 34 40 84 41 35 42 89 43
REMARK SMILES IDX 83 44 85 45 36 46 88 47 82 48 81 49 37 51 69 52 49 53 68 54
REMARK SMILES IDX 50 55 53 56 67 57 86 58 51 59 52 60 66 62 87 63 54 64 38 65
REMARK SMILES IDX 39 66 47 67 40 68 41 69 45 70 48 71 42 72 43 73 46 74 44 75
REMARK SMILES IDX 70 76 71 77 79 78 72 79 73 80 77 81 80 82 74 83 75 84 78 85
REMARK SMILES IDX 76 86 55 87 56 88 64 89 57 90 58 91 62 92 65 93 59 94 60 95
REMARK SMILES IDX 63 96 61 97
REMARK H PARENT 85 50 53 61
REMARK Flexibility Score: inf
ROOT
ATOM      1  C   UNL A   1      33.698  33.709  28.276  1.00  0.00     0.188 C 
ENDROOT
BRANCH   1   2
ATOM      2  O   UNL A   1      34.023  32.341  28.089  1.00  0.00    -0.376 OA
BRANCH   2   3
ATOM      3  C   UNL A   1      33.088  31.487  27.434  1.00  0.00     0.202 C 
BRANCH   3   4
ATOM      4  C   UNL A   1      33.644  30.206  26.808  1.00  0.00     0.261 C 
BRANCH   4   5
ATOM      5  O   UNL A   1      33.415  29.115  27.718  1.00  0.00    -0.463 OA
BRANCH   5   6
ATOM      6  C   UNL A   1      32.528  28.179  27.302  1.00  0.00     0.307 C 
ATOM      7  O   UNL A   1      31.561  27.800  27.950  1.00  0.00    -0.252 OA
BRANCH   6   8
ATOM      8  C   UNL A   1      32.776  27.790  25.864  1.00  0.00     0.148 C 
BRANCH   8   9
ATOM      9  C   UNL A   1      31.918  26.609  25.355  1.00  0.00     0.105 C 
ATOM     10  N   UNL A   1      32.743  25.667  24.542  1.00  0.00    -0.345 N 
ATOM     11  C   UNL A   1      33.355  26.206  23.310  1.00  0.00     0.129 C 
ATOM     12  C   UNL A   1      32.327  26.716  22.301  1.00  0.00     0.091 C 
ATOM     13  C   UNL A   1      30.711  27.075  24.510  1.00  0.00     0.095 C 
ATOM     14  S   UNL A   1      31.190  27.966  22.979  1.00  0.00    -0.158 SA
BRANCH  10  15
ATOM     15  C   UNL A   1      32.547  24.305  24.757  1.00  0.00     0.215 A 
ATOM     16  C   UNL A   1      33.256  22.093  25.334  1.00  0.00     0.299 A 
ATOM     17  N   UNL A   1      31.992  21.658  25.447  1.00  0.00    -0.196 NA
ATOM     18  C   UNL A   1      33.556  23.373  24.911  1.00  0.00     0.372 A 
ATOM     19  C   UNL A   1      31.056  22.576  25.187  1.00  0.00     0.228 A 
ATOM     20  N   UNL A   1      31.271  23.877  24.897  1.00  0.00    -0.212 NA
BRANCH  16  21
ATOM     21  O   UNL A   1      34.285  21.222  25.624  1.00  0.00    -0.476 OA
ATOM     22  C   UNL A   1      34.231  19.981  24.916  1.00  0.00     0.280 C 
ENDBRANCH  16  21
BRANCH  18  23
ATOM     23  N   UNL A   1      34.878  23.656  24.503  1.00  0.00     0.072 N 
ATOM     24  O   UNL A   1      35.152  23.375  23.323  1.00  0.00    -0.258 OA
ATOM     25  O   UNL A   1      35.634  24.243  25.284  1.00  0.00    -0.258 OA
ENDBRANCH  18  23
ENDBRANCH  10  15
ENDBRANCH   8   9
ENDBRANCH   6   8
ENDBRANCH   5   6
ENDBRANCH   4   5
ENDBRANCH   3   4
ENDBRANCH   2   3
ENDBRANCH   1   2
BRANCH   1  26
ATOM     26  C   UNL A   1      34.430  34.521  29.349  1.00  0.00     0.188 C 
BRANCH  26  27
ATOM     27  O   UNL A   1      33.721  35.017  30.472  1.00  0.00    -0.376 OA
BRANCH  27  28
ATOM     28  C   UNL A   1      34.386  35.146  31.719  1.00  0.00     0.202 C 
BRANCH  28  29
ATOM     29  C   UNL A   1      35.823  34.638  31.857  1.00  0.00     0.261 C 
BRANCH  29  30
ATOM     30  O   UNL A   1      35.933  33.348  32.466  1.00  0.00    -0.460 OA
BRANCH  30  31
ATOM     31  C   UNL A   1      35.413  32.279  31.818  1.00  0.00     0.338 C 
ATOM     32  O   UNL A   1      34.248  31.954  31.705  1.00  0.00    -0.246 OA
BRANCH  31  33
ATOM     33  C   UNL A   1      36.576  31.522  31.323  1.00  0.00     0.060 A 
ATOM     34  C   UNL A   1      36.792  31.419  29.955  1.00  0.00     0.016 A 
ATOM     35  C   UNL A   1      37.532  31.054  32.226  1.00  0.00     0.016 A 
ATOM     36  C   UNL A   1      38.047  31.034  29.481  1.00  0.00     0.010 A 
ATOM     37  C   UNL A   1      38.742  30.549  31.746  1.00  0.00     0.010 A 
ATOM     38  C   UNL A   1      39.029  30.579  30.371  1.00  0.00    -0.014 A 
BRANCH  38  39
ATOM     39  C   UNL A   1      40.312  30.024  29.866  1.00  0.00     0.031 A 
ATOM     40  C   UNL A   1      41.489  30.944  29.706  1.00  0.00     0.074 A 
ATOM     41  C   UNL A   1      40.420  28.723  29.533  1.00  0.00     0.049 A 
ATOM     42  N   UNL A   1      42.674  30.697  29.204  1.00  0.00    -0.248 NA
ATOM     43  C   UNL A   1      41.323  32.321  30.197  1.00  0.00     0.031 C 
ATOM     44  C   UNL A   1      39.389  27.705  29.738  1.00  0.00     0.029 A 
ATOM     45  N   UNL A   1      41.447  28.037  28.931  1.00  0.00    -0.354 N 
ATOM     46  C   UNL A   1      43.393  31.875  29.351  1.00  0.00     0.074 A 
ATOM     47  C   UNL A   1      42.526  32.833  29.996  1.00  0.00     0.031 C 
ATOM     48  C   UNL A   1      39.816  26.537  29.227  1.00  0.00     0.029 A 
ATOM     49  C   UNL A   1      41.136  26.730  28.631  1.00  0.00     0.049 A 
ATOM     50  H   UNL A   1      42.323  28.441  28.731  1.00  0.00     0.167 HD
ATOM     51  C   UNL A   1      44.656  32.152  28.950  1.00  0.00     0.037 A 
ATOM     52  C   UNL A   1      41.827  25.814  27.922  1.00  0.00     0.037 A 
ATOM     53  C   UNL A   1      45.472  31.250  28.189  1.00  0.00     0.049 A 
ATOM     54  C   UNL A   1      43.168  26.199  27.345  1.00  0.00     0.074 A 
ATOM     55  C   UNL A   1      46.713  31.473  27.623  1.00  0.00     0.029 A 
ATOM     56  N   UNL A   1      45.103  29.955  27.860  1.00  0.00    -0.354 N 
ATOM     57  N   UNL A   1      43.830  27.325  27.464  1.00  0.00    -0.248 NA
ATOM     58  C   UNL A   1      43.853  25.188  26.526  1.00  0.00     0.031 C 
ATOM     59  C   UNL A   1      47.074  30.325  26.908  1.00  0.00     0.029 A 
ATOM     60  C   UNL A   1      46.084  29.370  27.078  1.00  0.00     0.049 A 
ATOM     61  H   UNL A   1      44.268  29.516  28.140  1.00  0.00     0.167 HD
ATOM     62  C   UNL A   1      45.015  27.150  26.760  1.00  0.00     0.074 A 
ATOM     63  C   UNL A   1      44.989  25.804  26.228  1.00  0.00     0.031 C 
ATOM     64  C   UNL A   1      46.034  28.024  26.567  1.00  0.00     0.037 A 
BRANCH  51  65
ATOM     65  C   UNL A   1      45.164  33.528  29.255  1.00  0.00     0.064 A 
ATOM     66  C   UNL A   1      44.954  34.597  28.371  1.00  0.00     0.173 A 
ATOM     67  C   UNL A   1      45.921  33.764  30.411  1.00  0.00     0.173 A 
ATOM     68  F   UNL A   1      44.267  34.410  27.235  1.00  0.00    -0.203 F 
ATOM     69  C   UNL A   1      45.508  35.850  28.624  1.00  0.00     0.198 A 
ATOM     70  C   UNL A   1      46.455  35.023  30.670  1.00  0.00     0.198 A 
ATOM     71  F   UNL A   1      46.163  32.767  31.276  1.00  0.00    -0.203 F 
ATOM     72  F   UNL A   1      45.344  36.844  27.740  1.00  0.00    -0.200 F 
ATOM     73  C   UNL A   1      46.256  36.061  29.773  1.00  0.00     0.200 A 
ATOM     74  F   UNL A   1      47.183  35.224  31.777  1.00  0.00    -0.200 F 
ATOM     75  F   UNL A   1      46.801  37.263  30.008  1.00  0.00    -0.200 F 
ENDBRANCH  51  65
BRANCH  52  76
ATOM     76  C   UNL A   1      41.259  24.461  27.668  1.00  0.00     0.064 A 
ATOM     77  C   UNL A   1      41.830  23.315  28.240  1.00  0.00     0.173 A 
ATOM     78  C   UNL A   1      40.169  24.278  26.803  1.00  0.00     0.173 A 
ATOM     79  F   UNL A   1      42.896  23.429  29.044  1.00  0.00    -0.203 F 
ATOM     80  C   UNL A   1      41.347  22.041  27.942  1.00  0.00     0.198 A 
ATOM     81  C   UNL A   1      39.669  23.006  26.528  1.00  0.00     0.198 A 
ATOM     82  F   UNL A   1      39.591  25.337  26.216  1.00  0.00    -0.203 F 
ATOM     83  F   UNL A   1      41.949  20.960  28.459  1.00  0.00    -0.200 F 
ATOM     84  C   UNL A   1      40.264  21.888  27.090  1.00  0.00     0.200 A 
ATOM     85  F   UNL A   1      38.619  22.863  25.707  1.00  0.00    -0.200 F 
ATOM     86  F   UNL A   1      39.803  20.662  26.800  1.00  0.00    -0.200 F 
ENDBRANCH  52  76
BRANCH  64  87
ATOM     87  C   UNL A   1      47.216  27.538  25.784  1.00  0.00     0.064 A 
ATOM     88  C   UNL A   1      47.285  27.676  24.390  1.00  0.00     0.173 A 
ATOM     89  C   UNL A   1      48.310  26.960  26.444  1.00  0.00     0.173 A 
ATOM     90  F   UNL A   1      46.258  28.210  23.713  1.00  0.00    -0.203 F 
ATOM     91  C   UNL A   1      48.396  27.227  23.683  1.00  0.00     0.198 A 
ATOM     92  C   UNL A   1      49.432  26.539  25.737  1.00  0.00     0.198 A 
ATOM     93  F   UNL A   1      48.295  26.814  27.778  1.00  0.00    -0.203 F 
ATOM     94  F   UNL A   1      48.422  27.326  22.346  1.00  0.00    -0.200 F 
ATOM     95  C   UNL A   1      49.471  26.666  24.357  1.00  0.00     0.200 A 
ATOM     96  F   UNL A   1      50.475  26.008  26.391  1.00  0.00    -0.200 F 
ATOM     97  F   UNL A   1      50.542  26.237  23.675  1.00  0.00    -0.200 F 
ENDBRANCH  64  87
ENDBRANCH  38  39
ENDBRANCH  31  33
ENDBRANCH  30  31
ENDBRANCH  29  30
ENDBRANCH  28  29
ENDBRANCH  27  28
ENDBRANCH  26  27
ENDBRANCH   1  26
TORSDOF 21
ENDMDL
MODEL 3
REMARK VINA RESULT:      -9.5      1.157      2.151
REMARK SMILES COc1ncnc(N2CCSC[C@@H]2CC(=O)OCCOCCOCCOC(=O)c2ccc(-c3c4nc(c(-c5c(F)c(F)c(F)c(F)c5F)c5ccc([nH]5)c(-c5c(F)c(F)c(F)c(F)c5F)c5nc(c(-c6c(F)c(F)c(F)c(F)c6F)c6ccc3[nH]6)C=C5)C=C4)cc2)c1[N+](=O)[O-]
REMARK SMILES IDX 21 1 20 2 19 3 18 4 17 5 15 6 16 7 14 8 13 9 8 10 9 11 10 12
REMARK SMILES IDX 12 13 11 14 7 15 3 16 4 17 92 18 5 19 6 20 2 21 1 22 93 23
REMARK SMILES IDX 94 24 95 25 22 26 23 27 24 28 25 29 26 30 27 31 28 32 29 33
REMARK SMILES IDX 30 34 91 35 31 36 90 37 32 38 33 39 34 40 84 41 35 42 89 43
REMARK SMILES IDX 83 44 85 45 36 46 88 47 82 48 81 49 37 51 69 52 49 53 68 54
REMARK SMILES IDX 50 55 53 56 67 57 86 58 51 59 52 60 66 62 87 63 54 64 38 65
REMARK SMILES IDX 39 66 47 67 40 68 41 69 45 70 48 71 42 72 43 73 46 74 44 75
REMARK SMILES IDX 70 76 71 77 79 78 72 79 73 80 77 81 80 82 74 83 75 84 78 85
REMARK SMILES IDX 76 86 55 87 56 88 64 89 57 90 58 91 62 92 65 93 59 94 60 95
REMARK SMILES IDX 63 96 61 97
REMARK H PARENT 85 50 53 61
REMARK Flexibility Score: inf
ROOT
ATOM      1  C   UNL A   1      40.843  21.914  26.836  1.00  0.00     0.188 C 
ENDROOT
BRANCH   1   2
ATOM      2  O   UNL A   1      39.680  21.387  26.219  1.00  0.00    -0.376 OA
BRANCH   2   3
ATOM      3  C   UNL A   1      38.542  22.227  26.043  1.00  0.00     0.202 C 
BRANCH   3   4
ATOM      4  C   UNL A   1      37.249  21.552  25.582  1.00  0.00     0.261 C 
BRANCH   4   5
ATOM      5  O   UNL A   1      37.203  21.582  24.145  1.00  0.00    -0.463 OA
BRANCH   5   6
ATOM      6  C   UNL A   1      36.540  22.631  23.600  1.00  0.00     0.307 C 
ATOM      7  O   UNL A   1      36.724  23.058  22.467  1.00  0.00    -0.252 OA
BRANCH   6   8
ATOM      8  C   UNL A   1      35.419  23.096  24.498  1.00  0.00     0.148 C 
BRANCH   8   9
ATOM      9  C   UNL A   1      34.101  23.437  23.765  1.00  0.00     0.105 C 
ATOM     10  N   UNL A   1      33.200  24.241  24.644  1.00  0.00    -0.345 N 
ATOM     11  C   UNL A   1      32.745  23.605  25.896  1.00  0.00     0.129 C 
ATOM     12  C   UNL A   1      31.941  22.326  25.665  1.00  0.00     0.091 C 
ATOM     13  C   UNL A   1      33.344  22.176  23.292  1.00  0.00     0.095 C 
ATOM     14  S   UNL A   1      32.816  21.080  24.665  1.00  0.00    -0.158 SA
BRANCH  10  15
ATOM     15  C   UNL A   1      32.539  25.318  24.058  1.00  0.00     0.215 A 
ATOM     16  C   UNL A   1      32.018  27.639  23.795  1.00  0.00     0.299 A 
ATOM     17  N   UNL A   1      31.395  27.424  22.627  1.00  0.00    -0.196 NA
ATOM     18  C   UNL A   1      32.516  26.605  24.562  1.00  0.00     0.372 A 
ATOM     19  C   UNL A   1      31.358  26.146  22.237  1.00  0.00     0.228 A 
ATOM     20  N   UNL A   1      31.936  25.100  22.866  1.00  0.00    -0.212 NA
BRANCH  16  21
ATOM     21  O   UNL A   1      32.137  28.934  24.254  1.00  0.00    -0.476 OA
ATOM     22  C   UNL A   1      30.893  29.609  24.459  1.00  0.00     0.280 C 
ENDBRANCH  16  21
BRANCH  18  23
ATOM     23  N   UNL A   1      32.856  26.865  25.908  1.00  0.00     0.072 N 
ATOM     24  O   UNL A   1      34.044  27.164  26.119  1.00  0.00    -0.258 OA
ATOM     25  O   UNL A   1      31.961  26.882  26.759  1.00  0.00    -0.258 OA
ENDBRANCH  18  23
ENDBRANCH  10  15
ENDBRANCH   8   9
ENDBRANCH   6   8
ENDBRANCH   5   6
ENDBRANCH   4   5
ENDBRANCH   3   4
ENDBRANCH   2   3
ENDBRANCH   1   2
BRANCH   1  26
ATOM     26  C   UNL A   1      42.133  21.089  26.853  1.00  0.00     0.188 C 
BRANCH  26  27
ATOM     27  O   UNL A   1      42.156  19.819  27.483  1.00  0.00    -0.376 OA
BRANCH  27  28
ATOM     28  C   UNL A   1      42.501  18.669  26.729  1.00  0.00     0.202 C 
BRANCH  28  29
ATOM     29  C   UNL A   1      43.097  18.842  25.329  1.00  0.00     0.261 C 
BRANCH  29  30
ATOM     30  O   UNL A   1      44.524  18.756  25.285  1.00  0.00    -0.460 OA
BRANCH  30  31
ATOM     31  C   UNL A   1      45.187  19.460  24.338  1.00  0.00     0.338 C 
ATOM     32  O   UNL A   1      45.800  19.045  23.375  1.00  0.00    -0.246 OA
BRANCH  31  33
ATOM     33  C   UNL A   1      45.080  20.869  24.755  1.00  0.00     0.060 A 
ATOM     34  C   UNL A   1      45.424  21.225  26.053  1.00  0.00     0.016 A 
ATOM     35  C   UNL A   1      44.790  21.851  23.807  1.00  0.00     0.016 A 
ATOM     36  C   UNL A   1      45.677  22.563  26.358  1.00  0.00     0.010 A 
ATOM     37  C   UNL A   1      44.922  23.199  24.150  1.00  0.00     0.010 A 
ATOM     38  C   UNL A   1      45.412  23.565  25.415  1.00  0.00    -0.014 A 
BRANCH  38  39
ATOM     39  C   UNL A   1      45.533  25.001  25.779  1.00  0.00     0.031 A 
ATOM     40  C   UNL A   1      46.877  25.665  25.683  1.00  0.00     0.074 A 
ATOM     41  C   UNL A   1      44.463  25.698  26.210  1.00  0.00     0.049 A 
ATOM     42  N   UNL A   1      47.231  26.877  26.030  1.00  0.00    -0.248 NA
ATOM     43  C   UNL A   1      47.967  24.868  25.097  1.00  0.00     0.031 C 
ATOM     44  C   UNL A   1      43.087  25.203  26.249  1.00  0.00     0.029 A 
ATOM     45  N   UNL A   1      44.372  26.971  26.719  1.00  0.00    -0.354 N 
ATOM     46  C   UNL A   1      48.568  26.991  25.675  1.00  0.00     0.074 A 
ATOM     47  C   UNL A   1      48.964  25.738  25.076  1.00  0.00     0.031 C 
ATOM     48  C   UNL A   1      42.297  26.143  26.799  1.00  0.00     0.029 A 
ATOM     49  C   UNL A   1      43.115  27.292  27.179  1.00  0.00     0.049 A 
ATOM     50  H   UNL A   1      45.134  27.595  26.753  1.00  0.00     0.167 HD
ATOM     51  C   UNL A   1      49.409  28.034  25.863  1.00  0.00     0.037 A 
ATOM     52  C   UNL A   1      42.692  28.376  27.862  1.00  0.00     0.037 A 
ATOM     53  C   UNL A   1      49.059  29.229  26.578  1.00  0.00     0.049 A 
ATOM     54  C   UNL A   1      43.687  29.458  28.202  1.00  0.00     0.074 A 
ATOM     55  C   UNL A   1      49.865  30.291  26.938  1.00  0.00     0.029 A 
ATOM     56  N   UNL A   1      47.791  29.495  27.074  1.00  0.00    -0.354 N 
ATOM     57  N   UNL A   1      44.958  29.546  27.887  1.00  0.00    -0.248 NA
ATOM     58  C   UNL A   1      43.193  30.587  29.004  1.00  0.00     0.031 C 
ATOM     59  C   UNL A   1      49.096  31.182  27.696  1.00  0.00     0.029 A 
ATOM     60  C   UNL A   1      47.797  30.699  27.758  1.00  0.00     0.049 A 
ATOM     61  H   UNL A   1      47.005  28.916  26.958  1.00  0.00     0.167 HD
ATOM     62  C   UNL A   1      45.405  30.745  28.427  1.00  0.00     0.074 A 
ATOM     63  C   UNL A   1      44.268  31.360  29.078  1.00  0.00     0.031 C 
ATOM     64  C   UNL A   1      46.647  31.291  28.390  1.00  0.00     0.037 A 
BRANCH  51  65
ATOM     65  C   UNL A   1      50.810  27.858  25.364  1.00  0.00     0.064 A 
ATOM     66  C   UNL A   1      51.864  27.551  26.238  1.00  0.00     0.173 A 
ATOM     67  C   UNL A   1      51.111  28.061  24.010  1.00  0.00     0.173 A 
ATOM     68  F   UNL A   1      51.629  27.384  27.547  1.00  0.00    -0.203 F 
ATOM     69  C   UNL A   1      53.176  27.478  25.775  1.00  0.00     0.198 A 
ATOM     70  C   UNL A   1      52.421  27.967  23.548  1.00  0.00     0.198 A 
ATOM     71  F   UNL A   1      50.138  28.375  23.141  1.00  0.00    -0.203 F 
ATOM     72  F   UNL A   1      54.176  27.239  26.634  1.00  0.00    -0.200 F 
ATOM     73  C   UNL A   1      53.451  27.684  24.431  1.00  0.00     0.200 A 
ATOM     74  F   UNL A   1      52.687  28.173  22.251  1.00  0.00    -0.200 F 
ATOM     75  F   UNL A   1      54.716  27.628  23.989  1.00  0.00    -0.200 F 
ENDBRANCH  51  65
BRANCH  52  76
ATOM     76  C   UNL A   1      41.278  28.484  28.317  1.00  0.00     0.064 A 
ATOM     77  C   UNL A   1      40.887  28.027  29.585  1.00  0.00     0.173 A 
ATOM     78  C   UNL A   1      40.277  28.992  27.475  1.00  0.00     0.173 A 
ATOM     79  F   UNL A   1      41.797  27.499  30.415  1.00  0.00    -0.203 F 
ATOM     80  C   UNL A   1      39.551  28.056  29.983  1.00  0.00     0.198 A 
ATOM     81  C   UNL A   1      38.945  29.046  27.885  1.00  0.00     0.198 A 
ATOM     82  F   UNL A   1      40.590  29.430  26.246  1.00  0.00    -0.203 F 
ATOM     83  F   UNL A   1      39.199  27.561  31.178  1.00  0.00    -0.200 F 
ATOM     84  C   UNL A   1      38.581  28.570  29.135  1.00  0.00     0.200 A 
ATOM     85  F   UNL A   1      38.013  29.548  27.064  1.00  0.00    -0.200 F 
ATOM     86  F   UNL A   1      37.297  28.593  29.516  1.00  0.00    -0.200 F 
ENDBRANCH  52  76
BRANCH  64  87
ATOM     87  C   UNL A   1      46.826  32.631  29.037  1.00  0.00     0.064 A 
ATOM     88  C   UNL A   1      46.613  33.825  28.334  1.00  0.00     0.173 A 
ATOM     89  C   UNL A   1      47.180  32.718  30.392  1.00  0.00     0.173 A 
ATOM     90  F   UNL A   1      46.287  33.793  27.033  1.00  0.00    -0.203 F 
ATOM     91  C   UNL A   1      46.774  35.058  28.957  1.00  0.00     0.198 A 
ATOM     92  C   UNL A   1      47.312  33.953  31.019  1.00  0.00     0.198 A 
ATOM     93  F   UNL A   1      47.386  31.604  31.110  1.00  0.00    -0.203 F 
ATOM     94  F   UNL A   1      46.612  36.188  28.254  1.00  0.00    -0.200 F 
ATOM     95  C   UNL A   1      47.117  35.122  30.300  1.00  0.00     0.200 A 
ATOM     96  F   UNL A   1      47.631  34.012  32.320  1.00  0.00    -0.200 F 
ATOM     97  F   UNL A   1      47.268  36.311  30.899  1.00  0.00    -0.200 F 
ENDBRANCH  64  87
ENDBRANCH  38  39
ENDBRANCH  31  33
ENDBRANCH  30  31
ENDBRANCH  29  30
ENDBRANCH  28  29
ENDBRANCH  27  28
ENDBRANCH  26  27
ENDBRANCH   1  26
TORSDOF 21
ENDMDL
