MODEL 1
REMARK VINA RESULT:     -13.5      0.000      0.000
REMARK SMILES Cc1ccccc1C(=O)Nc1ccc(OCC(=O)OCCOCCOCCOC(=O)c2ccc(-c3c4nc(c(-c5c(F)c(F)c(F)c(F)c5F)c5ccc([nH]5)c(-c5c(F)c(F)c(F)c(F)c5F)c5nc(c(-c6c(F)c(F)c(F)c(F)c6F)c6ccc3[nH]6)C=C5)C=C4)cc2)c(-c2nc3ccccc3s2)c1
REMARK SMILES IDX 23 1 22 2 21 3 20 4 19 5 17 6 18 7 16 8 15 9 14 10 11 11
REMARK SMILES IDX 12 12 104 13 13 14 94 15 10 16 8 17 9 18 7 20 1 21 2 22 3 23
REMARK SMILES IDX 4 24 6 25 5 26 95 27 96 28 103 29 97 30 102 31 98 32 101 33
REMARK SMILES IDX 99 34 100 35 24 36 25 37 26 38 27 39 28 40 29 41 30 42 31 43
REMARK SMILES IDX 32 44 93 45 33 46 92 47 34 48 35 49 36 50 86 51 37 52 91 53
REMARK SMILES IDX 85 54 87 55 38 56 90 57 84 58 83 59 39 61 71 62 51 63 70 64
REMARK SMILES IDX 52 65 55 66 69 67 88 68 53 69 54 70 68 72 89 73 56 74 40 75
REMARK SMILES IDX 41 76 49 77 42 78 43 79 47 80 50 81 44 82 45 83 48 84 46 85
REMARK SMILES IDX 72 86 73 87 81 88 74 89 75 90 79 91 82 92 76 93 77 94 80 95
REMARK SMILES IDX 78 96 57 97 58 98 66 99 59 100 60 101 64 102 67 103 61 104
REMARK SMILES IDX 62 105 65 106 63 107
REMARK H PARENT 10 19 87 60 55 71
REMARK Flexibility Score: inf
ROOT
ATOM      1  C   UNL A   1      41.162  28.047  27.967  1.00  0.00     0.188 C 
ENDROOT
BRANCH   1   2
ATOM      2  O   UNL A   1      40.809  27.119  27.022  1.00  0.00    -0.376 OA
BRANCH   2   3
ATOM      3  C   UNL A   1      39.661  26.407  27.557  1.00  0.00     0.202 C 
BRANCH   3   4
ATOM      4  C   UNL A   1      39.404  24.553  27.670  1.00  0.00     0.261 C 
BRANCH   4   5
ATOM      5  O   UNL A   1      39.544  23.080  26.516  1.00  0.00    -0.461 OA
BRANCH   5   6
ATOM      6  C   UNL A   1      38.759  21.640  25.743  1.00  0.00     0.344 C 
ATOM      7  O   UNL A   1      39.201  20.445  25.741  1.00  0.00    -0.248 OA
BRANCH   6   8
ATOM      8  C   UNL A   1      37.297  21.643  25.414  1.00  0.00     0.352 C 
BRANCH   8   9
ATOM      9  O   UNL A   1      36.621  22.628  24.667  1.00  0.00    -0.481 OA
BRANCH   9  10
ATOM     10  C   UNL A   1      35.188  22.905  24.601  1.00  0.00     0.130 A 
ATOM     11  C   UNL A   1      31.944  24.254  23.386  1.00  0.00     0.042 A 
ATOM     12  C   UNL A   1      33.534  24.893  22.884  1.00  0.00     0.030 A 
ATOM     13  C   UNL A   1      31.889  22.806  24.239  1.00  0.00     0.041 A 
ATOM     14  C   UNL A   1      35.133  24.252  23.373  1.00  0.00     0.049 A 
ATOM     15  C   UNL A   1      33.346  22.105  25.151  1.00  0.00     0.055 A 
BRANCH  11  16
ATOM     16  N   UNL A   1      30.707  25.245  23.598  1.00  0.00    -0.322 N 
ATOM     17  C   UNL A   1      30.195  26.455  24.463  1.00  0.00     0.255 C 
ATOM     18  O   UNL A   1      28.982  26.703  24.328  1.00  0.00    -0.269 OA
ATOM     19  H   UNL A   1      30.007  25.011  22.946  1.00  0.00     0.170 HD
BRANCH  17  20
ATOM     20  C   UNL A   1      30.964  27.691  25.167  1.00  0.00     0.043 A 
ATOM     21  C   UNL A   1      31.735  25.827  26.489  1.00  0.00     0.045 C 
ATOM     22  C   UNL A   1      31.520  27.361  26.334  1.00  0.00    -0.038 A 
ATOM     23  C   UNL A   1      31.569  28.509  27.253  1.00  0.00     0.004 A 
ATOM     24  C   UNL A   1      31.887  29.807  26.984  1.00  0.00     0.000 A 
ATOM     25  C   UNL A   1      31.683  28.880  24.762  1.00  0.00     0.014 A 
ATOM     26  C   UNL A   1      32.203  29.910  25.682  1.00  0.00     0.001 A 
ENDBRANCH  17  20
ENDBRANCH  11  16
BRANCH  15  27
ATOM     27  C   UNL A   1      32.723  20.344  24.776  1.00  0.00     0.128 A 
ATOM     28  N   UNL A   1      32.320  19.377  25.621  1.00  0.00    -0.236 NA
ATOM     29  S   UNL A   1      32.529  19.487  23.053  1.00  0.00    -0.114 S 
ATOM     30  C   UNL A   1      32.568  18.061  25.063  1.00  0.00     0.082 A 
ATOM     31  C   UNL A   1      32.922  18.004  23.720  1.00  0.00     0.055 A 
ATOM     32  C   UNL A   1      32.844  16.893  25.816  1.00  0.00     0.030 A 
ATOM     33  C   UNL A   1      33.643  16.947  23.104  1.00  0.00     0.021 A 
ATOM     34  C   UNL A   1      33.627  15.855  25.253  1.00  0.00     0.002 A 
ATOM     35  C   UNL A   1      34.054  15.899  23.926  1.00  0.00     0.002 A 
ENDBRANCH  15  27
ENDBRANCH   9  10
ENDBRANCH   8   9
ENDBRANCH   6   8
ENDBRANCH   5   6
ENDBRANCH   4   5
ENDBRANCH   3   4
ENDBRANCH   2   3
ENDBRANCH   1   2
BRANCH   1  36
ATOM     36  C   UNL A   1      41.833  29.155  27.311  1.00  0.00     0.188 C 
BRANCH  36  37
ATOM     37  O   UNL A   1      43.054  29.591  26.764  1.00  0.00    -0.376 OA
BRANCH  37  38
ATOM     38  C   UNL A   1      44.209  29.123  27.368  1.00  0.00     0.202 C 
BRANCH  38  39
ATOM     39  C   UNL A   1      45.101  30.234  27.819  1.00  0.00     0.261 C 
BRANCH  39  40
ATOM     40  O   UNL A   1      44.734  31.675  27.222  1.00  0.00    -0.460 OA
BRANCH  40  41
ATOM     41  C   UNL A   1      44.382  32.933  26.682  1.00  0.00     0.338 C 
ATOM     42  O   UNL A   1      44.124  32.839  25.480  1.00  0.00    -0.246 OA
BRANCH  41  43
ATOM     43  C   UNL A   1      44.673  34.528  27.427  1.00  0.00     0.060 A 
ATOM     44  C   UNL A   1      45.843  35.052  29.018  1.00  0.00     0.016 A 
ATOM     45  C   UNL A   1      43.117  34.512  27.415  1.00  0.00     0.016 A 
ATOM     46  C   UNL A   1      44.857  34.471  30.602  1.00  0.00     0.010 A 
ATOM     47  C   UNL A   1      42.587  33.987  28.771  1.00  0.00     0.010 A 
ATOM     48  C   UNL A   1      43.335  33.366  30.313  1.00  0.00    -0.014 A 
BRANCH  48  49
ATOM     49  C   UNL A   1      42.028  32.142  31.265  1.00  0.00     0.031 A 
ATOM     50  C   UNL A   1      40.175  32.915  31.328  1.00  0.00     0.074 A 
ATOM     51  C   UNL A   1      41.958  30.567  31.478  1.00  0.00     0.049 A 
ATOM     52  N   UNL A   1      39.620  33.747  32.239  1.00  0.00    -0.248 NA
ATOM     53  C   UNL A   1      39.417  33.858  29.890  1.00  0.00     0.031 C 
ATOM     54  C   UNL A   1      40.824  29.430  31.914  1.00  0.00     0.029 A 
ATOM     55  N   UNL A   1      42.917  29.477  31.386  1.00  0.00    -0.354 N 
ATOM     56  C   UNL A   1      38.443  34.332  31.675  1.00  0.00     0.074 A 
ATOM     57  C   UNL A   1      38.747  34.866  30.421  1.00  0.00     0.031 C 
ATOM     58  C   UNL A   1      41.371  28.309  32.512  1.00  0.00     0.029 A 
ATOM     59  C   UNL A   1      42.778  28.479  32.406  1.00  0.00     0.049 A 
ATOM     60  H   UNL A   1      43.602  29.429  30.682  1.00  0.00     0.167 HD
ATOM     61  C   UNL A   1      37.269  33.639  31.746  1.00  0.00     0.037 A 
ATOM     62  C   UNL A   1      43.605  28.574  33.479  1.00  0.00     0.037 A 
ATOM     63  C   UNL A   1      37.573  32.365  32.389  1.00  0.00     0.049 A 
ATOM     64  C   UNL A   1      42.752  29.488  34.447  1.00  0.00     0.074 A 
ATOM     65  C   UNL A   1      37.675  31.066  31.953  1.00  0.00     0.029 A 
ATOM     66  N   UNL A   1      38.354  32.417  33.533  1.00  0.00    -0.354 N 
ATOM     67  N   UNL A   1      41.758  30.288  34.109  1.00  0.00    -0.248 NA
ATOM     68  C   UNL A   1      42.926  29.466  35.877  1.00  0.00     0.031 C 
ATOM     69  C   UNL A   1      38.415  30.358  32.965  1.00  0.00     0.029 A 
ATOM     70  C   UNL A   1      38.938  31.238  33.910  1.00  0.00     0.049 A 
ATOM     71  H   UNL A   1      38.481  33.249  34.043  1.00  0.00     0.167 HD
ATOM     72  C   UNL A   1      41.052  30.728  35.186  1.00  0.00     0.074 A 
ATOM     73  C   UNL A   1      41.998  30.369  36.243  1.00  0.00     0.031 C 
ATOM     74  C   UNL A   1      39.765  31.268  35.153  1.00  0.00     0.037 A 
BRANCH  61  75
ATOM     75  C   UNL A   1      35.972  33.959  31.013  1.00  0.00     0.064 A 
ATOM     76  C   UNL A   1      35.117  34.800  31.738  1.00  0.00     0.173 A 
ATOM     77  C   UNL A   1      35.521  33.648  29.696  1.00  0.00     0.173 A 
ATOM     78  F   UNL A   1      35.415  35.173  32.988  1.00  0.00    -0.203 F 
ATOM     79  C   UNL A   1      33.957  35.343  31.212  1.00  0.00     0.198 A 
ATOM     80  C   UNL A   1      34.340  34.202  29.165  1.00  0.00     0.198 A 
ATOM     81  F   UNL A   1      36.178  32.828  28.862  1.00  0.00    -0.203 F 
ATOM     82  F   UNL A   1      33.239  36.176  31.975  1.00  0.00    -0.200 F 
ATOM     83  C   UNL A   1      33.574  35.065  29.921  1.00  0.00     0.200 A 
ATOM     84  F   UNL A   1      33.964  33.923  27.905  1.00  0.00    -0.200 F 
ATOM     85  F   UNL A   1      32.482  35.645  29.409  1.00  0.00    -0.200 F 
ENDBRANCH  61  75
BRANCH  62  86
ATOM     86  C   UNL A   1      44.922  28.920  32.810  1.00  0.00     0.064 A 
ATOM     87  C   UNL A   1      45.705  30.091  33.058  1.00  0.00     0.173 A 
ATOM     88  C   UNL A   1      45.657  27.787  32.561  1.00  0.00     0.173 A 
ATOM     89  F   UNL A   1      45.118  31.206  33.510  1.00  0.00    -0.203 F 
ATOM     90  C   UNL A   1      47.121  30.094  33.002  1.00  0.00     0.198 A 
ATOM     91  C   UNL A   1      47.011  27.811  32.763  1.00  0.00     0.198 A 
ATOM     92  F   UNL A   1      45.071  26.575  32.531  1.00  0.00    -0.203 F 
ATOM     93  F   UNL A   1      47.848  31.176  33.307  1.00  0.00    -0.200 F 
ATOM     94  C   UNL A   1      47.783  28.928  32.803  1.00  0.00     0.200 A 
ATOM     95  F   UNL A   1      47.522  26.664  33.140  1.00  0.00    -0.200 F 
ATOM     96  F   UNL A   1      49.114  28.847  32.725  1.00  0.00    -0.200 F 
ENDBRANCH  62  86
BRANCH  74  97
ATOM     97  C   UNL A   1      39.088  31.917  36.393  1.00  0.00     0.064 A 
ATOM     98  C   UNL A   1      39.441  33.182  36.869  1.00  0.00     0.173 A 
ATOM     99  C   UNL A   1      38.094  31.294  37.214  1.00  0.00     0.173 A 
ATOM    100  F   UNL A   1      40.566  33.788  36.494  1.00  0.00    -0.203 F 
ATOM    101  C   UNL A   1      38.773  33.835  37.903  1.00  0.00     0.198 A 
ATOM    102  C   UNL A   1      37.494  31.904  38.310  1.00  0.00     0.198 A 
ATOM    103  F   UNL A   1      37.645  30.045  37.065  1.00  0.00    -0.203 F 
ATOM    104  F   UNL A   1      39.140  35.082  38.221  1.00  0.00    -0.200 F 
ATOM    105  C   UNL A   1      37.816  33.189  38.643  1.00  0.00     0.200 A 
ATOM    106  F   UNL A   1      36.615  31.209  39.047  1.00  0.00    -0.200 F 
ATOM    107  F   UNL A   1      37.271  33.770  39.715  1.00  0.00    -0.200 F 
ENDBRANCH  74  97
ENDBRANCH  48  49
ENDBRANCH  41  43
ENDBRANCH  40  41
ENDBRANCH  39  40
ENDBRANCH  38  39
ENDBRANCH  37  38
ENDBRANCH  36  37
ENDBRANCH   1  36
TORSDOF 22
ENDMDL
MODEL 2
REMARK VINA RESULT:     -13.2      4.332     10.583
REMARK SMILES Cc1ccccc1C(=O)Nc1ccc(OCC(=O)OCCOCCOCCOC(=O)c2ccc(-c3c4nc(c(-c5c(F)c(F)c(F)c(F)c5F)c5ccc([nH]5)c(-c5c(F)c(F)c(F)c(F)c5F)c5nc(c(-c6c(F)c(F)c(F)c(F)c6F)c6ccc3[nH]6)C=C5)C=C4)cc2)c(-c2nc3ccccc3s2)c1
REMARK SMILES IDX 23 1 22 2 21 3 20 4 19 5 17 6 18 7 16 8 15 9 14 10 11 11
REMARK SMILES IDX 12 12 104 13 13 14 94 15 10 16 8 17 9 18 7 20 1 21 2 22 3 23
REMARK SMILES IDX 4 24 6 25 5 26 95 27 96 28 103 29 97 30 102 31 98 32 101 33
REMARK SMILES IDX 99 34 100 35 24 36 25 37 26 38 27 39 28 40 29 41 30 42 31 43
REMARK SMILES IDX 32 44 93 45 33 46 92 47 34 48 35 49 36 50 86 51 37 52 91 53
REMARK SMILES IDX 85 54 87 55 38 56 90 57 84 58 83 59 39 61 71 62 51 63 70 64
REMARK SMILES IDX 52 65 55 66 69 67 88 68 53 69 54 70 68 72 89 73 56 74 40 75
REMARK SMILES IDX 41 76 49 77 42 78 43 79 47 80 50 81 44 82 45 83 48 84 46 85
REMARK SMILES IDX 72 86 73 87 81 88 74 89 75 90 79 91 82 92 76 93 77 94 80 95
REMARK SMILES IDX 78 96 57 97 58 98 66 99 59 100 60 101 64 102 67 103 61 104
REMARK SMILES IDX 62 105 65 106 63 107
REMARK H PARENT 10 19 87 60 55 71
REMARK Flexibility Score: inf
ROOT
ATOM      1  C   UNL A   1      37.544  34.556  33.925  1.00  0.00     0.188 C 
ENDROOT
BRANCH   1   2
ATOM      2  O   UNL A   1      36.444  34.979  33.226  1.00  0.00    -0.376 OA
BRANCH   2   3
ATOM      3  C   UNL A   1      36.368  34.140  32.041  1.00  0.00     0.202 C 
BRANCH   3   4
ATOM      4  C   UNL A   1      34.964  33.015  31.512  1.00  0.00     0.261 C 
BRANCH   4   5
ATOM      5  O   UNL A   1      34.386  32.203  29.922  1.00  0.00    -0.461 OA
BRANCH   5   6
ATOM      6  C   UNL A   1      34.346  32.206  28.109  1.00  0.00     0.344 C 
ATOM      7  O   UNL A   1      35.312  32.497  27.331  1.00  0.00    -0.248 OA
BRANCH   6   8
ATOM      8  C   UNL A   1      33.301  31.439  27.360  1.00  0.00     0.352 C 
BRANCH   8   9
ATOM      9  O   UNL A   1      33.200  30.036  27.286  1.00  0.00    -0.481 OA
BRANCH   9  10
ATOM     10  C   UNL A   1      32.951  29.194  26.118  1.00  0.00     0.130 A 
ATOM     11  C   UNL A   1      32.314  26.155  24.074  1.00  0.00     0.042 A 
ATOM     12  C   UNL A   1      32.972  26.114  25.734  1.00  0.00     0.030 A 
ATOM     13  C   UNL A   1      31.698  27.604  23.487  1.00  0.00     0.041 A 
ATOM     14  C   UNL A   1      33.241  27.528  26.799  1.00  0.00     0.049 A 
ATOM     15  C   UNL A   1      32.124  29.260  24.208  1.00  0.00     0.055 A 
BRANCH  11  16
ATOM     16  N   UNL A   1      32.826  25.110  22.978  1.00  0.00    -0.322 N 
ATOM     17  C   UNL A   1      33.610  23.759  22.794  1.00  0.00     0.255 C 
ATOM     18  O   UNL A   1      33.922  23.505  21.615  1.00  0.00    -0.269 OA
ATOM     19  H   UNL A   1      32.548  25.431  22.089  1.00  0.00     0.170 HD
BRANCH  17  20
ATOM     20  C   UNL A   1      33.743  22.443  23.724  1.00  0.00     0.043 A 
ATOM     21  C   UNL A   1      35.525  23.824  24.582  1.00  0.00     0.045 C 
ATOM     22  C   UNL A   1      34.875  22.416  24.430  1.00  0.00    -0.038 A 
ATOM     23  C   UNL A   1      35.327  21.038  24.677  1.00  0.00     0.004 A 
ATOM     24  C   UNL A   1      34.587  19.945  25.020  1.00  0.00     0.000 A 
ATOM     25  C   UNL A   1      32.866  21.539  24.437  1.00  0.00     0.014 A 
ATOM     26  C   UNL A   1      33.302  20.318  25.144  1.00  0.00     0.001 A 
ENDBRANCH  17  20
ENDBRANCH  11  16
BRANCH  15  27
ATOM     27  C   UNL A   1      30.388  29.899  23.751  1.00  0.00     0.128 A 
ATOM     28  N   UNL A   1      29.479  29.383  22.904  1.00  0.00    -0.236 NA
ATOM     29  S   UNL A   1      29.492  31.487  24.394  1.00  0.00    -0.114 S 
ATOM     30  C   UNL A   1      28.645  30.427  22.337  1.00  0.00     0.082 A 
ATOM     31  C   UNL A   1      28.735  31.687  22.915  1.00  0.00     0.055 A 
ATOM     32  C   UNL A   1      28.044  30.386  21.055  1.00  0.00     0.030 A 
ATOM     33  C   UNL A   1      28.407  32.911  22.274  1.00  0.00     0.021 A 
ATOM     34  C   UNL A   1      27.776  31.591  20.359  1.00  0.00     0.002 A 
ATOM     35  C   UNL A   1      27.991  32.838  20.946  1.00  0.00     0.002 A 
ENDBRANCH  15  27
ENDBRANCH   9  10
ENDBRANCH   8   9
ENDBRANCH   6   8
ENDBRANCH   5   6
ENDBRANCH   4   5
ENDBRANCH   3   4
ENDBRANCH   2   3
ENDBRANCH   1   2
BRANCH   1  36
ATOM     36  C   UNL A   1      37.203  33.343  34.648  1.00  0.00     0.188 C 
BRANCH  36  37
ATOM     37  O   UNL A   1      37.484  31.969  34.775  1.00  0.00    -0.376 OA
BRANCH  37  38
ATOM     38  C   UNL A   1      38.624  31.506  34.140  1.00  0.00     0.202 C 
BRANCH  38  39
ATOM     39  C   UNL A   1      38.616  30.020  33.976  1.00  0.00     0.261 C 
BRANCH  39  40
ATOM     40  O   UNL A   1      38.331  29.511  32.484  1.00  0.00    -0.460 OA
BRANCH  40  41
ATOM     41  C   UNL A   1      38.086  29.093  31.156  1.00  0.00     0.338 C 
ATOM     42  O   UNL A   1      38.659  28.028  30.917  1.00  0.00    -0.246 OA
BRANCH  41  43
ATOM     43  C   UNL A   1      37.444  30.096  29.827  1.00  0.00     0.060 A 
ATOM     44  C   UNL A   1      36.886  29.582  27.930  1.00  0.00     0.016 A 
ATOM     45  C   UNL A   1      38.709  30.921  30.207  1.00  0.00     0.016 A 
ATOM     46  C   UNL A   1      38.556  29.319  26.951  1.00  0.00     0.010 A 
ATOM     47  C   UNL A   1      39.896  30.504  29.305  1.00  0.00     0.010 A 
ATOM     48  C   UNL A   1      40.160  29.286  27.974  1.00  0.00    -0.014 A 
BRANCH  48  49
ATOM     49  C   UNL A   1      42.125  28.794  27.875  1.00  0.00     0.031 A 
ATOM     50  C   UNL A   1      42.411  26.807  27.925  1.00  0.00     0.074 A 
ATOM     51  C   UNL A   1      43.401  29.503  27.243  1.00  0.00     0.049 A 
ATOM     52  N   UNL A   1      42.552  25.984  28.990  1.00  0.00    -0.248 NA
ATOM     53  C   UNL A   1      41.283  25.594  27.038  1.00  0.00     0.031 C 
ATOM     54  C   UNL A   1      44.947  29.086  26.792  1.00  0.00     0.029 A 
ATOM     55  N   UNL A   1      43.716  30.858  26.819  1.00  0.00    -0.354 N 
ATOM     56  C   UNL A   1      42.338  24.635  28.564  1.00  0.00     0.074 A 
ATOM     57  C   UNL A   1      41.140  24.561  27.850  1.00  0.00     0.031 C 
ATOM     58  C   UNL A   1      45.839  30.143  26.842  1.00  0.00     0.029 A 
ATOM     59  C   UNL A   1      45.047  31.285  27.138  1.00  0.00     0.049 A 
ATOM     60  H   UNL A   1      43.069  31.434  26.351  1.00  0.00     0.167 HD
ATOM     61  C   UNL A   1      43.385  23.945  28.024  1.00  0.00     0.037 A 
ATOM     62  C   UNL A   1      45.202  32.036  28.258  1.00  0.00     0.037 A 
ATOM     63  C   UNL A   1      44.516  24.867  27.983  1.00  0.00     0.049 A 
ATOM     64  C   UNL A   1      45.444  30.917  29.350  1.00  0.00     0.074 A 
ATOM     65  C   UNL A   1      45.166  25.548  26.983  1.00  0.00     0.029 A 
ATOM     66  N   UNL A   1      44.761  25.602  29.131  1.00  0.00    -0.354 N 
ATOM     67  N   UNL A   1      45.119  29.640  29.260  1.00  0.00    -0.248 NA
ATOM     68  C   UNL A   1      46.162  31.176  30.571  1.00  0.00     0.031 C 
ATOM     69  C   UNL A   1      45.902  26.604  27.628  1.00  0.00     0.029 A 
ATOM     70  C   UNL A   1      45.557  26.704  28.975  1.00  0.00     0.049 A 
ATOM     71  H   UNL A   1      44.386  25.348  30.005  1.00  0.00     0.167 HD
ATOM     72  C   UNL A   1      45.697  28.884  30.233  1.00  0.00     0.074 A 
ATOM     73  C   UNL A   1      46.117  29.955  31.137  1.00  0.00     0.031 C 
ATOM     74  C   UNL A   1      45.852  27.497  30.206  1.00  0.00     0.037 A 
BRANCH  61  75
ATOM     75  C   UNL A   1      43.321  22.608  27.298  1.00  0.00     0.064 A 
ATOM     76  C   UNL A   1      42.383  21.723  27.845  1.00  0.00     0.173 A 
ATOM     77  C   UNL A   1      43.960  22.136  26.112  1.00  0.00     0.173 A 
ATOM     78  F   UNL A   1      41.709  22.035  28.958  1.00  0.00    -0.203 F 
ATOM     79  C   UNL A   1      42.046  20.513  27.261  1.00  0.00     0.198 A 
ATOM     80  C   UNL A   1      43.614  20.905  25.522  1.00  0.00     0.198 A 
ATOM     81  F   UNL A   1      44.914  22.820  25.463  1.00  0.00    -0.203 F 
ATOM     82  F   UNL A   1      41.098  19.766  27.840  1.00  0.00    -0.200 F 
ATOM     83  C   UNL A   1      42.642  20.108  26.090  1.00  0.00     0.200 A 
ATOM     84  F   UNL A   1      44.203  20.509  24.380  1.00  0.00    -0.200 F 
ATOM     85  F   UNL A   1      42.262  18.964  25.508  1.00  0.00    -0.200 F 
ENDBRANCH  61  75
BRANCH  62  86
ATOM     86  C   UNL A   1      44.017  32.976  28.153  1.00  0.00     0.064 A 
ATOM     87  C   UNL A   1      42.991  33.144  29.136  1.00  0.00     0.173 A 
ATOM     88  C   UNL A   1      44.363  34.129  27.492  1.00  0.00     0.173 A 
ATOM     89  F   UNL A   1      42.707  32.149  29.985  1.00  0.00    -0.203 F 
ATOM     90  C   UNL A   1      42.350  34.385  29.372  1.00  0.00     0.198 A 
ATOM     91  C   UNL A   1      43.879  35.328  27.939  1.00  0.00     0.198 A 
ATOM     92  F   UNL A   1      45.456  34.172  26.706  1.00  0.00    -0.203 F 
ATOM     93  F   UNL A   1      41.443  34.550  30.344  1.00  0.00    -0.200 F 
ATOM     94  C   UNL A   1      42.779  35.493  28.720  1.00  0.00     0.200 A 
ATOM     95  F   UNL A   1      44.683  36.344  27.741  1.00  0.00    -0.200 F 
ATOM     96  F   UNL A   1      42.221  36.696  28.877  1.00  0.00    -0.200 F 
ENDBRANCH  62  86
BRANCH  74  97
ATOM     97  C   UNL A   1      46.356  26.678  31.427  1.00  0.00     0.064 A 
ATOM     98  C   UNL A   1      47.669  26.211  31.530  1.00  0.00     0.173 A 
ATOM     99  C   UNL A   1      45.549  26.260  32.533  1.00  0.00     0.173 A 
ATOM    100  F   UNL A   1      48.488  26.168  30.481  1.00  0.00    -0.203 F 
ATOM    101  C   UNL A   1      48.178  25.576  32.662  1.00  0.00     0.198 A 
ATOM    102  C   UNL A   1      46.030  25.538  33.619  1.00  0.00     0.198 A 
ATOM    103  F   UNL A   1      44.235  26.465  32.647  1.00  0.00    -0.203 F 
ATOM    104  F   UNL A   1      49.475  25.247  32.687  1.00  0.00    -0.200 F 
ATOM    105  C   UNL A   1      47.355  25.215  33.698  1.00  0.00     0.200 A 
ATOM    106  F   UNL A   1      45.175  25.145  34.576  1.00  0.00    -0.200 F 
ATOM    107  F   UNL A   1      47.819  24.493  34.721  1.00  0.00    -0.200 F 
ENDBRANCH  74  97
ENDBRANCH  48  49
ENDBRANCH  41  43
ENDBRANCH  40  41
ENDBRANCH  39  40
ENDBRANCH  38  39
ENDBRANCH  37  38
ENDBRANCH  36  37
ENDBRANCH   1  36
TORSDOF 22
ENDMDL
MODEL 3
REMARK VINA RESULT:     -13.0      2.504      7.917
REMARK SMILES Cc1ccccc1C(=O)Nc1ccc(OCC(=O)OCCOCCOCCOC(=O)c2ccc(-c3c4nc(c(-c5c(F)c(F)c(F)c(F)c5F)c5ccc([nH]5)c(-c5c(F)c(F)c(F)c(F)c5F)c5nc(c(-c6c(F)c(F)c(F)c(F)c6F)c6ccc3[nH]6)C=C5)C=C4)cc2)c(-c2nc3ccccc3s2)c1
REMARK SMILES IDX 23 1 22 2 21 3 20 4 19 5 17 6 18 7 16 8 15 9 14 10 11 11
REMARK SMILES IDX 12 12 104 13 13 14 94 15 10 16 8 17 9 18 7 20 1 21 2 22 3 23
REMARK SMILES IDX 4 24 6 25 5 26 95 27 96 28 103 29 97 30 102 31 98 32 101 33
REMARK SMILES IDX 99 34 100 35 24 36 25 37 26 38 27 39 28 40 29 41 30 42 31 43
REMARK SMILES IDX 32 44 93 45 33 46 92 47 34 48 35 49 36 50 86 51 37 52 91 53
REMARK SMILES IDX 85 54 87 55 38 56 90 57 84 58 83 59 39 61 71 62 51 63 70 64
REMARK SMILES IDX 52 65 55 66 69 67 88 68 53 69 54 70 68 72 89 73 56 74 40 75
REMARK SMILES IDX 41 76 49 77 42 78 43 79 47 80 50 81 44 82 45 83 48 84 46 85
REMARK SMILES IDX 72 86 73 87 81 88 74 89 75 90 79 91 82 92 76 93 77 94 80 95
REMARK SMILES IDX 78 96 57 97 58 98 66 99 59 100 60 101 64 102 67 103 61 104
REMARK SMILES IDX 62 105 65 106 63 107
REMARK H PARENT 10 19 87 60 55 71
REMARK Flexibility Score: inf
ROOT
ATOM      1  C   UNL A   1      41.508  27.933  29.231  1.00  0.00     0.188 C 
ENDROOT
BRANCH   1   2
ATOM      2  O   UNL A   1      41.388  27.457  27.951  1.00  0.00    -0.376 OA
BRANCH   2   3
ATOM      3  C   UNL A   1      40.078  26.834  27.870  1.00  0.00     0.202 C 
BRANCH   3   4
ATOM      4  C   UNL A   1      39.673  25.004  27.795  1.00  0.00     0.261 C 
BRANCH   4   5
ATOM      5  O   UNL A   1      38.753  23.852  26.634  1.00  0.00    -0.461 OA
BRANCH   5   6
ATOM      6  C   UNL A   1      38.613  22.215  25.868  1.00  0.00     0.344 C 
ATOM      7  O   UNL A   1      39.343  21.200  26.111  1.00  0.00    -0.248 OA
BRANCH   6   8
ATOM      8  C   UNL A   1      37.344  21.782  25.200  1.00  0.00     0.352 C 
BRANCH   8   9
ATOM      9  O   UNL A   1      36.567  22.561  24.320  1.00  0.00    -0.481 OA
BRANCH   9  10
ATOM     10  C   UNL A   1      35.127  22.811  24.345  1.00  0.00     0.130 A 
ATOM     11  C   UNL A   1      31.786  24.092  23.337  1.00  0.00     0.042 A 
ATOM     12  C   UNL A   1      33.328  24.759  22.731  1.00  0.00     0.030 A 
ATOM     13  C   UNL A   1      31.814  22.649  24.197  1.00  0.00     0.041 A 
ATOM     14  C   UNL A   1      34.968  24.150  23.119  1.00  0.00     0.049 A 
ATOM     15  C   UNL A   1      33.340  21.979  25.016  1.00  0.00     0.055 A 
BRANCH  11  16
ATOM     16  N   UNL A   1      30.548  25.062  23.625  1.00  0.00    -0.322 N 
ATOM     17  C   UNL A   1      30.063  26.253  24.530  1.00  0.00     0.255 C 
ATOM     18  O   UNL A   1      28.841  26.483  24.460  1.00  0.00    -0.269 OA
ATOM     19  H   UNL A   1      29.818  24.824  23.006  1.00  0.00     0.170 HD
BRANCH  17  20
ATOM     20  C   UNL A   1      30.848  27.493  25.208  1.00  0.00     0.043 A 
ATOM     21  C   UNL A   1      31.678  25.632  26.497  1.00  0.00     0.045 C 
ATOM     22  C   UNL A   1      31.448  27.165  26.354  1.00  0.00    -0.038 A 
ATOM     23  C   UNL A   1      31.522  28.311  27.273  1.00  0.00     0.004 A 
ATOM     24  C   UNL A   1      31.821  29.613  26.995  1.00  0.00     0.000 A 
ATOM     25  C   UNL A   1      31.544  28.688  24.779  1.00  0.00     0.014 A 
ATOM     26  C   UNL A   1      32.090  29.720  25.682  1.00  0.00     0.001 A 
ENDBRANCH  17  20
ENDBRANCH  11  16
BRANCH  15  27
ATOM     27  C   UNL A   1      32.728  20.205  24.688  1.00  0.00     0.128 A 
ATOM     28  N   UNL A   1      32.295  19.271  25.556  1.00  0.00    -0.236 NA
ATOM     29  S   UNL A   1      32.591  19.282  22.994  1.00  0.00    -0.114 S 
ATOM     30  C   UNL A   1      32.560  17.935  25.058  1.00  0.00     0.082 A 
ATOM     31  C   UNL A   1      32.959  17.826  23.731  1.00  0.00     0.055 A 
ATOM     32  C   UNL A   1      32.809  16.797  25.865  1.00  0.00     0.030 A 
ATOM     33  C   UNL A   1      33.700  16.746  23.182  1.00  0.00     0.021 A 
ATOM     34  C   UNL A   1      33.609  15.737  25.369  1.00  0.00     0.002 A 
ATOM     35  C   UNL A   1      34.081  15.730  24.056  1.00  0.00     0.002 A 
ENDBRANCH  15  27
ENDBRANCH   9  10
ENDBRANCH   8   9
ENDBRANCH   6   8
ENDBRANCH   5   6
ENDBRANCH   4   5
ENDBRANCH   3   4
ENDBRANCH   2   3
ENDBRANCH   1   2
BRANCH   1  36
ATOM     36  C   UNL A   1      41.306  29.372  29.217  1.00  0.00     0.188 C 
BRANCH  36  37
ATOM     37  O   UNL A   1      41.908  30.614  29.494  1.00  0.00    -0.376 OA
BRANCH  37  38
ATOM     38  C   UNL A   1      42.780  30.657  30.569  1.00  0.00     0.202 C 
BRANCH  38  39
ATOM     39  C   UNL A   1      43.967  31.523  30.299  1.00  0.00     0.261 C 
BRANCH  39  40
ATOM     40  O   UNL A   1      43.677  32.787  29.358  1.00  0.00    -0.460 OA
BRANCH  40  41
ATOM     41  C   UNL A   1      43.405  33.882  28.505  1.00  0.00     0.338 C 
ATOM     42  O   UNL A   1      43.802  33.656  27.360  1.00  0.00    -0.246 OA
BRANCH  41  43
ATOM     43  C   UNL A   1      42.976  35.539  29.008  1.00  0.00     0.060 A 
ATOM     44  C   UNL A   1      43.904  36.809  30.313  1.00  0.00     0.016 A 
ATOM     45  C   UNL A   1      41.619  34.819  29.256  1.00  0.00     0.016 A 
ATOM     46  C   UNL A   1      43.466  36.134  32.093  1.00  0.00     0.010 A 
ATOM     47  C   UNL A   1      41.533  34.359  30.733  1.00  0.00     0.010 A 
ATOM     48  C   UNL A   1      42.628  34.428  32.187  1.00  0.00    -0.014 A 
BRANCH  48  49
ATOM     49  C   UNL A   1      42.152  32.935  33.475  1.00  0.00     0.031 A 
ATOM     50  C   UNL A   1      43.760  32.245  34.461  1.00  0.00     0.074 A 
ATOM     51  C   UNL A   1      40.830  32.561  34.278  1.00  0.00     0.049 A 
ATOM     52  N   UNL A   1      44.635  31.275  34.108  1.00  0.00    -0.248 NA
ATOM     53  C   UNL A   1      45.133  33.368  35.081  1.00  0.00     0.031 C 
ATOM     54  C   UNL A   1      40.404  31.618  35.580  1.00  0.00     0.029 A 
ATOM     55  N   UNL A   1      39.423  32.906  34.153  1.00  0.00    -0.354 N 
ATOM     56  C   UNL A   1      45.813  31.401  34.910  1.00  0.00     0.074 A 
ATOM     57  C   UNL A   1      46.265  32.721  34.864  1.00  0.00     0.031 C 
ATOM     58  C   UNL A   1      39.096  31.169  35.529  1.00  0.00     0.029 A 
ATOM     59  C   UNL A   1      38.522  31.820  34.404  1.00  0.00     0.049 A 
ATOM     60  H   UNL A   1      39.115  33.811  33.917  1.00  0.00     0.167 HD
ATOM     61  C   UNL A   1      45.829  30.820  36.145  1.00  0.00     0.037 A 
ATOM     62  C   UNL A   1      38.036  31.159  33.322  1.00  0.00     0.037 A 
ATOM     63  C   UNL A   1      44.512  30.222  36.343  1.00  0.00     0.049 A 
ATOM     64  C   UNL A   1      39.128  30.031  33.131  1.00  0.00     0.074 A 
ATOM     65  C   UNL A   1      43.418  30.536  37.112  1.00  0.00     0.029 A 
ATOM     66  N   UNL A   1      44.005  29.474  35.293  1.00  0.00    -0.354 N 
ATOM     67  N   UNL A   1      40.364  30.040  33.596  1.00  0.00    -0.248 NA
ATOM     68  C   UNL A   1      38.838  28.782  32.478  1.00  0.00     0.031 C 
ATOM     69  C   UNL A   1      42.306  29.821  36.542  1.00  0.00     0.029 A 
ATOM     70  C   UNL A   1      42.657  29.237  35.327  1.00  0.00     0.049 A 
ATOM     71  H   UNL A   1      44.577  29.134  34.568  1.00  0.00     0.167 HD
ATOM     72  C   UNL A   1      40.966  28.823  33.503  1.00  0.00     0.074 A 
ATOM     73  C   UNL A   1      40.037  28.178  32.575  1.00  0.00     0.031 C 
ATOM     74  C   UNL A   1      42.094  28.413  34.215  1.00  0.00     0.037 A 
BRANCH  61  75
ATOM     75  C   UNL A   1      46.866  31.030  37.241  1.00  0.00     0.064 A 
ATOM     76  C   UNL A   1      48.083  30.384  36.985  1.00  0.00     0.173 A 
ATOM     77  C   UNL A   1      46.860  31.839  38.417  1.00  0.00     0.173 A 
ATOM     78  F   UNL A   1      48.230  29.592  35.917  1.00  0.00    -0.203 F 
ATOM     79  C   UNL A   1      49.215  30.556  37.763  1.00  0.00     0.198 A 
ATOM     80  C   UNL A   1      48.014  32.011  39.205  1.00  0.00     0.198 A 
ATOM     81  F   UNL A   1      45.780  32.504  38.852  1.00  0.00    -0.203 F 
ATOM     82  F   UNL A   1      50.342  29.932  37.399  1.00  0.00    -0.200 F 
ATOM     83  C   UNL A   1      49.193  31.383  38.861  1.00  0.00     0.200 A 
ATOM     84  F   UNL A   1      47.988  32.815  40.282  1.00  0.00    -0.200 F 
ATOM     85  F   UNL A   1      50.313  31.585  39.568  1.00  0.00    -0.200 F 
ENDBRANCH  61  75
BRANCH  62  86
ATOM     86  C   UNL A   1      37.729  32.310  32.383  1.00  0.00     0.064 A 
ATOM     87  C   UNL A   1      38.338  32.536  31.108  1.00  0.00     0.173 A 
ATOM     88  C   UNL A   1      36.401  32.654  32.448  1.00  0.00     0.173 A 
ATOM     89  F   UNL A   1      39.562  32.057  30.855  1.00  0.00    -0.203 F 
ATOM     90  C   UNL A   1      37.642  33.114  30.017  1.00  0.00     0.198 A 
ATOM     91  C   UNL A   1      35.737  32.975  31.295  1.00  0.00     0.198 A 
ATOM     92  F   UNL A   1      35.645  32.296  33.502  1.00  0.00    -0.203 F 
ATOM     93  F   UNL A   1      38.197  33.253  28.806  1.00  0.00    -0.200 F 
ATOM     94  C   UNL A   1      36.319  33.380  30.135  1.00  0.00     0.200 A 
ATOM     95  F   UNL A   1      34.465  32.659  31.298  1.00  0.00    -0.200 F 
ATOM     96  F   UNL A   1      35.594  33.935  29.160  1.00  0.00    -0.200 F 
ENDBRANCH  62  86
BRANCH  74  97
ATOM     97  C   UNL A   1      42.837  27.077  33.929  1.00  0.00     0.064 A 
ATOM     98  C   UNL A   1      43.690  26.909  32.835  1.00  0.00     0.173 A 
ATOM     99  C   UNL A   1      42.696  25.873  34.690  1.00  0.00     0.173 A 
ATOM    100  F   UNL A   1      43.696  27.756  31.808  1.00  0.00    -0.203 F 
ATOM    101  C   UNL A   1      44.456  25.765  32.620  1.00  0.00     0.198 A 
ATOM    102  C   UNL A   1      43.384  24.695  34.419  1.00  0.00     0.198 A 
ATOM    103  F   UNL A   1      41.865  25.707  35.722  1.00  0.00    -0.203 F 
ATOM    104  F   UNL A   1      45.306  25.744  31.586  1.00  0.00    -0.200 F 
ATOM    105  C   UNL A   1      44.287  24.646  33.395  1.00  0.00     0.200 A 
ATOM    106  F   UNL A   1      43.134  23.605  35.160  1.00  0.00    -0.200 F 
ATOM    107  F   UNL A   1      44.926  23.510  33.107  1.00  0.00    -0.200 F 
ENDBRANCH  74  97
ENDBRANCH  48  49
ENDBRANCH  41  43
ENDBRANCH  40  41
ENDBRANCH  39  40
ENDBRANCH  38  39
ENDBRANCH  37  38
ENDBRANCH  36  37
ENDBRANCH   1  36
TORSDOF 22
ENDMDL
