MODEL 1
REMARK VINA RESULT:     -12.0      0.000      0.000
REMARK SMILES CC(=O)NS(=O)(=O)c1ccc(-c2ccn(C(F)F)c(=O)c2)cc1C(=O)OCCOCCOCCOC(=O)c1ccc(-c2c3nc(c(-c4c(F)c(F)c(F)c(F)c4F)c4ccc([nH]4)c(-c4c(F)c(F)c(F)c(F)c4F)c4nc(c(-c5c(F)c(F)c(F)c(F)c5F)c5ccc2[nH]5)C=C4)C=C3)cc1
REMARK SMILES IDX 30 1 29 2 28 3 27 4 26 5 24 6 25 7 23 8 8 9 9 10 10 11 22 12
REMARK SMILES IDX 11 13 5 14 6 15 7 16 4 17 1 18 2 19 3 20 12 22 13 23 21 24
REMARK SMILES IDX 14 25 19 26 15 27 20 28 16 29 17 30 18 31 31 32 32 33 33 34
REMARK SMILES IDX 34 35 35 36 36 37 37 38 38 39 39 40 100 41 40 42 99 43 41 44
REMARK SMILES IDX 42 45 43 46 93 47 44 48 98 49 92 50 94 51 45 52 97 53 91 54
REMARK SMILES IDX 90 55 46 57 78 58 58 59 77 60 59 61 62 62 76 63 95 64 60 65
REMARK SMILES IDX 61 66 75 68 96 69 63 70 47 71 48 72 56 73 49 74 50 75 54 76
REMARK SMILES IDX 57 77 51 78 52 79 55 80 53 81 79 82 80 83 88 84 81 85 82 86
REMARK SMILES IDX 86 87 89 88 83 89 84 90 87 91 85 92 64 93 65 94 73 95 66 96
REMARK SMILES IDX 67 97 71 98 74 99 68 100 69 101 72 102 70 103
REMARK H PARENT 4 21 94 56 62 67
REMARK Flexibility Score: inf
ROOT
ATOM      1  C   UNL A   1      39.420  21.546  26.146  1.00  0.00     0.188 C 
ENDROOT
BRANCH   1   2
ATOM      2  O   UNL A   1      38.681  22.709  25.796  1.00  0.00    -0.376 OA
BRANCH   2   3
ATOM      3  C   UNL A   1      37.261  22.634  25.721  1.00  0.00     0.202 C 
BRANCH   3   4
ATOM      4  C   UNL A   1      36.651  22.862  24.343  1.00  0.00     0.261 C 
BRANCH   4   5
ATOM      5  O   UNL A   1      35.967  24.124  24.311  1.00  0.00    -0.460 OA
BRANCH   5   6
ATOM      6  C   UNL A   1      34.870  24.199  25.086  1.00  0.00     0.339 C 
ATOM      7  O   UNL A   1      34.725  24.849  26.105  1.00  0.00    -0.246 OA
BRANCH   6   8
ATOM      8  C   UNL A   1      33.753  23.489  24.439  1.00  0.00     0.081 A 
ATOM      9  C   UNL A   1      32.870  24.050  23.518  1.00  0.00     0.102 A 
ATOM     10  C   UNL A   1      31.867  23.253  22.939  1.00  0.00     0.024 A 
ATOM     11  C   UNL A   1      31.781  21.891  23.242  1.00  0.00     0.010 A 
ATOM     12  C   UNL A   1      33.659  22.122  24.742  1.00  0.00     0.025 A 
ATOM     13  C   UNL A   1      32.697  21.315  24.125  1.00  0.00    -0.017 A 
BRANCH   9  14
ATOM     14  S   UNL A   1      33.065  25.687  22.871  1.00  0.00     0.264 S 
ATOM     15  O   UNL A   1      31.739  26.201  22.611  1.00  0.00    -0.201 OA
ATOM     16  O   UNL A   1      34.059  25.618  21.826  1.00  0.00    -0.201 OA
BRANCH  14  17
ATOM     17  N   UNL A   1      33.712  26.595  24.092  1.00  0.00    -0.249 N 
ATOM     18  C   UNL A   1      34.055  28.775  22.922  1.00  0.00     0.115 C 
ATOM     19  C   UNL A   1      33.791  27.992  24.178  1.00  0.00     0.230 C 
ATOM     20  O   UNL A   1      33.802  28.514  25.285  1.00  0.00    -0.274 OA
ATOM     21  H   UNL A   1      34.088  26.095  24.851  1.00  0.00     0.183 HD
ENDBRANCH  14  17
ENDBRANCH   9  14
BRANCH  13  22
ATOM     22  C   UNL A   1      32.731  19.864  24.354  1.00  0.00    -0.011 A 
ATOM     23  C   UNL A   1      32.612  19.252  25.660  1.00  0.00     0.027 A 
ATOM     24  C   UNL A   1      32.956  19.089  23.280  1.00  0.00     0.080 A 
ATOM     25  C   UNL A   1      32.780  17.932  25.804  1.00  0.00     0.095 A 
ATOM     26  C   UNL A   1      33.123  17.618  23.420  1.00  0.00     0.255 A 
ATOM     27  N   UNL A   1      33.043  17.123  24.712  1.00  0.00    -0.258 N 
ATOM     28  O   UNL A   1      33.341  16.959  22.409  1.00  0.00    -0.269 OA
BRANCH  27  29
ATOM     29  C   UNL A   1      33.268  15.710  24.879  1.00  0.00     0.451 C 
ATOM     30  F   UNL A   1      34.369  15.479  25.633  1.00  0.00    -0.185 F 
ATOM     31  F   UNL A   1      32.208  15.128  25.493  1.00  0.00    -0.185 F 
ENDBRANCH  27  29
ENDBRANCH  13  22
ENDBRANCH   6   8
ENDBRANCH   5   6
ENDBRANCH   4   5
ENDBRANCH   3   4
ENDBRANCH   2   3
ENDBRANCH   1   2
BRANCH   1  32
ATOM     32  C   UNL A   1      40.382  21.565  27.354  1.00  0.00     0.188 C 
BRANCH  32  33
ATOM     33  O   UNL A   1      41.571  20.798  27.328  1.00  0.00    -0.376 OA
BRANCH  33  34
ATOM     34  C   UNL A   1      42.210  20.561  26.081  1.00  0.00     0.202 C 
BRANCH  34  35
ATOM     35  C   UNL A   1      43.260  21.583  25.660  1.00  0.00     0.261 C 
BRANCH  35  36
ATOM     36  O   UNL A   1      42.641  22.735  25.064  1.00  0.00    -0.460 OA
BRANCH  36  37
ATOM     37  C   UNL A   1      43.400  23.854  25.050  1.00  0.00     0.338 C 
ATOM     38  O   UNL A   1      44.328  24.122  24.308  1.00  0.00    -0.246 OA
BRANCH  37  39
ATOM     39  C   UNL A   1      42.811  24.839  25.973  1.00  0.00     0.060 A 
ATOM     40  C   UNL A   1      43.391  26.114  26.020  1.00  0.00     0.016 A 
ATOM     41  C   UNL A   1      41.744  24.508  26.810  1.00  0.00     0.016 A 
ATOM     42  C   UNL A   1      42.921  27.056  26.930  1.00  0.00     0.010 A 
ATOM     43  C   UNL A   1      41.285  25.448  27.735  1.00  0.00     0.010 A 
ATOM     44  C   UNL A   1      41.888  26.716  27.813  1.00  0.00    -0.014 A 
BRANCH  44  45
ATOM     45  C   UNL A   1      41.537  27.637  28.916  1.00  0.00     0.031 A 
ATOM     46  C   UNL A   1      42.361  27.610  30.171  1.00  0.00     0.074 A 
ATOM     47  C   UNL A   1      40.511  28.495  28.796  1.00  0.00     0.049 A 
ATOM     48  N   UNL A   1      42.204  28.286  31.280  1.00  0.00    -0.248 NA
ATOM     49  C   UNL A   1      43.521  26.706  30.171  1.00  0.00     0.031 C 
ATOM     50  C   UNL A   1      39.676  28.651  27.607  1.00  0.00     0.029 A 
ATOM     51  N   UNL A   1      39.987  29.385  29.699  1.00  0.00    -0.354 N 
ATOM     52  C   UNL A   1      43.245  27.892  32.108  1.00  0.00     0.074 A 
ATOM     53  C   UNL A   1      44.017  26.905  31.382  1.00  0.00     0.031 C 
ATOM     54  C   UNL A   1      38.722  29.564  27.864  1.00  0.00     0.029 A 
ATOM     55  C   UNL A   1      38.861  30.024  29.245  1.00  0.00     0.049 A 
ATOM     56  H   UNL A   1      40.382  29.549  30.586  1.00  0.00     0.167 HD
ATOM     57  C   UNL A   1      43.534  28.319  33.360  1.00  0.00     0.037 A 
ATOM     58  C   UNL A   1      38.017  30.853  29.890  1.00  0.00     0.037 A 
ATOM     59  C   UNL A   1      42.750  29.278  34.090  1.00  0.00     0.049 A 
ATOM     60  C   UNL A   1      38.279  31.205  31.330  1.00  0.00     0.074 A 
ATOM     61  C   UNL A   1      42.977  29.800  35.351  1.00  0.00     0.029 A 
ATOM     62  N   UNL A   1      41.569  29.839  33.630  1.00  0.00    -0.354 N 
ATOM     63  N   UNL A   1      39.286  30.859  32.096  1.00  0.00    -0.248 NA
ATOM     64  C   UNL A   1      37.280  32.051  31.999  1.00  0.00     0.031 C 
ATOM     65  C   UNL A   1      41.905  30.640  35.674  1.00  0.00     0.029 A 
ATOM     66  C   UNL A   1      41.034  30.674  34.597  1.00  0.00     0.049 A 
ATOM     67  H   UNL A   1      41.170  29.670  32.747  1.00  0.00     0.167 HD
ATOM     68  C   UNL A   1      39.050  31.455  33.329  1.00  0.00     0.074 A 
ATOM     69  C   UNL A   1      37.812  32.196  33.204  1.00  0.00     0.031 C 
ATOM     70  C   UNL A   1      39.793  31.396  34.462  1.00  0.00     0.037 A 
BRANCH  57  71
ATOM     71  C   UNL A   1      44.734  27.718  34.026  1.00  0.00     0.064 A 
ATOM     72  C   UNL A   1      45.987  28.349  33.988  1.00  0.00     0.173 A 
ATOM     73  C   UNL A   1      44.630  26.501  34.715  1.00  0.00     0.173 A 
ATOM     74  F   UNL A   1      46.140  29.505  33.325  1.00  0.00    -0.203 F 
ATOM     75  C   UNL A   1      47.097  27.768  34.593  1.00  0.00     0.198 A 
ATOM     76  C   UNL A   1      45.737  25.934  35.338  1.00  0.00     0.198 A 
ATOM     77  F   UNL A   1      43.454  25.859  34.778  1.00  0.00    -0.203 F 
ATOM     78  F   UNL A   1      48.295  28.363  34.503  1.00  0.00    -0.200 F 
ATOM     79  C   UNL A   1      46.972  26.564  35.271  1.00  0.00     0.200 A 
ATOM     80  F   UNL A   1      45.614  24.774  35.997  1.00  0.00    -0.200 F 
ATOM     81  F   UNL A   1      48.043  26.005  35.850  1.00  0.00    -0.200 F 
ENDBRANCH  57  71
BRANCH  58  82
ATOM     82  C   UNL A   1      36.821  31.382  29.187  1.00  0.00     0.064 A 
ATOM     83  C   UNL A   1      35.734  30.549  28.891  1.00  0.00     0.173 A 
ATOM     84  C   UNL A   1      36.747  32.724  28.787  1.00  0.00     0.173 A 
ATOM     85  F   UNL A   1      35.779  29.251  29.226  1.00  0.00    -0.203 F 
ATOM     86  C   UNL A   1      34.619  31.038  28.214  1.00  0.00     0.198 A 
ATOM     87  C   UNL A   1      35.622  33.216  28.131  1.00  0.00     0.198 A 
ATOM     88  F   UNL A   1      37.768  33.556  29.040  1.00  0.00    -0.203 F 
ATOM     89  F   UNL A   1      33.610  30.212  27.906  1.00  0.00    -0.200 F 
ATOM     90  C   UNL A   1      34.561  32.372  27.841  1.00  0.00     0.200 A 
ATOM     91  F   UNL A   1      35.570  34.508  27.774  1.00  0.00    -0.200 F 
ATOM     92  F   UNL A   1      33.488  32.843  27.191  1.00  0.00    -0.200 F 
ENDBRANCH  58  82
BRANCH  70  93
ATOM     93  C   UNL A   1      39.296  32.159  35.653  1.00  0.00     0.064 A 
ATOM     94  C   UNL A   1      39.617  33.511  35.841  1.00  0.00     0.173 A 
ATOM     95  C   UNL A   1      38.452  31.547  36.592  1.00  0.00     0.173 A 
ATOM     96  F   UNL A   1      40.436  34.135  34.980  1.00  0.00    -0.203 F 
ATOM     97  C   UNL A   1      39.124  34.219  36.934  1.00  0.00     0.198 A 
ATOM     98  C   UNL A   1      37.940  32.264  37.669  1.00  0.00     0.198 A 
ATOM     99  F   UNL A   1      38.111  30.257  36.452  1.00  0.00    -0.203 F 
ATOM    100  F   UNL A   1      39.473  35.500  37.113  1.00  0.00    -0.200 F 
ATOM    101  C   UNL A   1      38.280  33.597  37.843  1.00  0.00     0.200 A 
ATOM    102  F   UNL A   1      37.115  31.665  38.540  1.00  0.00    -0.200 F 
ATOM    103  F   UNL A   1      37.798  34.282  38.889  1.00  0.00    -0.200 F 
ENDBRANCH  70  93
ENDBRANCH  44  45
ENDBRANCH  37  39
ENDBRANCH  36  37
ENDBRANCH  35  36
ENDBRANCH  34  35
ENDBRANCH  33  34
ENDBRANCH  32  33
ENDBRANCH   1  32
TORSDOF 21
ENDMDL
MODEL 2
REMARK VINA RESULT:     -11.0      2.496      8.264
REMARK SMILES CC(=O)NS(=O)(=O)c1ccc(-c2ccn(C(F)F)c(=O)c2)cc1C(=O)OCCOCCOCCOC(=O)c1ccc(-c2c3nc(c(-c4c(F)c(F)c(F)c(F)c4F)c4ccc([nH]4)c(-c4c(F)c(F)c(F)c(F)c4F)c4nc(c(-c5c(F)c(F)c(F)c(F)c5F)c5ccc2[nH]5)C=C4)C=C3)cc1
REMARK SMILES IDX 30 1 29 2 28 3 27 4 26 5 24 6 25 7 23 8 8 9 9 10 10 11 22 12
REMARK SMILES IDX 11 13 5 14 6 15 7 16 4 17 1 18 2 19 3 20 12 22 13 23 21 24
REMARK SMILES IDX 14 25 19 26 15 27 20 28 16 29 17 30 18 31 31 32 32 33 33 34
REMARK SMILES IDX 34 35 35 36 36 37 37 38 38 39 39 40 100 41 40 42 99 43 41 44
REMARK SMILES IDX 42 45 43 46 93 47 44 48 98 49 92 50 94 51 45 52 97 53 91 54
REMARK SMILES IDX 90 55 46 57 78 58 58 59 77 60 59 61 62 62 76 63 95 64 60 65
REMARK SMILES IDX 61 66 75 68 96 69 63 70 47 71 48 72 56 73 49 74 50 75 54 76
REMARK SMILES IDX 57 77 51 78 52 79 55 80 53 81 79 82 80 83 88 84 81 85 82 86
REMARK SMILES IDX 86 87 89 88 83 89 84 90 87 91 85 92 64 93 65 94 73 95 66 96
REMARK SMILES IDX 67 97 71 98 74 99 68 100 69 101 72 102 70 103
REMARK H PARENT 4 21 94 56 62 67
REMARK Flexibility Score: inf
ROOT
ATOM      1  C   UNL A   1      40.179  21.807  26.767  1.00  0.00     0.188 C 
ENDROOT
BRANCH   1   2
ATOM      2  O   UNL A   1      39.123  22.755  26.705  1.00  0.00    -0.376 OA
BRANCH   2   3
ATOM      3  C   UNL A   1      38.010  22.503  25.852  1.00  0.00     0.202 C 
BRANCH   3   4
ATOM      4  C   UNL A   1      36.933  23.582  25.822  1.00  0.00     0.261 C 
BRANCH   4   5
ATOM      5  O   UNL A   1      35.824  23.146  25.021  1.00  0.00    -0.460 OA
BRANCH   5   6
ATOM      6  C   UNL A   1      34.684  22.917  25.698  1.00  0.00     0.339 C 
ATOM      7  O   UNL A   1      34.545  22.819  26.904  1.00  0.00    -0.246 OA
BRANCH   6   8
ATOM      8  C   UNL A   1      33.539  22.956  24.774  1.00  0.00     0.081 A 
ATOM      9  C   UNL A   1      32.937  21.842  24.192  1.00  0.00     0.102 A 
ATOM     10  C   UNL A   1      31.820  22.010  23.354  1.00  0.00     0.024 A 
ATOM     11  C   UNL A   1      31.278  23.281  23.142  1.00  0.00     0.010 A 
ATOM     12  C   UNL A   1      32.992  24.230  24.554  1.00  0.00     0.025 A 
ATOM     13  C   UNL A   1      31.847  24.394  23.766  1.00  0.00    -0.017 A 
BRANCH   9  14
ATOM     14  S   UNL A   1      33.381  20.180  24.610  1.00  0.00     0.264 S 
ATOM     15  O   UNL A   1      32.513  19.767  25.689  1.00  0.00    -0.201 OA
ATOM     16  O   UNL A   1      34.818  20.143  24.749  1.00  0.00    -0.201 OA
BRANCH  14  17
ATOM     17  N   UNL A   1      33.002  19.252  23.294  1.00  0.00    -0.249 N 
ATOM     18  C   UNL A   1      34.027  17.070  23.948  1.00  0.00     0.115 C 
ATOM     19  C   UNL A   1      32.982  17.853  23.203  1.00  0.00     0.230 C 
ATOM     20  O   UNL A   1      32.223  17.327  22.399  1.00  0.00    -0.274 OA
ATOM     21  H   UNL A   1      32.760  19.741  22.475  1.00  0.00     0.183 HD
ENDBRANCH  14  17
ENDBRANCH   9  14
BRANCH  13  22
ATOM     22  C   UNL A   1      31.219  25.720  23.688  1.00  0.00    -0.011 A 
ATOM     23  C   UNL A   1      29.794  25.942  23.796  1.00  0.00     0.027 A 
ATOM     24  C   UNL A   1      32.032  26.758  23.431  1.00  0.00     0.080 A 
ATOM     25  C   UNL A   1      29.284  27.163  23.588  1.00  0.00     0.095 A 
ATOM     26  C   UNL A   1      31.484  28.124  23.218  1.00  0.00     0.255 A 
ATOM     27  N   UNL A   1      30.105  28.237  23.292  1.00  0.00    -0.258 N 
ATOM     28  O   UNL A   1      32.269  29.034  22.973  1.00  0.00    -0.269 OA
BRANCH  27  29
ATOM     29  C   UNL A   1      29.547  29.538  23.023  1.00  0.00     0.451 C 
ATOM     30  F   UNL A   1      29.593  29.823  21.700  1.00  0.00    -0.185 F 
ATOM     31  F   UNL A   1      28.251  29.592  23.420  1.00  0.00    -0.185 F 
ENDBRANCH  27  29
ENDBRANCH  13  22
ENDBRANCH   6   8
ENDBRANCH   5   6
ENDBRANCH   4   5
ENDBRANCH   3   4
ENDBRANCH   2   3
ENDBRANCH   1   2
BRANCH   1  32
ATOM     32  C   UNL A   1      41.465  22.014  25.939  1.00  0.00     0.188 C 
BRANCH  32  33
ATOM     33  O   UNL A   1      42.580  21.164  26.132  1.00  0.00    -0.376 OA
BRANCH  33  34
ATOM     34  C   UNL A   1      43.724  21.330  25.305  1.00  0.00     0.202 C 
BRANCH  34  35
ATOM     35  C   UNL A   1      44.004  22.749  24.824  1.00  0.00     0.261 C 
BRANCH  35  36
ATOM     36  O   UNL A   1      44.759  23.481  25.804  1.00  0.00    -0.460 OA
BRANCH  36  37
ATOM     37  C   UNL A   1      44.843  24.813  25.588  1.00  0.00     0.338 C 
ATOM     38  O   UNL A   1      45.349  25.389  24.642  1.00  0.00    -0.246 OA
BRANCH  37  39
ATOM     39  C   UNL A   1      44.038  25.510  26.605  1.00  0.00     0.060 A 
ATOM     40  C   UNL A   1      44.218  26.893  26.742  1.00  0.00     0.016 A 
ATOM     41  C   UNL A   1      43.158  24.819  27.439  1.00  0.00     0.016 A 
ATOM     42  C   UNL A   1      43.538  27.585  27.739  1.00  0.00     0.010 A 
ATOM     43  C   UNL A   1      42.489  25.512  28.450  1.00  0.00     0.010 A 
ATOM     44  C   UNL A   1      42.695  26.892  28.618  1.00  0.00    -0.014 A 
BRANCH  44  45
ATOM     45  C   UNL A   1      42.145  27.587  29.802  1.00  0.00     0.031 A 
ATOM     46  C   UNL A   1      40.880  28.381  29.652  1.00  0.00     0.074 A 
ATOM     47  C   UNL A   1      42.755  27.499  30.995  1.00  0.00     0.049 A 
ATOM     48  N   UNL A   1      40.251  29.111  30.536  1.00  0.00    -0.248 NA
ATOM     49  C   UNL A   1      40.235  28.338  28.331  1.00  0.00     0.031 C 
ATOM     50  C   UNL A   1      43.956  26.715  31.274  1.00  0.00     0.029 A 
ATOM     51  N   UNL A   1      42.452  28.097  32.193  1.00  0.00    -0.354 N 
ATOM     52  C   UNL A   1      39.135  29.611  29.881  1.00  0.00     0.074 A 
ATOM     53  C   UNL A   1      39.182  29.118  28.521  1.00  0.00     0.031 C 
ATOM     54  C   UNL A   1      44.306  26.902  32.559  1.00  0.00     0.029 A 
ATOM     55  C   UNL A   1      43.377  27.847  33.176  1.00  0.00     0.049 A 
ATOM     56  H   UNL A   1      41.650  28.650  32.332  1.00  0.00     0.167 HD
ATOM     57  C   UNL A   1      38.156  30.408  30.372  1.00  0.00     0.037 A 
ATOM     58  C   UNL A   1      43.479  28.359  34.418  1.00  0.00     0.037 A 
ATOM     59  C   UNL A   1      38.125  30.921  31.715  1.00  0.00     0.049 A 
ATOM     60  C   UNL A   1      42.455  29.354  34.896  1.00  0.00     0.074 A 
ATOM     61  C   UNL A   1      37.162  31.709  32.318  1.00  0.00     0.029 A 
ATOM     62  N   UNL A   1      39.122  30.715  32.656  1.00  0.00    -0.354 N 
ATOM     63  N   UNL A   1      41.382  29.795  34.285  1.00  0.00    -0.248 NA
ATOM     64  C   UNL A   1      42.666  29.933  36.231  1.00  0.00     0.031 C 
ATOM     65  C   UNL A   1      37.600  32.020  33.610  1.00  0.00     0.029 A 
ATOM     66  C   UNL A   1      38.816  31.392  33.825  1.00  0.00     0.049 A 
ATOM     67  H   UNL A   1      39.928  30.168  32.515  1.00  0.00     0.167 HD
ATOM     68  C   UNL A   1      40.782  30.690  35.164  1.00  0.00     0.074 A 
ATOM     69  C   UNL A   1      41.605  30.718  36.356  1.00  0.00     0.031 C 
ATOM     70  C   UNL A   1      39.652  31.420  34.999  1.00  0.00     0.037 A 
BRANCH  57  71
ATOM     71  C   UNL A   1      37.057  30.798  29.430  1.00  0.00     0.064 A 
ATOM     72  C   UNL A   1      36.986  32.088  28.881  1.00  0.00     0.173 A 
ATOM     73  C   UNL A   1      36.069  29.871  29.068  1.00  0.00     0.173 A 
ATOM     74  F   UNL A   1      37.898  33.014  29.213  1.00  0.00    -0.203 F 
ATOM     75  C   UNL A   1      35.948  32.441  28.025  1.00  0.00     0.198 A 
ATOM     76  C   UNL A   1      35.045  30.223  28.194  1.00  0.00     0.198 A 
ATOM     77  F   UNL A   1      36.095  28.627  29.568  1.00  0.00    -0.203 F 
ATOM     78  F   UNL A   1      35.871  33.692  27.549  1.00  0.00    -0.200 F 
ATOM     79  C   UNL A   1      34.981  31.510  27.678  1.00  0.00     0.200 A 
ATOM     80  F   UNL A   1      34.115  29.320  27.856  1.00  0.00    -0.200 F 
ATOM     81  F   UNL A   1      33.980  31.853  26.856  1.00  0.00    -0.200 F 
ENDBRANCH  57  71
BRANCH  58  82
ATOM     82  C   UNL A   1      44.616  27.965  35.288  1.00  0.00     0.064 A 
ATOM     83  C   UNL A   1      45.768  28.758  35.368  1.00  0.00     0.173 A 
ATOM     84  C   UNL A   1      44.577  26.785  36.044  1.00  0.00     0.173 A 
ATOM     85  F   UNL A   1      45.859  29.876  34.634  1.00  0.00    -0.203 F 
ATOM     86  C   UNL A   1      46.844  28.380  36.167  1.00  0.00     0.198 A 
ATOM     87  C   UNL A   1      45.644  26.420  36.860  1.00  0.00     0.198 A 
ATOM     88  F   UNL A   1      43.499  25.988  35.991  1.00  0.00    -0.203 F 
ATOM     89  F   UNL A   1      47.952  29.132  36.196  1.00  0.00    -0.200 F 
ATOM     90  C   UNL A   1      46.779  27.216  36.918  1.00  0.00     0.200 A 
ATOM     91  F   UNL A   1      45.575  25.295  37.586  1.00  0.00    -0.200 F 
ATOM     92  F   UNL A   1      47.813  26.852  37.689  1.00  0.00    -0.200 F 
ENDBRANCH  58  82
BRANCH  70  93
ATOM     93  C   UNL A   1      39.230  32.303  36.135  1.00  0.00     0.064 A 
ATOM     94  C   UNL A   1      38.332  31.855  37.115  1.00  0.00     0.173 A 
ATOM     95  C   UNL A   1      39.764  33.593  36.273  1.00  0.00     0.173 A 
ATOM     96  F   UNL A   1      37.781  30.636  37.017  1.00  0.00    -0.203 F 
ATOM     97  C   UNL A   1      37.973  32.673  38.184  1.00  0.00     0.198 A 
ATOM     98  C   UNL A   1      39.422  34.398  37.356  1.00  0.00     0.198 A 
ATOM     99  F   UNL A   1      40.632  34.065  35.365  1.00  0.00    -0.203 F 
ATOM    100  F   UNL A   1      37.085  32.237  39.088  1.00  0.00    -0.200 F 
ATOM    101  C   UNL A   1      38.523  33.940  38.307  1.00  0.00     0.200 A 
ATOM    102  F   UNL A   1      39.965  35.618  37.480  1.00  0.00    -0.200 F 
ATOM    103  F   UNL A   1      38.184  34.721  39.341  1.00  0.00    -0.200 F 
ENDBRANCH  70  93
ENDBRANCH  44  45
ENDBRANCH  37  39
ENDBRANCH  36  37
ENDBRANCH  35  36
ENDBRANCH  34  35
ENDBRANCH  33  34
ENDBRANCH  32  33
ENDBRANCH   1  32
TORSDOF 21
ENDMDL
MODEL 3
REMARK VINA RESULT:     -11.0      4.351      6.416
REMARK SMILES CC(=O)NS(=O)(=O)c1ccc(-c2ccn(C(F)F)c(=O)c2)cc1C(=O)OCCOCCOCCOC(=O)c1ccc(-c2c3nc(c(-c4c(F)c(F)c(F)c(F)c4F)c4ccc([nH]4)c(-c4c(F)c(F)c(F)c(F)c4F)c4nc(c(-c5c(F)c(F)c(F)c(F)c5F)c5ccc2[nH]5)C=C4)C=C3)cc1
REMARK SMILES IDX 30 1 29 2 28 3 27 4 26 5 24 6 25 7 23 8 8 9 9 10 10 11 22 12
REMARK SMILES IDX 11 13 5 14 6 15 7 16 4 17 1 18 2 19 3 20 12 22 13 23 21 24
REMARK SMILES IDX 14 25 19 26 15 27 20 28 16 29 17 30 18 31 31 32 32 33 33 34
REMARK SMILES IDX 34 35 35 36 36 37 37 38 38 39 39 40 100 41 40 42 99 43 41 44
REMARK SMILES IDX 42 45 43 46 93 47 44 48 98 49 92 50 94 51 45 52 97 53 91 54
REMARK SMILES IDX 90 55 46 57 78 58 58 59 77 60 59 61 62 62 76 63 95 64 60 65
REMARK SMILES IDX 61 66 75 68 96 69 63 70 47 71 48 72 56 73 49 74 50 75 54 76
REMARK SMILES IDX 57 77 51 78 52 79 55 80 53 81 79 82 80 83 88 84 81 85 82 86
REMARK SMILES IDX 86 87 89 88 83 89 84 90 87 91 85 92 64 93 65 94 73 95 66 96
REMARK SMILES IDX 67 97 71 98 74 99 68 100 69 101 72 102 70 103
REMARK H PARENT 4 21 94 56 62 67
REMARK Flexibility Score: inf
ROOT
ATOM      1  C   UNL A   1      38.022  23.909  26.449  1.00  0.00     0.188 C 
ENDROOT
BRANCH   1   2
ATOM      2  O   UNL A   1      36.676  24.364  26.429  1.00  0.00    -0.376 OA
BRANCH   2   3
ATOM      3  C   UNL A   1      35.665  23.524  25.881  1.00  0.00     0.202 C 
BRANCH   3   4
ATOM      4  C   UNL A   1      34.283  23.639  26.515  1.00  0.00     0.261 C 
BRANCH   4   5
ATOM      5  O   UNL A   1      33.668  24.878  26.130  1.00  0.00    -0.460 OA
BRANCH   5   6
ATOM      6  C   UNL A   1      32.409  24.771  25.666  1.00  0.00     0.339 C 
ATOM      7  O   UNL A   1      31.429  25.396  26.031  1.00  0.00    -0.246 OA
BRANCH   6   8
ATOM      8  C   UNL A   1      32.383  23.876  24.498  1.00  0.00     0.081 A 
ATOM      9  C   UNL A   1      32.462  24.287  23.168  1.00  0.00     0.102 A 
ATOM     10  C   UNL A   1      32.467  23.327  22.141  1.00  0.00     0.024 A 
ATOM     11  C   UNL A   1      32.444  21.962  22.445  1.00  0.00     0.010 A 
ATOM     12  C   UNL A   1      32.356  22.505  24.796  1.00  0.00     0.025 A 
ATOM     13  C   UNL A   1      32.417  21.547  23.778  1.00  0.00    -0.017 A 
BRANCH   9  14
ATOM     14  S   UNL A   1      32.763  25.967  22.696  1.00  0.00     0.264 S 
ATOM     15  O   UNL A   1      31.484  26.639  22.681  1.00  0.00    -0.201 OA
ATOM     16  O   UNL A   1      33.607  25.937  21.524  1.00  0.00    -0.201 OA
BRANCH  14  17
ATOM     17  N   UNL A   1      33.656  26.639  23.915  1.00  0.00    -0.249 N 
ATOM     18  C   UNL A   1      33.831  29.000  23.120  1.00  0.00     0.115 C 
ATOM     19  C   UNL A   1      33.788  27.997  24.238  1.00  0.00     0.230 C 
ATOM     20  O   UNL A   1      34.025  28.304  25.399  1.00  0.00    -0.274 OA
ATOM     21  H   UNL A   1      34.155  26.010  24.484  1.00  0.00     0.183 HD
ENDBRANCH  14  17
ENDBRANCH   9  14
BRANCH  13  22
ATOM     22  C   UNL A   1      32.542  20.128  24.140  1.00  0.00    -0.011 A 
ATOM     23  C   UNL A   1      32.629  19.651  25.504  1.00  0.00     0.027 A 
ATOM     24  C   UNL A   1      32.649  19.254  23.127  1.00  0.00     0.080 A 
ATOM     25  C   UNL A   1      32.870  18.357  25.751  1.00  0.00     0.095 A 
ATOM     26  C   UNL A   1      32.894  17.810  23.385  1.00  0.00     0.255 A 
ATOM     27  N   UNL A   1      33.013  17.449  24.717  1.00  0.00    -0.258 N 
ATOM     28  O   UNL A   1      32.998  17.057  22.422  1.00  0.00    -0.269 OA
BRANCH  27  29
ATOM     29  C   UNL A   1      33.317  16.067  24.989  1.00  0.00     0.451 C 
ATOM     30  F   UNL A   1      34.041  15.942  26.127  1.00  0.00    -0.185 F 
ATOM     31  F   UNL A   1      32.177  15.348  25.135  1.00  0.00    -0.185 F 
ENDBRANCH  27  29
ENDBRANCH  13  22
ENDBRANCH   6   8
ENDBRANCH   5   6
ENDBRANCH   4   5
ENDBRANCH   3   4
ENDBRANCH   2   3
ENDBRANCH   1   2
BRANCH   1  32
ATOM     32  C   UNL A   1      38.387  22.524  25.873  1.00  0.00     0.188 C 
BRANCH  32  33
ATOM     33  O   UNL A   1      39.716  22.045  25.963  1.00  0.00    -0.376 OA
BRANCH  33  34
ATOM     34  C   UNL A   1      39.972  20.857  26.701  1.00  0.00     0.202 C 
BRANCH  34  35
ATOM     35  C   UNL A   1      40.460  19.659  25.894  1.00  0.00     0.261 C 
BRANCH  35  36
ATOM     36  O   UNL A   1      41.646  19.098  26.482  1.00  0.00    -0.460 OA
BRANCH  36  37
ATOM     37  C   UNL A   1      42.782  19.282  25.773  1.00  0.00     0.338 C 
ATOM     38  O   UNL A   1      43.279  18.539  24.945  1.00  0.00    -0.246 OA
BRANCH  37  39
ATOM     39  C   UNL A   1      43.270  20.652  26.005  1.00  0.00     0.060 A 
ATOM     40  C   UNL A   1      43.331  21.105  27.329  1.00  0.00     0.016 A 
ATOM     41  C   UNL A   1      43.618  21.492  24.945  1.00  0.00     0.016 A 
ATOM     42  C   UNL A   1      43.712  22.416  27.596  1.00  0.00     0.010 A 
ATOM     43  C   UNL A   1      43.983  22.813  25.213  1.00  0.00     0.010 A 
ATOM     44  C   UNL A   1      44.009  23.285  26.537  1.00  0.00    -0.014 A 
BRANCH  44  45
ATOM     45  C   UNL A   1      44.203  24.726  26.808  1.00  0.00     0.031 A 
ATOM     46  C   UNL A   1      45.584  25.303  26.700  1.00  0.00     0.074 A 
ATOM     47  C   UNL A   1      43.162  25.511  27.130  1.00  0.00     0.049 A 
ATOM     48  N   UNL A   1      45.994  26.521  26.943  1.00  0.00    -0.248 NA
ATOM     49  C   UNL A   1      46.642  24.386  26.248  1.00  0.00     0.031 C 
ATOM     50  C   UNL A   1      41.769  25.077  27.212  1.00  0.00     0.029 A 
ATOM     51  N   UNL A   1      43.124  26.841  27.468  1.00  0.00    -0.354 N 
ATOM     52  C   UNL A   1      47.355  26.518  26.672  1.00  0.00     0.074 A 
ATOM     53  C   UNL A   1      47.705  25.174  26.263  1.00  0.00     0.031 C 
ATOM     54  C   UNL A   1      41.013  26.116  27.605  1.00  0.00     0.029 A 
ATOM     55  C   UNL A   1      41.875  27.274  27.838  1.00  0.00     0.049 A 
ATOM     56  H   UNL A   1      43.915  27.426  27.446  1.00  0.00     0.167 HD
ATOM     57  C   UNL A   1      48.233  27.545  26.753  1.00  0.00     0.037 A 
ATOM     58  C   UNL A   1      41.486  28.459  28.347  1.00  0.00     0.037 A 
ATOM     59  C   UNL A   1      47.890  28.872  27.186  1.00  0.00     0.049 A 
ATOM     60  C   UNL A   1      42.507  29.545  28.561  1.00  0.00     0.074 A 
ATOM     61  C   UNL A   1      48.699  29.991  27.272  1.00  0.00     0.029 A 
ATOM     62  N   UNL A   1      46.633  29.251  27.634  1.00  0.00    -0.354 N 
ATOM     63  N   UNL A   1      43.785  29.548  28.268  1.00  0.00    -0.248 NA
ATOM     64  C   UNL A   1      42.032  30.786  29.191  1.00  0.00     0.031 C 
ATOM     65  C   UNL A   1      47.944  31.035  27.819  1.00  0.00     0.029 A 
ATOM     66  C   UNL A   1      46.654  30.577  28.034  1.00  0.00     0.049 A 
ATOM     67  H   UNL A   1      45.844  28.665  27.663  1.00  0.00     0.167 HD
ATOM     68  C   UNL A   1      44.264  30.792  28.662  1.00  0.00     0.074 A 
ATOM     69  C   UNL A   1      43.136  31.521  29.203  1.00  0.00     0.031 C 
ATOM     70  C   UNL A   1      45.524  31.286  28.582  1.00  0.00     0.037 A 
BRANCH  57  71
ATOM     71  C   UNL A   1      49.659  27.255  26.394  1.00  0.00     0.064 A 
ATOM     72  C   UNL A   1      50.103  27.298  25.064  1.00  0.00     0.173 A 
ATOM     73  C   UNL A   1      50.592  26.936  27.391  1.00  0.00     0.173 A 
ATOM     74  F   UNL A   1      49.243  27.580  24.074  1.00  0.00    -0.203 F 
ATOM     75  C   UNL A   1      51.426  27.005  24.744  1.00  0.00     0.198 A 
ATOM     76  C   UNL A   1      51.918  26.665  27.069  1.00  0.00     0.198 A 
ATOM     77  F   UNL A   1      50.214  26.881  28.677  1.00  0.00    -0.203 F 
ATOM     78  F   UNL A   1      51.819  27.005  23.462  1.00  0.00    -0.200 F 
ATOM     79  C   UNL A   1      52.333  26.693  25.745  1.00  0.00     0.200 A 
ATOM     80  F   UNL A   1      52.795  26.369  28.038  1.00  0.00    -0.200 F 
ATOM     81  F   UNL A   1      53.605  26.407  25.435  1.00  0.00    -0.200 F 
ENDBRANCH  57  71
BRANCH  58  82
ATOM     82  C   UNL A   1      40.065  28.670  28.723  1.00  0.00     0.064 A 
ATOM     83  C   UNL A   1      39.140  29.158  27.791  1.00  0.00     0.173 A 
ATOM     84  C   UNL A   1      39.610  28.401  30.021  1.00  0.00     0.173 A 
ATOM     85  F   UNL A   1      39.543  29.461  26.548  1.00  0.00    -0.203 F 
ATOM     86  C   UNL A   1      37.812  29.377  28.147  1.00  0.00     0.198 A 
ATOM     87  C   UNL A   1      38.276  28.599  30.369  1.00  0.00     0.198 A 
ATOM     88  F   UNL A   1      40.461  27.942  30.950  1.00  0.00    -0.203 F 
ATOM     89  F   UNL A   1      36.954  29.884  27.250  1.00  0.00    -0.200 F 
ATOM     90  C   UNL A   1      37.378  29.091  29.433  1.00  0.00     0.200 A 
ATOM     91  F   UNL A   1      37.862  28.318  31.613  1.00  0.00    -0.200 F 
ATOM     92  F   UNL A   1      36.100  29.300  29.775  1.00  0.00    -0.200 F 
ENDBRANCH  58  82
BRANCH  70  93
ATOM     93  C   UNL A   1      45.750  32.683  29.078  1.00  0.00     0.064 A 
ATOM     94  C   UNL A   1      46.278  32.928  30.355  1.00  0.00     0.173 A 
ATOM     95  C   UNL A   1      45.483  33.786  28.254  1.00  0.00     0.173 A 
ATOM     96  F   UNL A   1      46.533  31.906  31.186  1.00  0.00    -0.203 F 
ATOM     97  C   UNL A   1      46.514  34.228  30.793  1.00  0.00     0.198 A 
ATOM     98  C   UNL A   1      45.744  35.083  28.686  1.00  0.00     0.198 A 
ATOM     99  F   UNL A   1      44.983  33.602  27.022  1.00  0.00    -0.203 F 
ATOM    100  F   UNL A   1      46.983  34.441  32.030  1.00  0.00    -0.200 F 
ATOM    101  C   UNL A   1      46.254  35.304  29.956  1.00  0.00     0.200 A 
ATOM    102  F   UNL A   1      45.504  36.120  27.871  1.00  0.00    -0.200 F 
ATOM    103  F   UNL A   1      46.491  36.554  30.376  1.00  0.00    -0.200 F 
ENDBRANCH  70  93
ENDBRANCH  44  45
ENDBRANCH  37  39
ENDBRANCH  36  37
ENDBRANCH  35  36
ENDBRANCH  34  35
ENDBRANCH  33  34
ENDBRANCH  32  33
ENDBRANCH   1  32
TORSDOF 21
ENDMDL
