MODEL 1
REMARK VINA RESULT:      -9.4      0.000      0.000
REMARK SMILES Nc1c(Nc2ncc(C(F)(F)F)cc2Cl)ncnc1N1CCC(C(=O)OCCOCCOCCOC(=O)c2ccc(-c3c4nc(c(-c5c(F)c(F)c(F)c(F)c5F)c5ccc([nH]5)c(-c5c(F)c(F)c(F)c(F)c5F)c5nc(c(-c6c(F)c(F)c(F)c(F)c6F)c6ccc3[nH]6)C=C5)C=C4)cc2)CC1
REMARK SMILES IDX 30 1 29 2 28 3 27 4 26 5 24 6 25 7 23 8 20 9 21 10 102 11
REMARK SMILES IDX 22 12 101 13 19 14 2 15 3 16 16 17 18 18 17 19 1 20 4 23
REMARK SMILES IDX 5 25 6 26 14 27 7 28 13 29 15 30 8 31 9 32 10 33 11 34 12 35
REMARK SMILES IDX 31 36 32 37 33 38 34 39 35 40 36 41 37 42 38 43 39 44 100 45
REMARK SMILES IDX 40 46 99 47 41 48 42 49 43 50 93 51 44 52 98 53 92 54 94 55
REMARK SMILES IDX 45 56 97 57 91 58 90 59 46 61 78 62 58 63 77 64 59 65 62 66
REMARK SMILES IDX 76 67 95 68 60 69 61 70 75 72 96 73 63 74 47 75 48 76 56 77
REMARK SMILES IDX 49 78 50 79 54 80 57 81 51 82 52 83 55 84 53 85 79 86 80 87
REMARK SMILES IDX 88 88 81 89 82 90 86 91 89 92 83 93 84 94 87 95 85 96 64 97
REMARK SMILES IDX 65 98 73 99 66 100 67 101 71 102 74 103 68 104 69 105 72 106
REMARK SMILES IDX 70 107
REMARK H PARENT 1 21 1 22 4 24 94 60 62 71
REMARK Flexibility Score: inf
ROOT
ATOM      1  C   UNL A   1      37.195  32.187  32.769  1.00  0.00     0.188 C 
ENDROOT
BRANCH   1   2
ATOM      2  O   UNL A   1      37.556  31.492  33.952  1.00  0.00    -0.376 OA
BRANCH   2   3
ATOM      3  C   UNL A   1      38.208  30.235  33.790  1.00  0.00     0.202 C 
BRANCH   3   4
ATOM      4  C   UNL A   1      39.562  30.036  34.491  1.00  0.00     0.261 C 
BRANCH   4   5
ATOM      5  O   UNL A   1      40.325  28.878  34.075  1.00  0.00    -0.463 OA
BRANCH   5   6
ATOM      6  C   UNL A   1      40.996  28.239  35.068  1.00  0.00     0.309 C 
ATOM      7  O   UNL A   1      40.994  28.592  36.245  1.00  0.00    -0.252 OA
BRANCH   6   8
ATOM      8  C   UNL A   1      41.732  26.981  34.644  1.00  0.00     0.103 C 
ATOM      9  N   UNL A   1      43.343  24.620  34.916  1.00  0.00    -0.355 N 
ATOM     10  C   UNL A   1      43.819  25.683  34.046  1.00  0.00     0.119 C 
ATOM     11  C   UNL A   1      41.915  24.543  35.202  1.00  0.00     0.119 C 
ATOM     12  C   UNL A   1      43.248  27.047  34.443  1.00  0.00     0.037 C 
ATOM     13  C   UNL A   1      41.394  25.893  35.665  1.00  0.00     0.037 C 
BRANCH   9  14
ATOM     14  C   UNL A   1      44.220  24.131  35.885  1.00  0.00     0.157 A 
ATOM     15  C   UNL A   1      44.755  22.841  35.738  1.00  0.00     0.118 A 
ATOM     16  C   UNL A   1      45.618  22.414  36.751  1.00  0.00     0.160 A 
ATOM     17  N   UNL A   1      45.907  23.173  37.822  1.00  0.00    -0.217 NA
ATOM     18  N   UNL A   1      44.523  24.913  36.935  1.00  0.00    -0.217 NA
ATOM     19  C   UNL A   1      45.347  24.388  37.852  1.00  0.00     0.226 A 
BRANCH  15  20
ATOM     20  N   UNL A   1      44.582  22.090  34.558  1.00  0.00    -0.393 N 
ATOM     21  H   UNL A   1      43.737  21.612  34.399  1.00  0.00     0.156 HD
ATOM     22  H   UNL A   1      45.307  22.044  33.893  1.00  0.00     0.156 HD
ENDBRANCH  15  20
BRANCH  16  23
ATOM     23  N   UNL A   1      46.231  21.150  36.583  1.00  0.00    -0.322 N 
ATOM     24  H   UNL A   1      45.690  20.370  36.845  1.00  0.00     0.170 HD
BRANCH  23  25
ATOM     25  C   UNL A   1      47.501  20.871  36.095  1.00  0.00     0.150 A 
ATOM     26  N   UNL A   1      47.658  21.173  34.779  1.00  0.00    -0.237 NA
ATOM     27  C   UNL A   1      48.546  20.322  36.848  1.00  0.00     0.084 A 
ATOM     28  C   UNL A   1      48.882  21.018  34.228  1.00  0.00     0.126 A 
ATOM     29  C   UNL A   1      49.797  20.165  36.249  1.00  0.00     0.039 A 
ATOM     30  Cl  UNL A   1      48.352  19.712  38.453  1.00  0.00    -0.080 Cl
ATOM     31  C   UNL A   1      49.983  20.536  34.915  1.00  0.00     0.075 A 
BRANCH  31  32
ATOM     32  C   UNL A   1      51.300  20.427  34.218  1.00  0.00     0.417 C 
ATOM     33  F   UNL A   1      51.217  20.750  32.898  1.00  0.00    -0.166 F 
ATOM     34  F   UNL A   1      52.237  21.260  34.748  1.00  0.00    -0.166 F 
ATOM     35  F   UNL A   1      51.838  19.178  34.265  1.00  0.00    -0.166 F 
ENDBRANCH  31  32
ENDBRANCH  23  25
ENDBRANCH  16  23
ENDBRANCH   9  14
ENDBRANCH   6   8
ENDBRANCH   5   6
ENDBRANCH   4   5
ENDBRANCH   3   4
ENDBRANCH   2   3
ENDBRANCH   1   2
BRANCH   1  36
ATOM     36  C   UNL A   1      35.752  32.037  32.285  1.00  0.00     0.188 C 
BRANCH  36  37
ATOM     37  O   UNL A   1      35.069  33.230  31.962  1.00  0.00    -0.376 OA
BRANCH  37  38
ATOM     38  C   UNL A   1      34.582  33.361  30.628  1.00  0.00     0.202 C 
BRANCH  38  39
ATOM     39  C   UNL A   1      35.587  33.139  29.469  1.00  0.00     0.261 C 
BRANCH  39  40
ATOM     40  O   UNL A   1      35.091  32.533  28.251  1.00  0.00    -0.460 OA
BRANCH  40  41
ATOM     41  C   UNL A   1      34.833  31.204  28.262  1.00  0.00     0.338 C 
ATOM     42  O   UNL A   1      33.782  30.673  27.934  1.00  0.00    -0.246 OA
BRANCH  41  43
ATOM     43  C   UNL A   1      36.120  30.460  28.435  1.00  0.00     0.060 A 
ATOM     44  C   UNL A   1      36.296  29.710  29.610  1.00  0.00     0.016 A 
ATOM     45  C   UNL A   1      37.107  30.423  27.446  1.00  0.00     0.016 A 
ATOM     46  C   UNL A   1      37.468  28.971  29.822  1.00  0.00     0.010 A 
ATOM     47  C   UNL A   1      38.295  29.705  27.671  1.00  0.00     0.010 A 
ATOM     48  C   UNL A   1      38.501  29.006  28.876  1.00  0.00    -0.014 A 
BRANCH  48  49
ATOM     49  C   UNL A   1      39.868  28.536  29.245  1.00  0.00     0.031 A 
ATOM     50  C   UNL A   1      40.684  29.411  30.162  1.00  0.00     0.074 A 
ATOM     51  C   UNL A   1      40.384  27.368  28.820  1.00  0.00     0.049 A 
ATOM     52  N   UNL A   1      41.919  29.273  30.573  1.00  0.00    -0.248 NA
ATOM     53  C   UNL A   1      40.008  30.609  30.687  1.00  0.00     0.031 C 
ATOM     54  C   UNL A   1      39.694  26.387  27.989  1.00  0.00     0.029 A 
ATOM     55  N   UNL A   1      41.627  26.814  29.033  1.00  0.00    -0.354 N 
ATOM     56  C   UNL A   1      42.167  30.364  31.396  1.00  0.00     0.074 A 
ATOM     57  C   UNL A   1      40.967  31.172  31.404  1.00  0.00     0.031 C 
ATOM     58  C   UNL A   1      40.526  25.356  27.751  1.00  0.00     0.029 A 
ATOM     59  C   UNL A   1      41.821  25.619  28.382  1.00  0.00     0.049 A 
ATOM     60  H   UNL A   1      42.314  27.235  29.599  1.00  0.00     0.167 HD
ATOM     61  C   UNL A   1      43.287  30.666  32.094  1.00  0.00     0.037 A 
ATOM     62  C   UNL A   1      42.921  24.841  28.286  1.00  0.00     0.037 A 
ATOM     63  C   UNL A   1      44.486  29.871  32.093  1.00  0.00     0.049 A 
ATOM     64  C   UNL A   1      44.196  25.251  28.987  1.00  0.00     0.074 A 
ATOM     65  C   UNL A   1      45.669  30.099  32.774  1.00  0.00     0.029 A 
ATOM     66  N   UNL A   1      44.659  28.700  31.372  1.00  0.00    -0.354 N 
ATOM     67  N   UNL A   1      44.420  26.280  29.766  1.00  0.00    -0.248 NA
ATOM     68  C   UNL A   1      45.374  24.390  28.789  1.00  0.00     0.031 C 
ATOM     69  C   UNL A   1      46.577  29.099  32.420  1.00  0.00     0.029 A 
ATOM     70  C   UNL A   1      45.941  28.211  31.567  1.00  0.00     0.049 A 
ATOM     71  H   UNL A   1      43.973  28.279  30.805  1.00  0.00     0.167 HD
ATOM     72  C   UNL A   1      45.748  26.179  30.168  1.00  0.00     0.074 A 
ATOM     73  C   UNL A   1      46.277  24.977  29.562  1.00  0.00     0.031 C 
ATOM     74  C   UNL A   1      46.463  27.011  30.966  1.00  0.00     0.037 A 
BRANCH  61  75
ATOM     75  C   UNL A   1      43.282  31.928  32.907  1.00  0.00     0.064 A 
ATOM     76  C   UNL A   1      43.463  33.185  32.313  1.00  0.00     0.173 A 
ATOM     77  C   UNL A   1      43.036  31.882  34.287  1.00  0.00     0.173 A 
ATOM     78  F   UNL A   1      43.719  33.282  30.999  1.00  0.00    -0.203 F 
ATOM     79  C   UNL A   1      43.412  34.350  33.074  1.00  0.00     0.198 A 
ATOM     80  C   UNL A   1      42.953  33.049  35.039  1.00  0.00     0.198 A 
ATOM     81  F   UNL A   1      42.855  30.704  34.903  1.00  0.00    -0.203 F 
ATOM     82  F   UNL A   1      43.626  35.538  32.493  1.00  0.00    -0.200 F 
ATOM     83  C   UNL A   1      43.147  34.282  34.434  1.00  0.00     0.200 A 
ATOM     84  F   UNL A   1      42.683  32.982  36.350  1.00  0.00    -0.200 F 
ATOM     85  F   UNL A   1      43.079  35.405  35.162  1.00  0.00    -0.200 F 
ENDBRANCH  61  75
BRANCH  62  86
ATOM     86  C   UNL A   1      42.878  23.589  27.482  1.00  0.00     0.064 A 
ATOM     87  C   UNL A   1      42.404  22.390  28.035  1.00  0.00     0.173 A 
ATOM     88  C   UNL A   1      43.324  23.557  26.152  1.00  0.00     0.173 A 
ATOM     89  F   UNL A   1      42.002  22.356  29.313  1.00  0.00    -0.203 F 
ATOM     90  C   UNL A   1      42.381  21.210  27.290  1.00  0.00     0.198 A 
ATOM     91  C   UNL A   1      43.273  22.385  25.400  1.00  0.00     0.198 A 
ATOM     92  F   UNL A   1      43.806  24.670  25.578  1.00  0.00    -0.203 F 
ATOM     93  F   UNL A   1      41.961  20.071  27.858  1.00  0.00    -0.200 F 
ATOM     94  C   UNL A   1      42.805  21.211  25.970  1.00  0.00     0.200 A 
ATOM     95  F   UNL A   1      43.680  22.392  24.122  1.00  0.00    -0.200 F 
ATOM     96  F   UNL A   1      42.773  20.080  25.253  1.00  0.00    -0.200 F 
ENDBRANCH  62  86
BRANCH  74  97
ATOM     97  C   UNL A   1      47.895  26.656  31.257  1.00  0.00     0.064 A 
ATOM     98  C   UNL A   1      48.236  25.754  32.276  1.00  0.00     0.173 A 
ATOM     99  C   UNL A   1      48.932  27.155  30.453  1.00  0.00     0.173 A 
ATOM    100  F   UNL A   1      47.287  25.252  33.079  1.00  0.00    -0.203 F 
ATOM    101  C   UNL A   1      49.561  25.380  32.490  1.00  0.00     0.198 A 
ATOM    102  C   UNL A   1      50.251  26.754  30.648  1.00  0.00     0.198 A 
ATOM    103  F   UNL A   1      48.663  28.013  29.456  1.00  0.00    -0.203 F 
ATOM    104  F   UNL A   1      49.867  24.545  33.492  1.00  0.00    -0.200 F 
ATOM    105  C   UNL A   1      50.566  25.872  31.668  1.00  0.00     0.200 A 
ATOM    106  F   UNL A   1      51.217  27.215  29.840  1.00  0.00    -0.200 F 
ATOM    107  F   UNL A   1      51.838  25.495  31.863  1.00  0.00    -0.200 F 
ENDBRANCH  74  97
ENDBRANCH  48  49
ENDBRANCH  41  43
ENDBRANCH  40  41
ENDBRANCH  39  40
ENDBRANCH  38  39
ENDBRANCH  37  38
ENDBRANCH  36  37
ENDBRANCH   1  36
TORSDOF 22
ENDMDL
MODEL 2
REMARK VINA RESULT:      -9.3      1.868      2.230
REMARK SMILES Nc1c(Nc2ncc(C(F)(F)F)cc2Cl)ncnc1N1CCC(C(=O)OCCOCCOCCOC(=O)c2ccc(-c3c4nc(c(-c5c(F)c(F)c(F)c(F)c5F)c5ccc([nH]5)c(-c5c(F)c(F)c(F)c(F)c5F)c5nc(c(-c6c(F)c(F)c(F)c(F)c6F)c6ccc3[nH]6)C=C5)C=C4)cc2)CC1
REMARK SMILES IDX 30 1 29 2 28 3 27 4 26 5 24 6 25 7 23 8 20 9 21 10 102 11
REMARK SMILES IDX 22 12 101 13 19 14 2 15 3 16 16 17 18 18 17 19 1 20 4 23
REMARK SMILES IDX 5 25 6 26 14 27 7 28 13 29 15 30 8 31 9 32 10 33 11 34 12 35
REMARK SMILES IDX 31 36 32 37 33 38 34 39 35 40 36 41 37 42 38 43 39 44 100 45
REMARK SMILES IDX 40 46 99 47 41 48 42 49 43 50 93 51 44 52 98 53 92 54 94 55
REMARK SMILES IDX 45 56 97 57 91 58 90 59 46 61 78 62 58 63 77 64 59 65 62 66
REMARK SMILES IDX 76 67 95 68 60 69 61 70 75 72 96 73 63 74 47 75 48 76 56 77
REMARK SMILES IDX 49 78 50 79 54 80 57 81 51 82 52 83 55 84 53 85 79 86 80 87
REMARK SMILES IDX 88 88 81 89 82 90 86 91 89 92 83 93 84 94 87 95 85 96 64 97
REMARK SMILES IDX 65 98 73 99 66 100 67 101 71 102 74 103 68 104 69 105 72 106
REMARK SMILES IDX 70 107
REMARK H PARENT 1 21 1 22 4 24 94 60 62 71
REMARK Flexibility Score: inf
ROOT
ATOM      1  C   UNL A   1      37.137  32.203  32.716  1.00  0.00     0.188 C 
ENDROOT
BRANCH   1   2
ATOM      2  O   UNL A   1      37.498  31.504  33.897  1.00  0.00    -0.376 OA
BRANCH   2   3
ATOM      3  C   UNL A   1      38.176  30.261  33.730  1.00  0.00     0.202 C 
BRANCH   3   4
ATOM      4  C   UNL A   1      39.521  30.077  34.453  1.00  0.00     0.261 C 
BRANCH   4   5
ATOM      5  O   UNL A   1      40.309  28.936  34.037  1.00  0.00    -0.463 OA
BRANCH   5   6
ATOM      6  C   UNL A   1      40.999  28.315  35.030  1.00  0.00     0.309 C 
ATOM      7  O   UNL A   1      40.954  28.643  36.213  1.00  0.00    -0.252 OA
BRANCH   6   8
ATOM      8  C   UNL A   1      41.815  27.112  34.594  1.00  0.00     0.103 C 
ATOM      9  N   UNL A   1      43.582  24.863  34.844  1.00  0.00    -0.355 N 
ATOM     10  C   UNL A   1      43.982  25.960  33.980  1.00  0.00     0.119 C 
ATOM     11  C   UNL A   1      42.163  24.689  35.135  1.00  0.00     0.119 C 
ATOM     12  C   UNL A   1      43.323  27.281  34.388  1.00  0.00     0.037 C 
ATOM     13  C   UNL A   1      41.554  25.998  35.609  1.00  0.00     0.037 C 
BRANCH   9  14
ATOM     14  C   UNL A   1      44.493  24.427  35.807  1.00  0.00     0.157 A 
ATOM     15  C   UNL A   1      45.048  23.142  35.694  1.00  0.00     0.118 A 
ATOM     16  C   UNL A   1      45.946  22.769  36.699  1.00  0.00     0.160 A 
ATOM     17  N   UNL A   1      46.249  23.574  37.732  1.00  0.00    -0.217 NA
ATOM     18  N   UNL A   1      44.810  25.254  36.817  1.00  0.00    -0.217 NA
ATOM     19  C   UNL A   1      45.667  24.780  37.731  1.00  0.00     0.226 A 
BRANCH  15  20
ATOM     20  N   UNL A   1      44.857  22.343  34.549  1.00  0.00    -0.393 N 
ATOM     21  H   UNL A   1      44.017  21.845  34.432  1.00  0.00     0.156 HD
ATOM     22  H   UNL A   1      45.564  22.284  33.867  1.00  0.00     0.156 HD
ENDBRANCH  15  20
BRANCH  16  23
ATOM     23  N   UNL A   1      46.577  21.511  36.562  1.00  0.00    -0.322 N 
ATOM     24  H   UNL A   1      47.230  21.433  35.830  1.00  0.00     0.170 HD
BRANCH  23  25
ATOM     25  C   UNL A   1      46.390  20.370  37.333  1.00  0.00     0.150 A 
ATOM     26  N   UNL A   1      46.891  20.474  38.591  1.00  0.00    -0.237 NA
ATOM     27  C   UNL A   1      45.760  19.200  36.891  1.00  0.00     0.084 A 
ATOM     28  C   UNL A   1      46.686  19.449  39.448  1.00  0.00     0.126 A 
ATOM     29  C   UNL A   1      45.572  18.154  37.797  1.00  0.00     0.039 A 
ATOM     30  Cl  UNL A   1      45.304  18.920  35.248  1.00  0.00    -0.080 Cl
ATOM     31  C   UNL A   1      46.025  18.280  39.112  1.00  0.00     0.075 A 
BRANCH  31  32
ATOM     32  C   UNL A   1      45.829  17.218  40.144  1.00  0.00     0.417 C 
ATOM     33  F   UNL A   1      46.982  16.917  40.803  1.00  0.00    -0.166 F 
ATOM     34  F   UNL A   1      44.935  17.585  41.101  1.00  0.00    -0.166 F 
ATOM     35  F   UNL A   1      45.372  16.042  39.634  1.00  0.00    -0.166 F 
ENDBRANCH  31  32
ENDBRANCH  23  25
ENDBRANCH  16  23
ENDBRANCH   9  14
ENDBRANCH   6   8
ENDBRANCH   5   6
ENDBRANCH   4   5
ENDBRANCH   3   4
ENDBRANCH   2   3
ENDBRANCH   1   2
BRANCH   1  36
ATOM     36  C   UNL A   1      35.688  32.074  32.245  1.00  0.00     0.188 C 
BRANCH  36  37
ATOM     37  O   UNL A   1      35.025  33.275  31.914  1.00  0.00    -0.376 OA
BRANCH  37  38
ATOM     38  C   UNL A   1      34.513  33.392  30.587  1.00  0.00     0.202 C 
BRANCH  38  39
ATOM     39  C   UNL A   1      35.492  33.137  29.412  1.00  0.00     0.261 C 
BRANCH  39  40
ATOM     40  O   UNL A   1      34.960  32.531  28.209  1.00  0.00    -0.460 OA
BRANCH  40  41
ATOM     41  C   UNL A   1      34.707  31.200  28.226  1.00  0.00     0.338 C 
ATOM     42  O   UNL A   1      33.658  30.664  27.903  1.00  0.00    -0.246 OA
BRANCH  41  43
ATOM     43  C   UNL A   1      35.999  30.463  28.399  1.00  0.00     0.060 A 
ATOM     44  C   UNL A   1      36.188  29.732  29.584  1.00  0.00     0.016 A 
ATOM     45  C   UNL A   1      36.977  30.413  27.402  1.00  0.00     0.016 A 
ATOM     46  C   UNL A   1      37.364  29.000  29.797  1.00  0.00     0.010 A 
ATOM     47  C   UNL A   1      38.169  29.702  27.627  1.00  0.00     0.010 A 
ATOM     48  C   UNL A   1      38.387  29.023  28.841  1.00  0.00    -0.014 A 
BRANCH  48  49
ATOM     49  C   UNL A   1      39.759  28.563  29.205  1.00  0.00     0.031 A 
ATOM     50  C   UNL A   1      40.585  29.459  30.094  1.00  0.00     0.074 A 
ATOM     51  C   UNL A   1      40.273  27.386  28.800  1.00  0.00     0.049 A 
ATOM     52  N   UNL A   1      41.824  29.331  30.493  1.00  0.00    -0.248 NA
ATOM     53  C   UNL A   1      39.913  30.667  30.600  1.00  0.00     0.031 C 
ATOM     54  C   UNL A   1      39.575  26.386  27.998  1.00  0.00     0.029 A 
ATOM     55  N   UNL A   1      41.519  26.838  29.010  1.00  0.00    -0.354 N 
ATOM     56  C   UNL A   1      42.080  30.441  31.289  1.00  0.00     0.074 A 
ATOM     57  C   UNL A   1      40.879  31.247  31.293  1.00  0.00     0.031 C 
ATOM     58  C   UNL A   1      40.405  25.351  27.774  1.00  0.00     0.029 A 
ATOM     59  C   UNL A   1      41.707  25.630  28.384  1.00  0.00     0.049 A 
ATOM     60  H   UNL A   1      42.211  27.273  29.560  1.00  0.00     0.167 HD
ATOM     61  C   UNL A   1      43.208  30.759  31.968  1.00  0.00     0.037 A 
ATOM     62  C   UNL A   1      42.807  24.852  28.293  1.00  0.00     0.037 A 
ATOM     63  C   UNL A   1      44.407  29.965  31.971  1.00  0.00     0.049 A 
ATOM     64  C   UNL A   1      44.089  25.278  28.970  1.00  0.00     0.074 A 
ATOM     65  C   UNL A   1      45.597  30.210  32.634  1.00  0.00     0.029 A 
ATOM     66  N   UNL A   1      44.574  28.779  31.274  1.00  0.00    -0.354 N 
ATOM     67  N   UNL A   1      44.321  26.325  29.724  1.00  0.00    -0.248 NA
ATOM     68  C   UNL A   1      45.266  24.414  28.778  1.00  0.00     0.031 C 
ATOM     69  C   UNL A   1      46.503  29.203  32.291  1.00  0.00     0.029 A 
ATOM     70  C   UNL A   1      45.858  28.296  31.465  1.00  0.00     0.049 A 
ATOM     71  H   UNL A   1      43.882  28.345  30.724  1.00  0.00     0.167 HD
ATOM     72  C   UNL A   1      45.653  26.233  30.114  1.00  0.00     0.074 A 
ATOM     73  C   UNL A   1      46.177  25.019  29.528  1.00  0.00     0.031 C 
ATOM     74  C   UNL A   1      46.376  27.084  30.885  1.00  0.00     0.037 A 
BRANCH  61  75
ATOM     75  C   UNL A   1      43.210  32.038  32.753  1.00  0.00     0.064 A 
ATOM     76  C   UNL A   1      43.408  33.280  32.133  1.00  0.00     0.173 A 
ATOM     77  C   UNL A   1      42.953  32.025  34.132  1.00  0.00     0.173 A 
ATOM     78  F   UNL A   1      43.675  33.345  30.820  1.00  0.00    -0.203 F 
ATOM     79  C   UNL A   1      43.364  34.461  32.868  1.00  0.00     0.198 A 
ATOM     80  C   UNL A   1      42.877  33.209  34.858  1.00  0.00     0.198 A 
ATOM     81  F   UNL A   1      42.755  30.863  34.772  1.00  0.00    -0.203 F 
ATOM     82  F   UNL A   1      43.595  35.634  32.263  1.00  0.00    -0.200 F 
ATOM     83  C   UNL A   1      43.088  34.427  34.228  1.00  0.00     0.200 A 
ATOM     84  F   UNL A   1      42.596  33.174  36.167  1.00  0.00    -0.200 F 
ATOM     85  F   UNL A   1      43.027  35.565  34.930  1.00  0.00    -0.200 F 
ENDBRANCH  61  75
BRANCH  62  86
ATOM     86  C   UNL A   1      42.757  23.582  27.517  1.00  0.00     0.064 A 
ATOM     87  C   UNL A   1      42.292  22.394  28.102  1.00  0.00     0.173 A 
ATOM     88  C   UNL A   1      43.186  23.522  26.182  1.00  0.00     0.173 A 
ATOM     89  F   UNL A   1      41.907  22.387  29.386  1.00  0.00    -0.203 F 
ATOM     90  C   UNL A   1      42.263  21.198  27.384  1.00  0.00     0.198 A 
ATOM     91  C   UNL A   1      43.129  22.333  25.457  1.00  0.00     0.198 A 
ATOM     92  F   UNL A   1      43.657  24.624  25.578  1.00  0.00    -0.203 F 
ATOM     93  F   UNL A   1      41.853  20.071  27.981  1.00  0.00    -0.200 F 
ATOM     94  C   UNL A   1      42.670  21.171  26.059  1.00  0.00     0.200 A 
ATOM     95  F   UNL A   1      43.519  22.313  24.174  1.00  0.00    -0.200 F 
ATOM     96  F   UNL A   1      42.632  20.025  25.367  1.00  0.00    -0.200 F 
ENDBRANCH  62  86
BRANCH  74  97
ATOM     97  C   UNL A   1      47.811  26.736  31.168  1.00  0.00     0.064 A 
ATOM     98  C   UNL A   1      48.166  25.865  32.208  1.00  0.00     0.173 A 
ATOM     99  C   UNL A   1      48.838  27.212  30.335  1.00  0.00     0.173 A 
ATOM    100  F   UNL A   1      47.227  25.388  33.038  1.00  0.00    -0.203 F 
ATOM    101  C   UNL A   1      49.493  25.497  32.416  1.00  0.00     0.198 A 
ATOM    102  C   UNL A   1      50.159  26.816  30.525  1.00  0.00     0.198 A 
ATOM    103  F   UNL A   1      48.555  28.039  29.317  1.00  0.00    -0.203 F 
ATOM    104  F   UNL A   1      49.812  24.692  33.438  1.00  0.00    -0.200 F 
ATOM    105  C   UNL A   1      50.487  25.964  31.567  1.00  0.00     0.200 A 
ATOM    106  F   UNL A   1      51.115  27.252  29.691  1.00  0.00    -0.200 F 
ATOM    107  F   UNL A   1      51.762  25.592  31.756  1.00  0.00    -0.200 F 
ENDBRANCH  74  97
ENDBRANCH  48  49
ENDBRANCH  41  43
ENDBRANCH  40  41
ENDBRANCH  39  40
ENDBRANCH  38  39
ENDBRANCH  37  38
ENDBRANCH  36  37
ENDBRANCH   1  36
TORSDOF 22
ENDMDL
MODEL 3
REMARK VINA RESULT:      -8.4      5.983     12.406
REMARK SMILES Nc1c(Nc2ncc(C(F)(F)F)cc2Cl)ncnc1N1CCC(C(=O)OCCOCCOCCOC(=O)c2ccc(-c3c4nc(c(-c5c(F)c(F)c(F)c(F)c5F)c5ccc([nH]5)c(-c5c(F)c(F)c(F)c(F)c5F)c5nc(c(-c6c(F)c(F)c(F)c(F)c6F)c6ccc3[nH]6)C=C5)C=C4)cc2)CC1
REMARK SMILES IDX 30 1 29 2 28 3 27 4 26 5 24 6 25 7 23 8 20 9 21 10 102 11
REMARK SMILES IDX 22 12 101 13 19 14 2 15 3 16 16 17 18 18 17 19 1 20 4 23
REMARK SMILES IDX 5 25 6 26 14 27 7 28 13 29 15 30 8 31 9 32 10 33 11 34 12 35
REMARK SMILES IDX 31 36 32 37 33 38 34 39 35 40 36 41 37 42 38 43 39 44 100 45
REMARK SMILES IDX 40 46 99 47 41 48 42 49 43 50 93 51 44 52 98 53 92 54 94 55
REMARK SMILES IDX 45 56 97 57 91 58 90 59 46 61 78 62 58 63 77 64 59 65 62 66
REMARK SMILES IDX 76 67 95 68 60 69 61 70 75 72 96 73 63 74 47 75 48 76 56 77
REMARK SMILES IDX 49 78 50 79 54 80 57 81 51 82 52 83 55 84 53 85 79 86 80 87
REMARK SMILES IDX 88 88 81 89 82 90 86 91 89 92 83 93 84 94 87 95 85 96 64 97
REMARK SMILES IDX 65 98 73 99 66 100 67 101 71 102 74 103 68 104 69 105 72 106
REMARK SMILES IDX 70 107
REMARK H PARENT 1 21 1 22 4 24 94 60 62 71
REMARK Flexibility Score: inf
ROOT
ATOM      1  C   UNL A   1      52.410  23.633  34.630  1.00  0.00     0.188 C 
ENDROOT
BRANCH   1   2
ATOM      2  O   UNL A   1      51.387  22.655  34.535  1.00  0.00    -0.376 OA
BRANCH   2   3
ATOM      3  C   UNL A   1      51.314  21.691  35.584  1.00  0.00     0.202 C 
BRANCH   3   4
ATOM      4  C   UNL A   1      50.103  21.754  36.530  1.00  0.00     0.261 C 
BRANCH   4   5
ATOM      5  O   UNL A   1      49.102  20.725  36.342  1.00  0.00    -0.463 OA
BRANCH   5   6
ATOM      6  C   UNL A   1      48.013  20.823  37.148  1.00  0.00     0.309 C 
ATOM      7  O   UNL A   1      47.138  21.677  37.030  1.00  0.00    -0.252 OA
BRANCH   6   8
ATOM      8  C   UNL A   1      47.897  19.743  38.209  1.00  0.00     0.103 C 
ATOM      9  N   UNL A   1      46.761  18.276  40.400  1.00  0.00    -0.355 N 
ATOM     10  C   UNL A   1      48.067  18.888  40.584  1.00  0.00     0.119 C 
ATOM     11  C   UNL A   1      46.314  17.987  39.043  1.00  0.00     0.119 C 
ATOM     12  C   UNL A   1      48.273  20.086  39.653  1.00  0.00     0.037 C 
ATOM     13  C   UNL A   1      46.462  19.216  38.162  1.00  0.00     0.037 C 
BRANCH   9  14
ATOM     14  C   UNL A   1      45.779  18.536  41.358  1.00  0.00     0.157 A 
ATOM     15  C   UNL A   1      45.349  17.497  42.199  1.00  0.00     0.118 A 
ATOM     16  C   UNL A   1      44.358  17.828  43.128  1.00  0.00     0.160 A 
ATOM     17  N   UNL A   1      43.821  19.058  43.204  1.00  0.00    -0.217 NA
ATOM     18  N   UNL A   1      45.274  19.779  41.443  1.00  0.00    -0.217 NA
ATOM     19  C   UNL A   1      44.315  19.971  42.359  1.00  0.00     0.226 A 
BRANCH  15  20
ATOM     20  N   UNL A   1      45.998  16.247  42.234  1.00  0.00    -0.393 N 
ATOM     21  H   UNL A   1      46.836  16.114  41.736  1.00  0.00     0.156 HD
ATOM     22  H   UNL A   1      45.612  15.507  42.757  1.00  0.00     0.156 HD
ENDBRANCH  15  20
BRANCH  16  23
ATOM     23  N   UNL A   1      43.967  16.818  44.037  1.00  0.00    -0.322 N 
ATOM     24  H   UNL A   1      44.124  17.011  44.990  1.00  0.00     0.170 HD
BRANCH  23  25
ATOM     25  C   UNL A   1      43.389  15.587  43.754  1.00  0.00     0.150 A 
ATOM     26  N   UNL A   1      42.286  15.671  42.967  1.00  0.00    -0.237 NA
ATOM     27  C   UNL A   1      43.860  14.355  44.224  1.00  0.00     0.084 A 
ATOM     28  C   UNL A   1      41.697  14.523  42.564  1.00  0.00     0.126 A 
ATOM     29  C   UNL A   1      43.226  13.186  43.798  1.00  0.00     0.039 A 
ATOM     30  Cl  UNL A   1      45.114  14.194  45.401  1.00  0.00    -0.080 Cl
ATOM     31  C   UNL A   1      42.131  13.261  42.934  1.00  0.00     0.075 A 
BRANCH  31  32
ATOM     32  C   UNL A   1      41.424  12.053  42.411  1.00  0.00     0.417 C 
ATOM     33  F   UNL A   1      40.817  12.285  41.215  1.00  0.00    -0.166 F 
ATOM     34  F   UNL A   1      42.269  11.007  42.206  1.00  0.00    -0.166 F 
ATOM     35  F   UNL A   1      40.450  11.592  43.243  1.00  0.00    -0.166 F 
ENDBRANCH  31  32
ENDBRANCH  23  25
ENDBRANCH  16  23
ENDBRANCH   9  14
ENDBRANCH   6   8
ENDBRANCH   5   6
ENDBRANCH   4   5
ENDBRANCH   3   4
ENDBRANCH   2   3
ENDBRANCH   1   2
BRANCH   1  36
ATOM     36  C   UNL A   1      52.872  24.026  36.034  1.00  0.00     0.188 C 
BRANCH  36  37
ATOM     37  O   UNL A   1      52.332  25.217  36.563  1.00  0.00    -0.376 OA
BRANCH  37  38
ATOM     38  C   UNL A   1      50.929  25.237  36.821  1.00  0.00     0.202 C 
BRANCH  38  39
ATOM     39  C   UNL A   1      50.179  26.580  36.623  1.00  0.00     0.261 C 
BRANCH  39  40
ATOM     40  O   UNL A   1      48.876  26.540  35.992  1.00  0.00    -0.460 OA
BRANCH  40  41
ATOM     41  C   UNL A   1      47.787  26.758  36.767  1.00  0.00     0.338 C 
ATOM     42  O   UNL A   1      47.788  26.919  37.978  1.00  0.00    -0.246 OA
BRANCH  41  43
ATOM     43  C   UNL A   1      46.622  27.084  35.887  1.00  0.00     0.060 A 
ATOM     44  C   UNL A   1      46.721  28.207  35.048  1.00  0.00     0.016 A 
ATOM     45  C   UNL A   1      45.484  26.275  35.813  1.00  0.00     0.016 A 
ATOM     46  C   UNL A   1      45.675  28.552  34.181  1.00  0.00     0.010 A 
ATOM     47  C   UNL A   1      44.423  26.636  34.965  1.00  0.00     0.010 A 
ATOM     48  C   UNL A   1      44.494  27.798  34.172  1.00  0.00    -0.014 A 
BRANCH  48  49
ATOM     49  C   UNL A   1      43.260  28.352  33.543  1.00  0.00     0.031 A 
ATOM     50  C   UNL A   1      42.984  27.991  32.106  1.00  0.00     0.074 A 
ATOM     51  C   UNL A   1      42.382  29.129  34.205  1.00  0.00     0.049 A 
ATOM     52  N   UNL A   1      42.030  28.397  31.307  1.00  0.00    -0.248 NA
ATOM     53  C   UNL A   1      43.920  27.037  31.486  1.00  0.00     0.031 C 
ATOM     54  C   UNL A   1      42.475  29.507  35.612  1.00  0.00     0.029 A 
ATOM     55  N   UNL A   1      41.232  29.747  33.766  1.00  0.00    -0.354 N 
ATOM     56  C   UNL A   1      42.254  27.755  30.096  1.00  0.00     0.074 A 
ATOM     57  C   UNL A   1      43.449  26.956  30.251  1.00  0.00     0.031 C 
ATOM     58  C   UNL A   1      41.433  30.301  35.919  1.00  0.00     0.029 A 
ATOM     59  C   UNL A   1      40.617  30.520  34.722  1.00  0.00     0.049 A 
ATOM     60  H   UNL A   1      40.882  29.643  32.851  1.00  0.00     0.167 HD
ATOM     61  C   UNL A   1      41.525  27.813  28.955  1.00  0.00     0.037 A 
ATOM     62  C   UNL A   1      39.538  31.327  34.635  1.00  0.00     0.037 A 
ATOM     63  C   UNL A   1      40.336  28.604  28.789  1.00  0.00     0.049 A 
ATOM     64  C   UNL A   1      38.801  31.461  33.323  1.00  0.00     0.074 A 
ATOM     65  C   UNL A   1      39.531  28.720  27.668  1.00  0.00     0.029 A 
ATOM     66  N   UNL A   1      39.783  29.419  29.764  1.00  0.00    -0.354 N 
ATOM     67  N   UNL A   1      39.015  30.847  32.185  1.00  0.00    -0.248 NA
ATOM     68  C   UNL A   1      37.672  32.405  33.283  1.00  0.00     0.031 C 
ATOM     69  C   UNL A   1      38.527  29.649  27.947  1.00  0.00     0.029 A 
ATOM     70  C   UNL A   1      38.666  30.065  29.261  1.00  0.00     0.049 A 
ATOM     71  H   UNL A   1      40.133  29.522  30.679  1.00  0.00     0.167 HD
ATOM     72  C   UNL A   1      38.041  31.310  31.307  1.00  0.00     0.074 A 
ATOM     73  C   UNL A   1      37.221  32.244  32.047  1.00  0.00     0.031 C 
ATOM     74  C   UNL A   1      37.848  30.991  30.002  1.00  0.00     0.037 A 
BRANCH  61  75
ATOM     75  C   UNL A   1      42.006  27.012  27.781  1.00  0.00     0.064 A 
ATOM     76  C   UNL A   1      41.511  25.727  27.516  1.00  0.00     0.173 A 
ATOM     77  C   UNL A   1      42.930  27.560  26.878  1.00  0.00     0.173 A 
ATOM     78  F   UNL A   1      40.640  25.151  28.358  1.00  0.00    -0.203 F 
ATOM     79  C   UNL A   1      41.935  25.014  26.397  1.00  0.00     0.198 A 
ATOM     80  C   UNL A   1      43.327  26.858  25.745  1.00  0.00     0.198 A 
ATOM     81  F   UNL A   1      43.433  28.786  27.086  1.00  0.00    -0.203 F 
ATOM     82  F   UNL A   1      41.479  23.772  26.184  1.00  0.00    -0.200 F 
ATOM     83  C   UNL A   1      42.834  25.584  25.507  1.00  0.00     0.200 A 
ATOM     84  F   UNL A   1      44.184  27.416  24.879  1.00  0.00    -0.200 F 
ATOM     85  F   UNL A   1      43.227  24.904  24.422  1.00  0.00    -0.200 F 
ENDBRANCH  61  75
BRANCH  62  86
ATOM     86  C   UNL A   1      39.085  32.093  35.830  1.00  0.00     0.064 A 
ATOM     87  C   UNL A   1      38.222  31.516  36.774  1.00  0.00     0.173 A 
ATOM     88  C   UNL A   1      39.489  33.418  36.046  1.00  0.00     0.173 A 
ATOM     89  F   UNL A   1      37.774  30.264  36.594  1.00  0.00    -0.203 F 
ATOM     90  C   UNL A   1      37.780  32.236  37.884  1.00  0.00     0.198 A 
ATOM     91  C   UNL A   1      39.070  34.128  37.171  1.00  0.00     0.198 A 
ATOM     92  F   UNL A   1      40.299  34.026  35.167  1.00  0.00    -0.203 F 
ATOM     93  F   UNL A   1      36.923  31.673  38.746  1.00  0.00    -0.200 F 
ATOM     94  C   UNL A   1      38.212  33.537  38.087  1.00  0.00     0.200 A 
ATOM     95  F   UNL A   1      39.495  35.384  37.367  1.00  0.00    -0.200 F 
ATOM     96  F   UNL A   1      37.795  34.225  39.158  1.00  0.00    -0.200 F 
ENDBRANCH  62  86
BRANCH  74  97
ATOM     97  C   UNL A   1      36.696  31.633  29.279  1.00  0.00     0.064 A 
ATOM     98  C   UNL A   1      35.557  30.900  28.916  1.00  0.00     0.173 A 
ATOM     99  C   UNL A   1      36.695  33.013  29.024  1.00  0.00     0.173 A 
ATOM    100  F   UNL A   1      35.508  29.577  29.129  1.00  0.00    -0.203 F 
ATOM    101  C   UNL A   1      34.467  31.522  28.309  1.00  0.00     0.198 A 
ATOM    102  C   UNL A   1      35.591  33.637  28.447  1.00  0.00     0.198 A 
ATOM    103  F   UNL A   1      37.754  33.766  29.361  1.00  0.00    -0.203 F 
ATOM    104  F   UNL A   1      33.405  30.795  27.938  1.00  0.00    -0.200 F 
ATOM    105  C   UNL A   1      34.481  32.891  28.085  1.00  0.00     0.200 A 
ATOM    106  F   UNL A   1      35.599  34.964  28.250  1.00  0.00    -0.200 F 
ATOM    107  F   UNL A   1      33.423  33.490  27.519  1.00  0.00    -0.200 F 
ENDBRANCH  74  97
ENDBRANCH  48  49
ENDBRANCH  41  43
ENDBRANCH  40  41
ENDBRANCH  39  40
ENDBRANCH  38  39
ENDBRANCH  37  38
ENDBRANCH  36  37
ENDBRANCH   1  36
TORSDOF 22
ENDMDL
