MODEL 1
REMARK VINA RESULT:     -10.8      0.000      0.000
REMARK SMILES O=C(Nc1ccc(Br)cc1)Nc1ccc(CC(=O)OCCOCCOCCOC(=O)c2ccc(-c3c4nc(c(-c5c(F)c(F)c(F)c(F)c5F)c5ccc([nH]5)c(-c5c(F)c(F)c(F)c(F)c5F)c5nc(c(-c6c(F)c(F)c(F)c(F)c6F)c6ccc3[nH]6)C=C5)C=C4)cc2)cc1
REMARK SMILES IDX 23 1 22 2 21 3 20 4 19 5 17 6 18 7 16 8 15 9 12 10 13 11
REMARK SMILES IDX 95 12 14 13 94 14 11 15 1 16 2 17 3 18 4 21 5 22 10 23 6 24
REMARK SMILES IDX 9 25 7 26 8 27 24 28 25 29 26 30 27 31 28 32 29 33 30 34
REMARK SMILES IDX 31 35 32 36 93 37 33 38 92 39 34 40 35 41 36 42 86 43 37 44
REMARK SMILES IDX 91 45 85 46 87 47 38 48 90 49 84 50 83 51 39 53 71 54 51 55
REMARK SMILES IDX 70 56 52 57 55 58 69 59 88 60 53 61 54 62 68 64 89 65 56 66
REMARK SMILES IDX 40 67 41 68 49 69 42 70 43 71 47 72 50 73 44 74 45 75 48 76
REMARK SMILES IDX 46 77 72 78 73 79 81 80 74 81 75 82 79 83 82 84 76 85 77 86
REMARK SMILES IDX 80 87 78 88 57 89 58 90 66 91 59 92 60 93 64 94 67 95 61 96
REMARK SMILES IDX 62 97 65 98 63 99
REMARK H PARENT 3 19 11 20 87 52 55 63
REMARK Flexibility Score: inf
ROOT
ATOM      1  C   UNL A   1      41.616  20.673  27.207  1.00  0.00     0.188 C 
ENDROOT
BRANCH   1   2
ATOM      2  O   UNL A   1      40.465  21.308  27.757  1.00  0.00    -0.376 OA
BRANCH   2   3
ATOM      3  C   UNL A   1      40.067  22.564  27.224  1.00  0.00     0.202 C 
BRANCH   3   4
ATOM      4  C   UNL A   1      39.265  22.503  25.923  1.00  0.00     0.261 C 
BRANCH   4   5
ATOM      5  O   UNL A   1      37.974  21.867  26.058  1.00  0.00    -0.463 OA
BRANCH   5   6
ATOM      6  C   UNL A   1      37.801  20.726  25.347  1.00  0.00     0.310 C 
ATOM      7  O   UNL A   1      38.712  19.954  25.053  1.00  0.00    -0.252 OA
BRANCH   6   8
ATOM      8  C   UNL A   1      36.393  20.460  24.868  1.00  0.00     0.158 C 
BRANCH   8   9
ATOM      9  C   UNL A   1      35.503  21.574  24.356  1.00  0.00    -0.037 A 
ATOM     10  C   UNL A   1      33.860  23.805  23.746  1.00  0.00     0.042 A 
ATOM     11  C   UNL A   1      35.232  23.841  23.490  1.00  0.00     0.026 A 
ATOM     12  C   UNL A   1      33.306  22.636  24.268  1.00  0.00     0.026 A 
ATOM     13  C   UNL A   1      36.050  22.750  23.826  1.00  0.00     0.006 A 
ATOM     14  C   UNL A   1      34.115  21.523  24.547  1.00  0.00     0.006 A 
BRANCH  10  15
ATOM     15  N   UNL A   1      33.098  24.957  23.467  1.00  0.00    -0.308 N 
ATOM     16  O   UNL A   1      33.454  25.156  21.190  1.00  0.00    -0.248 OA
ATOM     17  C   UNL A   1      33.020  25.597  22.251  1.00  0.00     0.323 C 
ATOM     18  N   UNL A   1      32.251  26.735  22.236  1.00  0.00    -0.308 N 
ATOM     19  H   UNL A   1      31.750  26.886  21.402  1.00  0.00     0.171 HD
ATOM     20  H   UNL A   1      32.574  25.338  24.208  1.00  0.00     0.171 HD
BRANCH  18  21
ATOM     21  C   UNL A   1      32.069  27.715  23.225  1.00  0.00     0.042 A 
ATOM     22  C   UNL A   1      33.100  28.124  24.077  1.00  0.00     0.027 A 
ATOM     23  C   UNL A   1      30.837  28.377  23.277  1.00  0.00     0.027 A 
ATOM     24  C   UNL A   1      32.897  29.175  24.978  1.00  0.00     0.018 A 
ATOM     25  C   UNL A   1      30.623  29.411  24.194  1.00  0.00     0.018 A 
ATOM     26  C   UNL A   1      31.659  29.808  25.037  1.00  0.00     0.018 A 
ATOM     27  Br  UNL A   1      31.388  31.231  26.252  1.00  0.00    -0.051 Br
ENDBRANCH  18  21
ENDBRANCH  10  15
ENDBRANCH   8   9
ENDBRANCH   6   8
ENDBRANCH   5   6
ENDBRANCH   4   5
ENDBRANCH   3   4
ENDBRANCH   2   3
ENDBRANCH   1   2
BRANCH   1  28
ATOM     28  C   UNL A   1      42.793  21.531  26.719  1.00  0.00     0.188 C 
BRANCH  28  29
ATOM     29  O   UNL A   1      42.994  21.397  25.316  1.00  0.00    -0.376 OA
BRANCH  29  30
ATOM     30  C   UNL A   1      43.234  22.626  24.645  1.00  0.00     0.202 C 
BRANCH  30  31
ATOM     31  C   UNL A   1      44.738  22.903  24.649  1.00  0.00     0.261 C 
BRANCH  31  32
ATOM     32  O   UNL A   1      45.178  23.719  25.755  1.00  0.00    -0.460 OA
BRANCH  32  33
ATOM     33  C   UNL A   1      45.267  25.042  25.521  1.00  0.00     0.338 C 
ATOM     34  O   UNL A   1      45.892  25.592  24.621  1.00  0.00    -0.246 OA
BRANCH  33  35
ATOM     35  C   UNL A   1      44.358  25.767  26.430  1.00  0.00     0.060 A 
ATOM     36  C   UNL A   1      44.528  27.148  26.574  1.00  0.00     0.016 A 
ATOM     37  C   UNL A   1      43.391  25.095  27.185  1.00  0.00     0.016 A 
ATOM     38  C   UNL A   1      43.771  27.855  27.507  1.00  0.00     0.010 A 
ATOM     39  C   UNL A   1      42.638  25.805  28.125  1.00  0.00     0.010 A 
ATOM     40  C   UNL A   1      42.850  27.181  28.321  1.00  0.00    -0.014 A 
BRANCH  40  41
ATOM     41  C   UNL A   1      42.240  27.892  29.474  1.00  0.00     0.031 A 
ATOM     42  C   UNL A   1      42.911  27.813  30.819  1.00  0.00     0.074 A 
ATOM     43  C   UNL A   1      41.137  28.647  29.323  1.00  0.00     0.049 A 
ATOM     44  N   UNL A   1      42.571  28.368  31.956  1.00  0.00    -0.248 NA
ATOM     45  C   UNL A   1      44.133  26.997  30.892  1.00  0.00     0.031 C 
ATOM     46  C   UNL A   1      40.406  28.834  28.072  1.00  0.00     0.029 A 
ATOM     47  N   UNL A   1      40.442  29.400  30.238  1.00  0.00    -0.354 N 
ATOM     48  C   UNL A   1      43.531  27.969  32.875  1.00  0.00     0.074 A 
ATOM     49  C   UNL A   1      44.449  27.095  32.175  1.00  0.00     0.031 C 
ATOM     50  C   UNL A   1      39.365  29.655  28.296  1.00  0.00     0.029 A 
ATOM     51  C   UNL A   1      39.342  30.029  29.711  1.00  0.00     0.049 A 
ATOM     52  H   UNL A   1      40.708  29.482  31.182  1.00  0.00     0.167 HD
ATOM     53  C   UNL A   1      43.648  28.306  34.182  1.00  0.00     0.037 A 
ATOM     54  C   UNL A   1      38.416  30.808  30.304  1.00  0.00     0.037 A 
ATOM     55  C   UNL A   1      42.741  29.174  34.886  1.00  0.00     0.049 A 
ATOM     56  C   UNL A   1      38.539  31.124  31.774  1.00  0.00     0.074 A 
ATOM     57  C   UNL A   1      42.787  29.583  36.208  1.00  0.00     0.029 A 
ATOM     58  N   UNL A   1      41.618  29.765  34.326  1.00  0.00    -0.354 N 
ATOM     59  N   UNL A   1      39.464  30.763  32.629  1.00  0.00    -0.248 NA
ATOM     60  C   UNL A   1      37.484  31.968  32.357  1.00  0.00     0.031 C 
ATOM     61  C   UNL A   1      41.665  30.381  36.460  1.00  0.00     0.029 A 
ATOM     62  C   UNL A   1      40.950  30.516  35.282  1.00  0.00     0.049 A 
ATOM     63  H   UNL A   1      41.335  29.664  33.388  1.00  0.00     0.167 HD
ATOM     64  C   UNL A   1      39.121  31.354  33.838  1.00  0.00     0.074 A 
ATOM     65  C   UNL A   1      37.913  32.115  33.603  1.00  0.00     0.031 C 
ATOM     66  C   UNL A   1      39.748  31.272  35.039  1.00  0.00     0.037 A 
BRANCH  53  67
ATOM     67  C   UNL A   1      44.797  27.714  34.946  1.00  0.00     0.064 A 
ATOM     68  C   UNL A   1      44.669  26.508  35.652  1.00  0.00     0.173 A 
ATOM     69  C   UNL A   1      46.049  28.348  34.950  1.00  0.00     0.173 A 
ATOM     70  F   UNL A   1      43.489  25.872  35.694  1.00  0.00    -0.203 F 
ATOM     71  C   UNL A   1      45.745  25.973  36.355  1.00  0.00     0.198 A 
ATOM     72  C   UNL A   1      47.131  27.794  35.629  1.00  0.00     0.198 A 
ATOM     73  F   UNL A   1      46.225  29.500  34.288  1.00  0.00    -0.203 F 
ATOM     74  F   UNL A   1      45.587  24.845  37.063  1.00  0.00    -0.200 F 
ATOM     75  C   UNL A   1      46.976  26.612  36.337  1.00  0.00     0.200 A 
ATOM     76  F   UNL A   1      48.322  28.406  35.601  1.00  0.00    -0.200 F 
ATOM     77  F   UNL A   1      48.013  26.092  37.010  1.00  0.00    -0.200 F 
ENDBRANCH  53  67
BRANCH  54  78
ATOM     78  C   UNL A   1      37.281  31.351  29.513  1.00  0.00     0.064 A 
ATOM     79  C   UNL A   1      37.218  32.710  29.175  1.00  0.00     0.173 A 
ATOM     80  C   UNL A   1      36.218  30.530  29.111  1.00  0.00     0.173 A 
ATOM     81  F   UNL A   1      38.195  33.542  29.564  1.00  0.00    -0.203 F 
ATOM     82  C   UNL A   1      36.125  33.231  28.485  1.00  0.00     0.198 A 
ATOM     83  C   UNL A   1      35.139  31.046  28.395  1.00  0.00     0.198 A 
ATOM     84  F   UNL A   1      36.226  29.224  29.416  1.00  0.00    -0.203 F 
ATOM     85  F   UNL A   1      36.064  34.544  28.225  1.00  0.00    -0.200 F 
ATOM     86  C   UNL A   1      35.090  32.398  28.091  1.00  0.00     0.200 A 
ATOM     87  F   UNL A   1      34.144  30.236  28.011  1.00  0.00    -0.200 F 
ATOM     88  F   UNL A   1      34.037  32.899  27.430  1.00  0.00    -0.200 F 
ENDBRANCH  54  78
BRANCH  66  89
ATOM     89  C   UNL A   1      39.158  32.053  36.179  1.00  0.00     0.064 A 
ATOM     90  C   UNL A   1      39.508  33.391  36.417  1.00  0.00     0.173 A 
ATOM     91  C   UNL A   1      38.223  31.460  37.040  1.00  0.00     0.173 A 
ATOM     92  F   UNL A   1      40.407  34.004  35.631  1.00  0.00    -0.203 F 
ATOM     93  C   UNL A   1      38.975  34.091  37.497  1.00  0.00     0.198 A 
ATOM     94  C   UNL A   1      37.666  32.173  38.099  1.00  0.00     0.198 A 
ATOM     95  F   UNL A   1      37.844  30.186  36.853  1.00  0.00    -0.203 F 
ATOM     96  F   UNL A   1      39.372  35.348  37.740  1.00  0.00    -0.200 F 
ATOM     97  C   UNL A   1      38.052  33.483  38.334  1.00  0.00     0.200 A 
ATOM     98  F   UNL A   1      36.764  31.587  38.899  1.00  0.00    -0.200 F 
ATOM     99  F   UNL A   1      37.543  34.158  39.375  1.00  0.00    -0.200 F 
ENDBRANCH  66  89
ENDBRANCH  40  41
ENDBRANCH  33  35
ENDBRANCH  32  33
ENDBRANCH  31  32
ENDBRANCH  30  31
ENDBRANCH  29  30
ENDBRANCH  28  29
ENDBRANCH   1  28
TORSDOF 20
ENDMDL
MODEL 2
REMARK VINA RESULT:     -10.4      5.569     12.145
REMARK SMILES O=C(Nc1ccc(Br)cc1)Nc1ccc(CC(=O)OCCOCCOCCOC(=O)c2ccc(-c3c4nc(c(-c5c(F)c(F)c(F)c(F)c5F)c5ccc([nH]5)c(-c5c(F)c(F)c(F)c(F)c5F)c5nc(c(-c6c(F)c(F)c(F)c(F)c6F)c6ccc3[nH]6)C=C5)C=C4)cc2)cc1
REMARK SMILES IDX 23 1 22 2 21 3 20 4 19 5 17 6 18 7 16 8 15 9 12 10 13 11
REMARK SMILES IDX 95 12 14 13 94 14 11 15 1 16 2 17 3 18 4 21 5 22 10 23 6 24
REMARK SMILES IDX 9 25 7 26 8 27 24 28 25 29 26 30 27 31 28 32 29 33 30 34
REMARK SMILES IDX 31 35 32 36 93 37 33 38 92 39 34 40 35 41 36 42 86 43 37 44
REMARK SMILES IDX 91 45 85 46 87 47 38 48 90 49 84 50 83 51 39 53 71 54 51 55
REMARK SMILES IDX 70 56 52 57 55 58 69 59 88 60 53 61 54 62 68 64 89 65 56 66
REMARK SMILES IDX 40 67 41 68 49 69 42 70 43 71 47 72 50 73 44 74 45 75 48 76
REMARK SMILES IDX 46 77 72 78 73 79 81 80 74 81 75 82 79 83 82 84 76 85 77 86
REMARK SMILES IDX 80 87 78 88 57 89 58 90 66 91 59 92 60 93 64 94 67 95 61 96
REMARK SMILES IDX 62 97 65 98 63 99
REMARK H PARENT 3 19 11 20 87 52 55 63
REMARK Flexibility Score: inf
ROOT
ATOM      1  C   UNL A   1      33.788  35.417  30.782  1.00  0.00     0.188 C 
ENDROOT
BRANCH   1   2
ATOM      2  O   UNL A   1      33.400  34.531  31.829  1.00  0.00    -0.376 OA
BRANCH   2   3
ATOM      3  C   UNL A   1      34.350  33.587  32.301  1.00  0.00     0.202 C 
BRANCH   3   4
ATOM      4  C   UNL A   1      35.817  33.998  32.157  1.00  0.00     0.261 C 
BRANCH   4   5
ATOM      5  O   UNL A   1      36.298  34.842  33.227  1.00  0.00    -0.463 OA
BRANCH   5   6
ATOM      6  C   UNL A   1      36.650  34.204  34.370  1.00  0.00     0.310 C 
ATOM      7  O   UNL A   1      35.845  33.738  35.173  1.00  0.00    -0.252 OA
BRANCH   6   8
ATOM      8  C   UNL A   1      38.133  34.132  34.650  1.00  0.00     0.158 C 
BRANCH   8   9
ATOM      9  C   UNL A   1      38.821  32.819  34.960  1.00  0.00    -0.037 A 
ATOM     10  C   UNL A   1      40.416  30.510  35.377  1.00  0.00     0.042 A 
ATOM     11  C   UNL A   1      40.307  31.487  36.368  1.00  0.00     0.026 A 
ATOM     12  C   UNL A   1      39.692  30.670  34.194  1.00  0.00     0.026 A 
ATOM     13  C   UNL A   1      39.547  32.646  36.147  1.00  0.00     0.006 A 
ATOM     14  C   UNL A   1      38.884  31.801  33.998  1.00  0.00     0.006 A 
BRANCH  10  15
ATOM     15  N   UNL A   1      41.258  29.405  35.617  1.00  0.00    -0.308 N 
ATOM     16  O   UNL A   1      42.631  30.272  37.264  1.00  0.00    -0.248 OA
ATOM     17  C   UNL A   1      42.344  29.388  36.461  1.00  0.00     0.323 C 
ATOM     18  N   UNL A   1      43.045  28.207  36.492  1.00  0.00    -0.308 N 
ATOM     19  H   UNL A   1      43.415  27.967  37.371  1.00  0.00     0.171 HD
ATOM     20  H   UNL A   1      41.049  28.570  35.138  1.00  0.00     0.171 HD
BRANCH  18  21
ATOM     21  C   UNL A   1      43.313  27.289  35.462  1.00  0.00     0.042 A 
ATOM     22  C   UNL A   1      43.233  27.633  34.109  1.00  0.00     0.027 A 
ATOM     23  C   UNL A   1      43.782  26.020  35.819  1.00  0.00     0.027 A 
ATOM     24  C   UNL A   1      43.608  26.713  33.124  1.00  0.00     0.018 A 
ATOM     25  C   UNL A   1      44.134  25.090  34.836  1.00  0.00     0.018 A 
ATOM     26  C   UNL A   1      44.050  25.445  33.491  1.00  0.00     0.018 A 
ATOM     27  Br  UNL A   1      44.560  24.206  32.158  1.00  0.00    -0.051 Br
ENDBRANCH  18  21
ENDBRANCH  10  15
ENDBRANCH   8   9
ENDBRANCH   6   8
ENDBRANCH   5   6
ENDBRANCH   4   5
ENDBRANCH   3   4
ENDBRANCH   2   3
ENDBRANCH   1   2
BRANCH   1  28
ATOM     28  C   UNL A   1      33.046  35.366  29.437  1.00  0.00     0.188 C 
BRANCH  28  29
ATOM     29  O   UNL A   1      33.939  35.522  28.340  1.00  0.00    -0.376 OA
BRANCH  29  30
ATOM     30  C   UNL A   1      34.753  34.385  28.090  1.00  0.00     0.202 C 
BRANCH  30  31
ATOM     31  C   UNL A   1      33.874  33.134  28.120  1.00  0.00     0.261 C 
BRANCH  31  32
ATOM     32  O   UNL A   1      34.443  32.039  28.868  1.00  0.00    -0.460 OA
BRANCH  32  33
ATOM     33  C   UNL A   1      34.433  30.835  28.264  1.00  0.00     0.338 C 
ATOM     34  O   UNL A   1      33.519  30.346  27.610  1.00  0.00    -0.246 OA
BRANCH  33  35
ATOM     35  C   UNL A   1      35.770  30.220  28.367  1.00  0.00     0.060 A 
ATOM     36  C   UNL A   1      36.175  29.719  29.609  1.00  0.00     0.016 A 
ATOM     37  C   UNL A   1      36.647  30.191  27.278  1.00  0.00     0.016 A 
ATOM     38  C   UNL A   1      37.471  29.235  29.782  1.00  0.00     0.010 A 
ATOM     39  C   UNL A   1      37.949  29.712  27.456  1.00  0.00     0.010 A 
ATOM     40  C   UNL A   1      38.382  29.268  28.718  1.00  0.00    -0.014 A 
BRANCH  40  41
ATOM     41  C   UNL A   1      39.818  28.990  28.979  1.00  0.00     0.031 A 
ATOM     42  C   UNL A   1      40.625  29.993  29.761  1.00  0.00     0.074 A 
ATOM     43  C   UNL A   1      40.389  27.840  28.581  1.00  0.00     0.049 A 
ATOM     44  N   UNL A   1      41.883  29.950  30.124  1.00  0.00    -0.248 NA
ATOM     45  C   UNL A   1      39.917  31.208  30.191  1.00  0.00     0.031 C 
ATOM     46  C   UNL A   1      39.716  26.772  27.845  1.00  0.00     0.029 A 
ATOM     47  N   UNL A   1      41.673  27.379  28.747  1.00  0.00    -0.354 N 
ATOM     48  C   UNL A   1      42.116  31.128  30.821  1.00  0.00     0.074 A 
ATOM     49  C   UNL A   1      40.881  31.883  30.800  1.00  0.00     0.031 C 
ATOM     50  C   UNL A   1      40.593  25.777  27.625  1.00  0.00     0.029 A 
ATOM     51  C   UNL A   1      41.894  26.148  28.182  1.00  0.00     0.049 A 
ATOM     52  H   UNL A   1      42.369  27.885  29.226  1.00  0.00     0.167 HD
ATOM     53  C   UNL A   1      43.251  31.541  31.435  1.00  0.00     0.037 A 
ATOM     54  C   UNL A   1      43.019  25.411  28.113  1.00  0.00     0.037 A 
ATOM     55  C   UNL A   1      44.483  30.797  31.460  1.00  0.00     0.049 A 
ATOM     56  C   UNL A   1      44.285  25.919  28.757  1.00  0.00     0.074 A 
ATOM     57  C   UNL A   1      45.681  31.131  32.068  1.00  0.00     0.029 A 
ATOM     58  N   UNL A   1      44.678  29.569  30.847  1.00  0.00    -0.354 N 
ATOM     59  N   UNL A   1      44.488  27.022  29.435  1.00  0.00    -0.248 NA
ATOM     60  C   UNL A   1      45.478  25.069  28.628  1.00  0.00     0.031 C 
ATOM     61  C   UNL A   1      46.614  30.129  31.781  1.00  0.00     0.029 A 
ATOM     62  C   UNL A   1      45.983  29.142  31.042  1.00  0.00     0.049 A 
ATOM     63  H   UNL A   1      43.990  29.073  30.344  1.00  0.00     0.167 HD
ATOM     64  C   UNL A   1      45.818  26.985  29.837  1.00  0.00     0.074 A 
ATOM     65  C   UNL A   1      46.369  25.741  29.343  1.00  0.00     0.031 C 
ATOM     66  C   UNL A   1      46.522  27.901  30.548  1.00  0.00     0.037 A 
BRANCH  53  67
ATOM     67  C   UNL A   1      43.218  32.879  32.116  1.00  0.00     0.064 A 
ATOM     68  C   UNL A   1      43.430  34.072  31.408  1.00  0.00     0.173 A 
ATOM     69  C   UNL A   1      42.943  32.969  33.489  1.00  0.00     0.173 A 
ATOM     70  F   UNL A   1      43.713  34.039  30.098  1.00  0.00    -0.203 F 
ATOM     71  C   UNL A   1      43.395  35.304  32.057  1.00  0.00     0.198 A 
ATOM     72  C   UNL A   1      42.879  34.205  34.128  1.00  0.00     0.198 A 
ATOM     73  F   UNL A   1      42.729  31.859  34.210  1.00  0.00    -0.203 F 
ATOM     74  F   UNL A   1      43.649  36.427  31.371  1.00  0.00    -0.200 F 
ATOM     75  C   UNL A   1      43.113  35.370  33.414  1.00  0.00     0.200 A 
ATOM     76  F   UNL A   1      42.595  34.267  35.435  1.00  0.00    -0.200 F 
ATOM     77  F   UNL A   1      43.074  36.557  34.034  1.00  0.00    -0.200 F 
ENDBRANCH  53  67
BRANCH  54  78
ATOM     78  C   UNL A   1      43.012  24.104  27.404  1.00  0.00     0.064 A 
ATOM     79  C   UNL A   1      43.420  24.002  26.067  1.00  0.00     0.173 A 
ATOM     80  C   UNL A   1      42.561  22.938  28.039  1.00  0.00     0.173 A 
ATOM     81  F   UNL A   1      43.830  25.095  25.407  1.00  0.00    -0.203 F 
ATOM     82  C   UNL A   1      43.356  22.788  25.385  1.00  0.00     0.198 A 
ATOM     83  C   UNL A   1      42.526  21.718  27.366  1.00  0.00     0.198 A 
ATOM     84  F   UNL A   1      42.152  22.983  29.315  1.00  0.00    -0.203 F 
ATOM     85  F   UNL A   1      43.698  22.731  24.091  1.00  0.00    -0.200 F 
ATOM     86  C   UNL A   1      42.914  21.647  26.037  1.00  0.00     0.200 A 
ATOM     87  F   UNL A   1      42.104  20.617  28.001  1.00  0.00    -0.200 F 
ATOM     88  F   UNL A   1      42.850  20.480  25.380  1.00  0.00    -0.200 F 
ENDBRANCH  54  78
BRANCH  66  89
ATOM     89  C   UNL A   1      47.955  27.575  30.864  1.00  0.00     0.064 A 
ATOM     90  C   UNL A   1      49.002  27.924  29.997  1.00  0.00     0.173 A 
ATOM     91  C   UNL A   1      48.287  26.912  32.056  1.00  0.00     0.173 A 
ATOM     92  F   UNL A   1      48.739  28.548  28.839  1.00  0.00    -0.203 F 
ATOM     93  C   UNL A   1      50.321  27.586  30.292  1.00  0.00     0.198 A 
ATOM     94  C   UNL A   1      49.611  26.605  32.363  1.00  0.00     0.198 A 
ATOM     95  F   UNL A   1      47.328  26.564  32.927  1.00  0.00    -0.203 F 
ATOM     96  F   UNL A   1      51.295  27.875  29.418  1.00  0.00    -0.200 F 
ATOM     97  C   UNL A   1      50.625  26.931  31.476  1.00  0.00     0.200 A 
ATOM     98  F   UNL A   1      49.903  25.985  33.515  1.00  0.00    -0.200 F 
ATOM     99  F   UNL A   1      51.894  26.604  31.755  1.00  0.00    -0.200 F 
ENDBRANCH  66  89
ENDBRANCH  40  41
ENDBRANCH  33  35
ENDBRANCH  32  33
ENDBRANCH  31  32
ENDBRANCH  30  31
ENDBRANCH  29  30
ENDBRANCH  28  29
ENDBRANCH   1  28
TORSDOF 20
ENDMDL
MODEL 3
REMARK VINA RESULT:     -10.3      1.016      7.193
REMARK SMILES O=C(Nc1ccc(Br)cc1)Nc1ccc(CC(=O)OCCOCCOCCOC(=O)c2ccc(-c3c4nc(c(-c5c(F)c(F)c(F)c(F)c5F)c5ccc([nH]5)c(-c5c(F)c(F)c(F)c(F)c5F)c5nc(c(-c6c(F)c(F)c(F)c(F)c6F)c6ccc3[nH]6)C=C5)C=C4)cc2)cc1
REMARK SMILES IDX 23 1 22 2 21 3 20 4 19 5 17 6 18 7 16 8 15 9 12 10 13 11
REMARK SMILES IDX 95 12 14 13 94 14 11 15 1 16 2 17 3 18 4 21 5 22 10 23 6 24
REMARK SMILES IDX 9 25 7 26 8 27 24 28 25 29 26 30 27 31 28 32 29 33 30 34
REMARK SMILES IDX 31 35 32 36 93 37 33 38 92 39 34 40 35 41 36 42 86 43 37 44
REMARK SMILES IDX 91 45 85 46 87 47 38 48 90 49 84 50 83 51 39 53 71 54 51 55
REMARK SMILES IDX 70 56 52 57 55 58 69 59 88 60 53 61 54 62 68 64 89 65 56 66
REMARK SMILES IDX 40 67 41 68 49 69 42 70 43 71 47 72 50 73 44 74 45 75 48 76
REMARK SMILES IDX 46 77 72 78 73 79 81 80 74 81 75 82 79 83 82 84 76 85 77 86
REMARK SMILES IDX 80 87 78 88 57 89 58 90 66 91 59 92 60 93 64 94 67 95 61 96
REMARK SMILES IDX 62 97 65 98 63 99
REMARK H PARENT 3 19 11 20 87 52 55 63
REMARK Flexibility Score: inf
ROOT
ATOM      1  C   UNL A   1      42.387  21.680  27.576  1.00  0.00     0.188 C 
ENDROOT
BRANCH   1   2
ATOM      2  O   UNL A   1      41.148  22.174  28.078  1.00  0.00    -0.376 OA
BRANCH   2   3
ATOM      3  C   UNL A   1      40.571  23.312  27.453  1.00  0.00     0.202 C 
BRANCH   3   4
ATOM      4  C   UNL A   1      39.710  23.021  26.222  1.00  0.00     0.261 C 
BRANCH   4   5
ATOM      5  O   UNL A   1      38.725  21.984  26.426  1.00  0.00    -0.463 OA
BRANCH   5   6
ATOM      6  C   UNL A   1      38.972  20.805  25.806  1.00  0.00     0.310 C 
ATOM      7  O   UNL A   1      40.079  20.272  25.756  1.00  0.00    -0.252 OA
BRANCH   6   8
ATOM      8  C   UNL A   1      37.792  20.173  25.105  1.00  0.00     0.158 C 
BRANCH   8   9
ATOM      9  C   UNL A   1      36.654  21.008  24.552  1.00  0.00    -0.037 A 
ATOM     10  C   UNL A   1      34.546  22.767  23.839  1.00  0.00     0.042 A 
ATOM     11  C   UNL A   1      35.858  23.029  23.438  1.00  0.00     0.026 A 
ATOM     12  C   UNL A   1      34.286  21.602  24.562  1.00  0.00     0.026 A 
ATOM     13  C   UNL A   1      36.905  22.177  23.822  1.00  0.00     0.006 A 
ATOM     14  C   UNL A   1      35.326  20.719  24.894  1.00  0.00     0.006 A 
BRANCH  10  15
ATOM     15  N   UNL A   1      33.544  23.698  23.497  1.00  0.00    -0.308 N 
ATOM     16  O   UNL A   1      33.443  23.386  21.208  1.00  0.00    -0.248 OA
ATOM     17  C   UNL A   1      33.132  24.005  22.222  1.00  0.00     0.323 C 
ATOM     18  N   UNL A   1      32.173  24.985  22.136  1.00  0.00    -0.308 N 
ATOM     19  H   UNL A   1      31.511  24.857  21.419  1.00  0.00     0.171 HD
ATOM     20  H   UNL A   1      33.100  24.170  24.239  1.00  0.00     0.171 HD
BRANCH  18  21
ATOM     21  C   UNL A   1      31.991  26.141  22.914  1.00  0.00     0.042 A 
ATOM     22  C   UNL A   1      31.125  26.180  24.010  1.00  0.00     0.027 A 
ATOM     23  C   UNL A   1      32.794  27.253  22.636  1.00  0.00     0.027 A 
ATOM     24  C   UNL A   1      31.055  27.323  24.814  1.00  0.00     0.018 A 
ATOM     25  C   UNL A   1      32.707  28.406  23.423  1.00  0.00     0.018 A 
ATOM     26  C   UNL A   1      31.840  28.432  24.513  1.00  0.00     0.018 A 
ATOM     27  Br  UNL A   1      31.747  29.974  25.603  1.00  0.00    -0.051 Br
ENDBRANCH  18  21
ENDBRANCH  10  15
ENDBRANCH   8   9
ENDBRANCH   6   8
ENDBRANCH   5   6
ENDBRANCH   4   5
ENDBRANCH   3   4
ENDBRANCH   2   3
ENDBRANCH   1   2
BRANCH   1  28
ATOM     28  C   UNL A   1      43.348  22.640  26.858  1.00  0.00     0.188 C 
BRANCH  28  29
ATOM     29  O   UNL A   1      43.508  22.295  25.487  1.00  0.00    -0.376 OA
BRANCH  29  30
ATOM     30  C   UNL A   1      43.833  23.393  24.647  1.00  0.00     0.202 C 
BRANCH  30  31
ATOM     31  C   UNL A   1      45.329  23.685  24.776  1.00  0.00     0.261 C 
BRANCH  31  32
ATOM     32  O   UNL A   1      45.651  24.631  25.817  1.00  0.00    -0.460 OA
BRANCH  32  33
ATOM     33  C   UNL A   1      45.535  25.933  25.495  1.00  0.00     0.338 C 
ATOM     34  O   UNL A   1      45.969  26.487  24.492  1.00  0.00    -0.246 OA
BRANCH  33  35
ATOM     35  C   UNL A   1      44.653  26.605  26.469  1.00  0.00     0.060 A 
ATOM     36  C   UNL A   1      44.772  27.990  26.624  1.00  0.00     0.016 A 
ATOM     37  C   UNL A   1      43.763  25.882  27.270  1.00  0.00     0.016 A 
ATOM     38  C   UNL A   1      44.043  28.651  27.612  1.00  0.00     0.010 A 
ATOM     39  C   UNL A   1      43.039  26.545  28.266  1.00  0.00     0.010 A 
ATOM     40  C   UNL A   1      43.203  27.927  28.469  1.00  0.00    -0.014 A 
BRANCH  40  41
ATOM     41  C   UNL A   1      42.634  28.595  29.668  1.00  0.00     0.031 A 
ATOM     42  C   UNL A   1      41.268  29.222  29.575  1.00  0.00     0.074 A 
ATOM     43  C   UNL A   1      43.290  28.598  30.842  1.00  0.00     0.049 A 
ATOM     44  N   UNL A   1      40.568  29.837  30.496  1.00  0.00    -0.248 NA
ATOM     45  C   UNL A   1      40.601  29.144  28.267  1.00  0.00     0.031 C 
ATOM     46  C   UNL A   1      44.603  28.002  31.078  1.00  0.00     0.029 A 
ATOM     47  N   UNL A   1      42.932  29.123  32.060  1.00  0.00    -0.354 N 
ATOM     48  C   UNL A   1      39.384  30.219  29.879  1.00  0.00     0.074 A 
ATOM     49  C   UNL A   1      39.473  29.800  28.497  1.00  0.00     0.031 C 
ATOM     50  C   UNL A   1      44.940  28.191  32.365  1.00  0.00     0.029 A 
ATOM     51  C   UNL A   1      43.880  28.943  33.036  1.00  0.00     0.049 A 
ATOM     52  H   UNL A   1      42.077  29.584  32.218  1.00  0.00     0.167 HD
ATOM     53  C   UNL A   1      38.312  30.852  30.416  1.00  0.00     0.037 A 
ATOM     54  C   UNL A   1      43.894  29.348  34.322  1.00  0.00     0.037 A 
ATOM     55  C   UNL A   1      38.216  31.272  31.789  1.00  0.00     0.049 A 
ATOM     56  C   UNL A   1      42.711  30.100  34.880  1.00  0.00     0.074 A 
ATOM     57  C   UNL A   1      37.163  31.909  32.425  1.00  0.00     0.029 A 
ATOM     58  N   UNL A   1      39.211  31.103  32.739  1.00  0.00    -0.354 N 
ATOM     59  N   UNL A   1      41.586  30.433  34.296  1.00  0.00    -0.248 NA
ATOM     60  C   UNL A   1      42.803  30.523  36.286  1.00  0.00     0.031 C 
ATOM     61  C   UNL A   1      37.542  32.168  33.747  1.00  0.00     0.029 A 
ATOM     62  C   UNL A   1      38.806  31.643  33.951  1.00  0.00     0.049 A 
ATOM     63  H   UNL A   1      40.078  30.664  32.578  1.00  0.00     0.167 HD
ATOM     64  C   UNL A   1      40.828  31.079  35.265  1.00  0.00     0.074 A 
ATOM     65  C   UNL A   1      41.612  31.072  36.482  1.00  0.00     0.031 C 
ATOM     66  C   UNL A   1      39.594  31.631  35.158  1.00  0.00     0.037 A 
BRANCH  53  67
ATOM     67  C   UNL A   1      37.159  31.148  29.501  1.00  0.00     0.064 A 
ATOM     68  C   UNL A   1      36.229  30.160  29.145  1.00  0.00     0.173 A 
ATOM     69  C   UNL A   1      36.968  32.443  28.997  1.00  0.00     0.173 A 
ATOM     70  F   UNL A   1      36.376  28.902  29.585  1.00  0.00    -0.203 F 
ATOM     71  C   UNL A   1      35.165  30.453  28.295  1.00  0.00     0.198 A 
ATOM     72  C   UNL A   1      35.885  32.739  28.173  1.00  0.00     0.198 A 
ATOM     73  F   UNL A   1      37.826  33.425  29.310  1.00  0.00    -0.203 F 
ATOM     74  F   UNL A   1      34.316  29.482  27.928  1.00  0.00    -0.200 F 
ATOM     75  C   UNL A   1      34.990  31.743  27.816  1.00  0.00     0.200 A 
ATOM     76  F   UNL A   1      35.712  33.988  27.720  1.00  0.00    -0.200 F 
ATOM     77  F   UNL A   1      33.961  32.023  27.003  1.00  0.00    -0.200 F 
ENDBRANCH  53  67
BRANCH  54  78
ATOM     78  C   UNL A   1      45.070  29.055  35.183  1.00  0.00     0.064 A 
ATOM     79  C   UNL A   1      45.132  27.884  35.951  1.00  0.00     0.173 A 
ATOM     80  C   UNL A   1      46.138  29.958  35.284  1.00  0.00     0.173 A 
ATOM     81  F   UNL A   1      44.120  27.004  35.912  1.00  0.00    -0.203 F 
ATOM     82  C   UNL A   1      46.206  27.638  36.803  1.00  0.00     0.198 A 
ATOM     83  C   UNL A   1      47.226  29.697  36.114  1.00  0.00     0.198 A 
ATOM     84  F   UNL A   1      46.124  31.097  34.576  1.00  0.00    -0.203 F 
ATOM     85  F   UNL A   1      46.212  26.538  37.568  1.00  0.00    -0.200 F 
ATOM     86  C   UNL A   1      47.255  28.541  36.879  1.00  0.00     0.200 A 
ATOM     87  F   UNL A   1      48.240  30.570  36.180  1.00  0.00    -0.200 F 
ATOM     88  F   UNL A   1      48.287  28.306  37.702  1.00  0.00    -0.200 F 
ENDBRANCH  54  78
BRANCH  66  89
ATOM     89  C   UNL A   1      39.001  32.241  36.397  1.00  0.00     0.064 A 
ATOM     90  C   UNL A   1      38.115  31.529  37.220  1.00  0.00     0.173 A 
ATOM     91  C   UNL A   1      39.332  33.552  36.773  1.00  0.00     0.173 A 
ATOM     92  F   UNL A   1      37.756  30.276  36.902  1.00  0.00    -0.203 F 
ATOM     93  C   UNL A   1      37.552  32.121  38.349  1.00  0.00     0.198 A 
ATOM     94  C   UNL A   1      38.792  34.130  37.920  1.00  0.00     0.198 A 
ATOM     95  F   UNL A   1      40.182  34.276  36.029  1.00  0.00    -0.203 F 
ATOM     96  F   UNL A   1      36.660  31.442  39.084  1.00  0.00    -0.200 F 
ATOM     97  C   UNL A   1      37.894  33.418  38.700  1.00  0.00     0.200 A 
ATOM     98  F   UNL A   1      39.135  35.379  38.265  1.00  0.00    -0.200 F 
ATOM     99  F   UNL A   1      37.348  33.986  39.784  1.00  0.00    -0.200 F 
ENDBRANCH  66  89
ENDBRANCH  40  41
ENDBRANCH  33  35
ENDBRANCH  32  33
ENDBRANCH  31  32
ENDBRANCH  30  31
ENDBRANCH  29  30
ENDBRANCH  28  29
ENDBRANCH   1  28
TORSDOF 20
ENDMDL
