MODEL 1
REMARK VINA RESULT:     -11.0      0.000      0.000
REMARK SMILES C[C@@H](C(=O)OCCOCCOCCOC(=O)c1ccc(-c2c3nc(c(-c4c(F)c(F)c(F)c(F)c4F)c4ccc([nH]4)c(-c4c(F)c(F)c(F)c(F)c4F)c4nc(c(-c5c(F)c(F)c(F)c(F)c5F)c5ccc2[nH]5)C=C4)C=C3)cc1)c1ccc2c3cc(Cl)ccc3n(C(=O)c3ccc(Cl)cc3)c2c1
REMARK SMILES IDX 9 1 8 2 7 3 6 4 5 5 3 6 4 7 2 8 1 9 80 10 81 11 102 12 82 13
REMARK SMILES IDX 101 14 83 15 91 16 84 17 90 18 85 19 89 20 86 21 88 22 87 23
REMARK SMILES IDX 92 24 93 25 94 26 95 27 100 28 96 29 99 30 97 31 98 32 10 33
REMARK SMILES IDX 11 34 12 35 13 36 14 37 15 38 16 39 17 40 18 41 79 42 19 43
REMARK SMILES IDX 78 44 20 45 21 46 22 47 72 48 23 49 77 50 71 51 73 52 24 53
REMARK SMILES IDX 76 54 70 55 69 56 25 58 57 59 37 60 56 61 38 62 41 63 55 64
REMARK SMILES IDX 74 65 39 66 40 67 54 69 75 70 42 71 26 72 27 73 35 74 28 75
REMARK SMILES IDX 29 76 33 77 36 78 30 79 31 80 34 81 32 82 58 83 59 84 67 85
REMARK SMILES IDX 60 86 61 87 65 88 68 89 62 90 63 91 66 92 64 93 43 94 44 95
REMARK SMILES IDX 52 96 45 97 46 98 50 99 53 100 47 101 48 102 51 103 49 104
REMARK H PARENT 73 57 41 68
REMARK Flexibility Score: inf
ROOT
ATOM      1  C   UNL A   1      40.627  22.420  27.219  1.00  0.00     0.188 C 
ENDROOT
BRANCH   1   2
ATOM      2  O   UNL A   1      40.113  23.658  27.681  1.00  0.00    -0.376 OA
BRANCH   2   3
ATOM      3  C   UNL A   1      38.906  24.149  27.105  1.00  0.00     0.202 C 
BRANCH   3   4
ATOM      4  C   UNL A   1      38.157  23.196  26.176  1.00  0.00     0.261 C 
BRANCH   4   5
ATOM      5  O   UNL A   1      37.623  23.896  25.032  1.00  0.00    -0.463 OA
BRANCH   5   6
ATOM      6  C   UNL A   1      36.291  23.721  24.830  1.00  0.00     0.313 C 
ATOM      7  O   UNL A   1      35.825  23.156  23.845  1.00  0.00    -0.252 OA
BRANCH   6   8
ATOM      8  C   UNL A   1      35.414  24.227  25.988  1.00  0.00     0.126 C 
ATOM      9  C   UNL A   1      34.930  23.127  26.937  1.00  0.00     0.025 C 
BRANCH   8  10
ATOM     10  C   UNL A   1      34.363  25.235  25.508  1.00  0.00    -0.032 A 
ATOM     11  C   UNL A   1      34.540  26.575  25.885  1.00  0.00     0.005 A 
ATOM     12  C   UNL A   1      33.219  24.892  24.759  1.00  0.00     0.032 A 
ATOM     13  C   UNL A   1      33.648  27.573  25.501  1.00  0.00     0.011 A 
ATOM     14  C   UNL A   1      32.291  25.904  24.404  1.00  0.00     0.057 A 
ATOM     15  C   UNL A   1      32.514  27.233  24.743  1.00  0.00     0.008 A 
ATOM     16  N   UNL A   1      31.062  25.827  23.729  1.00  0.00    -0.276 N 
ATOM     17  C   UNL A   1      31.430  28.000  24.248  1.00  0.00     0.009 A 
ATOM     18  C   UNL A   1      30.534  27.127  23.616  1.00  0.00     0.057 A 
ATOM     19  C   UNL A   1      31.134  29.377  24.361  1.00  0.00     0.031 A 
ATOM     20  C   UNL A   1      29.312  27.623  23.112  1.00  0.00     0.029 A 
ATOM     21  C   UNL A   1      29.926  29.857  23.872  1.00  0.00     0.041 A 
ATOM     22  C   UNL A   1      29.030  28.997  23.249  1.00  0.00     0.023 A 
ATOM     23  Cl  UNL A   1      29.526  31.513  24.107  1.00  0.00    -0.084 Cl
BRANCH  16  24
ATOM     24  C   UNL A   1      30.448  24.588  23.389  1.00  0.00     0.262 C 
ATOM     25  O   UNL A   1      29.296  24.666  22.965  1.00  0.00    -0.268 OA
BRANCH  24  26
ATOM     26  C   UNL A   1      30.991  23.216  23.634  1.00  0.00     0.040 A 
ATOM     27  C   UNL A   1      31.007  22.668  24.926  1.00  0.00     0.015 A 
ATOM     28  C   UNL A   1      31.616  22.496  22.635  1.00  0.00     0.015 A 
ATOM     29  C   UNL A   1      31.606  21.420  25.184  1.00  0.00     0.021 A 
ATOM     30  C   UNL A   1      32.208  21.245  22.881  1.00  0.00     0.021 A 
ATOM     31  C   UNL A   1      32.197  20.703  24.153  1.00  0.00     0.041 A 
ATOM     32  Cl  UNL A   1      32.901  19.161  24.426  1.00  0.00    -0.084 Cl
ENDBRANCH  24  26
ENDBRANCH  16  24
ENDBRANCH   8  10
ENDBRANCH   6   8
ENDBRANCH   5   6
ENDBRANCH   4   5
ENDBRANCH   3   4
ENDBRANCH   2   3
ENDBRANCH   1   2
BRANCH   1  33
ATOM     33  C   UNL A   1      42.022  21.958  27.682  1.00  0.00     0.188 C 
BRANCH  33  34
ATOM     34  O   UNL A   1      42.329  20.575  27.700  1.00  0.00    -0.376 OA
BRANCH  34  35
ATOM     35  C   UNL A   1      41.700  19.770  26.705  1.00  0.00     0.202 C 
BRANCH  35  36
ATOM     36  C   UNL A   1      42.602  18.745  26.020  1.00  0.00     0.261 C 
BRANCH  36  37
ATOM     37  O   UNL A   1      43.030  19.210  24.720  1.00  0.00    -0.460 OA
BRANCH  37  38
ATOM     38  C   UNL A   1      44.360  19.200  24.533  1.00  0.00     0.338 C 
ATOM     39  O   UNL A   1      45.051  18.204  24.257  1.00  0.00    -0.246 OA
BRANCH  38  40
ATOM     40  C   UNL A   1      44.962  20.541  24.636  1.00  0.00     0.060 A 
ATOM     41  C   UNL A   1      45.737  20.893  25.742  1.00  0.00     0.016 A 
ATOM     42  C   UNL A   1      44.540  21.543  23.758  1.00  0.00     0.016 A 
ATOM     43  C   UNL A   1      46.021  22.239  26.002  1.00  0.00     0.010 A 
ATOM     44  C   UNL A   1      44.817  22.896  24.030  1.00  0.00     0.010 A 
ATOM     45  C   UNL A   1      45.514  23.269  25.188  1.00  0.00    -0.014 A 
BRANCH  45  46
ATOM     46  C   UNL A   1      45.600  24.700  25.616  1.00  0.00     0.031 A 
ATOM     47  C   UNL A   1      46.846  25.509  25.384  1.00  0.00     0.074 A 
ATOM     48  C   UNL A   1      44.534  25.409  26.012  1.00  0.00     0.049 A 
ATOM     49  N   UNL A   1      47.543  26.295  26.156  1.00  0.00    -0.248 NA
ATOM     50  C   UNL A   1      47.369  25.455  24.032  1.00  0.00     0.031 C 
ATOM     51  C   UNL A   1      43.160  24.928  26.094  1.00  0.00     0.029 A 
ATOM     52  N   UNL A   1      44.463  26.725  26.384  1.00  0.00    -0.354 N 
ATOM     53  C   UNL A   1      48.704  26.586  25.431  1.00  0.00     0.074 A 
ATOM     54  C   UNL A   1      48.596  25.934  24.151  1.00  0.00     0.031 C 
ATOM     55  C   UNL A   1      42.369  25.948  26.455  1.00  0.00     0.029 A 
ATOM     56  C   UNL A   1      43.206  27.101  26.771  1.00  0.00     0.049 A 
ATOM     57  H   UNL A   1      45.235  27.336  26.373  1.00  0.00     0.167 HD
ATOM     58  C   UNL A   1      49.671  27.491  25.703  1.00  0.00     0.037 A 
ATOM     59  C   UNL A   1      42.812  28.225  27.397  1.00  0.00     0.037 A 
ATOM     60  C   UNL A   1      49.396  28.634  26.526  1.00  0.00     0.049 A 
ATOM     61  C   UNL A   1      43.857  29.267  27.694  1.00  0.00     0.074 A 
ATOM     62  C   UNL A   1      50.221  29.684  26.872  1.00  0.00     0.029 A 
ATOM     63  N   UNL A   1      48.115  28.957  26.958  1.00  0.00    -0.354 N 
ATOM     64  N   UNL A   1      45.146  29.252  27.433  1.00  0.00    -0.248 NA
ATOM     65  C   UNL A   1      43.400  30.473  28.390  1.00  0.00     0.031 C 
ATOM     66  C   UNL A   1      49.419  30.679  27.450  1.00  0.00     0.029 A 
ATOM     67  C   UNL A   1      48.105  30.233  27.479  1.00  0.00     0.049 A 
ATOM     68  H   UNL A   1      47.333  28.363  26.901  1.00  0.00     0.167 HD
ATOM     69  C   UNL A   1      45.652  30.448  27.926  1.00  0.00     0.074 A 
ATOM     70  C   UNL A   1      44.521  31.176  28.471  1.00  0.00     0.031 C 
ATOM     71  C   UNL A   1      46.929  30.911  27.958  1.00  0.00     0.037 A 
BRANCH  58  72
ATOM     72  C   UNL A   1      51.030  27.341  25.074  1.00  0.00     0.064 A 
ATOM     73  C   UNL A   1      51.403  27.888  23.838  1.00  0.00     0.173 A 
ATOM     74  C   UNL A   1      52.018  26.638  25.788  1.00  0.00     0.173 A 
ATOM     75  F   UNL A   1      50.526  28.608  23.122  1.00  0.00    -0.203 F 
ATOM     76  C   UNL A   1      52.682  27.687  23.315  1.00  0.00     0.198 A 
ATOM     77  C   UNL A   1      53.307  26.476  25.283  1.00  0.00     0.198 A 
ATOM     78  F   UNL A   1      51.737  26.122  26.995  1.00  0.00    -0.203 F 
ATOM     79  F   UNL A   1      52.991  28.171  22.104  1.00  0.00    -0.200 F 
ATOM     80  C   UNL A   1      53.634  26.986  24.039  1.00  0.00     0.200 A 
ATOM     81  F   UNL A   1      54.233  25.829  26.006  1.00  0.00    -0.200 F 
ATOM     82  F   UNL A   1      54.866  26.811  23.542  1.00  0.00    -0.200 F 
ENDBRANCH  58  72
BRANCH  59  83
ATOM     83  C   UNL A   1      41.396  28.343  27.833  1.00  0.00     0.064 A 
ATOM     84  C   UNL A   1      40.980  27.948  29.110  1.00  0.00     0.173 A 
ATOM     85  C   UNL A   1      40.433  28.933  26.994  1.00  0.00     0.173 A 
ATOM     86  F   UNL A   1      41.836  27.330  29.936  1.00  0.00    -0.203 F 
ATOM     87  C   UNL A   1      39.671  28.162  29.540  1.00  0.00     0.198 A 
ATOM     88  C   UNL A   1      39.139  29.183  27.438  1.00  0.00     0.198 A 
ATOM     89  F   UNL A   1      40.768  29.319  25.753  1.00  0.00    -0.203 F 
ATOM     90  F   UNL A   1      39.295  27.756  30.760  1.00  0.00    -0.200 F 
ATOM     91  C   UNL A   1      38.757  28.797  28.711  1.00  0.00     0.200 A 
ATOM     92  F   UNL A   1      38.272  29.819  26.638  1.00  0.00    -0.200 F 
ATOM     93  F   UNL A   1      37.511  29.035  29.140  1.00  0.00    -0.200 F 
ENDBRANCH  59  83
BRANCH  71  94
ATOM     94  C   UNL A   1      47.136  32.261  28.565  1.00  0.00     0.064 A 
ATOM     95  C   UNL A   1      47.040  33.418  27.781  1.00  0.00     0.173 A 
ATOM     96  C   UNL A   1      47.382  32.400  29.938  1.00  0.00     0.173 A 
ATOM     97  F   UNL A   1      46.818  33.322  26.462  1.00  0.00    -0.203 F 
ATOM     98  C   UNL A   1      47.209  34.675  28.350  1.00  0.00     0.198 A 
ATOM     99  C   UNL A   1      47.528  33.661  30.506  1.00  0.00     0.198 A 
ATOM    100  F   UNL A   1      47.467  31.316  30.724  1.00  0.00    -0.203 F 
ATOM    101  F   UNL A   1      47.153  35.769  27.577  1.00  0.00    -0.200 F 
ATOM    102  C   UNL A   1      47.447  34.796  29.711  1.00  0.00     0.200 A 
ATOM    103  F   UNL A   1      47.746  33.779  31.823  1.00  0.00    -0.200 F 
ATOM    104  F   UNL A   1      47.605  36.008  30.257  1.00  0.00    -0.200 F 
ENDBRANCH  71  94
ENDBRANCH  45  46
ENDBRANCH  38  40
ENDBRANCH  37  38
ENDBRANCH  36  37
ENDBRANCH  35  36
ENDBRANCH  34  35
ENDBRANCH  33  34
ENDBRANCH   1  33
TORSDOF 20
ENDMDL
MODEL 2
REMARK VINA RESULT:     -10.8      6.572     11.591
REMARK SMILES C[C@@H](C(=O)OCCOCCOCCOC(=O)c1ccc(-c2c3nc(c(-c4c(F)c(F)c(F)c(F)c4F)c4ccc([nH]4)c(-c4c(F)c(F)c(F)c(F)c4F)c4nc(c(-c5c(F)c(F)c(F)c(F)c5F)c5ccc2[nH]5)C=C4)C=C3)cc1)c1ccc2c3cc(Cl)ccc3n(C(=O)c3ccc(Cl)cc3)c2c1
REMARK SMILES IDX 9 1 8 2 7 3 6 4 5 5 3 6 4 7 2 8 1 9 80 10 81 11 102 12 82 13
REMARK SMILES IDX 101 14 83 15 91 16 84 17 90 18 85 19 89 20 86 21 88 22 87 23
REMARK SMILES IDX 92 24 93 25 94 26 95 27 100 28 96 29 99 30 97 31 98 32 10 33
REMARK SMILES IDX 11 34 12 35 13 36 14 37 15 38 16 39 17 40 18 41 79 42 19 43
REMARK SMILES IDX 78 44 20 45 21 46 22 47 72 48 23 49 77 50 71 51 73 52 24 53
REMARK SMILES IDX 76 54 70 55 69 56 25 58 57 59 37 60 56 61 38 62 41 63 55 64
REMARK SMILES IDX 74 65 39 66 40 67 54 69 75 70 42 71 26 72 27 73 35 74 28 75
REMARK SMILES IDX 29 76 33 77 36 78 30 79 31 80 34 81 32 82 58 83 59 84 67 85
REMARK SMILES IDX 60 86 61 87 65 88 68 89 62 90 63 91 66 92 64 93 43 94 44 95
REMARK SMILES IDX 52 96 45 97 46 98 50 99 53 100 47 101 48 102 51 103 49 104
REMARK H PARENT 73 57 41 68
REMARK Flexibility Score: inf
ROOT
ATOM      1  C   UNL A   1      38.579  32.227  36.309  1.00  0.00     0.188 C 
ENDROOT
BRANCH   1   2
ATOM      2  O   UNL A   1      38.723  30.817  36.343  1.00  0.00    -0.376 OA
BRANCH   2   3
ATOM      3  C   UNL A   1      39.920  30.243  35.825  1.00  0.00     0.202 C 
BRANCH   3   4
ATOM      4  C   UNL A   1      40.144  30.378  34.321  1.00  0.00     0.261 C 
BRANCH   4   5
ATOM      5  O   UNL A   1      39.644  29.224  33.614  1.00  0.00    -0.463 OA
BRANCH   5   6
ATOM      6  C   UNL A   1      39.512  29.392  32.272  1.00  0.00     0.313 C 
ATOM      7  O   UNL A   1      40.440  29.717  31.537  1.00  0.00    -0.252 OA
BRANCH   6   8
ATOM      8  C   UNL A   1      38.108  29.062  31.739  1.00  0.00     0.126 C 
ATOM      9  C   UNL A   1      38.102  28.143  30.513  1.00  0.00     0.025 C 
BRANCH   8  10
ATOM     10  C   UNL A   1      37.216  30.307  31.673  1.00  0.00    -0.032 A 
ATOM     11  C   UNL A   1      36.854  30.902  32.891  1.00  0.00     0.005 A 
ATOM     12  C   UNL A   1      36.706  30.855  30.478  1.00  0.00     0.032 A 
ATOM     13  C   UNL A   1      36.051  32.038  32.947  1.00  0.00     0.011 A 
ATOM     14  C   UNL A   1      35.855  31.988  30.540  1.00  0.00     0.057 A 
ATOM     15  C   UNL A   1      35.554  32.593  31.755  1.00  0.00     0.008 A 
ATOM     16  N   UNL A   1      35.173  32.681  29.528  1.00  0.00    -0.276 N 
ATOM     17  C   UNL A   1      34.700  33.694  31.496  1.00  0.00     0.009 A 
ATOM     18  C   UNL A   1      34.469  33.750  30.114  1.00  0.00     0.057 A 
ATOM     19  C   UNL A   1      34.062  34.604  32.368  1.00  0.00     0.031 A 
ATOM     20  C   UNL A   1      33.571  34.704  29.593  1.00  0.00     0.029 A 
ATOM     21  C   UNL A   1      33.171  35.535  31.850  1.00  0.00     0.041 A 
ATOM     22  C   UNL A   1      32.933  35.592  30.483  1.00  0.00     0.023 A 
ATOM     23  Cl  UNL A   1      32.318  36.568  32.928  1.00  0.00    -0.084 Cl
BRANCH  16  24
ATOM     24  C   UNL A   1      35.126  32.222  28.180  1.00  0.00     0.262 C 
ATOM     25  O   UNL A   1      35.708  32.928  27.358  1.00  0.00    -0.268 OA
BRANCH  24  26
ATOM     26  C   UNL A   1      34.327  31.075  27.647  1.00  0.00     0.040 A 
ATOM     27  C   UNL A   1      32.960  31.219  27.363  1.00  0.00     0.015 A 
ATOM     28  C   UNL A   1      34.864  29.807  27.541  1.00  0.00     0.015 A 
ATOM     29  C   UNL A   1      32.178  30.121  26.955  1.00  0.00     0.021 A 
ATOM     30  C   UNL A   1      34.093  28.707  27.126  1.00  0.00     0.021 A 
ATOM     31  C   UNL A   1      32.752  28.865  26.826  1.00  0.00     0.041 A 
ATOM     32  Cl  UNL A   1      31.836  27.514  26.293  1.00  0.00    -0.084 Cl
ENDBRANCH  24  26
ENDBRANCH  16  24
ENDBRANCH   8  10
ENDBRANCH   6   8
ENDBRANCH   5   6
ENDBRANCH   4   5
ENDBRANCH   3   4
ENDBRANCH   2   3
ENDBRANCH   1   2
BRANCH   1  33
ATOM     33  C   UNL A   1      37.729  32.929  37.385  1.00  0.00     0.188 C 
BRANCH  33  34
ATOM     34  O   UNL A   1      38.119  34.206  37.859  1.00  0.00    -0.376 OA
BRANCH  34  35
ATOM     35  C   UNL A   1      38.680  34.255  39.169  1.00  0.00     0.202 C 
BRANCH  35  36
ATOM     36  C   UNL A   1      39.177  35.627  39.621  1.00  0.00     0.261 C 
BRANCH  36  37
ATOM     37  O   UNL A   1      39.370  36.511  38.493  1.00  0.00    -0.460 OA
BRANCH  37  38
ATOM     38  C   UNL A   1      40.629  36.951  38.336  1.00  0.00     0.338 C 
ATOM     39  O   UNL A   1      41.286  37.599  39.168  1.00  0.00    -0.246 OA
BRANCH  38  40
ATOM     40  C   UNL A   1      41.221  36.541  37.050  1.00  0.00     0.060 A 
ATOM     41  C   UNL A   1      40.412  36.142  35.986  1.00  0.00     0.016 A 
ATOM     42  C   UNL A   1      42.596  36.298  36.984  1.00  0.00     0.016 A 
ATOM     43  C   UNL A   1      40.964  35.445  34.904  1.00  0.00     0.010 A 
ATOM     44  C   UNL A   1      43.145  35.586  35.901  1.00  0.00     0.010 A 
ATOM     45  C   UNL A   1      42.328  35.098  34.871  1.00  0.00    -0.014 A 
BRANCH  45  46
ATOM     46  C   UNL A   1      42.853  34.136  33.852  1.00  0.00     0.031 A 
ATOM     47  C   UNL A   1      43.253  34.599  32.479  1.00  0.00     0.074 A 
ATOM     48  C   UNL A   1      43.210  32.881  34.150  1.00  0.00     0.049 A 
ATOM     49  N   UNL A   1      42.991  34.146  31.285  1.00  0.00    -0.248 NA
ATOM     50  C   UNL A   1      44.140  35.746  32.453  1.00  0.00     0.031 C 
ATOM     51  C   UNL A   1      43.151  32.255  35.466  1.00  0.00     0.029 A 
ATOM     52  N   UNL A   1      43.741  31.918  33.333  1.00  0.00    -0.354 N 
ATOM     53  C   UNL A   1      43.472  35.124  30.407  1.00  0.00     0.074 A 
ATOM     54  C   UNL A   1      44.077  36.164  31.200  1.00  0.00     0.031 C 
ATOM     55  C   UNL A   1      43.666  31.021  35.378  1.00  0.00     0.029 A 
ATOM     56  C   UNL A   1      43.944  30.728  33.976  1.00  0.00     0.049 A 
ATOM     57  H   UNL A   1      43.954  32.067  32.384  1.00  0.00     0.167 HD
ATOM     58  C   UNL A   1      43.606  35.067  29.063  1.00  0.00     0.037 A 
ATOM     59  C   UNL A   1      44.235  29.522  33.456  1.00  0.00     0.037 A 
ATOM     60  C   UNL A   1      43.730  33.806  28.390  1.00  0.00     0.049 A 
ATOM     61  C   UNL A   1      44.416  29.424  31.965  1.00  0.00     0.074 A 
ATOM     62  C   UNL A   1      43.928  33.542  27.050  1.00  0.00     0.029 A 
ATOM     63  N   UNL A   1      43.873  32.602  29.071  1.00  0.00    -0.354 N 
ATOM     64  N   UNL A   1      44.329  30.367  31.052  1.00  0.00    -0.248 NA
ATOM     65  C   UNL A   1      44.716  28.095  31.426  1.00  0.00     0.031 C 
ATOM     66  C   UNL A   1      44.263  32.186  26.931  1.00  0.00     0.029 A 
ATOM     67  C   UNL A   1      44.253  31.610  28.195  1.00  0.00     0.049 A 
ATOM     68  H   UNL A   1      43.724  32.479  30.036  1.00  0.00     0.167 HD
ATOM     69  C   UNL A   1      44.570  29.746  29.833  1.00  0.00     0.074 A 
ATOM     70  C   UNL A   1      44.839  28.352  30.132  1.00  0.00     0.031 C 
ATOM     71  C   UNL A   1      44.552  30.254  28.573  1.00  0.00     0.037 A 
BRANCH  58  72
ATOM     72  C   UNL A   1      43.703  36.343  28.270  1.00  0.00     0.064 A 
ATOM     73  C   UNL A   1      42.605  37.084  27.813  1.00  0.00     0.173 A 
ATOM     74  C   UNL A   1      44.983  36.860  27.997  1.00  0.00     0.173 A 
ATOM     75  F   UNL A   1      41.354  36.675  28.074  1.00  0.00    -0.203 F 
ATOM     76  C   UNL A   1      42.781  38.250  27.066  1.00  0.00     0.198 A 
ATOM     77  C   UNL A   1      45.156  38.047  27.288  1.00  0.00     0.198 A 
ATOM     78  F   UNL A   1      46.076  36.218  28.440  1.00  0.00    -0.203 F 
ATOM     79  F   UNL A   1      41.712  38.906  26.590  1.00  0.00    -0.200 F 
ATOM     80  C   UNL A   1      44.054  38.734  26.808  1.00  0.00     0.200 A 
ATOM     81  F   UNL A   1      46.389  38.527  27.075  1.00  0.00    -0.200 F 
ATOM     82  F   UNL A   1      44.219  39.864  26.106  1.00  0.00    -0.200 F 
ENDBRANCH  58  72
BRANCH  59  83
ATOM     83  C   UNL A   1      44.278  28.343  34.361  1.00  0.00     0.064 A 
ATOM     84  C   UNL A   1      45.371  28.092  35.199  1.00  0.00     0.173 A 
ATOM     85  C   UNL A   1      43.175  27.475  34.461  1.00  0.00     0.173 A 
ATOM     86  F   UNL A   1      46.472  28.851  35.113  1.00  0.00    -0.203 F 
ATOM     87  C   UNL A   1      45.350  27.042  36.116  1.00  0.00     0.198 A 
ATOM     88  C   UNL A   1      43.139  26.453  35.404  1.00  0.00     0.198 A 
ATOM     89  F   UNL A   1      42.103  27.655  33.674  1.00  0.00    -0.203 F 
ATOM     90  F   UNL A   1      46.419  26.814  36.891  1.00  0.00    -0.200 F 
ATOM     91  C   UNL A   1      44.228  26.236  36.232  1.00  0.00     0.200 A 
ATOM     92  F   UNL A   1      42.040  25.695  35.524  1.00  0.00    -0.200 F 
ATOM     93  F   UNL A   1      44.196  25.251  37.139  1.00  0.00    -0.200 F 
ENDBRANCH  59  83
BRANCH  71  94
ATOM     94  C   UNL A   1      44.865  29.303  27.464  1.00  0.00     0.064 A 
ATOM     95  C   UNL A   1      46.186  29.106  27.043  1.00  0.00     0.173 A 
ATOM     96  C   UNL A   1      43.848  28.553  26.855  1.00  0.00     0.173 A 
ATOM     97  F   UNL A   1      47.181  29.816  27.595  1.00  0.00    -0.203 F 
ATOM     98  C   UNL A   1      46.479  28.204  26.028  1.00  0.00     0.198 A 
ATOM     99  C   UNL A   1      44.150  27.634  25.855  1.00  0.00     0.198 A 
ATOM    100  F   UNL A   1      42.572  28.703  27.240  1.00  0.00    -0.203 F 
ATOM    101  F   UNL A   1      47.745  28.058  25.611  1.00  0.00    -0.200 F 
ATOM    102  C   UNL A   1      45.463  27.465  25.439  1.00  0.00     0.200 A 
ATOM    103  F   UNL A   1      43.170  26.912  25.294  1.00  0.00    -0.200 F 
ATOM    104  F   UNL A   1      45.749  26.594  24.463  1.00  0.00    -0.200 F 
ENDBRANCH  71  94
ENDBRANCH  45  46
ENDBRANCH  38  40
ENDBRANCH  37  38
ENDBRANCH  36  37
ENDBRANCH  35  36
ENDBRANCH  34  35
ENDBRANCH  33  34
ENDBRANCH   1  33
TORSDOF 20
ENDMDL
MODEL 3
REMARK VINA RESULT:     -10.8      7.610     13.454
REMARK SMILES C[C@@H](C(=O)OCCOCCOCCOC(=O)c1ccc(-c2c3nc(c(-c4c(F)c(F)c(F)c(F)c4F)c4ccc([nH]4)c(-c4c(F)c(F)c(F)c(F)c4F)c4nc(c(-c5c(F)c(F)c(F)c(F)c5F)c5ccc2[nH]5)C=C4)C=C3)cc1)c1ccc2c3cc(Cl)ccc3n(C(=O)c3ccc(Cl)cc3)c2c1
REMARK SMILES IDX 9 1 8 2 7 3 6 4 5 5 3 6 4 7 2 8 1 9 80 10 81 11 102 12 82 13
REMARK SMILES IDX 101 14 83 15 91 16 84 17 90 18 85 19 89 20 86 21 88 22 87 23
REMARK SMILES IDX 92 24 93 25 94 26 95 27 100 28 96 29 99 30 97 31 98 32 10 33
REMARK SMILES IDX 11 34 12 35 13 36 14 37 15 38 16 39 17 40 18 41 79 42 19 43
REMARK SMILES IDX 78 44 20 45 21 46 22 47 72 48 23 49 77 50 71 51 73 52 24 53
REMARK SMILES IDX 76 54 70 55 69 56 25 58 57 59 37 60 56 61 38 62 41 63 55 64
REMARK SMILES IDX 74 65 39 66 40 67 54 69 75 70 42 71 26 72 27 73 35 74 28 75
REMARK SMILES IDX 29 76 33 77 36 78 30 79 31 80 34 81 32 82 58 83 59 84 67 85
REMARK SMILES IDX 60 86 61 87 65 88 68 89 62 90 63 91 66 92 64 93 43 94 44 95
REMARK SMILES IDX 52 96 45 97 46 98 50 99 53 100 47 101 48 102 51 103 49 104
REMARK H PARENT 73 57 41 68
REMARK Flexibility Score: inf
ROOT
ATOM      1  C   UNL A   1      52.338  25.397  34.282  1.00  0.00     0.188 C 
ENDROOT
BRANCH   1   2
ATOM      2  O   UNL A   1      52.484  23.998  34.102  1.00  0.00    -0.376 OA
BRANCH   2   3
ATOM      3  C   UNL A   1      51.492  23.304  33.351  1.00  0.00     0.202 C 
BRANCH   3   4
ATOM      4  C   UNL A   1      51.644  21.788  33.259  1.00  0.00     0.261 C 
BRANCH   4   5
ATOM      5  O   UNL A   1      50.357  21.137  33.216  1.00  0.00    -0.463 OA
BRANCH   5   6
ATOM      6  C   UNL A   1      50.100  20.313  34.266  1.00  0.00     0.313 C 
ATOM      7  O   UNL A   1      50.966  19.915  35.041  1.00  0.00    -0.252 OA
BRANCH   6   8
ATOM      8  C   UNL A   1      48.609  19.984  34.448  1.00  0.00     0.126 C 
ATOM      9  C   UNL A   1      47.925  19.452  33.185  1.00  0.00     0.025 C 
BRANCH   8  10
ATOM     10  C   UNL A   1      47.873  21.085  35.220  1.00  0.00    -0.032 A 
ATOM     11  C   UNL A   1      48.233  21.277  36.563  1.00  0.00     0.005 A 
ATOM     12  C   UNL A   1      46.837  21.875  34.681  1.00  0.00     0.032 A 
ATOM     13  C   UNL A   1      47.631  22.252  37.355  1.00  0.00     0.011 A 
ATOM     14  C   UNL A   1      46.198  22.838  35.502  1.00  0.00     0.057 A 
ATOM     15  C   UNL A   1      46.608  23.048  36.814  1.00  0.00     0.008 A 
ATOM     16  N   UNL A   1      45.117  23.696  35.241  1.00  0.00    -0.276 N 
ATOM     17  C   UNL A   1      45.796  24.069  37.369  1.00  0.00     0.009 A 
ATOM     18  C   UNL A   1      44.876  24.472  36.390  1.00  0.00     0.057 A 
ATOM     19  C   UNL A   1      45.753  24.623  38.667  1.00  0.00     0.031 A 
ATOM     20  C   UNL A   1      43.882  25.420  36.713  1.00  0.00     0.029 A 
ATOM     21  C   UNL A   1      44.767  25.548  38.982  1.00  0.00     0.041 A 
ATOM     22  C   UNL A   1      43.848  25.948  38.020  1.00  0.00     0.023 A 
ATOM     23  Cl  UNL A   1      44.655  26.139  40.593  1.00  0.00    -0.084 Cl
BRANCH  16  24
ATOM     24  C   UNL A   1      44.348  23.620  34.044  1.00  0.00     0.262 C 
ATOM     25  O   UNL A   1      43.341  22.916  34.105  1.00  0.00    -0.268 OA
BRANCH  24  26
ATOM     26  C   UNL A   1      44.712  24.173  32.703  1.00  0.00     0.040 A 
ATOM     27  C   UNL A   1      44.171  23.628  31.528  1.00  0.00     0.015 A 
ATOM     28  C   UNL A   1      45.687  25.141  32.559  1.00  0.00     0.015 A 
ATOM     29  C   UNL A   1      44.582  24.074  30.258  1.00  0.00     0.021 A 
ATOM     30  C   UNL A   1      46.096  25.599  31.296  1.00  0.00     0.021 A 
ATOM     31  C   UNL A   1      45.539  25.072  30.145  1.00  0.00     0.041 A 
ATOM     32  Cl  UNL A   1      46.034  25.666  28.611  1.00  0.00    -0.084 Cl
ENDBRANCH  24  26
ENDBRANCH  16  24
ENDBRANCH   8  10
ENDBRANCH   6   8
ENDBRANCH   5   6
ENDBRANCH   4   5
ENDBRANCH   3   4
ENDBRANCH   2   3
ENDBRANCH   1   2
BRANCH   1  33
ATOM     33  C   UNL A   1      51.138  25.938  35.083  1.00  0.00     0.188 C 
BRANCH  33  34
ATOM     34  O   UNL A   1      50.409  25.060  35.924  1.00  0.00    -0.376 OA
BRANCH  34  35
ATOM     35  C   UNL A   1      49.409  25.654  36.752  1.00  0.00     0.202 C 
BRANCH  35  36
ATOM     36  C   UNL A   1      49.584  27.146  37.027  1.00  0.00     0.261 C 
BRANCH  36  37
ATOM     37  O   UNL A   1      48.377  27.880  36.720  1.00  0.00    -0.460 OA
BRANCH  37  38
ATOM     38  C   UNL A   1      48.478  28.705  35.665  1.00  0.00     0.338 C 
ATOM     39  O   UNL A   1      49.454  29.423  35.390  1.00  0.00    -0.246 OA
BRANCH  38  40
ATOM     40  C   UNL A   1      47.297  28.653  34.784  1.00  0.00     0.060 A 
ATOM     41  C   UNL A   1      47.174  29.527  33.704  1.00  0.00     0.016 A 
ATOM     42  C   UNL A   1      46.184  27.911  35.187  1.00  0.00     0.016 A 
ATOM     43  C   UNL A   1      45.931  29.707  33.084  1.00  0.00     0.010 A 
ATOM     44  C   UNL A   1      44.934  28.104  34.569  1.00  0.00     0.010 A 
ATOM     45  C   UNL A   1      44.776  29.048  33.544  1.00  0.00    -0.014 A 
BRANCH  45  46
ATOM     46  C   UNL A   1      43.418  29.441  33.052  1.00  0.00     0.031 A 
ATOM     47  C   UNL A   1      42.837  28.834  31.806  1.00  0.00     0.074 A 
ATOM     48  C   UNL A   1      42.557  30.160  33.783  1.00  0.00     0.049 A 
ATOM     49  N   UNL A   1      42.248  29.353  30.765  1.00  0.00    -0.248 NA
ATOM     50  C   UNL A   1      42.889  27.386  31.747  1.00  0.00     0.031 C 
ATOM     51  C   UNL A   1      42.783  30.669  35.131  1.00  0.00     0.029 A 
ATOM     52  N   UNL A   1      41.280  30.548  33.477  1.00  0.00    -0.354 N 
ATOM     53  C   UNL A   1      42.123  28.300  29.851  1.00  0.00     0.074 A 
ATOM     54  C   UNL A   1      42.652  27.114  30.475  1.00  0.00     0.031 C 
ATOM     55  C   UNL A   1      41.664  31.271  35.556  1.00  0.00     0.029 A 
ATOM     56  C   UNL A   1      40.709  31.317  34.454  1.00  0.00     0.049 A 
ATOM     57  H   UNL A   1      40.821  30.300  32.642  1.00  0.00     0.167 HD
ATOM     58  C   UNL A   1      41.431  28.261  28.691  1.00  0.00     0.037 A 
ATOM     59  C   UNL A   1      39.579  32.046  34.408  1.00  0.00     0.037 A 
ATOM     60  C   UNL A   1      40.319  29.140  28.468  1.00  0.00     0.049 A 
ATOM     61  C   UNL A   1      38.769  32.007  33.139  1.00  0.00     0.074 A 
ATOM     62  C   UNL A   1      39.464  29.217  27.388  1.00  0.00     0.029 A 
ATOM     63  N   UNL A   1      39.798  29.958  29.463  1.00  0.00    -0.354 N 
ATOM     64  N   UNL A   1      39.001  31.352  32.023  1.00  0.00    -0.248 NA
ATOM     65  C   UNL A   1      37.552  32.824  33.114  1.00  0.00     0.031 C 
ATOM     66  C   UNL A   1      38.383  30.028  27.762  1.00  0.00     0.029 A 
ATOM     67  C   UNL A   1      38.583  30.468  29.063  1.00  0.00     0.049 A 
ATOM     68  H   UNL A   1      40.234  30.146  30.326  1.00  0.00     0.167 HD
ATOM     69  C   UNL A   1      37.955  31.670  31.165  1.00  0.00     0.074 A 
ATOM     70  C   UNL A   1      37.074  32.552  31.908  1.00  0.00     0.031 C 
ATOM     71  C   UNL A   1      37.737  31.301  29.877  1.00  0.00     0.037 A 
BRANCH  58  72
ATOM     72  C   UNL A   1      41.782  27.232  27.649  1.00  0.00     0.064 A 
ATOM     73  C   UNL A   1      41.162  25.982  27.521  1.00  0.00     0.173 A 
ATOM     74  C   UNL A   1      42.774  27.555  26.704  1.00  0.00     0.173 A 
ATOM     75  F   UNL A   1      40.177  25.623  28.358  1.00  0.00    -0.203 F 
ATOM     76  C   UNL A   1      41.559  25.076  26.536  1.00  0.00     0.198 A 
ATOM     77  C   UNL A   1      43.139  26.666  25.695  1.00  0.00     0.198 A 
ATOM     78  F   UNL A   1      43.380  28.753  26.748  1.00  0.00    -0.203 F 
ATOM     79  F   UNL A   1      40.990  23.863  26.475  1.00  0.00    -0.200 F 
ATOM     80  C   UNL A   1      42.543  25.419  25.621  1.00  0.00     0.200 A 
ATOM     81  F   UNL A   1      44.065  27.020  24.792  1.00  0.00    -0.200 F 
ATOM     82  F   UNL A   1      42.910  24.553  24.666  1.00  0.00    -0.200 F 
ENDBRANCH  58  72
BRANCH  59  83
ATOM     83  C   UNL A   1      39.236  32.910  35.568  1.00  0.00     0.064 A 
ATOM     84  C   UNL A   1      38.538  32.417  36.677  1.00  0.00     0.173 A 
ATOM     85  C   UNL A   1      39.674  34.245  35.623  1.00  0.00     0.173 A 
ATOM     86  F   UNL A   1      38.047  31.169  36.663  1.00  0.00    -0.203 F 
ATOM     87  C   UNL A   1      38.315  33.212  37.800  1.00  0.00     0.198 A 
ATOM     88  C   UNL A   1      39.488  35.024  36.760  1.00  0.00     0.198 A 
ATOM     89  F   UNL A   1      40.336  34.779  34.585  1.00  0.00    -0.203 F 
ATOM     90  F   UNL A   1      37.626  32.720  38.839  1.00  0.00    -0.200 F 
ATOM     91  C   UNL A   1      38.808  34.507  37.849  1.00  0.00     0.200 A 
ATOM     92  F   UNL A   1      39.989  36.267  36.806  1.00  0.00    -0.200 F 
ATOM     93  F   UNL A   1      38.625  35.257  38.944  1.00  0.00    -0.200 F 
ENDBRANCH  59  83
BRANCH  71  94
ATOM     94  C   UNL A   1      36.494  31.824  29.232  1.00  0.00     0.064 A 
ATOM     95  C   UNL A   1      36.386  33.175  28.880  1.00  0.00     0.173 A 
ATOM     96  C   UNL A   1      35.430  30.964  28.924  1.00  0.00     0.173 A 
ATOM     97  F   UNL A   1      37.380  34.028  29.171  1.00  0.00    -0.203 F 
ATOM     98  C   UNL A   1      35.240  33.656  28.259  1.00  0.00     0.198 A 
ATOM     99  C   UNL A   1      34.294  31.446  28.282  1.00  0.00     0.198 A 
ATOM    100  F   UNL A   1      35.501  29.660  29.233  1.00  0.00    -0.203 F 
ATOM    101  F   UNL A   1      35.139  34.960  27.965  1.00  0.00    -0.200 F 
ATOM    102  C   UNL A   1      34.199  32.792  27.956  1.00  0.00     0.200 A 
ATOM    103  F   UNL A   1      33.293  30.609  27.977  1.00  0.00    -0.200 F 
ATOM    104  F   UNL A   1      33.097  33.257  27.354  1.00  0.00    -0.200 F 
ENDBRANCH  71  94
ENDBRANCH  45  46
ENDBRANCH  38  40
ENDBRANCH  37  38
ENDBRANCH  36  37
ENDBRANCH  35  36
ENDBRANCH  34  35
ENDBRANCH  33  34
ENDBRANCH   1  33
TORSDOF 20
ENDMDL
