MODEL 1
REMARK VINA RESULT:     -12.2      0.000      0.000
REMARK SMILES Cc1cc(C(=O)N[C@H]2C=C[C@H](C(=O)OCCOCCOCCOC(=O)c3ccc(-c4c5nc(c(-c6c(F)c(F)c(F)c(F)c6F)c6ccc([nH]6)c(-c6c(F)c(F)c(F)c(F)c6F)c6nc(c(-c7c(F)c(F)c(F)c(F)c7F)c7ccc4[nH]7)C=C6)C=C5)cc3)C2)ccc1F
REMARK SMILES IDX 18 1 17 2 16 3 15 4 14 5 12 6 13 7 11 8 8 9 9 10 89 11 10 12
REMARK SMILES IDX 7 13 5 14 6 15 4 17 1 18 2 19 3 20 92 21 91 22 93 23 90 24
REMARK SMILES IDX 19 25 20 26 21 27 22 28 23 29 24 30 25 31 26 32 27 33 88 34
REMARK SMILES IDX 28 35 87 36 29 37 30 38 31 39 81 40 32 41 86 42 80 43 82 44
REMARK SMILES IDX 33 45 85 46 79 47 78 48 34 50 66 51 46 52 65 53 47 54 50 55
REMARK SMILES IDX 64 56 83 57 48 58 49 59 63 61 84 62 51 63 35 64 36 65 44 66
REMARK SMILES IDX 37 67 38 68 42 69 45 70 39 71 40 72 43 73 41 74 67 75 68 76
REMARK SMILES IDX 76 77 69 78 70 79 74 80 77 81 71 82 72 83 75 84 73 85 52 86
REMARK SMILES IDX 53 87 61 88 54 89 55 90 59 91 62 92 56 93 57 94 60 95 58 96
REMARK H PARENT 7 16 82 49 50 60
REMARK Flexibility Score: inf
ROOT
ATOM      1  C   UNL A   1      39.562  21.651  26.376  1.00  0.00     0.188 C 
ENDROOT
BRANCH   1   2
ATOM      2  O   UNL A   1      38.247  21.580  25.833  1.00  0.00    -0.376 OA
BRANCH   2   3
ATOM      3  C   UNL A   1      37.565  22.811  25.575  1.00  0.00     0.202 C 
BRANCH   3   4
ATOM      4  C   UNL A   1      36.218  23.057  26.285  1.00  0.00     0.261 C 
BRANCH   4   5
ATOM      5  O   UNL A   1      35.398  21.874  26.323  1.00  0.00    -0.463 OA
BRANCH   5   6
ATOM      6  C   UNL A   1      34.135  21.987  25.839  1.00  0.00     0.312 C 
ATOM      7  O   UNL A   1      33.237  22.604  26.397  1.00  0.00    -0.252 OA
BRANCH   6   8
ATOM      8  C   UNL A   1      34.052  21.421  24.410  1.00  0.00     0.124 C 
ATOM      9  C   UNL A   1      33.341  23.353  23.178  1.00  0.00     0.106 C 
ATOM     10  C   UNL A   1      32.285  22.292  23.135  1.00  0.00    -0.006 C 
ATOM     11  C   UNL A   1      34.577  22.484  23.432  1.00  0.00     0.048 C 
ATOM     12  C   UNL A   1      32.660  21.240  23.879  1.00  0.00    -0.014 C 
BRANCH   9  13
ATOM     13  N   UNL A   1      33.396  24.140  21.985  1.00  0.00    -0.346 N 
ATOM     14  C   UNL A   1      32.975  25.427  21.740  1.00  0.00     0.251 C 
ATOM     15  O   UNL A   1      32.997  25.796  20.563  1.00  0.00    -0.269 OA
ATOM     16  H   UNL A   1      33.802  23.686  21.211  1.00  0.00     0.164 HD
BRANCH  14  17
ATOM     17  C   UNL A   1      32.561  26.419  22.795  1.00  0.00     0.040 A 
ATOM     18  C   UNL A   1      33.872  28.743  25.532  1.00  0.00     0.047 C 
ATOM     19  C   UNL A   1      32.924  28.022  24.620  1.00  0.00    -0.015 A 
ATOM     20  C   UNL A   1      33.388  27.004  23.763  1.00  0.00     0.020 A 
ATOM     21  C   UNL A   1      31.587  28.403  24.546  1.00  0.00     0.126 A 
ATOM     22  C   UNL A   1      30.722  27.788  23.653  1.00  0.00     0.040 A 
ATOM     23  F   UNL A   1      31.122  29.375  25.342  1.00  0.00    -0.207 F 
ATOM     24  C   UNL A   1      31.209  26.811  22.778  1.00  0.00     0.017 A 
ENDBRANCH  14  17
ENDBRANCH   9  13
ENDBRANCH   6   8
ENDBRANCH   5   6
ENDBRANCH   4   5
ENDBRANCH   3   4
ENDBRANCH   2   3
ENDBRANCH   1   2
BRANCH   1  25
ATOM     25  C   UNL A   1      40.510  20.433  26.228  1.00  0.00     0.188 C 
BRANCH  25  26
ATOM     26  O   UNL A   1      41.850  20.728  26.570  1.00  0.00    -0.376 OA
BRANCH  26  27
ATOM     27  C   UNL A   1      42.544  21.737  25.847  1.00  0.00     0.202 C 
BRANCH  27  28
ATOM     28  C   UNL A   1      42.968  23.064  26.508  1.00  0.00     0.261 C 
BRANCH  28  29
ATOM     29  O   UNL A   1      42.007  24.111  26.441  1.00  0.00    -0.460 OA
BRANCH  29  30
ATOM     30  C   UNL A   1      41.488  24.421  27.641  1.00  0.00     0.338 C 
ATOM     31  O   UNL A   1      41.950  24.192  28.745  1.00  0.00    -0.246 OA
BRANCH  30  32
ATOM     32  C   UNL A   1      40.267  25.222  27.475  1.00  0.00     0.060 A 
ATOM     33  C   UNL A   1      40.381  26.232  26.497  1.00  0.00     0.016 A 
ATOM     34  C   UNL A   1      39.580  25.404  28.667  1.00  0.00     0.016 A 
ATOM     35  C   UNL A   1      40.160  27.534  26.868  1.00  0.00     0.010 A 
ATOM     36  C   UNL A   1      39.390  26.705  29.050  1.00  0.00     0.010 A 
ATOM     37  C   UNL A   1      39.825  27.736  28.194  1.00  0.00    -0.014 A 
BRANCH  37  38
ATOM     38  C   UNL A   1      40.157  28.969  28.866  1.00  0.00     0.031 A 
ATOM     39  C   UNL A   1      39.157  30.028  28.913  1.00  0.00     0.074 A 
ATOM     40  C   UNL A   1      41.300  28.978  29.583  1.00  0.00     0.049 A 
ATOM     41  N   UNL A   1      39.349  31.180  29.448  1.00  0.00    -0.248 NA
ATOM     42  C   UNL A   1      37.859  29.892  28.256  1.00  0.00     0.031 C 
ATOM     43  C   UNL A   1      41.628  29.808  30.733  1.00  0.00     0.029 A 
ATOM     44  N   UNL A   1      42.505  28.325  29.262  1.00  0.00    -0.354 N 
ATOM     45  C   UNL A   1      38.126  31.799  29.497  1.00  0.00     0.074 A 
ATOM     46  C   UNL A   1      37.291  31.051  28.596  1.00  0.00     0.031 C 
ATOM     47  C   UNL A   1      42.961  29.813  30.898  1.00  0.00     0.029 A 
ATOM     48  C   UNL A   1      43.538  29.172  29.726  1.00  0.00     0.049 A 
ATOM     49  H   UNL A   1      42.607  27.457  28.807  1.00  0.00     0.167 HD
ATOM     50  C   UNL A   1      37.948  32.762  30.440  1.00  0.00     0.037 A 
ATOM     51  C   UNL A   1      44.345  29.818  28.828  1.00  0.00     0.037 A 
ATOM     52  C   UNL A   1      39.247  33.213  30.951  1.00  0.00     0.049 A 
ATOM     53  C   UNL A   1      44.212  31.331  28.838  1.00  0.00     0.074 A 
ATOM     54  C   UNL A   1      39.989  32.962  32.092  1.00  0.00     0.029 A 
ATOM     55  N   UNL A   1      40.123  33.801  30.049  1.00  0.00    -0.354 N 
ATOM     56  N   UNL A   1      43.272  31.984  29.465  1.00  0.00    -0.248 NA
ATOM     57  C   UNL A   1      45.077  32.217  28.058  1.00  0.00     0.031 C 
ATOM     58  C   UNL A   1      41.349  33.312  31.816  1.00  0.00     0.029 A 
ATOM     59  C   UNL A   1      41.420  33.804  30.523  1.00  0.00     0.049 A 
ATOM     60  H   UNL A   1      39.852  34.171  29.178  1.00  0.00     0.167 HD
ATOM     61  C   UNL A   1      43.367  33.313  29.171  1.00  0.00     0.074 A 
ATOM     62  C   UNL A   1      44.511  33.416  28.282  1.00  0.00     0.031 C 
ATOM     63  C   UNL A   1      42.490  34.241  29.641  1.00  0.00     0.037 A 
BRANCH  50  64
ATOM     64  C   UNL A   1      36.615  33.152  31.042  1.00  0.00     0.064 A 
ATOM     65  C   UNL A   1      35.718  33.938  30.287  1.00  0.00     0.173 A 
ATOM     66  C   UNL A   1      36.199  32.913  32.372  1.00  0.00     0.173 A 
ATOM     67  F   UNL A   1      35.974  34.249  29.009  1.00  0.00    -0.203 F 
ATOM     68  C   UNL A   1      34.534  34.457  30.825  1.00  0.00     0.198 A 
ATOM     69  C   UNL A   1      35.000  33.402  32.896  1.00  0.00     0.198 A 
ATOM     70  F   UNL A   1      36.940  32.243  33.256  1.00  0.00    -0.203 F 
ATOM     71  F   UNL A   1      33.752  35.243  30.071  1.00  0.00    -0.200 F 
ATOM     72  C   UNL A   1      34.174  34.186  32.129  1.00  0.00     0.200 A 
ATOM     73  F   UNL A   1      34.674  33.123  34.167  1.00  0.00    -0.200 F 
ATOM     74  F   UNL A   1      33.046  34.688  32.647  1.00  0.00    -0.200 F 
ENDBRANCH  50  64
BRANCH  51  75
ATOM     75  C   UNL A   1      44.599  29.017  27.599  1.00  0.00     0.064 A 
ATOM     76  C   UNL A   1      45.598  28.023  27.625  1.00  0.00     0.173 A 
ATOM     77  C   UNL A   1      43.655  28.962  26.566  1.00  0.00     0.173 A 
ATOM     78  F   UNL A   1      46.536  28.041  28.585  1.00  0.00    -0.203 F 
ATOM     79  C   UNL A   1      45.580  26.957  26.727  1.00  0.00     0.198 A 
ATOM     80  C   UNL A   1      43.645  27.895  25.667  1.00  0.00     0.198 A 
ATOM     81  F   UNL A   1      42.684  29.881  26.481  1.00  0.00    -0.203 F 
ATOM     82  F   UNL A   1      46.493  25.980  26.825  1.00  0.00    -0.200 F 
ATOM     83  C   UNL A   1      44.583  26.878  25.769  1.00  0.00     0.200 A 
ATOM     84  F   UNL A   1      42.675  27.811  24.746  1.00  0.00    -0.200 F 
ATOM     85  F   UNL A   1      44.504  25.809  24.963  1.00  0.00    -0.200 F 
ENDBRANCH  51  75
BRANCH  63  86
ATOM     86  C   UNL A   1      42.603  35.682  29.276  1.00  0.00     0.064 A 
ATOM     87  C   UNL A   1      41.991  36.197  28.127  1.00  0.00     0.173 A 
ATOM     88  C   UNL A   1      43.429  36.554  30.009  1.00  0.00     0.173 A 
ATOM     89  F   UNL A   1      41.197  35.422  27.373  1.00  0.00    -0.203 F 
ATOM     90  C   UNL A   1      42.191  37.520  27.733  1.00  0.00     0.198 A 
ATOM     91  C   UNL A   1      43.664  37.858  29.589  1.00  0.00     0.198 A 
ATOM     92  F   UNL A   1      44.008  36.157  31.153  1.00  0.00    -0.203 F 
ATOM     93  F   UNL A   1      41.562  37.994  26.649  1.00  0.00    -0.200 F 
ATOM     94  C   UNL A   1      43.041  38.343  28.454  1.00  0.00     0.200 A 
ATOM     95  F   UNL A   1      44.496  38.643  30.290  1.00  0.00    -0.200 F 
ATOM     96  F   UNL A   1      43.254  39.605  28.058  1.00  0.00    -0.200 F 
ENDBRANCH  63  86
ENDBRANCH  37  38
ENDBRANCH  30  32
ENDBRANCH  29  30
ENDBRANCH  28  29
ENDBRANCH  27  28
ENDBRANCH  26  27
ENDBRANCH  25  26
ENDBRANCH   1  25
TORSDOF 19
ENDMDL
MODEL 2
REMARK VINA RESULT:     -12.2      4.259     10.337
REMARK SMILES Cc1cc(C(=O)N[C@H]2C=C[C@H](C(=O)OCCOCCOCCOC(=O)c3ccc(-c4c5nc(c(-c6c(F)c(F)c(F)c(F)c6F)c6ccc([nH]6)c(-c6c(F)c(F)c(F)c(F)c6F)c6nc(c(-c7c(F)c(F)c(F)c(F)c7F)c7ccc4[nH]7)C=C6)C=C5)cc3)C2)ccc1F
REMARK SMILES IDX 18 1 17 2 16 3 15 4 14 5 12 6 13 7 11 8 8 9 9 10 89 11 10 12
REMARK SMILES IDX 7 13 5 14 6 15 4 17 1 18 2 19 3 20 92 21 91 22 93 23 90 24
REMARK SMILES IDX 19 25 20 26 21 27 22 28 23 29 24 30 25 31 26 32 27 33 88 34
REMARK SMILES IDX 28 35 87 36 29 37 30 38 31 39 81 40 32 41 86 42 80 43 82 44
REMARK SMILES IDX 33 45 85 46 79 47 78 48 34 50 66 51 46 52 65 53 47 54 50 55
REMARK SMILES IDX 64 56 83 57 48 58 49 59 63 61 84 62 51 63 35 64 36 65 44 66
REMARK SMILES IDX 37 67 38 68 42 69 45 70 39 71 40 72 43 73 41 74 67 75 68 76
REMARK SMILES IDX 76 77 69 78 70 79 74 80 77 81 71 82 72 83 75 84 73 85 52 86
REMARK SMILES IDX 53 87 61 88 54 89 55 90 59 91 62 92 56 93 57 94 60 95 58 96
REMARK H PARENT 7 16 82 49 50 60
REMARK Flexibility Score: inf
ROOT
ATOM      1  C   UNL A   1      32.552  30.470  27.038  1.00  0.00     0.188 C 
ENDROOT
BRANCH   1   2
ATOM      2  O   UNL A   1      33.258  30.073  25.866  1.00  0.00    -0.376 OA
BRANCH   2   3
ATOM      3  C   UNL A   1      33.293  28.677  25.551  1.00  0.00     0.202 C 
BRANCH   3   4
ATOM      4  C   UNL A   1      32.453  27.717  26.418  1.00  0.00     0.261 C 
BRANCH   4   5
ATOM      5  O   UNL A   1      31.097  27.602  25.948  1.00  0.00    -0.463 OA
BRANCH   5   6
ATOM      6  C   UNL A   1      30.635  26.349  25.705  1.00  0.00     0.312 C 
ATOM      7  O   UNL A   1      30.673  25.433  26.516  1.00  0.00    -0.252 OA
BRANCH   6   8
ATOM      8  C   UNL A   1      29.875  26.305  24.368  1.00  0.00     0.124 C 
ATOM      9  C   UNL A   1      31.647  25.786  22.836  1.00  0.00     0.106 C 
ATOM     10  C   UNL A   1      31.092  27.147  22.546  1.00  0.00    -0.006 C 
ATOM     11  C   UNL A   1      30.436  25.149  23.524  1.00  0.00     0.048 C 
ATOM     12  C   UNL A   1      30.146  27.458  23.446  1.00  0.00    -0.014 C 
BRANCH   9  13
ATOM     13  N   UNL A   1      32.099  25.102  21.663  1.00  0.00    -0.346 N 
ATOM     14  C   UNL A   1      32.918  24.005  21.525  1.00  0.00     0.251 C 
ATOM     15  O   UNL A   1      33.275  23.728  20.378  1.00  0.00    -0.269 OA
ATOM     16  H   UNL A   1      31.770  25.479  20.814  1.00  0.00     0.164 HD
BRANCH  14  17
ATOM     17  C   UNL A   1      33.343  23.094  22.647  1.00  0.00     0.040 A 
ATOM     18  C   UNL A   1      32.532  19.819  24.444  1.00  0.00     0.047 C 
ATOM     19  C   UNL A   1      33.212  21.107  24.083  1.00  0.00    -0.015 A 
ATOM     20  C   UNL A   1      32.657  21.965  23.114  1.00  0.00     0.020 A 
ATOM     21  C   UNL A   1      34.445  21.434  24.642  1.00  0.00     0.126 A 
ATOM     22  C   UNL A   1      35.114  22.588  24.261  1.00  0.00     0.040 A 
ATOM     23  F   UNL A   1      35.000  20.631  25.560  1.00  0.00    -0.207 F 
ATOM     24  C   UNL A   1      34.570  23.405  23.263  1.00  0.00     0.017 A 
ENDBRANCH  14  17
ENDBRANCH   9  13
ENDBRANCH   6   8
ENDBRANCH   5   6
ENDBRANCH   4   5
ENDBRANCH   3   4
ENDBRANCH   2   3
ENDBRANCH   1   2
BRANCH   1  25
ATOM     25  C   UNL A   1      32.217  31.970  27.249  1.00  0.00     0.188 C 
BRANCH  25  26
ATOM     26  O   UNL A   1      33.348  32.748  27.588  1.00  0.00    -0.376 OA
BRANCH  26  27
ATOM     27  C   UNL A   1      34.217  32.296  28.618  1.00  0.00     0.202 C 
BRANCH  27  28
ATOM     28  C   UNL A   1      35.550  33.007  28.927  1.00  0.00     0.261 C 
BRANCH  28  29
ATOM     29  O   UNL A   1      36.700  32.441  28.309  1.00  0.00    -0.460 OA
BRANCH  29  30
ATOM     30  C   UNL A   1      37.392  31.635  29.132  1.00  0.00     0.338 C 
ATOM     31  O   UNL A   1      37.916  31.914  30.196  1.00  0.00    -0.246 OA
BRANCH  30  32
ATOM     32  C   UNL A   1      37.360  30.253  28.635  1.00  0.00     0.060 A 
ATOM     33  C   UNL A   1      37.193  29.289  29.652  1.00  0.00     0.016 A 
ATOM     34  C   UNL A   1      38.195  30.056  27.544  1.00  0.00     0.016 A 
ATOM     35  C   UNL A   1      38.144  28.311  29.794  1.00  0.00     0.010 A 
ATOM     36  C   UNL A   1      39.164  29.101  27.702  1.00  0.00     0.010 A 
ATOM     37  C   UNL A   1      39.195  28.356  28.897  1.00  0.00    -0.014 A 
BRANCH  37  38
ATOM     38  C   UNL A   1      40.501  27.857  29.255  1.00  0.00     0.031 A 
ATOM     39  C   UNL A   1      40.866  26.505  28.849  1.00  0.00     0.074 A 
ATOM     40  C   UNL A   1      41.371  28.753  29.766  1.00  0.00     0.049 A 
ATOM     41  N   UNL A   1      41.981  25.940  29.142  1.00  0.00    -0.248 NA
ATOM     42  C   UNL A   1      39.930  25.634  28.142  1.00  0.00     0.031 C 
ATOM     43  C   UNL A   1      42.826  28.710  29.724  1.00  0.00     0.029 A 
ATOM     44  N   UNL A   1      41.072  29.829  30.622  1.00  0.00    -0.354 N 
ATOM     45  C   UNL A   1      42.043  24.787  28.401  1.00  0.00     0.074 A 
ATOM     46  C   UNL A   1      40.695  24.558  27.952  1.00  0.00     0.031 C 
ATOM     47  C   UNL A   1      43.311  29.535  30.668  1.00  0.00     0.029 A 
ATOM     48  C   UNL A   1      42.184  29.954  31.487  1.00  0.00     0.049 A 
ATOM     49  H   UNL A   1      40.256  30.381  30.620  1.00  0.00     0.167 HD
ATOM     50  C   UNL A   1      43.275  24.284  28.125  1.00  0.00     0.037 A 
ATOM     51  C   UNL A   1      42.054  29.641  32.814  1.00  0.00     0.037 A 
ATOM     52  C   UNL A   1      44.272  24.872  29.026  1.00  0.00     0.049 A 
ATOM     53  C   UNL A   1      42.873  28.443  33.262  1.00  0.00     0.074 A 
ATOM     54  C   UNL A   1      45.225  25.870  28.911  1.00  0.00     0.029 A 
ATOM     55  N   UNL A   1      44.125  24.642  30.386  1.00  0.00    -0.354 N 
ATOM     56  N   UNL A   1      43.483  27.623  32.451  1.00  0.00    -0.248 NA
ATOM     57  C   UNL A   1      42.985  28.026  34.661  1.00  0.00     0.031 C 
ATOM     58  C   UNL A   1      45.563  26.307  30.231  1.00  0.00     0.029 A 
ATOM     59  C   UNL A   1      44.842  25.550  31.140  1.00  0.00     0.049 A 
ATOM     60  H   UNL A   1      43.577  23.919  30.767  1.00  0.00     0.167 HD
ATOM     61  C   UNL A   1      44.021  26.592  33.164  1.00  0.00     0.074 A 
ATOM     62  C   UNL A   1      43.682  26.882  34.547  1.00  0.00     0.031 C 
ATOM     63  C   UNL A   1      44.677  25.551  32.585  1.00  0.00     0.037 A 
BRANCH  50  64
ATOM     64  C   UNL A   1      43.614  23.422  26.927  1.00  0.00     0.064 A 
ATOM     65  C   UNL A   1      43.173  22.081  26.892  1.00  0.00     0.173 A 
ATOM     66  C   UNL A   1      44.459  23.783  25.852  1.00  0.00     0.173 A 
ATOM     67  F   UNL A   1      42.365  21.591  27.843  1.00  0.00    -0.203 F 
ATOM     68  C   UNL A   1      43.566  21.185  25.891  1.00  0.00     0.198 A 
ATOM     69  C   UNL A   1      44.820  22.897  24.836  1.00  0.00     0.198 A 
ATOM     70  F   UNL A   1      45.023  24.987  25.745  1.00  0.00    -0.203 F 
ATOM     71  F   UNL A   1      43.157  19.910  25.946  1.00  0.00    -0.200 F 
ATOM     72  C   UNL A   1      44.387  21.593  24.861  1.00  0.00     0.200 A 
ATOM     73  F   UNL A   1      45.620  23.321  23.846  1.00  0.00    -0.200 F 
ATOM     74  F   UNL A   1      44.770  20.735  23.908  1.00  0.00    -0.200 F 
ENDBRANCH  50  64
BRANCH  51  75
ATOM     75  C   UNL A   1      40.708  29.973  33.357  1.00  0.00     0.064 A 
ATOM     76  C   UNL A   1      40.423  31.307  33.711  1.00  0.00     0.173 A 
ATOM     77  C   UNL A   1      39.624  29.104  33.180  1.00  0.00     0.173 A 
ATOM     78  F   UNL A   1      41.427  32.176  33.909  1.00  0.00    -0.203 F 
ATOM     79  C   UNL A   1      39.112  31.775  33.770  1.00  0.00     0.198 A 
ATOM     80  C   UNL A   1      38.313  29.577  33.244  1.00  0.00     0.198 A 
ATOM     81  F   UNL A   1      39.827  27.821  32.849  1.00  0.00    -0.203 F 
ATOM     82  F   UNL A   1      38.870  33.069  34.028  1.00  0.00    -0.200 F 
ATOM     83  C   UNL A   1      38.059  30.915  33.504  1.00  0.00     0.200 A 
ATOM     84  F   UNL A   1      37.293  28.749  32.977  1.00  0.00    -0.200 F 
ATOM     85  F   UNL A   1      36.801  31.379  33.466  1.00  0.00    -0.200 F 
ENDBRANCH  51  75
BRANCH  63  86
ATOM     86  C   UNL A   1      45.226  24.424  33.391  1.00  0.00     0.064 A 
ATOM     87  C   UNL A   1      46.586  24.352  33.718  1.00  0.00     0.173 A 
ATOM     88  C   UNL A   1      44.420  23.329  33.752  1.00  0.00     0.173 A 
ATOM     89  F   UNL A   1      47.418  25.354  33.397  1.00  0.00    -0.203 F 
ATOM     90  C   UNL A   1      47.112  23.242  34.378  1.00  0.00     0.198 A 
ATOM     91  C   UNL A   1      44.955  22.204  34.369  1.00  0.00     0.198 A 
ATOM     92  F   UNL A   1      43.097  23.343  33.527  1.00  0.00    -0.203 F 
ATOM     93  F   UNL A   1      48.410  23.218  34.710  1.00  0.00    -0.200 F 
ATOM     94  C   UNL A   1      46.300  22.161  34.686  1.00  0.00     0.200 A 
ATOM     95  F   UNL A   1      44.161  21.161  34.654  1.00  0.00    -0.200 F 
ATOM     96  F   UNL A   1      46.813  21.084  35.295  1.00  0.00    -0.200 F 
ENDBRANCH  63  86
ENDBRANCH  37  38
ENDBRANCH  30  32
ENDBRANCH  29  30
ENDBRANCH  28  29
ENDBRANCH  27  28
ENDBRANCH  26  27
ENDBRANCH  25  26
ENDBRANCH   1  25
TORSDOF 19
ENDMDL
MODEL 3
REMARK VINA RESULT:     -12.1      4.109      9.914
REMARK SMILES Cc1cc(C(=O)N[C@H]2C=C[C@H](C(=O)OCCOCCOCCOC(=O)c3ccc(-c4c5nc(c(-c6c(F)c(F)c(F)c(F)c6F)c6ccc([nH]6)c(-c6c(F)c(F)c(F)c(F)c6F)c6nc(c(-c7c(F)c(F)c(F)c(F)c7F)c7ccc4[nH]7)C=C6)C=C5)cc3)C2)ccc1F
REMARK SMILES IDX 18 1 17 2 16 3 15 4 14 5 12 6 13 7 11 8 8 9 9 10 89 11 10 12
REMARK SMILES IDX 7 13 5 14 6 15 4 17 1 18 2 19 3 20 92 21 91 22 93 23 90 24
REMARK SMILES IDX 19 25 20 26 21 27 22 28 23 29 24 30 25 31 26 32 27 33 88 34
REMARK SMILES IDX 28 35 87 36 29 37 30 38 31 39 81 40 32 41 86 42 80 43 82 44
REMARK SMILES IDX 33 45 85 46 79 47 78 48 34 50 66 51 46 52 65 53 47 54 50 55
REMARK SMILES IDX 64 56 83 57 48 58 49 59 63 61 84 62 51 63 35 64 36 65 44 66
REMARK SMILES IDX 37 67 38 68 42 69 45 70 39 71 40 72 43 73 41 74 67 75 68 76
REMARK SMILES IDX 76 77 69 78 70 79 74 80 77 81 71 82 72 83 75 84 73 85 52 86
REMARK SMILES IDX 53 87 61 88 54 89 55 90 59 91 62 92 56 93 57 94 60 95 58 96
REMARK H PARENT 7 16 82 49 50 60
REMARK Flexibility Score: inf
ROOT
ATOM      1  C   UNL A   1      33.568  28.803  26.357  1.00  0.00     0.188 C 
ENDROOT
BRANCH   1   2
ATOM      2  O   UNL A   1      33.117  27.517  26.773  1.00  0.00    -0.376 OA
BRANCH   2   3
ATOM      3  C   UNL A   1      31.740  27.191  26.556  1.00  0.00     0.202 C 
BRANCH   3   4
ATOM      4  C   UNL A   1      31.391  25.735  26.187  1.00  0.00     0.261 C 
BRANCH   4   5
ATOM      5  O   UNL A   1      32.535  24.863  26.265  1.00  0.00    -0.463 OA
BRANCH   5   6
ATOM      6  C   UNL A   1      32.294  23.556  26.541  1.00  0.00     0.312 C 
ATOM      7  O   UNL A   1      31.429  23.165  27.314  1.00  0.00    -0.252 OA
BRANCH   6   8
ATOM      8  C   UNL A   1      33.102  22.648  25.597  1.00  0.00     0.124 C 
ATOM      9  C   UNL A   1      32.611  23.630  23.464  1.00  0.00     0.106 C 
ATOM     10  C   UNL A   1      32.059  22.240  23.534  1.00  0.00    -0.006 C 
ATOM     11  C   UNL A   1      33.733  23.521  24.500  1.00  0.00     0.048 C 
ATOM     12  C   UNL A   1      32.279  21.720  24.752  1.00  0.00    -0.014 C 
BRANCH   9  13
ATOM     13  N   UNL A   1      33.041  23.997  22.150  1.00  0.00    -0.346 N 
ATOM     14  C   UNL A   1      32.824  25.146  21.424  1.00  0.00     0.251 C 
ATOM     15  O   UNL A   1      33.178  25.123  20.243  1.00  0.00    -0.269 OA
ATOM     16  H   UNL A   1      33.582  23.316  21.688  1.00  0.00     0.164 HD
BRANCH  14  17
ATOM     17  C   UNL A   1      32.258  26.428  21.977  1.00  0.00     0.040 A 
ATOM     18  C   UNL A   1      29.053  28.115  23.199  1.00  0.00     0.047 C 
ATOM     19  C   UNL A   1      30.493  27.903  22.837  1.00  0.00    -0.015 A 
ATOM     20  C   UNL A   1      30.904  26.721  22.190  1.00  0.00     0.020 A 
ATOM     21  C   UNL A   1      31.459  28.835  23.208  1.00  0.00     0.126 A 
ATOM     22  C   UNL A   1      32.802  28.612  22.940  1.00  0.00     0.040 A 
ATOM     23  F   UNL A   1      31.097  29.963  23.834  1.00  0.00    -0.207 F 
ATOM     24  C   UNL A   1      33.197  27.413  22.338  1.00  0.00     0.017 A 
ENDBRANCH  14  17
ENDBRANCH   9  13
ENDBRANCH   6   8
ENDBRANCH   5   6
ENDBRANCH   4   5
ENDBRANCH   3   4
ENDBRANCH   2   3
ENDBRANCH   1   2
BRANCH   1  25
ATOM     25  C   UNL A   1      34.424  29.657  27.327  1.00  0.00     0.188 C 
BRANCH  25  26
ATOM     26  O   UNL A   1      33.693  30.705  27.935  1.00  0.00    -0.376 OA
BRANCH  26  27
ATOM     27  C   UNL A   1      34.192  32.034  27.857  1.00  0.00     0.202 C 
BRANCH  27  28
ATOM     28  C   UNL A   1      35.693  32.350  28.027  1.00  0.00     0.261 C 
BRANCH  28  29
ATOM     29  O   UNL A   1      36.251  31.987  29.285  1.00  0.00    -0.460 OA
BRANCH  29  30
ATOM     30  C   UNL A   1      37.502  31.506  29.182  1.00  0.00     0.338 C 
ATOM     31  O   UNL A   1      38.543  32.027  29.543  1.00  0.00    -0.246 OA
BRANCH  30  32
ATOM     32  C   UNL A   1      37.477  30.138  28.649  1.00  0.00     0.060 A 
ATOM     33  C   UNL A   1      37.323  29.146  29.641  1.00  0.00     0.016 A 
ATOM     34  C   UNL A   1      38.308  29.977  27.548  1.00  0.00     0.016 A 
ATOM     35  C   UNL A   1      38.283  28.172  29.751  1.00  0.00     0.010 A 
ATOM     36  C   UNL A   1      39.285  29.026  27.676  1.00  0.00     0.010 A 
ATOM     37  C   UNL A   1      39.329  28.249  28.850  1.00  0.00    -0.014 A 
BRANCH  37  38
ATOM     38  C   UNL A   1      40.640  27.751  29.188  1.00  0.00     0.031 A 
ATOM     39  C   UNL A   1      41.002  26.401  28.772  1.00  0.00     0.074 A 
ATOM     40  C   UNL A   1      41.517  28.647  29.689  1.00  0.00     0.049 A 
ATOM     41  N   UNL A   1      42.122  25.837  29.047  1.00  0.00    -0.248 NA
ATOM     42  C   UNL A   1      40.057  25.531  28.076  1.00  0.00     0.031 C 
ATOM     43  C   UNL A   1      42.970  28.606  29.626  1.00  0.00     0.029 A 
ATOM     44  N   UNL A   1      41.228  29.720  30.552  1.00  0.00    -0.354 N 
ATOM     45  C   UNL A   1      42.174  24.686  28.302  1.00  0.00     0.074 A 
ATOM     46  C   UNL A   1      40.821  24.456  27.873  1.00  0.00     0.031 C 
ATOM     47  C   UNL A   1      43.468  29.429  30.564  1.00  0.00     0.029 A 
ATOM     48  C   UNL A   1      42.353  29.844  31.401  1.00  0.00     0.049 A 
ATOM     49  H   UNL A   1      40.412  30.271  30.563  1.00  0.00     0.167 HD
ATOM     50  C   UNL A   1      43.404  24.186  28.007  1.00  0.00     0.037 A 
ATOM     51  C   UNL A   1      42.242  29.528  32.729  1.00  0.00     0.037 A 
ATOM     52  C   UNL A   1      44.413  24.773  28.895  1.00  0.00     0.049 A 
ATOM     53  C   UNL A   1      43.070  28.330  33.161  1.00  0.00     0.074 A 
ATOM     54  C   UNL A   1      45.362  25.773  28.769  1.00  0.00     0.029 A 
ATOM     55  N   UNL A   1      44.286  24.539  30.257  1.00  0.00    -0.354 N 
ATOM     56  N   UNL A   1      43.668  27.512  32.339  1.00  0.00    -0.248 NA
ATOM     57  C   UNL A   1      43.203  27.908  34.557  1.00  0.00     0.031 C 
ATOM     58  C   UNL A   1      45.719  26.206  30.086  1.00  0.00     0.029 A 
ATOM     59  C   UNL A   1      45.012  25.446  31.002  1.00  0.00     0.049 A 
ATOM     60  H   UNL A   1      43.744  23.814  30.643  1.00  0.00     0.167 HD
ATOM     61  C   UNL A   1      44.218  26.481  33.042  1.00  0.00     0.074 A 
ATOM     62  C   UNL A   1      43.900  26.766  34.430  1.00  0.00     0.031 C 
ATOM     63  C   UNL A   1      44.868  25.442  32.450  1.00  0.00     0.037 A 
BRANCH  50  64
ATOM     64  C   UNL A   1      43.726  23.328  26.802  1.00  0.00     0.064 A 
ATOM     65  C   UNL A   1      43.261  21.996  26.757  1.00  0.00     0.173 A 
ATOM     66  C   UNL A   1      44.577  23.683  25.730  1.00  0.00     0.173 A 
ATOM     67  F   UNL A   1      42.445  21.512  27.703  1.00  0.00    -0.203 F 
ATOM     68  C   UNL A   1      43.638  21.100  25.748  1.00  0.00     0.198 A 
ATOM     69  C   UNL A   1      44.922  22.798  24.705  1.00  0.00     0.198 A 
ATOM     70  F   UNL A   1      45.162  24.877  25.632  1.00  0.00    -0.203 F 
ATOM     71  F   UNL A   1      43.206  19.832  25.792  1.00  0.00    -0.200 F 
ATOM     72  C   UNL A   1      44.466  21.503  24.721  1.00  0.00     0.200 A 
ATOM     73  F   UNL A   1      45.729  23.216  23.718  1.00  0.00    -0.200 F 
ATOM     74  F   UNL A   1      44.833  20.646  23.760  1.00  0.00    -0.200 F 
ENDBRANCH  50  64
BRANCH  51  75
ATOM     75  C   UNL A   1      40.903  29.856  33.292  1.00  0.00     0.064 A 
ATOM     76  C   UNL A   1      40.618  31.190  33.645  1.00  0.00     0.173 A 
ATOM     77  C   UNL A   1      39.821  28.980  33.138  1.00  0.00     0.173 A 
ATOM     78  F   UNL A   1      41.621  32.065  33.821  1.00  0.00    -0.203 F 
ATOM     79  C   UNL A   1      39.306  31.652  33.723  1.00  0.00     0.198 A 
ATOM     80  C   UNL A   1      38.509  29.447  33.221  1.00  0.00     0.198 A 
ATOM     81  F   UNL A   1      40.025  27.697  32.809  1.00  0.00    -0.203 F 
ATOM     82  F   UNL A   1      39.062  32.946  33.978  1.00  0.00    -0.200 F 
ATOM     83  C   UNL A   1      38.253  30.786  33.478  1.00  0.00     0.200 A 
ATOM     84  F   UNL A   1      37.489  28.613  32.974  1.00  0.00    -0.200 F 
ATOM     85  F   UNL A   1      36.992  31.244  33.458  1.00  0.00    -0.200 F 
ENDBRANCH  51  75
BRANCH  63  86
ATOM     86  C   UNL A   1      45.431  24.314  33.245  1.00  0.00     0.064 A 
ATOM     87  C   UNL A   1      44.659  23.193  33.575  1.00  0.00     0.173 A 
ATOM     88  C   UNL A   1      46.724  24.387  33.793  1.00  0.00     0.173 A 
ATOM     89  F   UNL A   1      43.412  23.060  33.096  1.00  0.00    -0.203 F 
ATOM     90  C   UNL A   1      45.157  22.194  34.410  1.00  0.00     0.198 A 
ATOM     91  C   UNL A   1      47.202  23.412  34.662  1.00  0.00     0.198 A 
ATOM     92  F   UNL A   1      47.550  25.398  33.482  1.00  0.00    -0.203 F 
ATOM     93  F   UNL A   1      44.407  21.116  34.679  1.00  0.00    -0.200 F 
ATOM     94  C   UNL A   1      46.420  22.313  34.967  1.00  0.00     0.200 A 
ATOM     95  F   UNL A   1      48.422  23.543  35.202  1.00  0.00    -0.200 F 
ATOM     96  F   UNL A   1      46.886  21.365  35.791  1.00  0.00    -0.200 F 
ENDBRANCH  63  86
ENDBRANCH  37  38
ENDBRANCH  30  32
ENDBRANCH  29  30
ENDBRANCH  28  29
ENDBRANCH  27  28
ENDBRANCH  26  27
ENDBRANCH  25  26
ENDBRANCH   1  25
TORSDOF 19
ENDMDL
