MODEL 1
REMARK VINA RESULT:     -11.8      0.000      0.000
REMARK SMILES CC1(C)S[C@H](c2ccc(-c3ccccc3)o2)[NH2+][C@H]1C(=O)OCCOCCOCCOC(=O)c1ccc(-c2c3nc(c(-c4c(F)c(F)c(F)c(F)c4F)c4ccc([nH]4)c(-c4c(F)c(F)c(F)c(F)c4F)c4nc(c(-c5c(F)c(F)c(F)c(F)c5F)c5ccc2[nH]5)C=C4)C=C3)cc1
REMARK SMILES IDX 25 1 24 2 23 3 22 4 21 5 19 6 20 7 18 8 1 9 2 10 3 11 4 12
REMARK SMILES IDX 5 13 17 14 6 17 7 18 16 19 8 20 9 21 10 22 11 23 15 24 12 25
REMARK SMILES IDX 14 26 13 27 26 28 27 29 28 30 29 31 30 32 31 33 32 34 33 35
REMARK SMILES IDX 34 36 95 37 35 38 94 39 36 40 37 41 38 42 88 43 39 44 93 45
REMARK SMILES IDX 87 46 89 47 40 48 92 49 86 50 85 51 41 53 73 54 53 55 72 56
REMARK SMILES IDX 54 57 57 58 71 59 90 60 55 61 56 62 70 64 91 65 58 66 42 67
REMARK SMILES IDX 43 68 51 69 44 70 45 71 49 72 52 73 46 74 47 75 50 76 48 77
REMARK SMILES IDX 74 78 75 79 83 80 76 81 77 82 81 83 84 84 78 85 79 86 82 87
REMARK SMILES IDX 80 88 59 89 60 90 68 91 61 92 62 93 66 94 69 95 63 96 64 97
REMARK SMILES IDX 67 98 65 99
REMARK H PARENT 17 15 17 16 89 52 57 63
REMARK Flexibility Score: inf
ROOT
ATOM      1  C   UNL A   1      32.901  29.374  24.974  1.00  0.00     0.188 C 
ENDROOT
BRANCH   1   2
ATOM      2  O   UNL A   1      33.617  28.643  23.985  1.00  0.00    -0.376 OA
BRANCH   2   3
ATOM      3  C   UNL A   1      32.946  28.122  22.846  1.00  0.00     0.202 C 
BRANCH   3   4
ATOM      4  C   UNL A   1      33.353  26.733  22.327  1.00  0.00     0.261 C 
BRANCH   4   5
ATOM      5  O   UNL A   1      32.297  25.783  22.043  1.00  0.00    -0.459 OA
BRANCH   5   6
ATOM      6  C   UNL A   1      31.329  25.671  22.992  1.00  0.00     0.366 C 
ATOM      7  O   UNL A   1      30.262  26.277  22.934  1.00  0.00    -0.245 OA
BRANCH   6   8
ATOM      8  C   UNL A   1      31.695  24.793  24.222  1.00  0.00     0.310 C 
ATOM      9  C   UNL A   1      30.781  26.326  26.186  1.00  0.00     0.030 C 
ATOM     10  C   UNL A   1      31.839  25.344  25.673  1.00  0.00     0.079 C 
ATOM     11  C   UNL A   1      33.265  25.814  26.002  1.00  0.00     0.030 C 
ATOM     12  S   UNL A   1      31.607  23.834  26.716  1.00  0.00    -0.078 SA
ATOM     13  C   UNL A   1      31.172  22.760  25.326  1.00  0.00     0.311 C 
ATOM     14  N   UNL A   1      30.749  23.643  24.242  1.00  0.00    -0.316 N 
ATOM     15  H   UNL A   1      29.799  23.973  24.411  1.00  0.00     0.348 HD
ATOM     16  H   UNL A   1      30.755  23.150  23.349  1.00  0.00     0.348 HD
BRANCH  13  17
ATOM     17  C   UNL A   1      32.296  21.809  25.021  1.00  0.00     0.172 A 
ATOM     18  C   UNL A   1      33.639  22.052  24.796  1.00  0.00     0.054 A 
ATOM     19  O   UNL A   1      32.066  20.453  24.994  1.00  0.00    -0.454 OA
ATOM     20  C   UNL A   1      34.268  20.797  24.667  1.00  0.00     0.051 A 
ATOM     21  C   UNL A   1      33.277  19.849  24.802  1.00  0.00     0.134 A 
BRANCH  21  22
ATOM     22  C   UNL A   1      33.330  18.397  24.840  1.00  0.00     0.017 A 
ATOM     23  C   UNL A   1      32.604  17.659  25.781  1.00  0.00     0.012 A 
ATOM     24  C   UNL A   1      34.037  17.713  23.839  1.00  0.00     0.012 A 
ATOM     25  C   UNL A   1      32.565  16.262  25.703  1.00  0.00     0.001 A 
ATOM     26  C   UNL A   1      34.008  16.319  23.769  1.00  0.00     0.001 A 
ATOM     27  C   UNL A   1      33.263  15.594  24.695  1.00  0.00     0.000 A 
ENDBRANCH  21  22
ENDBRANCH  13  17
ENDBRANCH   6   8
ENDBRANCH   5   6
ENDBRANCH   4   5
ENDBRANCH   3   4
ENDBRANCH   2   3
ENDBRANCH   1   2
BRANCH   1  28
ATOM     28  C   UNL A   1      31.417  29.678  24.753  1.00  0.00     0.188 C 
BRANCH  28  29
ATOM     29  O   UNL A   1      30.973  30.841  25.405  1.00  0.00    -0.376 OA
BRANCH  29  30
ATOM     30  C   UNL A   1      31.583  31.247  26.608  1.00  0.00     0.202 C 
BRANCH  30  31
ATOM     31  C   UNL A   1      31.762  32.740  26.919  1.00  0.00     0.261 C 
BRANCH  31  32
ATOM     32  O   UNL A   1      33.100  33.259  26.935  1.00  0.00    -0.460 OA
BRANCH  32  33
ATOM     33  C   UNL A   1      33.547  33.805  28.085  1.00  0.00     0.338 C 
ATOM     34  O   UNL A   1      33.005  34.685  28.744  1.00  0.00    -0.246 OA
BRANCH  33  35
ATOM     35  C   UNL A   1      34.714  33.018  28.534  1.00  0.00     0.060 A 
ATOM     36  C   UNL A   1      34.569  31.644  28.776  1.00  0.00     0.016 A 
ATOM     37  C   UNL A   1      35.950  33.638  28.718  1.00  0.00     0.016 A 
ATOM     38  C   UNL A   1      35.656  30.892  29.225  1.00  0.00     0.010 A 
ATOM     39  C   UNL A   1      37.032  32.888  29.186  1.00  0.00     0.010 A 
ATOM     40  C   UNL A   1      36.886  31.517  29.469  1.00  0.00    -0.014 A 
BRANCH  40  41
ATOM     41  C   UNL A   1      37.973  30.797  30.175  1.00  0.00     0.031 A 
ATOM     42  C   UNL A   1      38.218  31.112  31.626  1.00  0.00     0.074 A 
ATOM     43  C   UNL A   1      38.740  29.889  29.545  1.00  0.00     0.049 A 
ATOM     44  N   UNL A   1      39.188  30.726  32.414  1.00  0.00    -0.248 NA
ATOM     45  C   UNL A   1      37.233  31.995  32.271  1.00  0.00     0.031 C 
ATOM     46  C   UNL A   1      38.570  29.454  28.161  1.00  0.00     0.029 A 
ATOM     47  N   UNL A   1      39.832  29.185  29.989  1.00  0.00    -0.354 N 
ATOM     48  C   UNL A   1      38.941  31.332  33.639  1.00  0.00     0.074 A 
ATOM     49  C   UNL A   1      37.746  32.133  33.484  1.00  0.00     0.031 C 
ATOM     50  C   UNL A   1      39.538  28.571  27.862  1.00  0.00     0.029 A 
ATOM     51  C   UNL A   1      40.421  28.416  29.016  1.00  0.00     0.049 A 
ATOM     52  H   UNL A   1      40.161  29.228  30.917  1.00  0.00     0.167 HD
ATOM     53  C   UNL A   1      39.649  31.228  34.790  1.00  0.00     0.037 A 
ATOM     54  C   UNL A   1      41.564  27.703  29.047  1.00  0.00     0.037 A 
ATOM     55  C   UNL A   1      40.834  30.426  34.937  1.00  0.00     0.049 A 
ATOM     56  C   UNL A   1      42.383  27.670  30.315  1.00  0.00     0.074 A 
ATOM     57  C   UNL A   1      41.615  30.240  36.065  1.00  0.00     0.029 A 
ATOM     58  N   UNL A   1      41.415  29.681  33.921  1.00  0.00    -0.354 N 
ATOM     59  N   UNL A   1      42.145  28.239  31.472  1.00  0.00    -0.248 NA
ATOM     60  C   UNL A   1      43.631  26.893  30.278  1.00  0.00     0.031 C 
ATOM     61  C   UNL A   1      42.702  29.432  35.715  1.00  0.00     0.029 A 
ATOM     62  C   UNL A   1      42.560  29.057  34.389  1.00  0.00     0.049 A 
ATOM     63  H   UNL A   1      41.064  29.605  33.005  1.00  0.00     0.167 HD
ATOM     64  C   UNL A   1      43.191  27.864  32.307  1.00  0.00     0.074 A 
ATOM     65  C   UNL A   1      44.060  27.009  31.527  1.00  0.00     0.031 C 
ATOM     66  C   UNL A   1      43.410  28.197  33.604  1.00  0.00     0.037 A 
BRANCH  53  67
ATOM     67  C   UNL A   1      39.180  32.033  35.968  1.00  0.00     0.064 A 
ATOM     68  C   UNL A   1      38.273  31.517  36.906  1.00  0.00     0.173 A 
ATOM     69  C   UNL A   1      39.671  33.331  36.177  1.00  0.00     0.173 A 
ATOM     70  F   UNL A   1      37.761  30.287  36.745  1.00  0.00    -0.203 F 
ATOM     71  C   UNL A   1      37.852  32.282  37.991  1.00  0.00     0.198 A 
ATOM     72  C   UNL A   1      39.274  34.080  37.282  1.00  0.00     0.198 A 
ATOM     73  F   UNL A   1      40.544  33.872  35.314  1.00  0.00    -0.203 F 
ATOM     74  F   UNL A   1      36.942  31.788  38.844  1.00  0.00    -0.200 F 
ATOM     75  C   UNL A   1      38.358  33.558  38.183  1.00  0.00     0.200 A 
ATOM     76  F   UNL A   1      39.776  35.307  37.473  1.00  0.00    -0.200 F 
ATOM     77  F   UNL A   1      37.958  34.289  39.232  1.00  0.00    -0.200 F 
ENDBRANCH  53  67
BRANCH  54  78
ATOM     78  C   UNL A   1      42.025  26.981  27.830  1.00  0.00     0.064 A 
ATOM     79  C   UNL A   1      41.594  25.675  27.557  1.00  0.00     0.173 A 
ATOM     80  C   UNL A   1      42.925  27.570  26.930  1.00  0.00     0.173 A 
ATOM     81  F   UNL A   1      40.756  25.057  28.402  1.00  0.00    -0.203 F 
ATOM     82  C   UNL A   1      42.062  24.980  26.444  1.00  0.00     0.198 A 
ATOM     83  C   UNL A   1      43.368  26.887  25.799  1.00  0.00     0.198 A 
ATOM     84  F   UNL A   1      43.374  28.815  27.146  1.00  0.00    -0.203 F 
ATOM     85  F   UNL A   1      41.676  23.714  26.237  1.00  0.00    -0.200 F 
ATOM     86  C   UNL A   1      42.943  25.588  25.562  1.00  0.00     0.200 A 
ATOM     87  F   UNL A   1      44.211  27.482  24.945  1.00  0.00    -0.200 F 
ATOM     88  F   UNL A   1      43.392  24.919  24.492  1.00  0.00    -0.200 F 
ENDBRANCH  54  78
BRANCH  66  89
ATOM     89  C   UNL A   1      44.610  27.596  34.283  1.00  0.00     0.064 A 
ATOM     90  C   UNL A   1      45.840  28.266  34.344  1.00  0.00     0.173 A 
ATOM     91  C   UNL A   1      44.508  26.353  34.927  1.00  0.00     0.173 A 
ATOM     92  F   UNL A   1      45.996  29.451  33.735  1.00  0.00    -0.203 F 
ATOM     93  C   UNL A   1      46.932  27.701  35.001  1.00  0.00     0.198 A 
ATOM     94  C   UNL A   1      45.589  25.807  35.612  1.00  0.00     0.198 A 
ATOM     95  F   UNL A   1      43.351  25.673  34.908  1.00  0.00    -0.203 F 
ATOM     96  F   UNL A   1      48.111  28.336  35.004  1.00  0.00    -0.200 F 
ATOM     97  C   UNL A   1      46.802  26.477  35.641  1.00  0.00     0.200 A 
ATOM     98  F   UNL A   1      45.457  24.634  36.246  1.00  0.00    -0.200 F 
ATOM     99  F   UNL A   1      47.850  25.941  36.283  1.00  0.00    -0.200 F 
ENDBRANCH  66  89
ENDBRANCH  40  41
ENDBRANCH  33  35
ENDBRANCH  32  33
ENDBRANCH  31  32
ENDBRANCH  30  31
ENDBRANCH  29  30
ENDBRANCH  28  29
ENDBRANCH   1  28
TORSDOF 19
ENDMDL
MODEL 2
REMARK VINA RESULT:     -11.8      3.441      9.222
REMARK SMILES CC1(C)S[C@H](c2ccc(-c3ccccc3)o2)[NH2+][C@H]1C(=O)OCCOCCOCCOC(=O)c1ccc(-c2c3nc(c(-c4c(F)c(F)c(F)c(F)c4F)c4ccc([nH]4)c(-c4c(F)c(F)c(F)c(F)c4F)c4nc(c(-c5c(F)c(F)c(F)c(F)c5F)c5ccc2[nH]5)C=C4)C=C3)cc1
REMARK SMILES IDX 25 1 24 2 23 3 22 4 21 5 19 6 20 7 18 8 1 9 2 10 3 11 4 12
REMARK SMILES IDX 5 13 17 14 6 17 7 18 16 19 8 20 9 21 10 22 11 23 15 24 12 25
REMARK SMILES IDX 14 26 13 27 26 28 27 29 28 30 29 31 30 32 31 33 32 34 33 35
REMARK SMILES IDX 34 36 95 37 35 38 94 39 36 40 37 41 38 42 88 43 39 44 93 45
REMARK SMILES IDX 87 46 89 47 40 48 92 49 86 50 85 51 41 53 73 54 53 55 72 56
REMARK SMILES IDX 54 57 57 58 71 59 90 60 55 61 56 62 70 64 91 65 58 66 42 67
REMARK SMILES IDX 43 68 51 69 44 70 45 71 49 72 52 73 46 74 47 75 50 76 48 77
REMARK SMILES IDX 74 78 75 79 83 80 76 81 77 82 81 83 84 84 78 85 79 86 82 87
REMARK SMILES IDX 80 88 59 89 60 90 68 91 61 92 62 93 66 94 69 95 63 96 64 97
REMARK SMILES IDX 67 98 65 99
REMARK H PARENT 17 15 17 16 89 52 57 63
REMARK Flexibility Score: inf
ROOT
ATOM      1  C   UNL A   1      40.814  20.663  26.918  1.00  0.00     0.188 C 
ENDROOT
BRANCH   1   2
ATOM      2  O   UNL A   1      39.980  21.117  25.858  1.00  0.00    -0.376 OA
BRANCH   2   3
ATOM      3  C   UNL A   1      39.047  22.166  26.074  1.00  0.00     0.202 C 
BRANCH   3   4
ATOM      4  C   UNL A   1      37.665  22.066  25.407  1.00  0.00     0.261 C 
BRANCH   4   5
ATOM      5  O   UNL A   1      37.036  23.296  24.970  1.00  0.00    -0.459 OA
BRANCH   5   6
ATOM      6  C   UNL A   1      36.218  23.192  23.887  1.00  0.00     0.366 C 
ATOM      7  O   UNL A   1      36.634  22.957  22.755  1.00  0.00    -0.245 OA
BRANCH   6   8
ATOM      8  C   UNL A   1      34.715  23.486  24.153  1.00  0.00     0.310 C 
ATOM      9  C   UNL A   1      34.210  21.698  26.047  1.00  0.00     0.030 C 
ATOM     10  C   UNL A   1      33.733  22.473  24.815  1.00  0.00     0.079 C 
ATOM     11  C   UNL A   1      33.032  21.557  23.798  1.00  0.00     0.030 C 
ATOM     12  S   UNL A   1      32.379  23.561  25.453  1.00  0.00    -0.078 SA
ATOM     13  C   UNL A   1      33.225  25.106  25.036  1.00  0.00     0.311 C 
ATOM     14  N   UNL A   1      34.640  24.775  24.896  1.00  0.00    -0.316 N 
ATOM     15  H   UNL A   1      35.069  24.674  25.815  1.00  0.00     0.348 HD
ATOM     16  H   UNL A   1      35.138  25.512  24.397  1.00  0.00     0.348 HD
BRANCH  13  17
ATOM     17  C   UNL A   1      32.566  25.767  23.858  1.00  0.00     0.172 A 
ATOM     18  C   UNL A   1      32.648  25.478  22.507  1.00  0.00     0.054 A 
ATOM     19  O   UNL A   1      31.678  26.800  24.051  1.00  0.00    -0.454 OA
ATOM     20  C   UNL A   1      31.746  26.337  21.848  1.00  0.00     0.051 A 
ATOM     21  C   UNL A   1      31.169  27.120  22.824  1.00  0.00     0.134 A 
BRANCH  21  22
ATOM     22  C   UNL A   1      30.118  28.122  22.760  1.00  0.00     0.017 A 
ATOM     23  C   UNL A   1      30.325  29.366  22.155  1.00  0.00     0.012 A 
ATOM     24  C   UNL A   1      28.831  27.793  23.215  1.00  0.00     0.012 A 
ATOM     25  C   UNL A   1      29.256  30.253  21.984  1.00  0.00     0.001 A 
ATOM     26  C   UNL A   1      27.768  28.683  23.055  1.00  0.00     0.001 A 
ATOM     27  C   UNL A   1      27.978  29.909  22.430  1.00  0.00     0.000 A 
ENDBRANCH  21  22
ENDBRANCH  13  17
ENDBRANCH   6   8
ENDBRANCH   5   6
ENDBRANCH   4   5
ENDBRANCH   3   4
ENDBRANCH   2   3
ENDBRANCH   1   2
BRANCH   1  28
ATOM     28  C   UNL A   1      42.041  19.808  26.592  1.00  0.00     0.188 C 
BRANCH  28  29
ATOM     29  O   UNL A   1      42.695  20.181  25.406  1.00  0.00    -0.376 OA
BRANCH  29  30
ATOM     30  C   UNL A   1      44.045  20.582  25.446  1.00  0.00     0.202 C 
BRANCH  30  31
ATOM     31  C   UNL A   1      44.482  21.738  26.356  1.00  0.00     0.261 C 
BRANCH  31  32
ATOM     32  O   UNL A   1      44.647  23.031  25.755  1.00  0.00    -0.460 OA
BRANCH  32  33
ATOM     33  C   UNL A   1      43.577  23.579  25.144  1.00  0.00     0.338 C 
ATOM     34  O   UNL A   1      43.046  23.202  24.105  1.00  0.00    -0.246 OA
BRANCH  33  35
ATOM     35  C   UNL A   1      43.015  24.603  26.050  1.00  0.00     0.060 A 
ATOM     36  C   UNL A   1      43.506  25.915  25.998  1.00  0.00     0.016 A 
ATOM     37  C   UNL A   1      42.004  24.264  26.949  1.00  0.00     0.016 A 
ATOM     38  C   UNL A   1      43.002  26.887  26.865  1.00  0.00     0.010 A 
ATOM     39  C   UNL A   1      41.514  25.233  27.829  1.00  0.00     0.010 A 
ATOM     40  C   UNL A   1      42.029  26.543  27.812  1.00  0.00    -0.014 A 
BRANCH  40  41
ATOM     41  C   UNL A   1      41.663  27.486  28.897  1.00  0.00     0.031 A 
ATOM     42  C   UNL A   1      42.461  27.457  30.172  1.00  0.00     0.074 A 
ATOM     43  C   UNL A   1      40.636  28.345  28.764  1.00  0.00     0.049 A 
ATOM     44  N   UNL A   1      42.249  28.075  31.305  1.00  0.00    -0.248 NA
ATOM     45  C   UNL A   1      43.659  26.603  30.166  1.00  0.00     0.031 C 
ATOM     46  C   UNL A   1      39.822  28.510  27.563  1.00  0.00     0.029 A 
ATOM     47  N   UNL A   1      40.092  29.226  29.666  1.00  0.00    -0.354 N 
ATOM     48  C   UNL A   1      43.274  27.670  32.151  1.00  0.00     0.074 A 
ATOM     49  C   UNL A   1      44.092  26.734  31.411  1.00  0.00     0.031 C 
ATOM     50  C   UNL A   1      38.868  29.424  27.808  1.00  0.00     0.029 A 
ATOM     51  C   UNL A   1      38.975  29.871  29.195  1.00  0.00     0.049 A 
ATOM     52  H   UNL A   1      40.468  29.381  30.563  1.00  0.00     0.167 HD
ATOM     53  C   UNL A   1      43.511  28.048  33.431  1.00  0.00     0.037 A 
ATOM     54  C   UNL A   1      38.116  30.694  29.829  1.00  0.00     0.037 A 
ATOM     55  C   UNL A   1      42.696  28.984  34.159  1.00  0.00     0.049 A 
ATOM     56  C   UNL A   1      38.352  31.035  31.280  1.00  0.00     0.074 A 
ATOM     57  C   UNL A   1      42.859  29.445  35.453  1.00  0.00     0.029 A 
ATOM     58  N   UNL A   1      41.556  29.596  33.657  1.00  0.00    -0.354 N 
ATOM     59  N   UNL A   1      39.323  30.655  32.075  1.00  0.00    -0.248 NA
ATOM     60  C   UNL A   1      37.368  31.920  31.922  1.00  0.00     0.031 C 
ATOM     61  C   UNL A   1      41.785  30.289  35.755  1.00  0.00     0.029 A 
ATOM     62  C   UNL A   1      40.991  30.409  34.627  1.00  0.00     0.049 A 
ATOM     63  H   UNL A   1      41.203  29.473  32.747  1.00  0.00     0.167 HD
ATOM     64  C   UNL A   1      39.087  31.279  33.296  1.00  0.00     0.074 A 
ATOM     65  C   UNL A   1      37.886  32.070  33.132  1.00  0.00     0.031 C 
ATOM     66  C   UNL A   1      39.801  31.203  34.446  1.00  0.00     0.037 A 
BRANCH  53  67
ATOM     67  C   UNL A   1      44.677  27.418  34.136  1.00  0.00     0.064 A 
ATOM     68  C   UNL A   1      45.945  28.018  34.157  1.00  0.00     0.173 A 
ATOM     69  C   UNL A   1      44.514  26.208  34.828  1.00  0.00     0.173 A 
ATOM     70  F   UNL A   1      46.159  29.167  33.498  1.00  0.00    -0.203 F 
ATOM     71  C   UNL A   1      47.013  27.414  34.817  1.00  0.00     0.198 A 
ATOM     72  C   UNL A   1      45.575  25.625  35.516  1.00  0.00     0.198 A 
ATOM     73  F   UNL A   1      43.322  25.593  34.845  1.00  0.00    -0.203 F 
ATOM     74  F   UNL A   1      48.229  27.979  34.777  1.00  0.00    -0.200 F 
ATOM     75  C   UNL A   1      46.826  26.224  35.503  1.00  0.00     0.200 A 
ATOM     76  F   UNL A   1      45.388  24.482  36.190  1.00  0.00    -0.200 F 
ATOM     77  F   UNL A   1      47.852  25.649  36.144  1.00  0.00    -0.200 F 
ENDBRANCH  53  67
BRANCH  54  78
ATOM     78  C   UNL A   1      36.933  31.237  29.107  1.00  0.00     0.064 A 
ATOM     79  C   UNL A   1      36.861  32.590  28.752  1.00  0.00     0.173 A 
ATOM     80  C   UNL A   1      35.841  30.419  28.781  1.00  0.00     0.173 A 
ATOM     81  F   UNL A   1      37.867  33.420  29.066  1.00  0.00    -0.203 F 
ATOM     82  C   UNL A   1      35.733  33.110  28.118  1.00  0.00     0.198 A 
ATOM     83  C   UNL A   1      34.727  30.932  28.119  1.00  0.00     0.198 A 
ATOM     84  F   UNL A   1      35.855  29.117  29.104  1.00  0.00    -0.203 F 
ATOM     85  F   UNL A   1      35.668  34.419  27.839  1.00  0.00    -0.200 F 
ATOM     86  C   UNL A   1      34.670  32.279  27.796  1.00  0.00     0.200 A 
ATOM     87  F   UNL A   1      33.707  30.123  27.802  1.00  0.00    -0.200 F 
ATOM     88  F   UNL A   1      33.587  32.779  27.187  1.00  0.00    -0.200 F 
ENDBRANCH  54  78
BRANCH  66  89
ATOM     89  C   UNL A   1      39.338  32.036  35.609  1.00  0.00     0.064 A 
ATOM     90  C   UNL A   1      39.710  33.381  35.752  1.00  0.00     0.173 A 
ATOM     91  C   UNL A   1      38.467  31.493  36.566  1.00  0.00     0.173 A 
ATOM     92  F   UNL A   1      40.551  33.947  34.872  1.00  0.00    -0.203 F 
ATOM     93  C   UNL A   1      39.249  34.142  36.824  1.00  0.00     0.198 A 
ATOM     94  C   UNL A   1      37.980  32.265  37.616  1.00  0.00     0.198 A 
ATOM     95  F   UNL A   1      38.071  30.214  36.472  1.00  0.00    -0.203 F 
ATOM     96  F   UNL A   1      39.657  35.410  36.967  1.00  0.00    -0.200 F 
ATOM     97  C   UNL A   1      38.378  33.586  37.749  1.00  0.00     0.200 A 
ATOM     98  F   UNL A   1      37.123  31.732  38.498  1.00  0.00    -0.200 F 
ATOM     99  F   UNL A   1      37.925  34.324  38.773  1.00  0.00    -0.200 F 
ENDBRANCH  66  89
ENDBRANCH  40  41
ENDBRANCH  33  35
ENDBRANCH  32  33
ENDBRANCH  31  32
ENDBRANCH  30  31
ENDBRANCH  29  30
ENDBRANCH  28  29
ENDBRANCH   1  28
TORSDOF 19
ENDMDL
MODEL 3
REMARK VINA RESULT:     -11.6      2.328      3.745
REMARK SMILES CC1(C)S[C@H](c2ccc(-c3ccccc3)o2)[NH2+][C@H]1C(=O)OCCOCCOCCOC(=O)c1ccc(-c2c3nc(c(-c4c(F)c(F)c(F)c(F)c4F)c4ccc([nH]4)c(-c4c(F)c(F)c(F)c(F)c4F)c4nc(c(-c5c(F)c(F)c(F)c(F)c5F)c5ccc2[nH]5)C=C4)C=C3)cc1
REMARK SMILES IDX 25 1 24 2 23 3 22 4 21 5 19 6 20 7 18 8 1 9 2 10 3 11 4 12
REMARK SMILES IDX 5 13 17 14 6 17 7 18 16 19 8 20 9 21 10 22 11 23 15 24 12 25
REMARK SMILES IDX 14 26 13 27 26 28 27 29 28 30 29 31 30 32 31 33 32 34 33 35
REMARK SMILES IDX 34 36 95 37 35 38 94 39 36 40 37 41 38 42 88 43 39 44 93 45
REMARK SMILES IDX 87 46 89 47 40 48 92 49 86 50 85 51 41 53 73 54 53 55 72 56
REMARK SMILES IDX 54 57 57 58 71 59 90 60 55 61 56 62 70 64 91 65 58 66 42 67
REMARK SMILES IDX 43 68 51 69 44 70 45 71 49 72 52 73 46 74 47 75 50 76 48 77
REMARK SMILES IDX 74 78 75 79 83 80 76 81 77 82 81 83 84 84 78 85 79 86 82 87
REMARK SMILES IDX 80 88 59 89 60 90 68 91 61 92 62 93 66 94 69 95 63 96 64 97
REMARK SMILES IDX 67 98 65 99
REMARK H PARENT 17 15 17 16 89 52 57 63
REMARK Flexibility Score: inf
ROOT
ATOM      1  C   UNL A   1      35.004  31.439  28.461  1.00  0.00     0.188 C 
ENDROOT
BRANCH   1   2
ATOM      2  O   UNL A   1      34.739  30.478  27.445  1.00  0.00    -0.376 OA
BRANCH   2   3
ATOM      3  C   UNL A   1      33.419  29.999  27.232  1.00  0.00     0.202 C 
BRANCH   3   4
ATOM      4  C   UNL A   1      33.181  28.480  27.233  1.00  0.00     0.261 C 
BRANCH   4   5
ATOM      5  O   UNL A   1      33.015  27.823  25.952  1.00  0.00    -0.459 OA
BRANCH   5   6
ATOM      6  C   UNL A   1      32.154  26.768  25.933  1.00  0.00     0.366 C 
ATOM      7  O   UNL A   1      31.175  26.691  26.671  1.00  0.00    -0.245 OA
BRANCH   6   8
ATOM      8  C   UNL A   1      32.541  25.606  24.977  1.00  0.00     0.310 C 
ATOM      9  C   UNL A   1      31.835  26.658  22.645  1.00  0.00     0.030 C 
ATOM     10  C   UNL A   1      31.952  25.425  23.545  1.00  0.00     0.079 C 
ATOM     11  C   UNL A   1      30.670  24.575  23.522  1.00  0.00     0.030 C 
ATOM     12  S   UNL A   1      33.214  24.362  22.707  1.00  0.00    -0.078 SA
ATOM     13  C   UNL A   1      34.388  24.417  24.083  1.00  0.00     0.311 C 
ATOM     14  N   UNL A   1      34.027  25.583  24.885  1.00  0.00    -0.316 N 
ATOM     15  H   UNL A   1      34.363  26.434  24.435  1.00  0.00     0.348 HD
ATOM     16  H   UNL A   1      34.449  25.530  25.812  1.00  0.00     0.348 HD
BRANCH  13  17
ATOM     17  C   UNL A   1      34.429  23.094  24.795  1.00  0.00     0.172 A 
ATOM     18  C   UNL A   1      34.617  22.803  26.135  1.00  0.00     0.054 A 
ATOM     19  O   UNL A   1      34.199  21.928  24.103  1.00  0.00    -0.454 OA
ATOM     20  C   UNL A   1      34.455  21.411  26.280  1.00  0.00     0.051 A 
ATOM     21  C   UNL A   1      34.193  20.915  25.021  1.00  0.00     0.134 A 
BRANCH  21  22
ATOM     22  C   UNL A   1      33.864  19.577  24.561  1.00  0.00     0.017 A 
ATOM     23  C   UNL A   1      32.625  19.284  23.980  1.00  0.00     0.012 A 
ATOM     24  C   UNL A   1      34.850  18.579  24.596  1.00  0.00     0.012 A 
ATOM     25  C   UNL A   1      32.390  18.023  23.421  1.00  0.00     0.001 A 
ATOM     26  C   UNL A   1      34.611  17.318  24.049  1.00  0.00     0.001 A 
ATOM     27  C   UNL A   1      33.384  17.043  23.452  1.00  0.00     0.000 A 
ENDBRANCH  21  22
ENDBRANCH  13  17
ENDBRANCH   6   8
ENDBRANCH   5   6
ENDBRANCH   4   5
ENDBRANCH   3   4
ENDBRANCH   2   3
ENDBRANCH   1   2
BRANCH   1  28
ATOM     28  C   UNL A   1      34.932  32.929  28.119  1.00  0.00     0.188 C 
BRANCH  28  29
ATOM     29  O   UNL A   1      34.041  33.655  28.927  1.00  0.00    -0.376 OA
BRANCH  29  30
ATOM     30  C   UNL A   1      33.784  35.011  28.645  1.00  0.00     0.202 C 
BRANCH  30  31
ATOM     31  C   UNL A   1      32.904  35.844  29.587  1.00  0.00     0.261 C 
BRANCH  31  32
ATOM     32  O   UNL A   1      32.363  35.189  30.744  1.00  0.00    -0.460 OA
BRANCH  32  33
ATOM     33  C   UNL A   1      32.631  35.726  31.952  1.00  0.00     0.338 C 
ATOM     34  O   UNL A   1      31.946  36.534  32.570  1.00  0.00    -0.246 OA
BRANCH  33  35
ATOM     35  C   UNL A   1      33.803  35.020  32.509  1.00  0.00     0.060 A 
ATOM     36  C   UNL A   1      35.073  35.610  32.418  1.00  0.00     0.016 A 
ATOM     37  C   UNL A   1      33.647  33.776  33.121  1.00  0.00     0.016 A 
ATOM     38  C   UNL A   1      36.193  34.944  32.919  1.00  0.00     0.010 A 
ATOM     39  C   UNL A   1      34.772  33.102  33.604  1.00  0.00     0.010 A 
ATOM     40  C   UNL A   1      36.055  33.669  33.481  1.00  0.00    -0.014 A 
BRANCH  40  41
ATOM     41  C   UNL A   1      37.249  32.845  33.789  1.00  0.00     0.031 A 
ATOM     42  C   UNL A   1      37.991  33.107  35.071  1.00  0.00     0.074 A 
ATOM     43  C   UNL A   1      37.681  31.890  32.945  1.00  0.00     0.049 A 
ATOM     44  N   UNL A   1      39.131  32.624  35.492  1.00  0.00    -0.248 NA
ATOM     45  C   UNL A   1      37.358  34.055  36.002  1.00  0.00     0.031 C 
ATOM     46  C   UNL A   1      37.022  31.501  31.701  1.00  0.00     0.029 A 
ATOM     47  N   UNL A   1      38.794  31.087  33.004  1.00  0.00    -0.354 N 
ATOM     48  C   UNL A   1      39.361  33.222  36.725  1.00  0.00     0.074 A 
ATOM     49  C   UNL A   1      38.256  34.123  36.973  1.00  0.00     0.031 C 
ATOM     50  C   UNL A   1      37.754  30.546  31.102  1.00  0.00     0.029 A 
ATOM     51  C   UNL A   1      38.955  30.293  31.896  1.00  0.00     0.049 A 
ATOM     52  H   UNL A   1      39.415  31.083  33.767  1.00  0.00     0.167 HD
ATOM     53  C   UNL A   1      40.401  33.034  37.573  1.00  0.00     0.037 A 
ATOM     54  C   UNL A   1      39.977  29.486  31.548  1.00  0.00     0.037 A 
ATOM     55  C   UNL A   1      41.493  32.132  37.322  1.00  0.00     0.049 A 
ATOM     56  C   UNL A   1      41.165  29.357  32.469  1.00  0.00     0.074 A 
ATOM     57  C   UNL A   1      42.587  31.858  38.124  1.00  0.00     0.029 A 
ATOM     58  N   UNL A   1      41.635  31.363  36.176  1.00  0.00    -0.354 N 
ATOM     59  N   UNL A   1      41.378  29.919  33.634  1.00  0.00    -0.248 NA
ATOM     60  C   UNL A   1      42.258  28.479  32.023  1.00  0.00     0.031 C 
ATOM     61  C   UNL A   1      43.421  30.969  37.437  1.00  0.00     0.029 A 
ATOM     62  C   UNL A   1      42.813  30.636  36.238  1.00  0.00     0.049 A 
ATOM     63  H   UNL A   1      40.993  31.337  35.430  1.00  0.00     0.167 HD
ATOM     64  C   UNL A   1      42.606  29.440  34.075  1.00  0.00     0.074 A 
ATOM     65  C   UNL A   1      43.088  28.532  33.055  1.00  0.00     0.031 C 
ATOM     66  C   UNL A   1      43.274  29.725  35.220  1.00  0.00     0.037 A 
BRANCH  53  67
ATOM     67  C   UNL A   1      40.423  33.850  38.834  1.00  0.00     0.064 A 
ATOM     68  C   UNL A   1      39.760  33.435  39.999  1.00  0.00     0.173 A 
ATOM     69  C   UNL A   1      41.146  35.051  38.885  1.00  0.00     0.173 A 
ATOM     70  F   UNL A   1      39.042  32.301  40.000  1.00  0.00    -0.203 F 
ATOM     71  C   UNL A   1      39.795  34.208  41.157  1.00  0.00     0.198 A 
ATOM     72  C   UNL A   1      41.207  35.804  40.055  1.00  0.00     0.198 A 
ATOM     73  F   UNL A   1      41.803  35.493  37.802  1.00  0.00    -0.203 F 
ATOM     74  F   UNL A   1      39.109  33.818  42.241  1.00  0.00    -0.200 F 
ATOM     75  C   UNL A   1      40.524  35.386  41.187  1.00  0.00     0.200 A 
ATOM     76  F   UNL A   1      41.926  36.935  40.086  1.00  0.00    -0.200 F 
ATOM     77  F   UNL A   1      40.563  36.124  42.304  1.00  0.00    -0.200 F 
ENDBRANCH  53  67
BRANCH  54  78
ATOM     78  C   UNL A   1      39.940  28.754  30.252  1.00  0.00     0.064 A 
ATOM     79  C   UNL A   1      39.380  27.473  30.161  1.00  0.00     0.173 A 
ATOM     80  C   UNL A   1      40.489  29.309  29.086  1.00  0.00     0.173 A 
ATOM     81  F   UNL A   1      38.869  26.886  31.254  1.00  0.00    -0.203 F 
ATOM     82  C   UNL A   1      39.389  26.767  28.960  1.00  0.00     0.198 A 
ATOM     83  C   UNL A   1      40.468  28.616  27.878  1.00  0.00     0.198 A 
ATOM     84  F   UNL A   1      41.044  30.529  29.119  1.00  0.00    -0.203 F 
ATOM     85  F   UNL A   1      38.895  25.522  28.914  1.00  0.00    -0.200 F 
ATOM     86  C   UNL A   1      39.927  27.341  27.818  1.00  0.00     0.200 A 
ATOM     87  F   UNL A   1      40.981  29.179  26.775  1.00  0.00    -0.200 F 
ATOM     88  F   UNL A   1      39.934  26.661  26.663  1.00  0.00    -0.200 F 
ENDBRANCH  54  78
BRANCH  66  89
ATOM     89  C   UNL A   1      44.575  29.011  35.464  1.00  0.00     0.064 A 
ATOM     90  C   UNL A   1      44.629  27.772  36.119  1.00  0.00     0.173 A 
ATOM     91  C   UNL A   1      45.779  29.553  34.987  1.00  0.00     0.173 A 
ATOM     92  F   UNL A   1      43.509  27.215  36.606  1.00  0.00    -0.203 F 
ATOM     93  C   UNL A   1      45.843  27.116  36.312  1.00  0.00     0.198 A 
ATOM     94  C   UNL A   1      46.985  28.879  35.150  1.00  0.00     0.198 A 
ATOM     95  F   UNL A   1      45.784  30.731  34.345  1.00  0.00    -0.203 F 
ATOM     96  F   UNL A   1      45.876  25.957  36.984  1.00  0.00    -0.200 F 
ATOM     97  C   UNL A   1      47.018  27.665  35.819  1.00  0.00     0.200 A 
ATOM     98  F   UNL A   1      48.116  29.402  34.657  1.00  0.00    -0.200 F 
ATOM     99  F   UNL A   1      48.183  27.026  35.995  1.00  0.00    -0.200 F 
ENDBRANCH  66  89
ENDBRANCH  40  41
ENDBRANCH  33  35
ENDBRANCH  32  33
ENDBRANCH  31  32
ENDBRANCH  30  31
ENDBRANCH  29  30
ENDBRANCH  28  29
ENDBRANCH   1  28
TORSDOF 19
ENDMDL
