MODEL 1
REMARK VINA RESULT:     -12.4      0.000      0.000
REMARK SMILES CC(=O)Nc1ccc(/C=C2/CCc3oc(C(=O)OCCOCCOCCOC(=O)c4ccc(-c5c6nc(c(-c7c(F)c(F)c(F)c(F)c7F)c7ccc([nH]7)c(-c7c(F)c(F)c(F)c(F)c7F)c7nc(c(-c8c(F)c(F)c(F)c(F)c8F)c8ccc5[nH]8)C=C7)C=C6)cc4)c(C)c3C2=O)cc1
REMARK SMILES IDX 22 1 21 2 20 3 19 4 18 5 16 6 17 7 15 8 9 9 10 10 11 11
REMARK SMILES IDX 96 12 12 13 95 14 97 15 13 16 93 17 14 18 94 19 8 20 5 21
REMARK SMILES IDX 6 22 99 23 7 24 98 25 4 26 1 27 2 28 3 29 23 31 24 32 25 33
REMARK SMILES IDX 26 34 27 35 28 36 29 37 30 38 31 39 92 40 32 41 91 42 33 43
REMARK SMILES IDX 34 44 35 45 85 46 36 47 90 48 84 49 86 50 37 51 89 52 83 53
REMARK SMILES IDX 82 54 38 56 70 57 50 58 69 59 51 60 54 61 68 62 87 63 52 64
REMARK SMILES IDX 53 65 67 67 88 68 55 69 39 70 40 71 48 72 41 73 42 74 46 75
REMARK SMILES IDX 49 76 43 77 44 78 47 79 45 80 71 81 72 82 80 83 73 84 74 85
REMARK SMILES IDX 78 86 81 87 75 88 76 89 79 90 77 91 56 92 57 93 65 94 58 95
REMARK SMILES IDX 59 96 63 97 66 98 60 99 61 100 64 101 62 102
REMARK H PARENT 4 30 86 55 54 66
REMARK Flexibility Score: inf
ROOT
ATOM      1  C   UNL A   1      41.915  20.102  27.288  1.00  0.00     0.188 C 
ENDROOT
BRANCH   1   2
ATOM      2  O   UNL A   1      40.757  20.719  27.817  1.00  0.00    -0.376 OA
BRANCH   2   3
ATOM      3  C   UNL A   1      40.404  22.045  27.460  1.00  0.00     0.202 C 
BRANCH   3   4
ATOM      4  C   UNL A   1      39.639  22.404  26.172  1.00  0.00     0.261 C 
BRANCH   4   5
ATOM      5  O   UNL A   1      38.239  22.114  26.154  1.00  0.00    -0.457 OA
BRANCH   5   6
ATOM      6  C   UNL A   1      37.866  21.066  25.367  1.00  0.00     0.374 C 
ATOM      7  O   UNL A   1      38.540  20.060  25.178  1.00  0.00    -0.242 OA
BRANCH   6   8
ATOM      8  C   UNL A   1      36.494  21.231  24.935  1.00  0.00     0.215 A 
ATOM      9  C   UNL A   1      31.358  23.279  24.530  1.00  0.00     0.016 C 
ATOM     10  C   UNL A   1      32.167  22.299  24.075  1.00  0.00     0.001 C 
ATOM     11  C   UNL A   1      31.927  20.827  24.395  1.00  0.00     0.048 C 
ATOM     12  C   UNL A   1      33.452  22.522  23.338  1.00  0.00     0.192 C 
ATOM     13  C   UNL A   1      33.049  20.241  25.292  1.00  0.00     0.081 C 
ATOM     14  C   UNL A   1      34.553  21.886  24.024  1.00  0.00     0.067 A 
ATOM     15  O   UNL A   1      33.548  23.116  22.272  1.00  0.00    -0.289 OA
ATOM     16  C   UNL A   1      34.345  20.850  24.904  1.00  0.00     0.116 A 
ATOM     17  C   UNL A   1      35.954  22.110  23.999  1.00  0.00     0.014 A 
ATOM     18  O   UNL A   1      35.506  20.431  25.459  1.00  0.00    -0.453 OA
ATOM     19  C   UNL A   1      36.674  23.092  23.147  1.00  0.00     0.049 C 
BRANCH   9  20
ATOM     20  C   UNL A   1      31.481  24.757  24.557  1.00  0.00    -0.025 A 
ATOM     21  C   UNL A   1      31.463  27.595  24.763  1.00  0.00     0.041 A 
ATOM     22  C   UNL A   1      32.654  26.881  24.844  1.00  0.00     0.027 A 
ATOM     23  C   UNL A   1      30.287  26.900  24.506  1.00  0.00     0.027 A 
ATOM     24  C   UNL A   1      32.657  25.481  24.768  1.00  0.00     0.010 A 
ATOM     25  C   UNL A   1      30.299  25.501  24.397  1.00  0.00     0.010 A 
BRANCH  21  26
ATOM     26  N   UNL A   1      31.535  28.989  24.901  1.00  0.00    -0.326 N 
ATOM     27  C   UNL A   1      32.048  29.143  27.329  1.00  0.00     0.114 C 
ATOM     28  C   UNL A   1      31.658  29.769  26.016  1.00  0.00     0.221 C 
ATOM     29  O   UNL A   1      31.526  30.990  25.912  1.00  0.00    -0.275 OA
ATOM     30  H   UNL A   1      31.489  29.488  24.054  1.00  0.00     0.169 HD
ENDBRANCH  21  26
ENDBRANCH   9  20
ENDBRANCH   6   8
ENDBRANCH   5   6
ENDBRANCH   4   5
ENDBRANCH   3   4
ENDBRANCH   2   3
ENDBRANCH   1   2
BRANCH   1  31
ATOM     31  C   UNL A   1      41.843  19.135  26.087  1.00  0.00     0.188 C 
BRANCH  31  32
ATOM     32  O   UNL A   1      42.764  19.313  25.036  1.00  0.00    -0.376 OA
BRANCH  32  33
ATOM     33  C   UNL A   1      44.127  18.942  25.127  1.00  0.00     0.202 C 
BRANCH  33  34
ATOM     34  C   UNL A   1      45.298  19.625  24.424  1.00  0.00     0.261 C 
BRANCH  34  35
ATOM     35  O   UNL A   1      45.603  20.944  24.826  1.00  0.00    -0.460 OA
BRANCH  35  36
ATOM     36  C   UNL A   1      44.782  21.866  24.280  1.00  0.00     0.338 C 
ATOM     37  O   UNL A   1      44.660  22.137  23.096  1.00  0.00    -0.246 OA
BRANCH  36  38
ATOM     38  C   UNL A   1      44.092  22.598  25.344  1.00  0.00     0.060 A 
ATOM     39  C   UNL A   1      42.996  23.369  24.955  1.00  0.00     0.016 A 
ATOM     40  C   UNL A   1      44.700  22.739  26.601  1.00  0.00     0.016 A 
ATOM     41  C   UNL A   1      42.644  24.440  25.742  1.00  0.00     0.010 A 
ATOM     42  C   UNL A   1      44.349  23.814  27.386  1.00  0.00     0.010 A 
ATOM     43  C   UNL A   1      43.394  24.701  26.894  1.00  0.00    -0.014 A 
BRANCH  43  44
ATOM     44  C   UNL A   1      43.189  25.989  27.519  1.00  0.00     0.031 A 
ATOM     45  C   UNL A   1      44.199  27.019  27.204  1.00  0.00     0.074 A 
ATOM     46  C   UNL A   1      42.125  26.231  28.304  1.00  0.00     0.049 A 
ATOM     47  N   UNL A   1      44.976  27.647  28.023  1.00  0.00    -0.248 NA
ATOM     48  C   UNL A   1      44.422  27.332  25.787  1.00  0.00     0.031 C 
ATOM     49  C   UNL A   1      40.916  25.423  28.480  1.00  0.00     0.029 A 
ATOM     50  N   UNL A   1      41.868  27.343  29.043  1.00  0.00    -0.354 N 
ATOM     51  C   UNL A   1      45.690  28.549  27.245  1.00  0.00     0.074 A 
ATOM     52  C   UNL A   1      45.391  28.242  25.870  1.00  0.00     0.031 C 
ATOM     53  C   UNL A   1      39.970  26.176  29.086  1.00  0.00     0.029 A 
ATOM     54  C   UNL A   1      40.549  27.462  29.441  1.00  0.00     0.049 A 
ATOM     55  H   UNL A   1      42.559  28.004  29.274  1.00  0.00     0.167 HD
ATOM     56  C   UNL A   1      46.328  29.617  27.793  1.00  0.00     0.037 A 
ATOM     57  C   UNL A   1      39.967  28.585  29.926  1.00  0.00     0.037 A 
ATOM     58  C   UNL A   1      46.597  29.430  29.192  1.00  0.00     0.049 A 
ATOM     59  C   UNL A   1      41.047  29.480  30.417  1.00  0.00     0.074 A 
ATOM     60  C   UNL A   1      47.302  28.484  29.915  1.00  0.00     0.029 A 
ATOM     61  N   UNL A   1      45.834  30.098  30.118  1.00  0.00    -0.354 N 
ATOM     62  N   UNL A   1      41.775  29.245  31.474  1.00  0.00    -0.248 NA
ATOM     63  C   UNL A   1      41.609  30.441  29.477  1.00  0.00     0.031 C 
ATOM     64  C   UNL A   1      46.553  28.299  31.114  1.00  0.00     0.029 A 
ATOM     65  C   UNL A   1      45.464  29.168  31.057  1.00  0.00     0.049 A 
ATOM     66  H   UNL A   1      45.600  31.054  30.109  1.00  0.00     0.167 HD
ATOM     67  C   UNL A   1      43.045  29.691  31.137  1.00  0.00     0.074 A 
ATOM     68  C   UNL A   1      42.860  30.503  29.939  1.00  0.00     0.031 C 
ATOM     69  C   UNL A   1      44.166  29.138  31.687  1.00  0.00     0.037 A 
BRANCH  56  70
ATOM     70  C   UNL A   1      46.428  30.947  27.105  1.00  0.00     0.064 A 
ATOM     71  C   UNL A   1      47.673  31.592  27.003  1.00  0.00     0.173 A 
ATOM     72  C   UNL A   1      45.298  31.733  26.788  1.00  0.00     0.173 A 
ATOM     73  F   UNL A   1      48.804  30.946  27.324  1.00  0.00    -0.203 F 
ATOM     74  C   UNL A   1      47.773  32.940  26.650  1.00  0.00     0.198 A 
ATOM     75  C   UNL A   1      45.406  33.059  26.381  1.00  0.00     0.198 A 
ATOM     76  F   UNL A   1      44.049  31.281  26.964  1.00  0.00    -0.203 F 
ATOM     77  F   UNL A   1      48.967  33.545  26.675  1.00  0.00    -0.200 F 
ATOM     78  C   UNL A   1      46.641  33.672  26.340  1.00  0.00     0.200 A 
ATOM     79  F   UNL A   1      44.295  33.758  26.107  1.00  0.00    -0.200 F 
ATOM     80  F   UNL A   1      46.731  34.976  26.051  1.00  0.00    -0.200 F 
ENDBRANCH  56  70
BRANCH  57  81
ATOM     81  C   UNL A   1      38.580  29.047  29.683  1.00  0.00     0.064 A 
ATOM     82  C   UNL A   1      37.753  29.440  30.746  1.00  0.00     0.173 A 
ATOM     83  C   UNL A   1      38.119  29.352  28.386  1.00  0.00     0.173 A 
ATOM     84  F   UNL A   1      38.142  29.238  32.013  1.00  0.00    -0.203 F 
ATOM     85  C   UNL A   1      36.543  30.105  30.524  1.00  0.00     0.198 A 
ATOM     86  C   UNL A   1      36.904  30.000  28.165  1.00  0.00     0.198 A 
ATOM     87  F   UNL A   1      38.876  29.112  27.306  1.00  0.00    -0.203 F 
ATOM     88  F   UNL A   1      35.807  30.518  31.565  1.00  0.00    -0.200 F 
ATOM     89  C   UNL A   1      36.121  30.388  29.235  1.00  0.00     0.200 A 
ATOM     90  F   UNL A   1      36.528  30.297  26.913  1.00  0.00    -0.200 F 
ATOM     91  F   UNL A   1      34.987  31.068  29.024  1.00  0.00    -0.200 F 
ENDBRANCH  57  81
BRANCH  69  92
ATOM     92  C   UNL A   1      43.999  28.205  32.853  1.00  0.00     0.064 A 
ATOM     93  C   UNL A   1      43.824  26.817  32.719  1.00  0.00     0.173 A 
ATOM     94  C   UNL A   1      44.184  28.709  34.149  1.00  0.00     0.173 A 
ATOM     95  F   UNL A   1      43.756  26.244  31.511  1.00  0.00    -0.203 F 
ATOM     96  C   UNL A   1      43.782  25.981  33.835  1.00  0.00     0.198 A 
ATOM     97  C   UNL A   1      44.180  27.866  35.259  1.00  0.00     0.198 A 
ATOM     98  F   UNL A   1      44.419  30.017  34.336  1.00  0.00    -0.203 F 
ATOM     99  F   UNL A   1      43.599  24.663  33.679  1.00  0.00    -0.200 F 
ATOM    100  C   UNL A   1      43.967  26.506  35.103  1.00  0.00     0.200 A 
ATOM    101  F   UNL A   1      44.413  28.371  36.479  1.00  0.00    -0.200 F 
ATOM    102  F   UNL A   1      43.971  25.698  36.171  1.00  0.00    -0.200 F 
ENDBRANCH  69  92
ENDBRANCH  43  44
ENDBRANCH  36  38
ENDBRANCH  35  36
ENDBRANCH  34  35
ENDBRANCH  33  34
ENDBRANCH  32  33
ENDBRANCH  31  32
ENDBRANCH   1  31
TORSDOF 19
ENDMDL
MODEL 2
REMARK VINA RESULT:     -11.7      1.545      2.132
REMARK SMILES CC(=O)Nc1ccc(/C=C2/CCc3oc(C(=O)OCCOCCOCCOC(=O)c4ccc(-c5c6nc(c(-c7c(F)c(F)c(F)c(F)c7F)c7ccc([nH]7)c(-c7c(F)c(F)c(F)c(F)c7F)c7nc(c(-c8c(F)c(F)c(F)c(F)c8F)c8ccc5[nH]8)C=C7)C=C6)cc4)c(C)c3C2=O)cc1
REMARK SMILES IDX 22 1 21 2 20 3 19 4 18 5 16 6 17 7 15 8 9 9 10 10 11 11
REMARK SMILES IDX 96 12 12 13 95 14 97 15 13 16 93 17 14 18 94 19 8 20 5 21
REMARK SMILES IDX 6 22 99 23 7 24 98 25 4 26 1 27 2 28 3 29 23 31 24 32 25 33
REMARK SMILES IDX 26 34 27 35 28 36 29 37 30 38 31 39 92 40 32 41 91 42 33 43
REMARK SMILES IDX 34 44 35 45 85 46 36 47 90 48 84 49 86 50 37 51 89 52 83 53
REMARK SMILES IDX 82 54 38 56 70 57 50 58 69 59 51 60 54 61 68 62 87 63 52 64
REMARK SMILES IDX 53 65 67 67 88 68 55 69 39 70 40 71 48 72 41 73 42 74 46 75
REMARK SMILES IDX 49 76 43 77 44 78 47 79 45 80 71 81 72 82 80 83 73 84 74 85
REMARK SMILES IDX 78 86 81 87 75 88 76 89 79 90 77 91 56 92 57 93 65 94 58 95
REMARK SMILES IDX 59 96 63 97 66 98 60 99 61 100 64 101 62 102
REMARK H PARENT 4 30 86 55 54 66
REMARK Flexibility Score: inf
ROOT
ATOM      1  C   UNL A   1      41.471  20.473  27.433  1.00  0.00     0.188 C 
ENDROOT
BRANCH   1   2
ATOM      2  O   UNL A   1      40.294  21.214  27.696  1.00  0.00    -0.376 OA
BRANCH   2   3
ATOM      3  C   UNL A   1      39.707  22.036  26.702  1.00  0.00     0.202 C 
BRANCH   3   4
ATOM      4  C   UNL A   1      38.808  21.497  25.574  1.00  0.00     0.261 C 
BRANCH   4   5
ATOM      5  O   UNL A   1      37.417  21.358  25.872  1.00  0.00    -0.457 OA
BRANCH   5   6
ATOM      6  C   UNL A   1      36.718  20.530  25.045  1.00  0.00     0.374 C 
ATOM      7  O   UNL A   1      36.942  19.334  24.903  1.00  0.00    -0.242 OA
BRANCH   6   8
ATOM      8  C   UNL A   1      35.571  21.223  24.499  1.00  0.00     0.215 A 
ATOM      9  C   UNL A   1      31.202  24.619  24.150  1.00  0.00     0.016 C 
ATOM     10  C   UNL A   1      31.912  23.702  23.460  1.00  0.00     0.001 C 
ATOM     11  C   UNL A   1      31.330  22.349  23.061  1.00  0.00     0.048 C 
ATOM     12  C   UNL A   1      33.368  23.819  23.126  1.00  0.00     0.192 C 
ATOM     13  C   UNL A   1      32.038  21.178  23.792  1.00  0.00     0.081 C 
ATOM     14  C   UNL A   1      34.105  22.690  23.645  1.00  0.00     0.067 A 
ATOM     15  O   UNL A   1      33.858  24.721  22.459  1.00  0.00    -0.289 OA
ATOM     16  C   UNL A   1      33.479  21.500  23.937  1.00  0.00     0.116 A 
ATOM     17  C   UNL A   1      35.476  22.505  23.961  1.00  0.00     0.014 A 
ATOM     18  O   UNL A   1      34.348  20.595  24.444  1.00  0.00    -0.453 OA
ATOM     19  C   UNL A   1      36.567  23.493  23.759  1.00  0.00     0.049 C 
BRANCH   9  20
ATOM     20  C   UNL A   1      31.580  25.878  24.838  1.00  0.00    -0.025 A 
ATOM     21  C   UNL A   1      32.160  28.437  25.941  1.00  0.00     0.041 A 
ATOM     22  C   UNL A   1      31.866  27.354  26.764  1.00  0.00     0.027 A 
ATOM     23  C   UNL A   1      32.237  28.226  24.569  1.00  0.00     0.027 A 
ATOM     24  C   UNL A   1      31.555  26.101  26.217  1.00  0.00     0.010 A 
ATOM     25  C   UNL A   1      31.958  26.963  24.027  1.00  0.00     0.010 A 
BRANCH  21  26
ATOM     26  N   UNL A   1      32.409  29.670  26.560  1.00  0.00    -0.326 N 
ATOM     27  C   UNL A   1      34.840  29.424  27.020  1.00  0.00     0.114 C 
ATOM     28  C   UNL A   1      33.528  30.143  27.185  1.00  0.00     0.221 C 
ATOM     29  O   UNL A   1      33.463  31.202  27.813  1.00  0.00    -0.275 OA
ATOM     30  H   UNL A   1      31.653  30.299  26.540  1.00  0.00     0.169 HD
ENDBRANCH  21  26
ENDBRANCH   9  20
ENDBRANCH   6   8
ENDBRANCH   5   6
ENDBRANCH   4   5
ENDBRANCH   3   4
ENDBRANCH   2   3
ENDBRANCH   1   2
BRANCH   1  31
ATOM     31  C   UNL A   1      41.532  19.416  26.310  1.00  0.00     0.188 C 
BRANCH  31  32
ATOM     32  O   UNL A   1      42.418  19.638  25.238  1.00  0.00    -0.376 OA
BRANCH  32  33
ATOM     33  C   UNL A   1      43.807  19.850  25.411  1.00  0.00     0.202 C 
BRANCH  33  34
ATOM     34  C   UNL A   1      44.547  21.174  25.239  1.00  0.00     0.261 C 
BRANCH  34  35
ATOM     35  O   UNL A   1      44.101  22.261  26.021  1.00  0.00    -0.460 OA
BRANCH  35  36
ATOM     36  C   UNL A   1      43.276  23.093  25.350  1.00  0.00     0.338 C 
ATOM     37  O   UNL A   1      43.172  23.210  24.140  1.00  0.00    -0.246 OA
BRANCH  36  38
ATOM     38  C   UNL A   1      42.554  23.939  26.301  1.00  0.00     0.060 A 
ATOM     39  C   UNL A   1      41.750  24.940  25.754  1.00  0.00     0.016 A 
ATOM     40  C   UNL A   1      42.908  23.921  27.659  1.00  0.00     0.016 A 
ATOM     41  C   UNL A   1      41.479  26.048  26.521  1.00  0.00     0.010 A 
ATOM     42  C   UNL A   1      42.639  25.033  28.425  1.00  0.00     0.010 A 
ATOM     43  C   UNL A   1      42.015  26.118  27.812  1.00  0.00    -0.014 A 
BRANCH  43  44
ATOM     44  C   UNL A   1      41.965  27.408  28.463  1.00  0.00     0.031 A 
ATOM     45  C   UNL A   1      43.066  28.334  28.130  1.00  0.00     0.074 A 
ATOM     46  C   UNL A   1      40.957  27.743  29.287  1.00  0.00     0.049 A 
ATOM     47  N   UNL A   1      43.929  28.863  28.932  1.00  0.00    -0.248 NA
ATOM     48  C   UNL A   1      43.274  28.648  26.711  1.00  0.00     0.031 C 
ATOM     49  C   UNL A   1      39.678  27.060  29.491  1.00  0.00     0.029 A 
ATOM     50  N   UNL A   1      40.841  28.861  30.051  1.00  0.00    -0.354 N 
ATOM     51  C   UNL A   1      44.707  29.701  28.144  1.00  0.00     0.074 A 
ATOM     52  C   UNL A   1      44.335  29.453  26.774  1.00  0.00     0.031 C 
ATOM     53  C   UNL A   1      38.835  27.895  30.140  1.00  0.00     0.029 A 
ATOM     54  C   UNL A   1      39.555  29.108  30.495  1.00  0.00     0.049 A 
ATOM     55  H   UNL A   1      41.604  29.444  30.268  1.00  0.00     0.167 HD
ATOM     56  C   UNL A   1      45.470  30.688  28.685  1.00  0.00     0.037 A 
ATOM     57  C   UNL A   1      39.108  30.275  31.016  1.00  0.00     0.037 A 
ATOM     58  C   UNL A   1      45.763  30.448  30.072  1.00  0.00     0.049 A 
ATOM     59  C   UNL A   1      40.290  31.046  31.484  1.00  0.00     0.074 A 
ATOM     60  C   UNL A   1      46.389  29.421  30.756  1.00  0.00     0.029 A 
ATOM     61  N   UNL A   1      45.103  31.174  31.033  1.00  0.00    -0.354 N 
ATOM     62  N   UNL A   1      41.023  30.717  32.512  1.00  0.00    -0.248 NA
ATOM     63  C   UNL A   1      40.918  31.961  30.541  1.00  0.00     0.031 C 
ATOM     64  C   UNL A   1      45.664  29.292  31.977  1.00  0.00     0.029 A 
ATOM     65  C   UNL A   1      44.669  30.269  31.970  1.00  0.00     0.049 A 
ATOM     66  H   UNL A   1      44.969  32.149  31.047  1.00  0.00     0.167 HD
ATOM     67  C   UNL A   1      42.321  31.037  32.140  1.00  0.00     0.074 A 
ATOM     68  C   UNL A   1      42.183  31.885  30.961  1.00  0.00     0.031 C 
ATOM     69  C   UNL A   1      43.395  30.361  32.643  1.00  0.00     0.037 A 
BRANCH  56  70
ATOM     70  C   UNL A   1      45.684  32.014  28.015  1.00  0.00     0.064 A 
ATOM     71  C   UNL A   1      44.595  32.876  27.802  1.00  0.00     0.173 A 
ATOM     72  C   UNL A   1      46.875  32.343  27.331  1.00  0.00     0.173 A 
ATOM     73  F   UNL A   1      43.406  32.626  28.371  1.00  0.00    -0.203 F 
ATOM     74  C   UNL A   1      44.682  33.965  26.931  1.00  0.00     0.198 A 
ATOM     75  C   UNL A   1      46.975  33.461  26.510  1.00  0.00     0.198 A 
ATOM     76  F   UNL A   1      47.946  31.538  27.347  1.00  0.00    -0.203 F 
ATOM     77  F   UNL A   1      43.590  34.693  26.669  1.00  0.00    -0.200 F 
ATOM     78  C   UNL A   1      45.871  34.256  26.287  1.00  0.00     0.200 A 
ATOM     79  F   UNL A   1      48.130  33.714  25.875  1.00  0.00    -0.200 F 
ATOM     80  F   UNL A   1      45.941  35.270  25.414  1.00  0.00    -0.200 F 
ENDBRANCH  56  70
BRANCH  57  81
ATOM     81  C   UNL A   1      37.769  30.882  30.828  1.00  0.00     0.064 A 
ATOM     82  C   UNL A   1      36.923  31.119  31.921  1.00  0.00     0.173 A 
ATOM     83  C   UNL A   1      37.391  31.473  29.605  1.00  0.00     0.173 A 
ATOM     84  F   UNL A   1      37.237  30.640  33.134  1.00  0.00    -0.203 F 
ATOM     85  C   UNL A   1      35.773  31.906  31.799  1.00  0.00     0.198 A 
ATOM     86  C   UNL A   1      36.236  32.243  29.480  1.00  0.00     0.198 A 
ATOM     87  F   UNL A   1      38.179  31.395  28.523  1.00  0.00    -0.203 F 
ATOM     88  F   UNL A   1      35.020  32.160  32.878  1.00  0.00    -0.200 F 
ATOM     89  C   UNL A   1      35.433  32.471  30.581  1.00  0.00     0.200 A 
ATOM     90  F   UNL A   1      35.940  32.812  28.302  1.00  0.00    -0.200 F 
ATOM     91  F   UNL A   1      34.359  33.265  30.475  1.00  0.00    -0.200 F 
ENDBRANCH  57  81
BRANCH  69  92
ATOM     92  C   UNL A   1      43.171  29.429  33.800  1.00  0.00     0.064 A 
ATOM     93  C   UNL A   1      42.672  28.122  33.659  1.00  0.00     0.173 A 
ATOM     94  C   UNL A   1      43.626  29.811  35.070  1.00  0.00     0.173 A 
ATOM     95  F   UNL A   1      42.325  27.641  32.459  1.00  0.00    -0.203 F 
ATOM     96  C   UNL A   1      42.583  27.260  34.751  1.00  0.00     0.198 A 
ATOM     97  C   UNL A   1      43.572  28.934  36.151  1.00  0.00     0.198 A 
ATOM     98  F   UNL A   1      44.172  31.023  35.253  1.00  0.00    -0.203 F 
ATOM     99  F   UNL A   1      42.090  26.023  34.592  1.00  0.00    -0.200 F 
ATOM    100  C   UNL A   1      43.040  27.664  35.994  1.00  0.00     0.200 A 
ATOM    101  F   UNL A   1      44.064  29.310  37.340  1.00  0.00    -0.200 F 
ATOM    102  F   UNL A   1      42.996  26.821  37.035  1.00  0.00    -0.200 F 
ENDBRANCH  69  92
ENDBRANCH  43  44
ENDBRANCH  36  38
ENDBRANCH  35  36
ENDBRANCH  34  35
ENDBRANCH  33  34
ENDBRANCH  32  33
ENDBRANCH  31  32
ENDBRANCH   1  31
TORSDOF 19
ENDMDL
MODEL 3
REMARK VINA RESULT:     -11.5      1.731      2.993
REMARK SMILES CC(=O)Nc1ccc(/C=C2/CCc3oc(C(=O)OCCOCCOCCOC(=O)c4ccc(-c5c6nc(c(-c7c(F)c(F)c(F)c(F)c7F)c7ccc([nH]7)c(-c7c(F)c(F)c(F)c(F)c7F)c7nc(c(-c8c(F)c(F)c(F)c(F)c8F)c8ccc5[nH]8)C=C7)C=C6)cc4)c(C)c3C2=O)cc1
REMARK SMILES IDX 22 1 21 2 20 3 19 4 18 5 16 6 17 7 15 8 9 9 10 10 11 11
REMARK SMILES IDX 96 12 12 13 95 14 97 15 13 16 93 17 14 18 94 19 8 20 5 21
REMARK SMILES IDX 6 22 99 23 7 24 98 25 4 26 1 27 2 28 3 29 23 31 24 32 25 33
REMARK SMILES IDX 26 34 27 35 28 36 29 37 30 38 31 39 92 40 32 41 91 42 33 43
REMARK SMILES IDX 34 44 35 45 85 46 36 47 90 48 84 49 86 50 37 51 89 52 83 53
REMARK SMILES IDX 82 54 38 56 70 57 50 58 69 59 51 60 54 61 68 62 87 63 52 64
REMARK SMILES IDX 53 65 67 67 88 68 55 69 39 70 40 71 48 72 41 73 42 74 46 75
REMARK SMILES IDX 49 76 43 77 44 78 47 79 45 80 71 81 72 82 80 83 73 84 74 85
REMARK SMILES IDX 78 86 81 87 75 88 76 89 79 90 77 91 56 92 57 93 65 94 58 95
REMARK SMILES IDX 59 96 63 97 66 98 60 99 61 100 64 101 62 102
REMARK H PARENT 4 30 86 55 54 66
REMARK Flexibility Score: inf
ROOT
ATOM      1  C   UNL A   1      38.834  23.612  26.501  1.00  0.00     0.188 C 
ENDROOT
BRANCH   1   2
ATOM      2  O   UNL A   1      37.666  23.536  25.707  1.00  0.00    -0.376 OA
BRANCH   2   3
ATOM      3  C   UNL A   1      37.427  22.427  24.857  1.00  0.00     0.202 C 
BRANCH   3   4
ATOM      4  C   UNL A   1      36.490  21.261  25.222  1.00  0.00     0.261 C 
BRANCH   4   5
ATOM      5  O   UNL A   1      35.289  21.596  25.921  1.00  0.00    -0.457 OA
BRANCH   5   6
ATOM      6  C   UNL A   1      34.128  21.268  25.287  1.00  0.00     0.374 C 
ATOM      7  O   UNL A   1      33.846  20.145  24.884  1.00  0.00    -0.242 OA
BRANCH   6   8
ATOM      8  C   UNL A   1      33.210  22.386  25.318  1.00  0.00     0.215 A 
ATOM      9  C   UNL A   1      31.001  27.293  26.653  1.00  0.00     0.016 C 
ATOM     10  C   UNL A   1      30.791  26.180  25.920  1.00  0.00     0.001 C 
ATOM     11  C   UNL A   1      29.664  25.199  26.229  1.00  0.00     0.048 C 
ATOM     12  C   UNL A   1      31.691  25.691  24.826  1.00  0.00     0.192 C 
ATOM     13  C   UNL A   1      30.207  23.823  26.697  1.00  0.00     0.081 C 
ATOM     14  C   UNL A   1      32.144  24.347  25.099  1.00  0.00     0.067 A 
ATOM     15  O   UNL A   1      31.962  26.324  23.814  1.00  0.00    -0.289 OA
ATOM     16  C   UNL A   1      31.452  23.517  25.949  1.00  0.00     0.116 A 
ATOM     17  C   UNL A   1      33.264  23.604  24.643  1.00  0.00     0.014 A 
ATOM     18  O   UNL A   1      32.072  22.322  26.089  1.00  0.00    -0.453 OA
ATOM     19  C   UNL A   1      34.278  24.056  23.656  1.00  0.00     0.049 C 
BRANCH   9  20
ATOM     20  C   UNL A   1      32.119  28.267  26.711  1.00  0.00    -0.025 A 
ATOM     21  C   UNL A   1      34.087  30.304  26.990  1.00  0.00     0.041 A 
ATOM     22  C   UNL A   1      34.446  28.960  26.988  1.00  0.00     0.027 A 
ATOM     23  C   UNL A   1      32.753  30.636  26.779  1.00  0.00     0.027 A 
ATOM     24  C   UNL A   1      33.471  27.957  26.876  1.00  0.00     0.010 A 
ATOM     25  C   UNL A   1      31.785  29.630  26.634  1.00  0.00     0.010 A 
BRANCH  21  26
ATOM     26  N   UNL A   1      35.111  31.246  27.158  1.00  0.00    -0.326 N 
ATOM     27  C   UNL A   1      34.320  32.356  29.238  1.00  0.00     0.114 C 
ATOM     28  C   UNL A   1      35.234  32.279  28.044  1.00  0.00     0.221 C 
ATOM     29  O   UNL A   1      36.150  33.091  27.896  1.00  0.00    -0.275 OA
ATOM     30  H   UNL A   1      35.867  31.147  26.536  1.00  0.00     0.169 HD
ENDBRANCH  21  26
ENDBRANCH   9  20
ENDBRANCH   6   8
ENDBRANCH   5   6
ENDBRANCH   4   5
ENDBRANCH   3   4
ENDBRANCH   2   3
ENDBRANCH   1   2
BRANCH   1  31
ATOM     31  C   UNL A   1      39.688  22.364  26.812  1.00  0.00     0.188 C 
BRANCH  31  32
ATOM     32  O   UNL A   1      40.732  22.039  25.925  1.00  0.00    -0.376 OA
BRANCH  32  33
ATOM     33  C   UNL A   1      41.573  20.912  26.094  1.00  0.00     0.202 C 
BRANCH  33  34
ATOM     34  C   UNL A   1      43.067  20.938  26.406  1.00  0.00     0.261 C 
BRANCH  34  35
ATOM     35  O   UNL A   1      43.881  20.019  25.708  1.00  0.00    -0.460 OA
BRANCH  35  36
ATOM     36  C   UNL A   1      44.425  20.538  24.587  1.00  0.00     0.338 C 
ATOM     37  O   UNL A   1      44.675  19.950  23.548  1.00  0.00    -0.246 OA
BRANCH  36  38
ATOM     38  C   UNL A   1      44.779  21.939  24.819  1.00  0.00     0.060 A 
ATOM     39  C   UNL A   1      45.660  22.189  25.872  1.00  0.00     0.016 A 
ATOM     40  C   UNL A   1      44.031  22.958  24.210  1.00  0.00     0.016 A 
ATOM     41  C   UNL A   1      45.628  23.430  26.465  1.00  0.00     0.010 A 
ATOM     42  C   UNL A   1      43.996  24.198  24.807  1.00  0.00     0.010 A 
ATOM     43  C   UNL A   1      44.722  24.381  25.983  1.00  0.00    -0.014 A 
BRANCH  43  44
ATOM     44  C   UNL A   1      44.506  25.545  26.812  1.00  0.00     0.031 A 
ATOM     45  C   UNL A   1      45.448  26.662  26.601  1.00  0.00     0.074 A 
ATOM     46  C   UNL A   1      43.489  25.609  27.689  1.00  0.00     0.049 A 
ATOM     47  N   UNL A   1      46.253  27.197  27.459  1.00  0.00    -0.248 NA
ATOM     48  C   UNL A   1      45.560  27.199  25.239  1.00  0.00     0.031 C 
ATOM     49  C   UNL A   1      42.331  24.721  27.810  1.00  0.00     0.029 A 
ATOM     50  N   UNL A   1      43.238  26.579  28.606  1.00  0.00    -0.354 N 
ATOM     51  C   UNL A   1      46.873  28.243  26.789  1.00  0.00     0.074 A 
ATOM     52  C   UNL A   1      46.494  28.135  25.403  1.00  0.00     0.031 C 
ATOM     53  C   UNL A   1      41.398  25.322  28.583  1.00  0.00     0.029 A 
ATOM     54  C   UNL A   1      41.945  26.567  29.098  1.00  0.00     0.049 A 
ATOM     55  H   UNL A   1      43.914  27.233  28.895  1.00  0.00     0.167 HD
ATOM     56  C   UNL A   1      47.502  29.247  27.456  1.00  0.00     0.037 A 
ATOM     57  C   UNL A   1      41.351  27.571  29.787  1.00  0.00     0.037 A 
ATOM     58  C   UNL A   1      47.874  28.862  28.790  1.00  0.00     0.049 A 
ATOM     59  C   UNL A   1      42.424  28.436  30.345  1.00  0.00     0.074 A 
ATOM     60  C   UNL A   1      48.665  27.854  29.312  1.00  0.00     0.029 A 
ATOM     61  N   UNL A   1      47.149  29.340  29.854  1.00  0.00    -0.354 N 
ATOM     62  N   UNL A   1      43.231  28.080  31.306  1.00  0.00    -0.248 NA
ATOM     63  C   UNL A   1      42.879  29.557  29.534  1.00  0.00     0.031 C 
ATOM     64  C   UNL A   1      48.009  27.450  30.511  1.00  0.00     0.029 A 
ATOM     65  C   UNL A   1      46.884  28.260  30.657  1.00  0.00     0.049 A 
ATOM     66  H   UNL A   1      46.875  30.273  30.009  1.00  0.00     0.167 HD
ATOM     67  C   UNL A   1      44.456  28.638  30.966  1.00  0.00     0.074 A 
ATOM     68  C   UNL A   1      44.155  29.612  29.922  1.00  0.00     0.031 C 
ATOM     69  C   UNL A   1      45.633  28.066  31.353  1.00  0.00     0.037 A 
BRANCH  56  70
ATOM     70  C   UNL A   1      47.499  30.670  26.979  1.00  0.00     0.064 A 
ATOM     71  C   UNL A   1      48.692  31.413  26.983  1.00  0.00     0.173 A 
ATOM     72  C   UNL A   1      46.312  31.409  26.780  1.00  0.00     0.173 A 
ATOM     73  F   UNL A   1      49.870  30.812  27.208  1.00  0.00    -0.203 F 
ATOM     74  C   UNL A   1      48.690  32.803  26.841  1.00  0.00     0.198 A 
ATOM     75  C   UNL A   1      46.319  32.786  26.581  1.00  0.00     0.198 A 
ATOM     76  F   UNL A   1      45.101  30.843  26.879  1.00  0.00    -0.203 F 
ATOM     77  F   UNL A   1      49.836  33.484  26.963  1.00  0.00    -0.200 F 
ATOM     78  C   UNL A   1      47.504  33.487  26.639  1.00  0.00     0.200 A 
ATOM     79  F   UNL A   1      45.157  33.434  26.411  1.00  0.00    -0.200 F 
ATOM     80  F   UNL A   1      47.496  34.824  26.553  1.00  0.00    -0.200 F 
ENDBRANCH  56  70
BRANCH  57  81
ATOM     81  C   UNL A   1      39.933  27.992  29.705  1.00  0.00     0.064 A 
ATOM     82  C   UNL A   1      39.123  28.032  30.850  1.00  0.00     0.173 A 
ATOM     83  C   UNL A   1      39.409  28.604  28.547  1.00  0.00     0.173 A 
ATOM     84  F   UNL A   1      39.567  27.522  32.008  1.00  0.00    -0.203 F 
ATOM     85  C   UNL A   1      37.870  28.654  30.839  1.00  0.00     0.198 A 
ATOM     86  C   UNL A   1      38.153  29.208  28.533  1.00  0.00     0.198 A 
ATOM     87  F   UNL A   1      40.140  28.712  27.428  1.00  0.00    -0.203 F 
ATOM     88  F   UNL A   1      37.150  28.724  31.967  1.00  0.00    -0.200 F 
ATOM     89  C   UNL A   1      37.388  29.245  29.682  1.00  0.00     0.200 A 
ATOM     90  F   UNL A   1      37.716  29.807  27.415  1.00  0.00    -0.200 F 
ATOM     91  F   UNL A   1      36.210  29.883  29.684  1.00  0.00    -0.200 F 
ENDBRANCH  57  81
BRANCH  69  92
ATOM     92  C   UNL A   1      45.587  26.958  32.367  1.00  0.00     0.064 A 
ATOM     93  C   UNL A   1      45.645  27.173  33.755  1.00  0.00     0.173 A 
ATOM     94  C   UNL A   1      45.312  25.655  31.928  1.00  0.00     0.173 A 
ATOM     95  F   UNL A   1      45.788  28.405  34.257  1.00  0.00    -0.203 F 
ATOM     96  C   UNL A   1      45.490  26.121  34.657  1.00  0.00     0.198 A 
ATOM     97  C   UNL A   1      45.119  24.613  32.833  1.00  0.00     0.198 A 
ATOM     98  F   UNL A   1      45.181  25.399  30.617  1.00  0.00    -0.203 F 
ATOM     99  F   UNL A   1      45.565  26.351  35.976  1.00  0.00    -0.200 F 
ATOM    100  C   UNL A   1      45.220  24.844  34.195  1.00  0.00     0.200 A 
ATOM    101  F   UNL A   1      44.805  23.389  32.383  1.00  0.00    -0.200 F 
ATOM    102  F   UNL A   1      45.027  23.841  35.063  1.00  0.00    -0.200 F 
ENDBRANCH  69  92
ENDBRANCH  43  44
ENDBRANCH  36  38
ENDBRANCH  35  36
ENDBRANCH  34  35
ENDBRANCH  33  34
ENDBRANCH  32  33
ENDBRANCH  31  32
ENDBRANCH   1  31
TORSDOF 19
ENDMDL
