MODEL 1
REMARK VINA RESULT:     -10.6      0.000      0.000
REMARK SMILES C[C@@H](C(=O)OCCOCCOCCOC(=O)c1ccc(-c2c3nc(c(-c4c(F)c(F)c(F)c(F)c4F)c4ccc([nH]4)c(-c4c(F)c(F)c(F)c(F)c4F)c4nc(c(-c5c(F)c(F)c(F)c(F)c5F)c5ccc2[nH]5)C=C4)C=C3)cc1)c1ccc(Cc2ccco2)cc1F
REMARK SMILES IDX 9 1 8 2 7 3 6 4 5 5 3 6 4 7 2 8 1 9 80 10 81 11 91 12 82 13
REMARK SMILES IDX 90 14 92 15 83 16 84 17 85 18 86 19 89 20 87 21 88 22 10 23
REMARK SMILES IDX 11 24 12 25 13 26 14 27 15 28 16 29 17 30 18 31 79 32 19 33
REMARK SMILES IDX 78 34 20 35 21 36 22 37 72 38 23 39 77 40 71 41 73 42 24 43
REMARK SMILES IDX 76 44 70 45 69 46 25 48 57 49 37 50 56 51 38 52 41 53 55 54
REMARK SMILES IDX 74 55 39 56 40 57 54 59 75 60 42 61 26 62 27 63 35 64 28 65
REMARK SMILES IDX 29 66 33 67 36 68 30 69 31 70 34 71 32 72 58 73 59 74 67 75
REMARK SMILES IDX 60 76 61 77 65 78 68 79 62 80 63 81 66 82 64 83 43 84 44 85
REMARK SMILES IDX 52 86 45 87 46 88 50 89 53 90 47 91 48 92 51 93 49 94
REMARK H PARENT 73 47 41 58
REMARK Flexibility Score: inf
ROOT
ATOM      1  C   UNL A   1      31.786  28.034  26.432  1.00  0.00     0.188 C 
ENDROOT
BRANCH   1   2
ATOM      2  O   UNL A   1      31.025  26.971  26.995  1.00  0.00    -0.376 OA
BRANCH   2   3
ATOM      3  C   UNL A   1      30.603  25.912  26.136  1.00  0.00     0.202 C 
BRANCH   3   4
ATOM      4  C   UNL A   1      30.094  26.249  24.719  1.00  0.00     0.261 C 
BRANCH   4   5
ATOM      5  O   UNL A   1      30.725  25.494  23.660  1.00  0.00    -0.463 OA
BRANCH   5   6
ATOM      6  C   UNL A   1      31.473  26.192  22.762  1.00  0.00     0.313 C 
ATOM      7  O   UNL A   1      31.029  26.627  21.704  1.00  0.00    -0.252 OA
BRANCH   6   8
ATOM      8  C   UNL A   1      32.911  26.484  23.237  1.00  0.00     0.129 C 
ATOM      9  C   UNL A   1      33.651  27.523  22.376  1.00  0.00     0.025 C 
BRANCH   8  10
ATOM     10  C   UNL A   1      33.727  25.235  23.611  1.00  0.00     0.002 A 
ATOM     11  C   UNL A   1      33.818  24.124  22.757  1.00  0.00     0.008 A 
ATOM     12  C   UNL A   1      34.307  25.090  24.879  1.00  0.00     0.127 A 
ATOM     13  C   UNL A   1      34.429  22.928  23.164  1.00  0.00     0.005 A 
ATOM     14  C   UNL A   1      34.888  23.888  25.305  1.00  0.00     0.043 A 
ATOM     15  F   UNL A   1      34.283  26.105  25.755  1.00  0.00    -0.207 F 
ATOM     16  C   UNL A   1      34.913  22.771  24.465  1.00  0.00    -0.038 A 
BRANCH  16  17
ATOM     17  C   UNL A   1      35.430  21.435  24.964  1.00  0.00     0.111 C 
BRANCH  17  18
ATOM     18  C   UNL A   1      34.405  20.345  25.009  1.00  0.00     0.108 A 
ATOM     19  C   UNL A   1      33.090  20.260  25.430  1.00  0.00     0.046 A 
ATOM     20  O   UNL A   1      34.793  19.137  24.501  1.00  0.00    -0.469 OA
ATOM     21  C   UNL A   1      32.668  18.930  25.193  1.00  0.00     0.042 A 
ATOM     22  C   UNL A   1      33.738  18.289  24.619  1.00  0.00     0.195 A 
ENDBRANCH  17  18
ENDBRANCH  16  17
ENDBRANCH   8  10
ENDBRANCH   6   8
ENDBRANCH   5   6
ENDBRANCH   4   5
ENDBRANCH   3   4
ENDBRANCH   2   3
ENDBRANCH   1   2
BRANCH   1  23
ATOM     23  C   UNL A   1      31.990  29.318  27.251  1.00  0.00     0.188 C 
BRANCH  23  24
ATOM     24  O   UNL A   1      32.943  30.204  26.717  1.00  0.00    -0.376 OA
BRANCH  24  25
ATOM     25  C   UNL A   1      33.406  31.281  27.510  1.00  0.00     0.202 C 
BRANCH  25  26
ATOM     26  C   UNL A   1      32.610  32.594  27.648  1.00  0.00     0.261 C 
BRANCH  26  27
ATOM     27  O   UNL A   1      33.326  33.829  27.500  1.00  0.00    -0.460 OA
BRANCH  27  28
ATOM     28  C   UNL A   1      33.375  34.652  28.572  1.00  0.00     0.338 C 
ATOM     29  O   UNL A   1      32.531  35.467  28.917  1.00  0.00    -0.246 OA
BRANCH  28  30
ATOM     30  C   UNL A   1      34.526  34.232  29.404  1.00  0.00     0.060 A 
ATOM     31  C   UNL A   1      35.826  34.373  28.895  1.00  0.00     0.016 A 
ATOM     32  C   UNL A   1      34.322  33.721  30.686  1.00  0.00     0.016 A 
ATOM     33  C   UNL A   1      36.927  33.987  29.663  1.00  0.00     0.010 A 
ATOM     34  C   UNL A   1      35.423  33.307  31.443  1.00  0.00     0.010 A 
ATOM     35  C   UNL A   1      36.728  33.412  30.925  1.00  0.00    -0.014 A 
BRANCH  35  36
ATOM     36  C   UNL A   1      37.853  32.743  31.625  1.00  0.00     0.031 A 
ATOM     37  C   UNL A   1      38.504  31.562  30.959  1.00  0.00     0.074 A 
ATOM     38  C   UNL A   1      38.289  33.164  32.824  1.00  0.00     0.049 A 
ATOM     39  N   UNL A   1      39.444  30.767  31.403  1.00  0.00    -0.248 NA
ATOM     40  C   UNL A   1      38.016  31.225  29.612  1.00  0.00     0.031 C 
ATOM     41  C   UNL A   1      37.760  34.310  33.560  1.00  0.00     0.029 A 
ATOM     42  N   UNL A   1      39.281  32.669  33.635  1.00  0.00    -0.354 N 
ATOM     43  C   UNL A   1      39.639  29.822  30.405  1.00  0.00     0.074 A 
ATOM     44  C   UNL A   1      38.710  30.131  29.339  1.00  0.00     0.031 C 
ATOM     45  C   UNL A   1      38.440  34.434  34.715  1.00  0.00     0.029 A 
ATOM     46  C   UNL A   1      39.421  33.354  34.817  1.00  0.00     0.049 A 
ATOM     47  H   UNL A   1      39.838  31.895  33.392  1.00  0.00     0.167 HD
ATOM     48  C   UNL A   1      40.512  28.788  30.380  1.00  0.00     0.037 A 
ATOM     49  C   UNL A   1      40.235  33.119  35.866  1.00  0.00     0.037 A 
ATOM     50  C   UNL A   1      41.437  28.482  31.439  1.00  0.00     0.049 A 
ATOM     51  C   UNL A   1      41.160  31.925  35.836  1.00  0.00     0.074 A 
ATOM     52  C   UNL A   1      42.376  27.468  31.497  1.00  0.00     0.029 A 
ATOM     53  N   UNL A   1      41.532  29.183  32.632  1.00  0.00    -0.354 N 
ATOM     54  N   UNL A   1      41.354  31.046  34.882  1.00  0.00    -0.248 NA
ATOM     55  C   UNL A   1      41.969  31.684  37.040  1.00  0.00     0.031 C 
ATOM     56  C   UNL A   1      42.994  27.514  32.751  1.00  0.00     0.029 A 
ATOM     57  C   UNL A   1      42.493  28.603  33.446  1.00  0.00     0.049 A 
ATOM     58  H   UNL A   1      40.997  29.976  32.866  1.00  0.00     0.167 HD
ATOM     59  C   UNL A   1      42.324  30.171  35.357  1.00  0.00     0.074 A 
ATOM     60  C   UNL A   1      42.692  30.633  36.678  1.00  0.00     0.031 C 
ATOM     61  C   UNL A   1      42.860  29.079  34.755  1.00  0.00     0.037 A 
BRANCH  48  62
ATOM     62  C   UNL A   1      40.479  27.879  29.184  1.00  0.00     0.064 A 
ATOM     63  C   UNL A   1      39.672  26.732  29.143  1.00  0.00     0.173 A 
ATOM     64  C   UNL A   1      41.245  28.182  28.047  1.00  0.00     0.173 A 
ATOM     65  F   UNL A   1      38.934  26.389  30.209  1.00  0.00    -0.203 F 
ATOM     66  C   UNL A   1      39.654  25.908  28.021  1.00  0.00     0.198 A 
ATOM     67  C   UNL A   1      41.197  27.375  26.914  1.00  0.00     0.198 A 
ATOM     68  F   UNL A   1      42.033  29.268  28.031  1.00  0.00    -0.203 F 
ATOM     69  F   UNL A   1      38.915  24.791  28.024  1.00  0.00    -0.200 F 
ATOM     70  C   UNL A   1      40.408  26.236  26.904  1.00  0.00     0.200 A 
ATOM     71  F   UNL A   1      41.916  27.702  25.831  1.00  0.00    -0.200 F 
ATOM     72  F   UNL A   1      40.381  25.448  25.820  1.00  0.00    -0.200 F 
ENDBRANCH  48  62
BRANCH  49  73
ATOM     73  C   UNL A   1      40.207  34.017  37.054  1.00  0.00     0.064 A 
ATOM     74  C   UNL A   1      41.070  35.120  37.146  1.00  0.00     0.173 A 
ATOM     75  C   UNL A   1      39.349  33.772  38.136  1.00  0.00     0.173 A 
ATOM     76  F   UNL A   1      41.937  35.377  36.156  1.00  0.00    -0.203 F 
ATOM     77  C   UNL A   1      41.090  35.927  38.282  1.00  0.00     0.198 A 
ATOM     78  C   UNL A   1      39.346  34.601  39.256  1.00  0.00     0.198 A 
ATOM     79  F   UNL A   1      38.508  32.728  38.104  1.00  0.00    -0.203 F 
ATOM     80  F   UNL A   1      41.967  36.937  38.370  1.00  0.00    -0.200 F 
ATOM     81  C   UNL A   1      40.223  35.671  39.333  1.00  0.00     0.200 A 
ATOM     82  F   UNL A   1      38.497  34.356  40.264  1.00  0.00    -0.200 F 
ATOM     83  F   UNL A   1      40.243  36.447  40.425  1.00  0.00    -0.200 F 
ENDBRANCH  49  73
BRANCH  61  84
ATOM     84  C   UNL A   1      43.937  28.333  35.493  1.00  0.00     0.064 A 
ATOM     85  C   UNL A   1      43.645  27.267  36.357  1.00  0.00     0.173 A 
ATOM     86  C   UNL A   1      45.289  28.660  35.294  1.00  0.00     0.173 A 
ATOM     87  F   UNL A   1      42.371  26.918  36.592  1.00  0.00    -0.203 F 
ATOM     88  C   UNL A   1      44.661  26.577  37.016  1.00  0.00     0.198 A 
ATOM     89  C   UNL A   1      46.303  27.946  35.925  1.00  0.00     0.198 A 
ATOM     90  F   UNL A   1      45.628  29.664  34.470  1.00  0.00    -0.203 F 
ATOM     91  F   UNL A   1      44.354  25.597  37.877  1.00  0.00    -0.200 F 
ATOM     92  C   UNL A   1      45.989  26.912  36.793  1.00  0.00     0.200 A 
ATOM     93  F   UNL A   1      47.585  28.258  35.693  1.00  0.00    -0.200 F 
ATOM     94  F   UNL A   1      46.965  26.241  37.419  1.00  0.00    -0.200 F 
ENDBRANCH  61  84
ENDBRANCH  35  36
ENDBRANCH  28  30
ENDBRANCH  27  28
ENDBRANCH  26  27
ENDBRANCH  25  26
ENDBRANCH  24  25
ENDBRANCH  23  24
ENDBRANCH   1  23
TORSDOF 20
ENDMDL
MODEL 2
REMARK VINA RESULT:     -10.6      4.872      9.267
REMARK SMILES C[C@@H](C(=O)OCCOCCOCCOC(=O)c1ccc(-c2c3nc(c(-c4c(F)c(F)c(F)c(F)c4F)c4ccc([nH]4)c(-c4c(F)c(F)c(F)c(F)c4F)c4nc(c(-c5c(F)c(F)c(F)c(F)c5F)c5ccc2[nH]5)C=C4)C=C3)cc1)c1ccc(Cc2ccco2)cc1F
REMARK SMILES IDX 9 1 8 2 7 3 6 4 5 5 3 6 4 7 2 8 1 9 80 10 81 11 91 12 82 13
REMARK SMILES IDX 90 14 92 15 83 16 84 17 85 18 86 19 89 20 87 21 88 22 10 23
REMARK SMILES IDX 11 24 12 25 13 26 14 27 15 28 16 29 17 30 18 31 79 32 19 33
REMARK SMILES IDX 78 34 20 35 21 36 22 37 72 38 23 39 77 40 71 41 73 42 24 43
REMARK SMILES IDX 76 44 70 45 69 46 25 48 57 49 37 50 56 51 38 52 41 53 55 54
REMARK SMILES IDX 74 55 39 56 40 57 54 59 75 60 42 61 26 62 27 63 35 64 28 65
REMARK SMILES IDX 29 66 33 67 36 68 30 69 31 70 34 71 32 72 58 73 59 74 67 75
REMARK SMILES IDX 60 76 61 77 65 78 68 79 62 80 63 81 66 82 64 83 43 84 44 85
REMARK SMILES IDX 52 86 45 87 46 88 50 89 53 90 47 91 48 92 51 93 49 94
REMARK H PARENT 73 47 41 58
REMARK Flexibility Score: inf
ROOT
ATOM      1  C   UNL A   1      35.523  20.637  25.019  1.00  0.00     0.188 C 
ENDROOT
BRANCH   1   2
ATOM      2  O   UNL A   1      34.353  21.200  25.601  1.00  0.00    -0.376 OA
BRANCH   2   3
ATOM      3  C   UNL A   1      34.509  22.267  26.537  1.00  0.00     0.202 C 
BRANCH   3   4
ATOM      4  C   UNL A   1      33.259  22.853  27.226  1.00  0.00     0.261 C 
BRANCH   4   5
ATOM      5  O   UNL A   1      32.004  22.333  26.735  1.00  0.00    -0.463 OA
BRANCH   5   6
ATOM      6  C   UNL A   1      31.042  23.238  26.408  1.00  0.00     0.313 C 
ATOM      7  O   UNL A   1      30.312  23.777  27.234  1.00  0.00    -0.252 OA
BRANCH   6   8
ATOM      8  C   UNL A   1      31.015  23.612  24.913  1.00  0.00     0.129 C 
ATOM      9  C   UNL A   1      31.585  22.522  23.988  1.00  0.00     0.025 C 
BRANCH   8  10
ATOM     10  C   UNL A   1      31.476  25.046  24.604  1.00  0.00     0.002 A 
ATOM     11  C   UNL A   1      32.788  25.334  24.195  1.00  0.00     0.008 A 
ATOM     12  C   UNL A   1      30.648  26.152  24.849  1.00  0.00     0.127 A 
ATOM     13  C   UNL A   1      33.250  26.652  24.067  1.00  0.00     0.005 A 
ATOM     14  C   UNL A   1      31.112  27.471  24.756  1.00  0.00     0.043 A 
ATOM     15  F   UNL A   1      29.375  25.973  25.227  1.00  0.00    -0.207 F 
ATOM     16  C   UNL A   1      32.440  27.738  24.409  1.00  0.00    -0.038 A 
BRANCH  16  17
ATOM     17  C   UNL A   1      32.978  29.156  24.427  1.00  0.00     0.111 C 
BRANCH  17  18
ATOM     18  C   UNL A   1      33.401  29.647  25.777  1.00  0.00     0.108 A 
ATOM     19  C   UNL A   1      32.894  30.558  26.686  1.00  0.00     0.046 A 
ATOM     20  O   UNL A   1      34.528  29.074  26.296  1.00  0.00    -0.469 OA
ATOM     21  C   UNL A   1      33.771  30.561  27.797  1.00  0.00     0.042 A 
ATOM     22  C   UNL A   1      34.745  29.635  27.513  1.00  0.00     0.195 A 
ENDBRANCH  17  18
ENDBRANCH  16  17
ENDBRANCH   8  10
ENDBRANCH   6   8
ENDBRANCH   5   6
ENDBRANCH   4   5
ENDBRANCH   3   4
ENDBRANCH   2   3
ENDBRANCH   1   2
BRANCH   1  23
ATOM     23  C   UNL A   1      36.628  21.575  24.512  1.00  0.00     0.188 C 
BRANCH  23  24
ATOM     24  O   UNL A   1      37.922  21.240  24.949  1.00  0.00    -0.376 OA
BRANCH  24  25
ATOM     25  C   UNL A   1      38.304  19.878  24.998  1.00  0.00     0.202 C 
BRANCH  25  26
ATOM     26  C   UNL A   1      39.606  19.418  25.683  1.00  0.00     0.261 C 
BRANCH  26  27
ATOM     27  O   UNL A   1      39.956  20.032  26.932  1.00  0.00    -0.460 OA
BRANCH  27  28
ATOM     28  C   UNL A   1      41.269  20.261  27.167  1.00  0.00     0.338 C 
ATOM     29  O   UNL A   1      42.197  19.486  26.987  1.00  0.00    -0.246 OA
BRANCH  28  30
ATOM     30  C   UNL A   1      41.423  21.704  27.457  1.00  0.00     0.060 A 
ATOM     31  C   UNL A   1      40.736  22.639  26.667  1.00  0.00     0.016 A 
ATOM     32  C   UNL A   1      42.225  22.131  28.516  1.00  0.00     0.016 A 
ATOM     33  C   UNL A   1      40.864  24.006  26.925  1.00  0.00     0.010 A 
ATOM     34  C   UNL A   1      42.376  23.501  28.755  1.00  0.00     0.010 A 
ATOM     35  C   UNL A   1      41.720  24.445  27.944  1.00  0.00    -0.014 A 
BRANCH  35  36
ATOM     36  C   UNL A   1      42.083  25.881  28.044  1.00  0.00     0.031 A 
ATOM     37  C   UNL A   1      43.385  26.329  27.440  1.00  0.00     0.074 A 
ATOM     38  C   UNL A   1      41.285  26.769  28.660  1.00  0.00     0.049 A 
ATOM     39  N   UNL A   1      43.957  27.506  27.468  1.00  0.00    -0.248 NA
ATOM     40  C   UNL A   1      44.152  25.304  26.715  1.00  0.00     0.031 C 
ATOM     41  C   UNL A   1      39.989  26.466  29.262  1.00  0.00     0.029 A 
ATOM     42  N   UNL A   1      41.454  28.114  28.880  1.00  0.00    -0.354 N 
ATOM     43  C   UNL A   1      45.160  27.356  26.792  1.00  0.00     0.074 A 
ATOM     44  C   UNL A   1      45.245  25.971  26.379  1.00  0.00     0.031 C 
ATOM     45  C   UNL A   1      39.476  27.597  29.779  1.00  0.00     0.029 A 
ATOM     46  C   UNL A   1      40.425  28.694  29.581  1.00  0.00     0.049 A 
ATOM     47  H   UNL A   1      42.241  28.616  28.566  1.00  0.00     0.167 HD
ATOM     48  C   UNL A   1      46.111  28.286  26.541  1.00  0.00     0.037 A 
ATOM     49  C   UNL A   1      40.280  29.957  30.027  1.00  0.00     0.037 A 
ATOM     50  C   UNL A   1      46.024  29.663  26.951  1.00  0.00     0.049 A 
ATOM     51  C   UNL A   1      41.381  30.963  29.782  1.00  0.00     0.074 A 
ATOM     52  C   UNL A   1      46.926  30.687  26.725  1.00  0.00     0.029 A 
ATOM     53  N   UNL A   1      44.978  30.207  27.682  1.00  0.00    -0.354 N 
ATOM     54  N   UNL A   1      42.507  30.820  29.126  1.00  0.00    -0.248 NA
ATOM     55  C   UNL A   1      41.192  32.304  30.355  1.00  0.00     0.031 C 
ATOM     56  C   UNL A   1      46.459  31.834  27.375  1.00  0.00     0.029 A 
ATOM     57  C   UNL A   1      45.228  31.545  27.942  1.00  0.00     0.049 A 
ATOM     58  H   UNL A   1      44.176  29.714  27.972  1.00  0.00     0.167 HD
ATOM     59  C   UNL A   1      43.144  32.054  29.182  1.00  0.00     0.074 A 
ATOM     60  C   UNL A   1      42.272  32.941  29.922  1.00  0.00     0.031 C 
ATOM     61  C   UNL A   1      44.346  32.421  28.670  1.00  0.00     0.037 A 
BRANCH  48  62
ATOM     62  C   UNL A   1      47.352  27.837  25.825  1.00  0.00     0.064 A 
ATOM     63  C   UNL A   1      48.512  27.456  26.514  1.00  0.00     0.173 A 
ATOM     64  C   UNL A   1      47.366  27.755  24.423  1.00  0.00     0.173 A 
ATOM     65  F   UNL A   1      48.556  27.530  27.853  1.00  0.00    -0.203 F 
ATOM     66  C   UNL A   1      49.649  27.036  25.828  1.00  0.00     0.198 A 
ATOM     67  C   UNL A   1      48.492  27.302  23.742  1.00  0.00     0.198 A 
ATOM     68  F   UNL A   1      46.283  28.105  23.713  1.00  0.00    -0.203 F 
ATOM     69  F   UNL A   1      50.762  26.727  26.506  1.00  0.00    -0.200 F 
ATOM     70  C   UNL A   1      49.635  26.951  24.444  1.00  0.00     0.200 A 
ATOM     71  F   UNL A   1      48.471  27.207  22.405  1.00  0.00    -0.200 F 
ATOM     72  F   UNL A   1      50.726  26.537  23.785  1.00  0.00    -0.200 F 
ENDBRANCH  48  62
BRANCH  49  73
ATOM     73  C   UNL A   1      39.053  30.355  30.773  1.00  0.00     0.064 A 
ATOM     74  C   UNL A   1      37.935  30.871  30.102  1.00  0.00     0.173 A 
ATOM     75  C   UNL A   1      38.987  30.264  32.171  1.00  0.00     0.173 A 
ATOM     76  F   UNL A   1      37.960  31.014  28.769  1.00  0.00    -0.203 F 
ATOM     77  C   UNL A   1      36.809  31.301  30.801  1.00  0.00     0.198 A 
ATOM     78  C   UNL A   1      37.847  30.661  32.867  1.00  0.00     0.198 A 
ATOM     79  F   UNL A   1      40.030  29.784  32.864  1.00  0.00    -0.203 F 
ATOM     80  F   UNL A   1      35.779  31.847  30.141  1.00  0.00    -0.200 F 
ATOM     81  C   UNL A   1      36.763  31.189  32.182  1.00  0.00     0.200 A 
ATOM     82  F   UNL A   1      37.803  30.540  34.201  1.00  0.00    -0.200 F 
ATOM     83  F   UNL A   1      35.680  31.602  32.855  1.00  0.00    -0.200 F 
ENDBRANCH  49  73
BRANCH  61  84
ATOM     84  C   UNL A   1      44.773  33.853  28.846  1.00  0.00     0.064 A 
ATOM     85  C   UNL A   1      44.422  34.851  27.924  1.00  0.00     0.173 A 
ATOM     86  C   UNL A   1      45.504  34.239  29.981  1.00  0.00     0.173 A 
ATOM     87  F   UNL A   1      43.733  34.536  26.817  1.00  0.00    -0.203 F 
ATOM     88  C   UNL A   1      44.813  36.175  28.117  1.00  0.00     0.198 A 
ATOM     89  C   UNL A   1      45.862  35.568  30.188  1.00  0.00     0.198 A 
ATOM     90  F   UNL A   1      45.858  33.329  30.901  1.00  0.00    -0.203 F 
ATOM     91  F   UNL A   1      44.512  37.101  27.197  1.00  0.00    -0.200 F 
ATOM     92  C   UNL A   1      45.525  36.534  29.252  1.00  0.00     0.200 A 
ATOM     93  F   UNL A   1      46.532  35.915  31.296  1.00  0.00    -0.200 F 
ATOM     94  F   UNL A   1      45.891  37.809  29.441  1.00  0.00    -0.200 F 
ENDBRANCH  61  84
ENDBRANCH  35  36
ENDBRANCH  28  30
ENDBRANCH  27  28
ENDBRANCH  26  27
ENDBRANCH  25  26
ENDBRANCH  24  25
ENDBRANCH  23  24
ENDBRANCH   1  23
TORSDOF 20
ENDMDL
MODEL 3
REMARK VINA RESULT:     -10.5      0.979      7.299
REMARK SMILES C[C@@H](C(=O)OCCOCCOCCOC(=O)c1ccc(-c2c3nc(c(-c4c(F)c(F)c(F)c(F)c4F)c4ccc([nH]4)c(-c4c(F)c(F)c(F)c(F)c4F)c4nc(c(-c5c(F)c(F)c(F)c(F)c5F)c5ccc2[nH]5)C=C4)C=C3)cc1)c1ccc(Cc2ccco2)cc1F
REMARK SMILES IDX 9 1 8 2 7 3 6 4 5 5 3 6 4 7 2 8 1 9 80 10 81 11 91 12 82 13
REMARK SMILES IDX 90 14 92 15 83 16 84 17 85 18 86 19 89 20 87 21 88 22 10 23
REMARK SMILES IDX 11 24 12 25 13 26 14 27 15 28 16 29 17 30 18 31 79 32 19 33
REMARK SMILES IDX 78 34 20 35 21 36 22 37 72 38 23 39 77 40 71 41 73 42 24 43
REMARK SMILES IDX 76 44 70 45 69 46 25 48 57 49 37 50 56 51 38 52 41 53 55 54
REMARK SMILES IDX 74 55 39 56 40 57 54 59 75 60 42 61 26 62 27 63 35 64 28 65
REMARK SMILES IDX 29 66 33 67 36 68 30 69 31 70 34 71 32 72 58 73 59 74 67 75
REMARK SMILES IDX 60 76 61 77 65 78 68 79 62 80 63 81 66 82 64 83 43 84 44 85
REMARK SMILES IDX 52 86 45 87 46 88 50 89 53 90 47 91 48 92 51 93 49 94
REMARK H PARENT 73 47 41 58
REMARK Flexibility Score: inf
ROOT
ATOM      1  C   UNL A   1      31.829  27.643  26.922  1.00  0.00     0.188 C 
ENDROOT
BRANCH   1   2
ATOM      2  O   UNL A   1      30.658  26.836  26.892  1.00  0.00    -0.376 OA
BRANCH   2   3
ATOM      3  C   UNL A   1      30.605  25.753  25.964  1.00  0.00     0.202 C 
BRANCH   3   4
ATOM      4  C   UNL A   1      29.960  25.977  24.581  1.00  0.00     0.261 C 
BRANCH   4   5
ATOM      5  O   UNL A   1      30.803  25.624  23.462  1.00  0.00    -0.463 OA
BRANCH   5   6
ATOM      6  C   UNL A   1      31.441  26.641  22.820  1.00  0.00     0.313 C 
ATOM      7  O   UNL A   1      30.898  27.366  21.994  1.00  0.00    -0.252 OA
BRANCH   6   8
ATOM      8  C   UNL A   1      32.888  26.875  23.301  1.00  0.00     0.129 C 
ATOM      9  C   UNL A   1      33.640  27.956  22.504  1.00  0.00     0.025 C 
BRANCH   8  10
ATOM     10  C   UNL A   1      33.683  25.590  23.584  1.00  0.00     0.002 A 
ATOM     11  C   UNL A   1      33.754  24.539  22.655  1.00  0.00     0.008 A 
ATOM     12  C   UNL A   1      34.264  25.347  24.837  1.00  0.00     0.127 A 
ATOM     13  C   UNL A   1      34.345  23.308  22.975  1.00  0.00     0.005 A 
ATOM     14  C   UNL A   1      34.826  24.110  25.177  1.00  0.00     0.043 A 
ATOM     15  F   UNL A   1      34.260  26.299  25.781  1.00  0.00    -0.207 F 
ATOM     16  C   UNL A   1      34.830  23.053  24.261  1.00  0.00    -0.038 A 
BRANCH  16  17
ATOM     17  C   UNL A   1      35.326  21.677  24.664  1.00  0.00     0.111 C 
BRANCH  17  18
ATOM     18  C   UNL A   1      34.294  20.594  24.592  1.00  0.00     0.108 A 
ATOM     19  C   UNL A   1      32.918  20.567  24.450  1.00  0.00     0.046 A 
ATOM     20  O   UNL A   1      34.766  19.313  24.641  1.00  0.00    -0.469 OA
ATOM     21  C   UNL A   1      32.533  19.205  24.443  1.00  0.00     0.042 A 
ATOM     22  C   UNL A   1      33.696  18.482  24.554  1.00  0.00     0.195 A 
ENDBRANCH  17  18
ENDBRANCH  16  17
ENDBRANCH   8  10
ENDBRANCH   6   8
ENDBRANCH   5   6
ENDBRANCH   4   5
ENDBRANCH   3   4
ENDBRANCH   2   3
ENDBRANCH   1   2
BRANCH   1  23
ATOM     23  C   UNL A   1      31.788  29.038  26.278  1.00  0.00     0.188 C 
BRANCH  23  24
ATOM     24  O   UNL A   1      31.805  30.104  27.196  1.00  0.00    -0.376 OA
BRANCH  24  25
ATOM     25  C   UNL A   1      32.604  31.240  26.920  1.00  0.00     0.202 C 
BRANCH  25  26
ATOM     26  C   UNL A   1      32.130  32.670  27.248  1.00  0.00     0.261 C 
BRANCH  26  27
ATOM     27  O   UNL A   1      33.105  33.721  27.216  1.00  0.00    -0.460 OA
BRANCH  27  28
ATOM     28  C   UNL A   1      33.265  34.456  28.341  1.00  0.00     0.338 C 
ATOM     29  O   UNL A   1      32.529  35.339  28.757  1.00  0.00    -0.246 OA
BRANCH  28  30
ATOM     30  C   UNL A   1      34.367  33.845  29.118  1.00  0.00     0.060 A 
ATOM     31  C   UNL A   1      35.692  34.216  28.838  1.00  0.00     0.016 A 
ATOM     32  C   UNL A   1      34.093  32.927  30.133  1.00  0.00     0.016 A 
ATOM     33  C   UNL A   1      36.747  33.655  29.561  1.00  0.00     0.010 A 
ATOM     34  C   UNL A   1      35.152  32.344  30.837  1.00  0.00     0.010 A 
ATOM     35  C   UNL A   1      36.484  32.684  30.536  1.00  0.00    -0.014 A 
BRANCH  35  36
ATOM     36  C   UNL A   1      37.595  31.881  31.106  1.00  0.00     0.031 A 
ATOM     37  C   UNL A   1      38.002  32.140  32.530  1.00  0.00     0.074 A 
ATOM     38  C   UNL A   1      38.234  30.948  30.381  1.00  0.00     0.049 A 
ATOM     39  N   UNL A   1      38.989  31.629  33.222  1.00  0.00    -0.248 NA
ATOM     40  C   UNL A   1      37.192  33.119  33.270  1.00  0.00     0.031 C 
ATOM     41  C   UNL A   1      37.919  30.586  29.002  1.00  0.00     0.029 A 
ATOM     42  N   UNL A   1      39.290  30.134  30.712  1.00  0.00    -0.354 N 
ATOM     43  C   UNL A   1      38.934  32.244  34.465  1.00  0.00     0.074 A 
ATOM     44  C   UNL A   1      37.829  33.178  34.429  1.00  0.00     0.031 C 
ATOM     45  C   UNL A   1      38.761  29.614  28.606  1.00  0.00     0.029 A 
ATOM     46  C   UNL A   1      39.700  29.316  29.687  1.00  0.00     0.049 A 
ATOM     47  H   UNL A   1      39.714  30.137  31.600  1.00  0.00     0.167 HD
ATOM     48  C   UNL A   1      39.735  32.051  35.539  1.00  0.00     0.037 A 
ATOM     49  C   UNL A   1      40.726  28.445  29.628  1.00  0.00     0.037 A 
ATOM     50  C   UNL A   1      40.832  31.122  35.575  1.00  0.00     0.049 A 
ATOM     51  C   UNL A   1      41.639  28.289  30.822  1.00  0.00     0.074 A 
ATOM     52  C   UNL A   1      41.689  30.839  36.625  1.00  0.00     0.029 A 
ATOM     53  N   UNL A   1      41.233  30.329  34.509  1.00  0.00    -0.354 N 
ATOM     54  N   UNL A   1      41.572  28.860  32.000  1.00  0.00    -0.248 NA
ATOM     55  C   UNL A   1      42.782  27.377  30.667  1.00  0.00     0.031 C 
ATOM     56  C   UNL A   1      42.647  29.925  36.174  1.00  0.00     0.029 A 
ATOM     57  C   UNL A   1      42.343  29.581  34.867  1.00  0.00     0.049 A 
ATOM     58  H   UNL A   1      40.792  30.302  33.629  1.00  0.00     0.167 HD
ATOM     59  C   UNL A   1      42.639  28.355  32.734  1.00  0.00     0.074 A 
ATOM     60  C   UNL A   1      43.330  27.418  31.874  1.00  0.00     0.031 C 
ATOM     61  C   UNL A   1      43.017  28.642  34.005  1.00  0.00     0.037 A 
BRANCH  48  62
ATOM     62  C   UNL A   1      39.483  32.896  36.756  1.00  0.00     0.064 A 
ATOM     63  C   UNL A   1      40.189  34.084  36.996  1.00  0.00     0.173 A 
ATOM     64  C   UNL A   1      38.492  32.525  37.678  1.00  0.00     0.173 A 
ATOM     65  F   UNL A   1      41.157  34.475  36.154  1.00  0.00    -0.203 F 
ATOM     66  C   UNL A   1      39.933  34.854  38.128  1.00  0.00     0.198 A 
ATOM     67  C   UNL A   1      38.214  33.315  38.790  1.00  0.00     0.198 A 
ATOM     68  F   UNL A   1      37.784  31.400  37.496  1.00  0.00    -0.203 F 
ATOM     69  F   UNL A   1      40.655  35.957  38.363  1.00  0.00    -0.200 F 
ATOM     70  C   UNL A   1      38.939  34.474  39.018  1.00  0.00     0.200 A 
ATOM     71  F   UNL A   1      37.243  32.953  39.640  1.00  0.00    -0.200 F 
ATOM     72  F   UNL A   1      38.686  35.221  40.101  1.00  0.00    -0.200 F 
ENDBRANCH  48  62
BRANCH  49  73
ATOM     73  C   UNL A   1      40.972  27.657  28.388  1.00  0.00     0.064 A 
ATOM     74  C   UNL A   1      40.361  26.410  28.191  1.00  0.00     0.173 A 
ATOM     75  C   UNL A   1      41.850  28.113  27.394  1.00  0.00     0.173 A 
ATOM     76  F   UNL A   1      39.541  25.910  29.128  1.00  0.00    -0.203 F 
ATOM     77  C   UNL A   1      40.635  25.642  27.061  1.00  0.00     0.198 A 
ATOM     78  C   UNL A   1      42.097  27.360  26.248  1.00  0.00     0.198 A 
ATOM     79  F   UNL A   1      42.468  29.295  27.533  1.00  0.00    -0.203 F 
ATOM     80  F   UNL A   1      40.084  24.427  26.927  1.00  0.00    -0.200 F 
ATOM     81  C   UNL A   1      41.498  26.120  26.087  1.00  0.00     0.200 A 
ATOM     82  F   UNL A   1      42.923  27.833  25.304  1.00  0.00    -0.200 F 
ATOM     83  F   UNL A   1      41.762  25.382  25.001  1.00  0.00    -0.200 F 
ENDBRANCH  49  73
BRANCH  61  84
ATOM     84  C   UNL A   1      44.201  27.905  34.567  1.00  0.00     0.064 A 
ATOM     85  C   UNL A   1      44.069  26.659  35.198  1.00  0.00     0.173 A 
ATOM     86  C   UNL A   1      45.495  28.433  34.427  1.00  0.00     0.173 A 
ATOM     87  F   UNL A   1      42.856  26.112  35.367  1.00  0.00    -0.203 F 
ATOM     88  C   UNL A   1      45.184  25.985  35.694  1.00  0.00     0.198 A 
ATOM     89  C   UNL A   1      46.609  27.740  34.892  1.00  0.00     0.198 A 
ATOM     90  F   UNL A   1      45.682  29.616  33.822  1.00  0.00    -0.203 F 
ATOM     91  F   UNL A   1      45.028  24.821  36.340  1.00  0.00    -0.200 F 
ATOM     92  C   UNL A   1      46.453  26.522  35.533  1.00  0.00     0.200 A 
ATOM     93  F   UNL A   1      47.836  28.252  34.717  1.00  0.00    -0.200 F 
ATOM     94  F   UNL A   1      47.524  25.867  36.002  1.00  0.00    -0.200 F 
ENDBRANCH  61  84
ENDBRANCH  35  36
ENDBRANCH  28  30
ENDBRANCH  27  28
ENDBRANCH  26  27
ENDBRANCH  25  26
ENDBRANCH  24  25
ENDBRANCH  23  24
ENDBRANCH   1  23
TORSDOF 20
ENDMDL
