MODEL 1
REMARK VINA RESULT:     -12.3      0.000      0.000
REMARK SMILES Cc1cc2c(cc1C(=O)c1ccccc1C(=O)OCCOCCOCCOC(=O)c1ccc(-c3c4nc(c(-c5c(F)c(F)c(F)c(F)c5F)c5ccc([nH]5)c(-c5c(F)c(F)c(F)c(F)c5F)c5nc(c(-c6c(F)c(F)c(F)c(F)c6F)c6ccc3[nH]6)C=C5)C=C4)cc1)CCCC2
REMARK SMILES IDX 22 1 21 2 20 3 19 4 18 5 16 6 17 7 15 8 10 9 11 10 12 11
REMARK SMILES IDX 14 12 13 13 8 14 9 15 7 16 1 17 2 18 3 19 4 20 6 21 5 22
REMARK SMILES IDX 96 23 93 24 95 25 94 26 23 27 24 28 25 29 26 30 27 31 28 32
REMARK SMILES IDX 29 33 30 34 31 35 92 36 32 37 91 38 33 39 34 40 35 41 85 42
REMARK SMILES IDX 36 43 90 44 84 45 86 46 37 47 89 48 83 49 82 50 38 52 70 53
REMARK SMILES IDX 50 54 69 55 51 56 54 57 68 58 87 59 52 60 53 61 67 63 88 64
REMARK SMILES IDX 55 65 39 66 40 67 48 68 41 69 42 70 46 71 49 72 43 73 44 74
REMARK SMILES IDX 47 75 45 76 71 77 72 78 80 79 73 80 74 81 78 82 81 83 75 84
REMARK SMILES IDX 76 85 79 86 77 87 56 88 57 89 65 90 58 91 59 92 63 93 66 94
REMARK SMILES IDX 60 95 61 96 64 97 62 98
REMARK H PARENT 86 51 54 62
REMARK Flexibility Score: inf
ROOT
ATOM      1  C   UNL A   1      39.790  21.576  26.417  1.00  0.00     0.188 C 
ENDROOT
BRANCH   1   2
ATOM      2  O   UNL A   1      38.686  21.092  25.684  1.00  0.00    -0.376 OA
BRANCH   2   3
ATOM      3  C   UNL A   1      37.487  21.850  25.608  1.00  0.00     0.202 C 
BRANCH   3   4
ATOM      4  C   UNL A   1      37.056  22.626  24.356  1.00  0.00     0.261 C 
BRANCH   4   5
ATOM      5  O   UNL A   1      36.389  23.869  24.607  1.00  0.00    -0.460 OA
BRANCH   5   6
ATOM      6  C   UNL A   1      35.279  24.077  23.860  1.00  0.00     0.338 C 
ATOM      7  O   UNL A   1      35.064  23.619  22.746  1.00  0.00    -0.246 OA
BRANCH   6   8
ATOM      8  C   UNL A   1      34.192  24.728  24.627  1.00  0.00     0.071 A 
ATOM      9  C   UNL A   1      33.494  24.154  25.696  1.00  0.00     0.037 A 
ATOM     10  C   UNL A   1      32.705  24.979  26.511  1.00  0.00     0.013 A 
ATOM     11  C   UNL A   1      32.424  26.293  26.128  1.00  0.00     0.001 A 
ATOM     12  C   UNL A   1      33.897  26.050  24.244  1.00  0.00     0.016 A 
ATOM     13  C   UNL A   1      32.982  26.814  24.966  1.00  0.00     0.001 A 
BRANCH   9  14
ATOM     14  C   UNL A   1      33.594  22.723  26.024  1.00  0.00     0.194 C 
ATOM     15  O   UNL A   1      33.913  22.472  27.186  1.00  0.00    -0.289 OA
BRANCH  14  16
ATOM     16  C   UNL A   1      33.293  21.599  25.043  1.00  0.00     0.026 A 
ATOM     17  C   UNL A   1      31.452  22.687  23.540  1.00  0.00     0.045 C 
ATOM     18  C   UNL A   1      32.342  21.566  23.996  1.00  0.00    -0.040 A 
ATOM     19  C   UNL A   1      32.151  20.358  23.283  1.00  0.00     0.008 A 
ATOM     20  C   UNL A   1      32.928  19.219  23.507  1.00  0.00    -0.044 A 
ATOM     21  C   UNL A   1      34.090  20.446  25.236  1.00  0.00     0.016 A 
ATOM     22  C   UNL A   1      33.923  19.268  24.483  1.00  0.00    -0.044 A 
ATOM     23  C   UNL A   1      32.625  17.960  22.734  1.00  0.00     0.036 C 
ATOM     24  C   UNL A   1      34.865  18.107  24.694  1.00  0.00     0.036 C 
ATOM     25  C   UNL A   1      33.772  16.953  22.751  1.00  0.00     0.005 C 
ATOM     26  C   UNL A   1      34.313  16.784  24.165  1.00  0.00     0.005 C 
ENDBRANCH  14  16
ENDBRANCH   9  14
ENDBRANCH   6   8
ENDBRANCH   5   6
ENDBRANCH   4   5
ENDBRANCH   3   4
ENDBRANCH   2   3
ENDBRANCH   1   2
BRANCH   1  27
ATOM     27  C   UNL A   1      41.087  20.748  26.495  1.00  0.00     0.188 C 
BRANCH  27  28
ATOM     28  O   UNL A   1      42.319  21.332  26.851  1.00  0.00    -0.376 OA
BRANCH  28  29
ATOM     29  C   UNL A   1      43.402  21.344  25.939  1.00  0.00     0.202 C 
BRANCH  29  30
ATOM     30  C   UNL A   1      43.537  22.372  24.806  1.00  0.00     0.261 C 
BRANCH  30  31
ATOM     31  O   UNL A   1      42.869  23.623  25.000  1.00  0.00    -0.460 OA
BRANCH  31  32
ATOM     32  C   UNL A   1      43.679  24.682  25.246  1.00  0.00     0.338 C 
ATOM     33  O   UNL A   1      44.677  25.017  24.629  1.00  0.00    -0.246 OA
BRANCH  32  34
ATOM     34  C   UNL A   1      43.045  25.524  26.278  1.00  0.00     0.060 A 
ATOM     35  C   UNL A   1      42.106  24.984  27.155  1.00  0.00     0.016 A 
ATOM     36  C   UNL A   1      43.398  26.880  26.354  1.00  0.00     0.016 A 
ATOM     37  C   UNL A   1      41.530  25.804  28.128  1.00  0.00     0.010 A 
ATOM     38  C   UNL A   1      42.808  27.702  27.314  1.00  0.00     0.010 A 
ATOM     39  C   UNL A   1      41.885  27.163  28.221  1.00  0.00    -0.014 A 
BRANCH  39  40
ATOM     40  C   UNL A   1      41.412  27.968  29.372  1.00  0.00     0.031 A 
ATOM     41  C   UNL A   1      40.213  28.859  29.279  1.00  0.00     0.074 A 
ATOM     42  C   UNL A   1      42.100  27.879  30.525  1.00  0.00     0.049 A 
ATOM     43  N   UNL A   1      39.630  29.551  30.226  1.00  0.00    -0.248 NA
ATOM     44  C   UNL A   1      39.588  29.000  27.957  1.00  0.00     0.031 C 
ATOM     45  C   UNL A   1      43.304  27.069  30.717  1.00  0.00     0.029 A 
ATOM     46  N   UNL A   1      41.884  28.457  31.749  1.00  0.00    -0.354 N 
ATOM     47  C   UNL A   1      38.554  30.187  29.627  1.00  0.00     0.074 A 
ATOM     48  C   UNL A   1      38.595  29.844  28.219  1.00  0.00     0.031 C 
ATOM     49  C   UNL A   1      43.703  27.177  31.993  1.00  0.00     0.029 A 
ATOM     50  C   UNL A   1      42.799  28.079  32.701  1.00  0.00     0.049 A 
ATOM     51  H   UNL A   1      41.145  29.082  31.929  1.00  0.00     0.167 HD
ATOM     52  C   UNL A   1      37.608  30.966  30.208  1.00  0.00     0.037 A 
ATOM     53  C   UNL A   1      42.892  28.412  34.002  1.00  0.00     0.037 A 
ATOM     54  C   UNL A   1      37.585  31.315  31.608  1.00  0.00     0.049 A 
ATOM     55  C   UNL A   1      41.857  29.315  34.608  1.00  0.00     0.074 A 
ATOM     56  C   UNL A   1      36.645  32.068  32.292  1.00  0.00     0.029 A 
ATOM     57  N   UNL A   1      38.551  30.950  32.537  1.00  0.00    -0.354 N 
ATOM     58  N   UNL A   1      40.796  29.846  34.050  1.00  0.00    -0.248 NA
ATOM     59  C   UNL A   1      42.027  29.661  36.026  1.00  0.00     0.031 C 
ATOM     60  C   UNL A   1      37.069  32.205  33.617  1.00  0.00     0.029 A 
ATOM     61  C   UNL A   1      38.245  31.490  33.777  1.00  0.00     0.049 A 
ATOM     62  H   UNL A   1      39.337  30.389  32.342  1.00  0.00     0.167 HD
ATOM     63  C   UNL A   1      40.161  30.569  35.051  1.00  0.00     0.074 A 
ATOM     64  C   UNL A   1      40.945  30.393  36.255  1.00  0.00     0.031 C 
ATOM     65  C   UNL A   1      39.031  31.314  34.972  1.00  0.00     0.037 A 
BRANCH  52  66
ATOM     66  C   UNL A   1      36.497  31.490  29.343  1.00  0.00     0.064 A 
ATOM     67  C   UNL A   1      35.478  30.645  28.878  1.00  0.00     0.173 A 
ATOM     68  C   UNL A   1      36.391  32.861  29.064  1.00  0.00     0.173 A 
ATOM     69  F   UNL A   1      35.532  29.327  29.118  1.00  0.00    -0.203 F 
ATOM     70  C   UNL A   1      34.401  31.152  28.154  1.00  0.00     0.198 A 
ATOM     71  C   UNL A   1      35.298  33.368  28.364  1.00  0.00     0.198 A 
ATOM     72  F   UNL A   1      37.331  33.714  29.496  1.00  0.00    -0.203 F 
ATOM     73  F   UNL A   1      33.451  30.322  27.701  1.00  0.00    -0.200 F 
ATOM     74  C   UNL A   1      34.306  32.514  27.908  1.00  0.00     0.200 A 
ATOM     75  F   UNL A   1      35.199  34.686  28.144  1.00  0.00    -0.200 F 
ATOM     76  F   UNL A   1      33.257  33.003  27.232  1.00  0.00    -0.200 F 
ENDBRANCH  52  66
BRANCH  53  77
ATOM     77  C   UNL A   1      43.992  27.843  34.822  1.00  0.00     0.064 A 
ATOM     78  C   UNL A   1      45.187  28.549  35.010  1.00  0.00     0.173 A 
ATOM     79  C   UNL A   1      43.859  26.600  35.458  1.00  0.00     0.173 A 
ATOM     80  F   UNL A   1      45.366  29.734  34.408  1.00  0.00    -0.203 F 
ATOM     81  C   UNL A   1      46.213  28.029  35.795  1.00  0.00     0.198 A 
ATOM     82  C   UNL A   1      44.873  26.094  36.267  1.00  0.00     0.198 A 
ATOM     83  F   UNL A   1      42.731  25.888  35.313  1.00  0.00    -0.203 F 
ATOM     84  F   UNL A   1      47.359  28.708  35.932  1.00  0.00    -0.200 F 
ATOM     85  C   UNL A   1      46.052  26.806  36.430  1.00  0.00     0.200 A 
ATOM     86  F   UNL A   1      44.706  24.920  36.892  1.00  0.00    -0.200 F 
ATOM     87  F   UNL A   1      47.034  26.313  37.197  1.00  0.00    -0.200 F 
ENDBRANCH  53  77
BRANCH  65  88
ATOM     88  C   UNL A   1      38.561  31.996  36.227  1.00  0.00     0.064 A 
ATOM     89  C   UNL A   1      37.801  31.315  37.190  1.00  0.00     0.173 A 
ATOM     90  C   UNL A   1      38.924  33.324  36.499  1.00  0.00     0.173 A 
ATOM     91  F   UNL A   1      37.414  30.049  36.973  1.00  0.00    -0.203 F 
ATOM     92  C   UNL A   1      37.407  31.944  38.368  1.00  0.00     0.198 A 
ATOM     93  C   UNL A   1      38.555  33.940  37.692  1.00  0.00     0.198 A 
ATOM     94  F   UNL A   1      39.655  34.019  35.615  1.00  0.00    -0.203 F 
ATOM     95  F   UNL A   1      36.646  31.287  39.254  1.00  0.00    -0.200 F 
ATOM     96  C   UNL A   1      37.793  33.251  38.623  1.00  0.00     0.200 A 
ATOM     97  F   UNL A   1      38.942  35.198  37.944  1.00  0.00    -0.200 F 
ATOM     98  F   UNL A   1      37.426  33.850  39.765  1.00  0.00    -0.200 F 
ENDBRANCH  65  88
ENDBRANCH  39  40
ENDBRANCH  32  34
ENDBRANCH  31  32
ENDBRANCH  30  31
ENDBRANCH  29  30
ENDBRANCH  28  29
ENDBRANCH  27  28
ENDBRANCH   1  27
TORSDOF 19
ENDMDL
MODEL 2
REMARK VINA RESULT:     -11.9      0.692      7.141
REMARK SMILES Cc1cc2c(cc1C(=O)c1ccccc1C(=O)OCCOCCOCCOC(=O)c1ccc(-c3c4nc(c(-c5c(F)c(F)c(F)c(F)c5F)c5ccc([nH]5)c(-c5c(F)c(F)c(F)c(F)c5F)c5nc(c(-c6c(F)c(F)c(F)c(F)c6F)c6ccc3[nH]6)C=C5)C=C4)cc1)CCCC2
REMARK SMILES IDX 22 1 21 2 20 3 19 4 18 5 16 6 17 7 15 8 10 9 11 10 12 11
REMARK SMILES IDX 14 12 13 13 8 14 9 15 7 16 1 17 2 18 3 19 4 20 6 21 5 22
REMARK SMILES IDX 96 23 93 24 95 25 94 26 23 27 24 28 25 29 26 30 27 31 28 32
REMARK SMILES IDX 29 33 30 34 31 35 92 36 32 37 91 38 33 39 34 40 35 41 85 42
REMARK SMILES IDX 36 43 90 44 84 45 86 46 37 47 89 48 83 49 82 50 38 52 70 53
REMARK SMILES IDX 50 54 69 55 51 56 54 57 68 58 87 59 52 60 53 61 67 63 88 64
REMARK SMILES IDX 55 65 39 66 40 67 48 68 41 69 42 70 46 71 49 72 43 73 44 74
REMARK SMILES IDX 47 75 45 76 71 77 72 78 80 79 73 80 74 81 78 82 81 83 75 84
REMARK SMILES IDX 76 85 79 86 77 87 56 88 57 89 65 90 58 91 59 92 63 93 66 94
REMARK SMILES IDX 60 95 61 96 64 97 62 98
REMARK H PARENT 86 51 54 62
REMARK Flexibility Score: inf
ROOT
ATOM      1  C   UNL A   1      40.396  22.110  27.163  1.00  0.00     0.188 C 
ENDROOT
BRANCH   1   2
ATOM      2  O   UNL A   1      39.405  22.777  26.412  1.00  0.00    -0.376 OA
BRANCH   2   3
ATOM      3  C   UNL A   1      38.442  22.036  25.677  1.00  0.00     0.202 C 
BRANCH   3   4
ATOM      4  C   UNL A   1      36.931  22.281  25.778  1.00  0.00     0.261 C 
BRANCH   4   5
ATOM      5  O   UNL A   1      36.516  23.636  25.569  1.00  0.00    -0.460 OA
BRANCH   5   6
ATOM      6  C   UNL A   1      35.566  23.799  24.619  1.00  0.00     0.338 C 
ATOM      7  O   UNL A   1      35.545  23.260  23.522  1.00  0.00    -0.246 OA
BRANCH   6   8
ATOM      8  C   UNL A   1      34.373  24.517  25.127  1.00  0.00     0.071 A 
ATOM      9  C   UNL A   1      33.386  23.971  25.956  1.00  0.00     0.037 A 
ATOM     10  C   UNL A   1      32.483  24.834  26.592  1.00  0.00     0.013 A 
ATOM     11  C   UNL A   1      32.409  26.181  26.223  1.00  0.00     0.001 A 
ATOM     12  C   UNL A   1      34.287  25.872  24.754  1.00  0.00     0.016 A 
ATOM     13  C   UNL A   1      33.280  26.688  25.267  1.00  0.00     0.001 A 
BRANCH   9  14
ATOM     14  C   UNL A   1      33.291  22.527  26.220  1.00  0.00     0.194 C 
ATOM     15  O   UNL A   1      33.352  22.205  27.407  1.00  0.00    -0.289 OA
BRANCH  14  16
ATOM     16  C   UNL A   1      33.088  21.473  25.142  1.00  0.00     0.026 A 
ATOM     17  C   UNL A   1      31.524  22.726  23.463  1.00  0.00     0.045 C 
ATOM     18  C   UNL A   1      32.294  21.541  23.972  1.00  0.00    -0.040 A 
ATOM     19  C   UNL A   1      32.158  20.384  23.168  1.00  0.00     0.008 A 
ATOM     20  C   UNL A   1      32.849  19.199  23.430  1.00  0.00    -0.044 A 
ATOM     21  C   UNL A   1      33.802  20.274  25.374  1.00  0.00     0.016 A 
ATOM     22  C   UNL A   1      33.697  19.147  24.537  1.00  0.00    -0.044 A 
ATOM     23  C   UNL A   1      32.609  17.998  22.549  1.00  0.00     0.036 C 
ATOM     24  C   UNL A   1      34.552  17.933  24.808  1.00  0.00     0.036 C 
ATOM     25  C   UNL A   1      33.701  16.938  22.665  1.00  0.00     0.005 C 
ATOM     26  C   UNL A   1      34.028  16.667  24.129  1.00  0.00     0.005 C 
ENDBRANCH  14  16
ENDBRANCH   9  14
ENDBRANCH   6   8
ENDBRANCH   5   6
ENDBRANCH   4   5
ENDBRANCH   3   4
ENDBRANCH   2   3
ENDBRANCH   1   2
BRANCH   1  27
ATOM     27  C   UNL A   1      41.105  20.872  26.580  1.00  0.00     0.188 C 
BRANCH  27  28
ATOM     28  O   UNL A   1      42.037  20.978  25.529  1.00  0.00    -0.376 OA
BRANCH  28  29
ATOM     29  C   UNL A   1      43.286  21.614  25.735  1.00  0.00     0.202 C 
BRANCH  29  30
ATOM     30  C   UNL A   1      43.939  22.541  24.700  1.00  0.00     0.261 C 
BRANCH  30  31
ATOM     31  O   UNL A   1      43.451  23.885  24.654  1.00  0.00    -0.460 OA
BRANCH  31  32
ATOM     32  C   UNL A   1      44.310  24.831  25.108  1.00  0.00     0.338 C 
ATOM     33  O   UNL A   1      45.382  25.159  24.625  1.00  0.00    -0.246 OA
BRANCH  32  34
ATOM     34  C   UNL A   1      43.649  25.580  26.192  1.00  0.00     0.060 A 
ATOM     35  C   UNL A   1      42.609  25.004  26.921  1.00  0.00     0.016 A 
ATOM     36  C   UNL A   1      44.079  26.886  26.471  1.00  0.00     0.016 A 
ATOM     37  C   UNL A   1      42.009  25.734  27.949  1.00  0.00     0.010 A 
ATOM     38  C   UNL A   1      43.465  27.622  27.486  1.00  0.00     0.010 A 
ATOM     39  C   UNL A   1      42.439  27.041  28.245  1.00  0.00    -0.014 A 
BRANCH  39  40
ATOM     40  C   UNL A   1      41.927  27.728  29.453  1.00  0.00     0.031 A 
ATOM     41  C   UNL A   1      42.613  27.621  30.779  1.00  0.00     0.074 A 
ATOM     42  C   UNL A   1      40.807  28.465  29.329  1.00  0.00     0.049 A 
ATOM     43  N   UNL A   1      42.332  28.237  31.901  1.00  0.00    -0.248 NA
ATOM     44  C   UNL A   1      43.756  26.702  30.866  1.00  0.00     0.031 C 
ATOM     45  C   UNL A   1      40.038  28.610  28.093  1.00  0.00     0.029 A 
ATOM     46  N   UNL A   1      40.131  29.236  30.239  1.00  0.00    -0.354 N 
ATOM     47  C   UNL A   1      43.277  27.807  32.820  1.00  0.00     0.074 A 
ATOM     48  C   UNL A   1      44.108  26.832  32.141  1.00  0.00     0.031 C 
ATOM     49  C   UNL A   1      39.013  29.447  28.314  1.00  0.00     0.029 A 
ATOM     50  C   UNL A   1      39.040  29.877  29.708  1.00  0.00     0.049 A 
ATOM     51  H   UNL A   1      40.403  29.322  31.182  1.00  0.00     0.167 HD
ATOM     52  C   UNL A   1      43.444  28.210  34.104  1.00  0.00     0.037 A 
ATOM     53  C   UNL A   1      38.163  30.725  30.278  1.00  0.00     0.037 A 
ATOM     54  C   UNL A   1      42.600  29.170  34.775  1.00  0.00     0.049 A 
ATOM     55  C   UNL A   1      38.346  31.117  31.717  1.00  0.00     0.074 A 
ATOM     56  C   UNL A   1      42.717  29.666  36.063  1.00  0.00     0.029 A 
ATOM     57  N   UNL A   1      41.477  29.768  34.221  1.00  0.00    -0.354 N 
ATOM     58  N   UNL A   1      39.292  30.766  32.555  1.00  0.00    -0.248 NA
ATOM     59  C   UNL A   1      37.344  32.027  32.288  1.00  0.00     0.031 C 
ATOM     60  C   UNL A   1      41.636  30.518  36.307  1.00  0.00     0.029 A 
ATOM     61  C   UNL A   1      40.875  30.601  35.152  1.00  0.00     0.049 A 
ATOM     62  H   UNL A   1      41.155  29.622  33.302  1.00  0.00     0.167 HD
ATOM     63  C   UNL A   1      39.012  31.429  33.742  1.00  0.00     0.074 A 
ATOM     64  C   UNL A   1      37.820  32.217  33.511  1.00  0.00     0.031 C 
ATOM     65  C   UNL A   1      39.685  31.381  34.918  1.00  0.00     0.037 A 
BRANCH  52  66
ATOM     66  C   UNL A   1      44.594  27.634  34.879  1.00  0.00     0.064 A 
ATOM     67  C   UNL A   1      45.854  28.252  34.878  1.00  0.00     0.173 A 
ATOM     68  C   UNL A   1      44.411  26.518  35.710  1.00  0.00     0.173 A 
ATOM     69  F   UNL A   1      46.080  29.321  34.102  1.00  0.00    -0.203 F 
ATOM     70  C   UNL A   1      46.891  27.766  35.671  1.00  0.00     0.198 A 
ATOM     71  C   UNL A   1      45.443  26.053  36.523  1.00  0.00     0.198 A 
ATOM     72  F   UNL A   1      43.223  25.897  35.758  1.00  0.00    -0.203 F 
ATOM     73  F   UNL A   1      48.092  28.361  35.637  1.00  0.00    -0.200 F 
ATOM     74  C   UNL A   1      46.682  26.675  36.501  1.00  0.00     0.200 A 
ATOM     75  F   UNL A   1      45.233  25.010  37.338  1.00  0.00    -0.200 F 
ATOM     76  F   UNL A   1      47.674  26.224  37.282  1.00  0.00    -0.200 F 
ENDBRANCH  52  66
BRANCH  53  77
ATOM     77  C   UNL A   1      37.061  31.292  29.461  1.00  0.00     0.064 A 
ATOM     78  C   UNL A   1      35.961  30.505  29.094  1.00  0.00     0.173 A 
ATOM     79  C   UNL A   1      37.069  32.635  29.056  1.00  0.00     0.173 A 
ATOM     80  F   UNL A   1      35.917  29.211  29.444  1.00  0.00    -0.203 F 
ATOM     81  C   UNL A   1      34.915  31.037  28.345  1.00  0.00     0.198 A 
ATOM     82  C   UNL A   1      36.008  33.174  28.332  1.00  0.00     0.198 A 
ATOM     83  F   UNL A   1      38.097  33.430  29.387  1.00  0.00    -0.203 F 
ATOM     84  F   UNL A   1      33.891  30.256  27.978  1.00  0.00    -0.200 F 
ATOM     85  C   UNL A   1      34.935  32.373  27.972  1.00  0.00     0.200 A 
ATOM     86  F   UNL A   1      36.024  34.469  27.989  1.00  0.00    -0.200 F 
ATOM     87  F   UNL A   1      33.921  32.888  27.263  1.00  0.00    -0.200 F 
ENDBRANCH  53  77
BRANCH  65  88
ATOM     88  C   UNL A   1      39.156  32.211  36.054  1.00  0.00     0.064 A 
ATOM     89  C   UNL A   1      38.261  31.681  36.996  1.00  0.00     0.173 A 
ATOM     90  C   UNL A   1      39.595  33.532  36.239  1.00  0.00     0.173 A 
ATOM     91  F   UNL A   1      37.799  30.429  36.857  1.00  0.00    -0.203 F 
ATOM     92  C   UNL A   1      37.811  32.447  38.068  1.00  0.00     0.198 A 
ATOM     93  C   UNL A   1      39.167  34.284  37.330  1.00  0.00     0.198 A 
ATOM     94  F   UNL A   1      40.455  34.086  35.372  1.00  0.00    -0.203 F 
ATOM     95  F   UNL A   1      36.924  31.933  38.931  1.00  0.00    -0.200 F 
ATOM     96  C   UNL A   1      38.272  33.743  38.240  1.00  0.00     0.200 A 
ATOM     97  F   UNL A   1      39.626  35.531  37.503  1.00  0.00    -0.200 F 
ATOM     98  F   UNL A   1      37.850  34.474  39.281  1.00  0.00    -0.200 F 
ENDBRANCH  65  88
ENDBRANCH  39  40
ENDBRANCH  32  34
ENDBRANCH  31  32
ENDBRANCH  30  31
ENDBRANCH  29  30
ENDBRANCH  28  29
ENDBRANCH  27  28
ENDBRANCH   1  27
TORSDOF 19
ENDMDL
MODEL 3
REMARK VINA RESULT:     -11.8      1.203      7.967
REMARK SMILES Cc1cc2c(cc1C(=O)c1ccccc1C(=O)OCCOCCOCCOC(=O)c1ccc(-c3c4nc(c(-c5c(F)c(F)c(F)c(F)c5F)c5ccc([nH]5)c(-c5c(F)c(F)c(F)c(F)c5F)c5nc(c(-c6c(F)c(F)c(F)c(F)c6F)c6ccc3[nH]6)C=C5)C=C4)cc1)CCCC2
REMARK SMILES IDX 22 1 21 2 20 3 19 4 18 5 16 6 17 7 15 8 10 9 11 10 12 11
REMARK SMILES IDX 14 12 13 13 8 14 9 15 7 16 1 17 2 18 3 19 4 20 6 21 5 22
REMARK SMILES IDX 96 23 93 24 95 25 94 26 23 27 24 28 25 29 26 30 27 31 28 32
REMARK SMILES IDX 29 33 30 34 31 35 92 36 32 37 91 38 33 39 34 40 35 41 85 42
REMARK SMILES IDX 36 43 90 44 84 45 86 46 37 47 89 48 83 49 82 50 38 52 70 53
REMARK SMILES IDX 50 54 69 55 51 56 54 57 68 58 87 59 52 60 53 61 67 63 88 64
REMARK SMILES IDX 55 65 39 66 40 67 48 68 41 69 42 70 46 71 49 72 43 73 44 74
REMARK SMILES IDX 47 75 45 76 71 77 72 78 80 79 73 80 74 81 78 82 81 83 75 84
REMARK SMILES IDX 76 85 79 86 77 87 56 88 57 89 65 90 58 91 59 92 63 93 66 94
REMARK SMILES IDX 60 95 61 96 64 97 62 98
REMARK H PARENT 86 51 54 62
REMARK Flexibility Score: inf
ROOT
ATOM      1  C   UNL A   1      41.216  20.864  26.928  1.00  0.00     0.188 C 
ENDROOT
BRANCH   1   2
ATOM      2  O   UNL A   1      40.654  21.873  26.117  1.00  0.00    -0.376 OA
BRANCH   2   3
ATOM      3  C   UNL A   1      39.274  22.192  26.222  1.00  0.00     0.202 C 
BRANCH   3   4
ATOM      4  C   UNL A   1      38.185  21.521  25.374  1.00  0.00     0.261 C 
BRANCH   4   5
ATOM      5  O   UNL A   1      36.889  22.127  25.455  1.00  0.00    -0.460 OA
BRANCH   5   6
ATOM      6  C   UNL A   1      36.263  22.288  24.266  1.00  0.00     0.338 C 
ATOM      7  O   UNL A   1      36.779  22.675  23.227  1.00  0.00    -0.246 OA
BRANCH   6   8
ATOM      8  C   UNL A   1      34.904  21.699  24.255  1.00  0.00     0.071 A 
ATOM      9  C   UNL A   1      33.757  22.307  23.732  1.00  0.00     0.037 A 
ATOM     10  C   UNL A   1      32.611  21.526  23.523  1.00  0.00     0.013 A 
ATOM     11  C   UNL A   1      32.530  20.233  24.048  1.00  0.00     0.001 A 
ATOM     12  C   UNL A   1      34.811  20.399  24.788  1.00  0.00     0.016 A 
ATOM     13  C   UNL A   1      33.614  19.687  24.724  1.00  0.00     0.001 A 
BRANCH   9  14
ATOM     14  C   UNL A   1      33.724  23.727  23.348  1.00  0.00     0.194 C 
ATOM     15  O   UNL A   1      34.025  23.962  22.178  1.00  0.00    -0.289 OA
BRANCH  14  16
ATOM     16  C   UNL A   1      33.314  24.855  24.284  1.00  0.00     0.026 A 
ATOM     17  C   UNL A   1      33.748  23.783  26.628  1.00  0.00     0.045 C 
ATOM     18  C   UNL A   1      33.284  24.868  25.699  1.00  0.00    -0.040 A 
ATOM     19  C   UNL A   1      32.745  25.997  26.362  1.00  0.00     0.008 A 
ATOM     20  C   UNL A   1      32.323  27.141  25.681  1.00  0.00    -0.044 A 
ATOM     21  C   UNL A   1      32.909  26.033  23.614  1.00  0.00     0.016 A 
ATOM     22  C   UNL A   1      32.423  27.168  24.289  1.00  0.00    -0.044 A 
ATOM     23  C   UNL A   1      31.718  28.279  26.463  1.00  0.00     0.036 C 
ATOM     24  C   UNL A   1      32.087  28.416  23.509  1.00  0.00     0.036 C 
ATOM     25  C   UNL A   1      31.696  29.596  25.690  1.00  0.00     0.005 C 
ATOM     26  C   UNL A   1      31.176  29.375  24.275  1.00  0.00     0.005 C 
ENDBRANCH  14  16
ENDBRANCH   9  14
ENDBRANCH   6   8
ENDBRANCH   5   6
ENDBRANCH   4   5
ENDBRANCH   3   4
ENDBRANCH   2   3
ENDBRANCH   1   2
BRANCH   1  27
ATOM     27  C   UNL A   1      42.047  19.735  26.289  1.00  0.00     0.188 C 
BRANCH  27  28
ATOM     28  O   UNL A   1      42.904  19.973  25.197  1.00  0.00    -0.376 OA
BRANCH  28  29
ATOM     29  C   UNL A   1      44.100  20.713  25.366  1.00  0.00     0.202 C 
BRANCH  29  30
ATOM     30  C   UNL A   1      44.399  22.013  24.605  1.00  0.00     0.261 C 
BRANCH  30  31
ATOM     31  O   UNL A   1      43.655  23.168  25.004  1.00  0.00    -0.460 OA
BRANCH  31  32
ATOM     32  C   UNL A   1      44.386  24.295  25.189  1.00  0.00     0.338 C 
ATOM     33  O   UNL A   1      45.308  24.708  24.503  1.00  0.00    -0.246 OA
BRANCH  32  34
ATOM     34  C   UNL A   1      43.755  25.090  26.258  1.00  0.00     0.060 A 
ATOM     35  C   UNL A   1      42.751  24.538  27.053  1.00  0.00     0.016 A 
ATOM     36  C   UNL A   1      44.176  26.413  26.454  1.00  0.00     0.016 A 
ATOM     37  C   UNL A   1      42.179  25.312  28.065  1.00  0.00     0.010 A 
ATOM     38  C   UNL A   1      43.590  27.191  27.454  1.00  0.00     0.010 A 
ATOM     39  C   UNL A   1      42.601  26.638  28.279  1.00  0.00    -0.014 A 
BRANCH  39  40
ATOM     40  C   UNL A   1      42.124  27.378  29.470  1.00  0.00     0.031 A 
ATOM     41  C   UNL A   1      42.836  27.311  30.786  1.00  0.00     0.074 A 
ATOM     42  C   UNL A   1      41.014  28.128  29.340  1.00  0.00     0.049 A 
ATOM     43  N   UNL A   1      42.587  27.974  31.888  1.00  0.00    -0.248 NA
ATOM     44  C   UNL A   1      43.966  26.378  30.885  1.00  0.00     0.031 C 
ATOM     45  C   UNL A   1      40.221  28.238  28.115  1.00  0.00     0.029 A 
ATOM     46  N   UNL A   1      40.368  28.944  30.233  1.00  0.00    -0.354 N 
ATOM     47  C   UNL A   1      43.544  27.564  32.804  1.00  0.00     0.074 A 
ATOM     48  C   UNL A   1      44.346  26.551  32.146  1.00  0.00     0.031 C 
ATOM     49  C   UNL A   1      39.214  29.098  28.323  1.00  0.00     0.029 A 
ATOM     50  C   UNL A   1      39.276  29.581  29.700  1.00  0.00     0.049 A 
ATOM     51  H   UNL A   1      40.660  29.062  31.166  1.00  0.00     0.167 HD
ATOM     52  C   UNL A   1      43.743  28.013  34.067  1.00  0.00     0.037 A 
ATOM     53  C   UNL A   1      38.425  30.465  30.254  1.00  0.00     0.037 A 
ATOM     54  C   UNL A   1      42.929  29.011  34.718  1.00  0.00     0.049 A 
ATOM     55  C   UNL A   1      38.643  30.908  31.672  1.00  0.00     0.074 A 
ATOM     56  C   UNL A   1      43.079  29.554  35.983  1.00  0.00     0.029 A 
ATOM     57  N   UNL A   1      41.803  29.606  34.164  1.00  0.00    -0.354 N 
ATOM     58  N   UNL A   1      39.600  30.575  32.504  1.00  0.00    -0.248 NA
ATOM     59  C   UNL A   1      37.666  31.855  32.228  1.00  0.00     0.031 C 
ATOM     60  C   UNL A   1      42.017  30.433  36.215  1.00  0.00     0.029 A 
ATOM     61  C   UNL A   1      41.234  30.484  35.074  1.00  0.00     0.049 A 
ATOM     62  H   UNL A   1      41.461  29.430  33.258  1.00  0.00     0.167 HD
ATOM     63  C   UNL A   1      39.355  31.286  33.671  1.00  0.00     0.074 A 
ATOM     64  C   UNL A   1      38.170  32.084  33.433  1.00  0.00     0.031 C 
ATOM     65  C   UNL A   1      40.051  31.272  34.834  1.00  0.00     0.037 A 
BRANCH  52  66
ATOM     66  C   UNL A   1      44.901  27.449  34.841  1.00  0.00     0.064 A 
ATOM     67  C   UNL A   1      46.156  28.076  34.833  1.00  0.00     0.173 A 
ATOM     68  C   UNL A   1      44.728  26.336  35.678  1.00  0.00     0.173 A 
ATOM     69  F   UNL A   1      46.372  29.143  34.051  1.00  0.00    -0.203 F 
ATOM     70  C   UNL A   1      47.199  27.601  35.625  1.00  0.00     0.198 A 
ATOM     71  C   UNL A   1      45.766  25.881  36.490  1.00  0.00     0.198 A 
ATOM     72  F   UNL A   1      43.545  25.707  35.734  1.00  0.00    -0.203 F 
ATOM     73  F   UNL A   1      48.396  28.204  35.584  1.00  0.00    -0.200 F 
ATOM     74  C   UNL A   1      47.000  26.512  36.460  1.00  0.00     0.200 A 
ATOM     75  F   UNL A   1      45.566  24.841  37.310  1.00  0.00    -0.200 F 
ATOM     76  F   UNL A   1      47.999  26.072  37.240  1.00  0.00    -0.200 F 
ENDBRANCH  52  66
BRANCH  53  77
ATOM     77  C   UNL A   1      37.315  31.017  29.437  1.00  0.00     0.064 A 
ATOM     78  C   UNL A   1      36.181  30.245  29.149  1.00  0.00     0.173 A 
ATOM     79  C   UNL A   1      37.349  32.334  28.956  1.00  0.00     0.173 A 
ATOM     80  F   UNL A   1      36.111  28.975  29.574  1.00  0.00    -0.203 F 
ATOM     81  C   UNL A   1      35.129  30.765  28.400  1.00  0.00     0.198 A 
ATOM     82  C   UNL A   1      36.282  32.863  28.233  1.00  0.00     0.198 A 
ATOM     83  F   UNL A   1      38.409  33.116  29.210  1.00  0.00    -0.203 F 
ATOM     84  F   UNL A   1      34.072  29.996  28.110  1.00  0.00    -0.200 F 
ATOM     85  C   UNL A   1      35.176  32.077  27.950  1.00  0.00     0.200 A 
ATOM     86  F   UNL A   1      36.325  34.136  27.815  1.00  0.00    -0.200 F 
ATOM     87  F   UNL A   1      34.156  32.581  27.243  1.00  0.00    -0.200 F 
ENDBRANCH  53  77
BRANCH  65  88
ATOM     88  C   UNL A   1      39.558  32.155  35.947  1.00  0.00     0.064 A 
ATOM     89  C   UNL A   1      40.062  33.451  36.133  1.00  0.00     0.173 A 
ATOM     90  C   UNL A   1      38.531  31.723  36.800  1.00  0.00     0.173 A 
ATOM     91  F   UNL A   1      41.055  33.907  35.354  1.00  0.00    -0.203 F 
ATOM     92  C   UNL A   1      39.568  34.275  37.141  1.00  0.00     0.198 A 
ATOM     93  C   UNL A   1      38.018  32.560  37.788  1.00  0.00     0.198 A 
ATOM     94  F   UNL A   1      38.010  30.495  36.663  1.00  0.00    -0.203 F 
ATOM     95  F   UNL A   1      40.093  35.493  37.326  1.00  0.00    -0.200 F 
ATOM     96  C   UNL A   1      38.540  33.833  37.960  1.00  0.00     0.200 A 
ATOM     97  F   UNL A   1      37.014  32.138  38.568  1.00  0.00    -0.200 F 
ATOM     98  F   UNL A   1      38.055  34.633  38.921  1.00  0.00    -0.200 F 
ENDBRANCH  65  88
ENDBRANCH  39  40
ENDBRANCH  32  34
ENDBRANCH  31  32
ENDBRANCH  30  31
ENDBRANCH  29  30
ENDBRANCH  28  29
ENDBRANCH  27  28
ENDBRANCH   1  27
TORSDOF 19
ENDMDL
