MODEL 1
REMARK VINA RESULT:     -13.3      0.000      0.000
REMARK SMILES O=C(OCCOCCOCCOC(=O)c1ccc(-c2c3nc(c(-c4c(F)c(F)c(F)c(F)c4F)c4ccc([nH]4)c(-c4c(F)c(F)c(F)c(F)c4F)c4nc(c(-c5c(F)c(F)c(F)c(F)c5F)c5ccc2[nH]5)C=C4)C=C3)cc1)C1=Cc2cc(Cl)cc(-c3ccc(O)cc3)c2O[C@@H]1C(F)(F)F
REMARK SMILES IDX 7 1 6 2 5 3 4 4 3 5 2 6 1 7 78 8 79 9 95 10 80 11 94 12
REMARK SMILES IDX 81 13 93 14 82 15 85 16 83 17 84 18 96 19 97 20 98 21 99 22
REMARK SMILES IDX 86 23 87 24 92 25 88 26 91 27 89 28 90 29 8 31 9 32 10 33
REMARK SMILES IDX 11 34 12 35 13 36 14 37 15 38 16 39 77 40 17 41 76 42 18 43
REMARK SMILES IDX 19 44 20 45 70 46 21 47 75 48 69 49 71 50 22 51 74 52 68 53
REMARK SMILES IDX 67 54 23 56 55 57 35 58 54 59 36 60 39 61 53 62 72 63 37 64
REMARK SMILES IDX 38 65 52 67 73 68 40 69 24 70 25 71 33 72 26 73 27 74 31 75
REMARK SMILES IDX 34 76 28 77 29 78 32 79 30 80 56 81 57 82 65 83 58 84 59 85
REMARK SMILES IDX 63 86 66 87 60 88 61 89 64 90 62 91 41 92 42 93 50 94 43 95
REMARK SMILES IDX 44 96 48 97 51 98 45 99 46 100 49 101 47 102
REMARK H PARENT 90 30 71 55 39 66
REMARK Flexibility Score: inf
ROOT
ATOM      1  C   UNL A   1      31.361  29.495  25.519  1.00  0.00     0.188 C 
ENDROOT
BRANCH   1   2
ATOM      2  O   UNL A   1      30.830  29.641  24.103  1.00  0.00    -0.376 OA
BRANCH   2   3
ATOM      3  C   UNL A   1      30.230  28.353  23.048  1.00  0.00     0.202 C 
BRANCH   3   4
ATOM      4  C   UNL A   1      31.557  26.945  22.055  1.00  0.00     0.261 C 
BRANCH   4   5
ATOM      5  O   UNL A   1      31.444  25.424  22.085  1.00  0.00    -0.460 OA
BRANCH   5   6
ATOM      6  C   UNL A   1      32.644  24.832  22.156  1.00  0.00     0.338 C 
ATOM      7  O   UNL A   1      33.296  24.354  21.261  1.00  0.00    -0.246 OA
BRANCH   6   8
ATOM      8  C   UNL A   1      32.593  24.510  23.573  1.00  0.00     0.087 C 
ATOM      9  C   UNL A   1      32.161  23.170  23.912  1.00  0.00     0.027 C 
ATOM     10  C   UNL A   1      34.343  25.202  23.905  1.00  0.00     0.316 C 
ATOM     11  C   UNL A   1      33.260  21.847  24.392  1.00  0.00     0.019 A 
ATOM     12  O   UNL A   1      35.611  23.740  24.286  1.00  0.00    -0.475 OA
ATOM     13  C   UNL A   1      32.718  20.589  24.444  1.00  0.00     0.032 A 
ATOM     14  C   UNL A   1      34.977  22.037  24.531  1.00  0.00     0.135 A 
ATOM     15  C   UNL A   1      33.629  19.553  24.656  1.00  0.00     0.042 A 
ATOM     16  C   UNL A   1      35.795  20.951  24.814  1.00  0.00     0.026 A 
ATOM     17  Cl  UNL A   1      33.009  17.935  24.657  1.00  0.00    -0.084 Cl
ATOM     18  C   UNL A   1      35.049  19.726  24.850  1.00  0.00     0.033 A 
BRANCH  10  19
ATOM     19  C   UNL A   1      33.643  26.450  24.880  1.00  0.00     0.430 C 
ATOM     20  F   UNL A   1      32.353  26.462  25.228  1.00  0.00    -0.167 F 
ATOM     21  F   UNL A   1      34.338  26.479  26.055  1.00  0.00    -0.167 F 
ATOM     22  F   UNL A   1      33.838  27.698  24.349  1.00  0.00    -0.167 F 
ENDBRANCH  10  19
BRANCH  16  23
ATOM     23  C   UNL A   1      37.216  20.827  25.127  1.00  0.00    -0.014 A 
ATOM     24  C   UNL A   1      37.884  19.602  25.048  1.00  0.00     0.012 A 
ATOM     25  C   UNL A   1      37.894  21.899  25.752  1.00  0.00     0.012 A 
ATOM     26  C   UNL A   1      39.222  19.488  25.449  1.00  0.00     0.047 A 
ATOM     27  C   UNL A   1      39.245  21.801  26.115  1.00  0.00     0.047 A 
ATOM     28  C   UNL A   1      39.907  20.601  25.918  1.00  0.00     0.115 A 
BRANCH  28  29
ATOM     29  O   UNL A   1      41.241  20.481  26.163  1.00  0.00    -0.508 OA
ATOM     30  H   UNL A   1      41.540  19.977  26.894  1.00  0.00     0.293 HD
ENDBRANCH  28  29
ENDBRANCH  16  23
ENDBRANCH   6   8
ENDBRANCH   5   6
ENDBRANCH   4   5
ENDBRANCH   3   4
ENDBRANCH   2   3
ENDBRANCH   1   2
BRANCH   1  31
ATOM     31  C   UNL A   1      32.686  30.075  26.029  1.00  0.00     0.188 C 
BRANCH  31  32
ATOM     32  O   UNL A   1      32.874  30.310  27.390  1.00  0.00    -0.376 OA
BRANCH  32  33
ATOM     33  C   UNL A   1      33.865  31.259  27.703  1.00  0.00     0.202 C 
BRANCH  33  34
ATOM     34  C   UNL A   1      33.657  32.742  27.410  1.00  0.00     0.261 C 
BRANCH  34  35
ATOM     35  O   UNL A   1      32.748  33.392  28.298  1.00  0.00    -0.460 OA
BRANCH  35  36
ATOM     36  C   UNL A   1      33.182  34.569  28.799  1.00  0.00     0.338 C 
ATOM     37  O   UNL A   1      32.649  35.662  28.725  1.00  0.00    -0.246 OA
BRANCH  36  38
ATOM     38  C   UNL A   1      34.349  34.296  29.647  1.00  0.00     0.060 A 
ATOM     39  C   UNL A   1      35.631  34.540  29.135  1.00  0.00     0.016 A 
ATOM     40  C   UNL A   1      34.167  33.735  30.910  1.00  0.00     0.016 A 
ATOM     41  C   UNL A   1      36.747  34.199  29.881  1.00  0.00     0.010 A 
ATOM     42  C   UNL A   1      35.286  33.336  31.635  1.00  0.00     0.010 A 
ATOM     43  C   UNL A   1      36.569  33.525  31.092  1.00  0.00    -0.014 A 
BRANCH  43  44
ATOM     44  C   UNL A   1      37.704  32.727  31.589  1.00  0.00     0.031 A 
ATOM     45  C   UNL A   1      38.256  33.092  32.938  1.00  0.00     0.074 A 
ATOM     46  C   UNL A   1      38.160  31.670  30.904  1.00  0.00     0.049 A 
ATOM     47  N   UNL A   1      39.216  32.532  33.625  1.00  0.00    -0.248 NA
ATOM     48  C   UNL A   1      37.635  34.249  33.606  1.00  0.00     0.031 C 
ATOM     49  C   UNL A   1      37.637  31.202  29.623  1.00  0.00     0.029 A 
ATOM     50  N   UNL A   1      39.168  30.794  31.205  1.00  0.00    -0.354 N 
ATOM     51  C   UNL A   1      39.314  33.270  34.797  1.00  0.00     0.074 A 
ATOM     52  C   UNL A   1      38.347  34.339  34.716  1.00  0.00     0.031 C 
ATOM     53  C   UNL A   1      38.336  30.119  29.242  1.00  0.00     0.029 A 
ATOM     54  C   UNL A   1      39.368  29.842  30.241  1.00  0.00     0.049 A 
ATOM     55  H   UNL A   1      39.697  30.845  32.034  1.00  0.00     0.167 HD
ATOM     56  C   UNL A   1      40.138  33.065  35.849  1.00  0.00     0.037 A 
ATOM     57  C   UNL A   1      40.296  28.870  30.180  1.00  0.00     0.037 A 
ATOM     58  C   UNL A   1      41.108  32.005  35.899  1.00  0.00     0.049 A 
ATOM     59  C   UNL A   1      41.268  28.723  31.326  1.00  0.00     0.074 A 
ATOM     60  C   UNL A   1      41.994  31.695  36.914  1.00  0.00     0.029 A 
ATOM     61  N   UNL A   1      41.331  31.094  34.876  1.00  0.00    -0.354 N 
ATOM     62  N   UNL A   1      41.344  29.403  32.447  1.00  0.00    -0.248 NA
ATOM     63  C   UNL A   1      42.277  27.664  31.200  1.00  0.00     0.031 C 
ATOM     64  C   UNL A   1      42.812  30.652  36.468  1.00  0.00     0.029 A 
ATOM     65  C   UNL A   1      42.370  30.246  35.218  1.00  0.00     0.049 A 
ATOM     66  H   UNL A   1      40.825  31.057  34.032  1.00  0.00     0.167 HD
ATOM     67  C   UNL A   1      42.375  28.824  33.178  1.00  0.00     0.074 A 
ATOM     68  C   UNL A   1      42.884  27.731  32.376  1.00  0.00     0.031 C 
ATOM     69  C   UNL A   1      42.855  29.158  34.404  1.00  0.00     0.037 A 
BRANCH  56  70
ATOM     70  C   UNL A   1      40.067  34.044  36.986  1.00  0.00     0.064 A 
ATOM     71  C   UNL A   1      39.220  33.852  38.088  1.00  0.00     0.173 A 
ATOM     72  C   UNL A   1      40.864  35.199  36.967  1.00  0.00     0.173 A 
ATOM     73  F   UNL A   1      38.420  32.777  38.150  1.00  0.00    -0.203 F 
ATOM     74  C   UNL A   1      39.146  34.798  39.109  1.00  0.00     0.198 A 
ATOM     75  C   UNL A   1      40.819  36.120  38.009  1.00  0.00     0.198 A 
ATOM     76  F   UNL A   1      41.689  35.436  35.936  1.00  0.00    -0.203 F 
ATOM     77  F   UNL A   1      38.281  34.627  40.118  1.00  0.00    -0.200 F 
ATOM     78  C   UNL A   1      39.952  35.926  39.073  1.00  0.00     0.200 A 
ATOM     79  F   UNL A   1      41.610  37.202  37.978  1.00  0.00    -0.200 F 
ATOM     80  F   UNL A   1      39.886  36.831  40.059  1.00  0.00    -0.200 F 
ENDBRANCH  56  70
BRANCH  57  81
ATOM     81  C   UNL A   1      40.353  27.959  29.006  1.00  0.00     0.064 A 
ATOM     82  C   UNL A   1      41.096  28.291  27.866  1.00  0.00     0.173 A 
ATOM     83  C   UNL A   1      39.638  26.752  28.988  1.00  0.00     0.173 A 
ATOM     84  F   UNL A   1      41.780  29.445  27.826  1.00  0.00    -0.203 F 
ATOM     85  C   UNL A   1      41.096  27.471  26.740  1.00  0.00     0.198 A 
ATOM     86  C   UNL A   1      39.669  25.913  27.876  1.00  0.00     0.198 A 
ATOM     87  F   UNL A   1      38.909  26.384  30.051  1.00  0.00    -0.203 F 
ATOM     88  F   UNL A   1      41.762  27.847  25.640  1.00  0.00    -0.200 F 
ATOM     89  C   UNL A   1      40.387  26.279  26.748  1.00  0.00     0.200 A 
ATOM     90  F   UNL A   1      38.993  24.756  27.893  1.00  0.00    -0.200 F 
ATOM     91  F   UNL A   1      40.385  25.492  25.663  1.00  0.00    -0.200 F 
ENDBRANCH  57  81
BRANCH  69  92
ATOM     92  C   UNL A   1      43.941  28.290  34.980  1.00  0.00     0.064 A 
ATOM     93  C   UNL A   1      45.299  28.623  34.875  1.00  0.00     0.173 A 
ATOM     94  C   UNL A   1      43.607  27.113  35.671  1.00  0.00     0.173 A 
ATOM     95  F   UNL A   1      45.676  29.733  34.223  1.00  0.00    -0.203 F 
ATOM     96  C   UNL A   1      46.283  27.784  35.393  1.00  0.00     0.198 A 
ATOM     97  C   UNL A   1      44.590  26.303  36.229  1.00  0.00     0.198 A 
ATOM     98  F   UNL A   1      42.322  26.754  35.817  1.00  0.00    -0.203 F 
ATOM     99  F   UNL A   1      47.578  28.081  35.211  1.00  0.00    -0.200 F 
ATOM    100  C   UNL A   1      45.928  26.630  36.075  1.00  0.00     0.200 A 
ATOM    101  F   UNL A   1      44.242  25.204  36.912  1.00  0.00    -0.200 F 
ATOM    102  F   UNL A   1      46.877  25.826  36.576  1.00  0.00    -0.200 F 
ENDBRANCH  69  92
ENDBRANCH  43  44
ENDBRANCH  36  38
ENDBRANCH  35  36
ENDBRANCH  34  35
ENDBRANCH  33  34
ENDBRANCH  32  33
ENDBRANCH  31  32
ENDBRANCH   1  31
TORSDOF 20
ENDMDL
MODEL 2
REMARK VINA RESULT:     -13.2      0.672      6.994
REMARK SMILES O=C(OCCOCCOCCOC(=O)c1ccc(-c2c3nc(c(-c4c(F)c(F)c(F)c(F)c4F)c4ccc([nH]4)c(-c4c(F)c(F)c(F)c(F)c4F)c4nc(c(-c5c(F)c(F)c(F)c(F)c5F)c5ccc2[nH]5)C=C4)C=C3)cc1)C1=Cc2cc(Cl)cc(-c3ccc(O)cc3)c2O[C@@H]1C(F)(F)F
REMARK SMILES IDX 7 1 6 2 5 3 4 4 3 5 2 6 1 7 78 8 79 9 95 10 80 11 94 12
REMARK SMILES IDX 81 13 93 14 82 15 85 16 83 17 84 18 96 19 97 20 98 21 99 22
REMARK SMILES IDX 86 23 87 24 92 25 88 26 91 27 89 28 90 29 8 31 9 32 10 33
REMARK SMILES IDX 11 34 12 35 13 36 14 37 15 38 16 39 77 40 17 41 76 42 18 43
REMARK SMILES IDX 19 44 20 45 70 46 21 47 75 48 69 49 71 50 22 51 74 52 68 53
REMARK SMILES IDX 67 54 23 56 55 57 35 58 54 59 36 60 39 61 53 62 72 63 37 64
REMARK SMILES IDX 38 65 52 67 73 68 40 69 24 70 25 71 33 72 26 73 27 74 31 75
REMARK SMILES IDX 34 76 28 77 29 78 32 79 30 80 56 81 57 82 65 83 58 84 59 85
REMARK SMILES IDX 63 86 66 87 60 88 61 89 64 90 62 91 41 92 42 93 50 94 43 95
REMARK SMILES IDX 44 96 48 97 51 98 45 99 46 100 49 101 47 102
REMARK H PARENT 90 30 71 55 39 66
REMARK Flexibility Score: inf
ROOT
ATOM      1  C   UNL A   1      31.139  29.686  24.654  1.00  0.00     0.188 C 
ENDROOT
BRANCH   1   2
ATOM      2  O   UNL A   1      30.328  29.387  23.404  1.00  0.00    -0.376 OA
BRANCH   2   3
ATOM      3  C   UNL A   1      29.939  27.795  22.737  1.00  0.00     0.202 C 
BRANCH   3   4
ATOM      4  C   UNL A   1      31.470  26.327  22.256  1.00  0.00     0.261 C 
BRANCH   4   5
ATOM      5  O   UNL A   1      31.491  24.867  22.699  1.00  0.00    -0.460 OA
BRANCH   5   6
ATOM      6  C   UNL A   1      32.733  24.362  22.705  1.00  0.00     0.338 C 
ATOM      7  O   UNL A   1      33.426  24.071  21.762  1.00  0.00    -0.246 OA
BRANCH   6   8
ATOM      8  C   UNL A   1      32.696  23.832  24.058  1.00  0.00     0.087 C 
ATOM      9  C   UNL A   1      32.496  22.403  24.184  1.00  0.00     0.027 C 
ATOM     10  C   UNL A   1      34.286  24.754  24.580  1.00  0.00     0.316 C 
ATOM     11  C   UNL A   1      33.795  21.230  24.535  1.00  0.00     0.019 A 
ATOM     12  O   UNL A   1      35.778  23.489  24.824  1.00  0.00    -0.475 OA
ATOM     13  C   UNL A   1      33.481  19.905  24.381  1.00  0.00     0.032 A 
ATOM     14  C   UNL A   1      35.447  21.686  24.794  1.00  0.00     0.135 A 
ATOM     15  C   UNL A   1      34.553  19.018  24.497  1.00  0.00     0.042 A 
ATOM     16  C   UNL A   1      36.434  20.724  24.968  1.00  0.00     0.026 A 
ATOM     17  Cl  UNL A   1      34.227  17.336  24.240  1.00  0.00    -0.084 Cl
ATOM     18  C   UNL A   1      35.913  19.399  24.792  1.00  0.00     0.033 A 
BRANCH  10  19
ATOM     19  C   UNL A   1      33.348  25.709  25.679  1.00  0.00     0.430 C 
ATOM     20  F   UNL A   1      32.205  26.305  25.329  1.00  0.00    -0.167 F 
ATOM     21  F   UNL A   1      33.033  24.908  26.738  1.00  0.00    -0.167 F 
ATOM     22  F   UNL A   1      34.076  26.727  26.239  1.00  0.00    -0.167 F 
ENDBRANCH  10  19
BRANCH  16  23
ATOM     23  C   UNL A   1      37.845  20.799  25.340  1.00  0.00    -0.014 A 
ATOM     24  C   UNL A   1      38.652  19.660  25.396  1.00  0.00     0.012 A 
ATOM     25  C   UNL A   1      38.365  21.994  25.886  1.00  0.00     0.012 A 
ATOM     26  C   UNL A   1      39.975  19.741  25.851  1.00  0.00     0.047 A 
ATOM     27  C   UNL A   1      39.701  22.090  26.301  1.00  0.00     0.047 A 
ATOM     28  C   UNL A   1      40.506  20.964  26.239  1.00  0.00     0.115 A 
BRANCH  28  29
ATOM     29  O   UNL A   1      41.833  21.026  26.539  1.00  0.00    -0.508 OA
ATOM     30  H   UNL A   1      42.113  20.988  27.431  1.00  0.00     0.293 HD
ENDBRANCH  28  29
ENDBRANCH  16  23
ENDBRANCH   6   8
ENDBRANCH   5   6
ENDBRANCH   4   5
ENDBRANCH   3   4
ENDBRANCH   2   3
ENDBRANCH   1   2
BRANCH   1  31
ATOM     31  C   UNL A   1      32.619  29.332  24.851  1.00  0.00     0.188 C 
BRANCH  31  32
ATOM     32  O   UNL A   1      33.286  29.719  26.012  1.00  0.00    -0.376 OA
BRANCH  32  33
ATOM     33  C   UNL A   1      32.742  30.838  26.671  1.00  0.00     0.202 C 
BRANCH  33  34
ATOM     34  C   UNL A   1      33.577  31.656  27.652  1.00  0.00     0.261 C 
BRANCH  34  35
ATOM     35  O   UNL A   1      33.755  33.020  27.272  1.00  0.00    -0.460 OA
BRANCH  35  36
ATOM     36  C   UNL A   1      33.512  33.922  28.247  1.00  0.00     0.338 C 
ATOM     37  O   UNL A   1      32.525  34.621  28.398  1.00  0.00    -0.246 OA
BRANCH  36  38
ATOM     38  C   UNL A   1      34.573  33.797  29.253  1.00  0.00     0.060 A 
ATOM     39  C   UNL A   1      35.895  34.084  28.883  1.00  0.00     0.016 A 
ATOM     40  C   UNL A   1      34.263  33.328  30.529  1.00  0.00     0.016 A 
ATOM     41  C   UNL A   1      36.924  33.880  29.788  1.00  0.00     0.010 A 
ATOM     42  C   UNL A   1      35.300  33.065  31.418  1.00  0.00     0.010 A 
ATOM     43  C   UNL A   1      36.630  33.295  31.023  1.00  0.00    -0.014 A 
BRANCH  43  44
ATOM     44  C   UNL A   1      37.734  32.618  31.724  1.00  0.00     0.031 A 
ATOM     45  C   UNL A   1      38.376  31.453  31.026  1.00  0.00     0.074 A 
ATOM     46  C   UNL A   1      38.199  33.081  32.893  1.00  0.00     0.049 A 
ATOM     47  N   UNL A   1      39.386  30.712  31.395  1.00  0.00    -0.248 NA
ATOM     48  C   UNL A   1      37.796  31.073  29.725  1.00  0.00     0.031 C 
ATOM     49  C   UNL A   1      37.684  34.246  33.607  1.00  0.00     0.029 A 
ATOM     50  N   UNL A   1      39.222  32.621  33.677  1.00  0.00    -0.354 N 
ATOM     51  C   UNL A   1      39.557  29.782  30.379  1.00  0.00     0.074 A 
ATOM     52  C   UNL A   1      38.528  30.023  29.395  1.00  0.00     0.031 C 
ATOM     53  C   UNL A   1      38.396  34.409  34.735  1.00  0.00     0.029 A 
ATOM     54  C   UNL A   1      39.392  33.343  34.829  1.00  0.00     0.049 A 
ATOM     55  H   UNL A   1      39.781  31.846  33.437  1.00  0.00     0.167 HD
ATOM     56  C   UNL A   1      40.498  28.816  30.277  1.00  0.00     0.037 A 
ATOM     57  C   UNL A   1      40.253  33.143  35.843  1.00  0.00     0.037 A 
ATOM     58  C   UNL A   1      41.502  28.581  31.279  1.00  0.00     0.049 A 
ATOM     59  C   UNL A   1      41.231  31.996  35.748  1.00  0.00     0.074 A 
ATOM     60  C   UNL A   1      42.511  27.636  31.283  1.00  0.00     0.029 A 
ATOM     61  N   UNL A   1      41.607  29.291  32.468  1.00  0.00    -0.354 N 
ATOM     62  N   UNL A   1      41.412  31.134  34.775  1.00  0.00    -0.248 NA
ATOM     63  C   UNL A   1      42.132  31.805  36.891  1.00  0.00     0.031 C 
ATOM     64  C   UNL A   1      43.170  27.716  32.514  1.00  0.00     0.029 A 
ATOM     65  C   UNL A   1      42.640  28.776  33.233  1.00  0.00     0.049 A 
ATOM     66  H   UNL A   1      41.033  30.047  32.727  1.00  0.00     0.167 HD
ATOM     67  C   UNL A   1      42.476  30.329  35.168  1.00  0.00     0.074 A 
ATOM     68  C   UNL A   1      42.905  30.818  36.462  1.00  0.00     0.031 C 
ATOM     69  C   UNL A   1      43.053  29.286  34.518  1.00  0.00     0.037 A 
BRANCH  56  70
ATOM     70  C   UNL A   1      40.435  27.910  29.081  1.00  0.00     0.064 A 
ATOM     71  C   UNL A   1      41.152  28.172  27.903  1.00  0.00     0.173 A 
ATOM     72  C   UNL A   1      39.636  26.757  29.117  1.00  0.00     0.173 A 
ATOM     73  F   UNL A   1      41.916  29.270  27.805  1.00  0.00    -0.203 F 
ATOM     74  C   UNL A   1      41.043  27.334  26.795  1.00  0.00     0.198 A 
ATOM     75  C   UNL A   1      39.562  25.900  28.023  1.00  0.00     0.198 A 
ATOM     76  F   UNL A   1      38.924  26.460  30.214  1.00  0.00    -0.203 F 
ATOM     77  F   UNL A   1      41.684  27.640  25.660  1.00  0.00    -0.200 F 
ATOM     78  C   UNL A   1      40.255  26.194  26.859  1.00  0.00     0.200 A 
ATOM     79  F   UNL A   1      38.811  24.791  28.094  1.00  0.00    -0.200 F 
ATOM     80  F   UNL A   1      40.156  25.385  25.796  1.00  0.00    -0.200 F 
ENDBRANCH  56  70
BRANCH  57  81
ATOM     81  C   UNL A   1      40.239  34.042  37.027  1.00  0.00     0.064 A 
ATOM     82  C   UNL A   1      41.080  35.161  37.098  1.00  0.00     0.173 A 
ATOM     83  C   UNL A   1      39.408  33.782  38.127  1.00  0.00     0.173 A 
ATOM     84  F   UNL A   1      41.910  35.440  36.082  1.00  0.00    -0.203 F 
ATOM     85  C   UNL A   1      41.116  35.965  38.235  1.00  0.00     0.198 A 
ATOM     86  C   UNL A   1      39.417  34.609  39.248  1.00  0.00     0.198 A 
ATOM     87  F   UNL A   1      38.584  32.724  38.114  1.00  0.00    -0.203 F 
ATOM     88  F   UNL A   1      41.978  36.989  38.301  1.00  0.00    -0.200 F 
ATOM     89  C   UNL A   1      40.280  35.692  39.307  1.00  0.00     0.200 A 
ATOM     90  F   UNL A   1      38.597  34.348  40.276  1.00  0.00    -0.200 F 
ATOM     91  F   UNL A   1      40.317  36.464  40.402  1.00  0.00    -0.200 F 
ENDBRANCH  57  81
BRANCH  69  92
ATOM     92  C   UNL A   1      44.252  28.648  35.165  1.00  0.00     0.064 A 
ATOM     93  C   UNL A   1      45.557  29.110  34.945  1.00  0.00     0.173 A 
ATOM     94  C   UNL A   1      44.081  27.564  36.044  1.00  0.00     0.173 A 
ATOM     95  F   UNL A   1      45.780  30.138  34.112  1.00  0.00    -0.203 F 
ATOM     96  C   UNL A   1      46.649  28.479  35.535  1.00  0.00     0.198 A 
ATOM     97  C   UNL A   1      45.170  26.968  36.670  1.00  0.00     0.198 A 
ATOM     98  F   UNL A   1      42.854  27.091  36.307  1.00  0.00    -0.203 F 
ATOM     99  F   UNL A   1      47.893  28.887  35.247  1.00  0.00    -0.200 F 
ATOM    100  C   UNL A   1      46.455  27.415  36.403  1.00  0.00     0.200 A 
ATOM    101  F   UNL A   1      44.977  25.958  37.530  1.00  0.00    -0.200 F 
ATOM    102  F   UNL A   1      47.507  26.812  36.973  1.00  0.00    -0.200 F 
ENDBRANCH  69  92
ENDBRANCH  43  44
ENDBRANCH  36  38
ENDBRANCH  35  36
ENDBRANCH  34  35
ENDBRANCH  33  34
ENDBRANCH  32  33
ENDBRANCH  31  32
ENDBRANCH   1  31
TORSDOF 20
ENDMDL
MODEL 3
REMARK VINA RESULT:     -12.6      5.571     11.046
REMARK SMILES O=C(OCCOCCOCCOC(=O)c1ccc(-c2c3nc(c(-c4c(F)c(F)c(F)c(F)c4F)c4ccc([nH]4)c(-c4c(F)c(F)c(F)c(F)c4F)c4nc(c(-c5c(F)c(F)c(F)c(F)c5F)c5ccc2[nH]5)C=C4)C=C3)cc1)C1=Cc2cc(Cl)cc(-c3ccc(O)cc3)c2O[C@@H]1C(F)(F)F
REMARK SMILES IDX 7 1 6 2 5 3 4 4 3 5 2 6 1 7 78 8 79 9 95 10 80 11 94 12
REMARK SMILES IDX 81 13 93 14 82 15 85 16 83 17 84 18 96 19 97 20 98 21 99 22
REMARK SMILES IDX 86 23 87 24 92 25 88 26 91 27 89 28 90 29 8 31 9 32 10 33
REMARK SMILES IDX 11 34 12 35 13 36 14 37 15 38 16 39 77 40 17 41 76 42 18 43
REMARK SMILES IDX 19 44 20 45 70 46 21 47 75 48 69 49 71 50 22 51 74 52 68 53
REMARK SMILES IDX 67 54 23 56 55 57 35 58 54 59 36 60 39 61 53 62 72 63 37 64
REMARK SMILES IDX 38 65 52 67 73 68 40 69 24 70 25 71 33 72 26 73 27 74 31 75
REMARK SMILES IDX 34 76 28 77 29 78 32 79 30 80 56 81 57 82 65 83 58 84 59 85
REMARK SMILES IDX 63 86 66 87 60 88 61 89 64 90 62 91 41 92 42 93 50 94 43 95
REMARK SMILES IDX 44 96 48 97 51 98 45 99 46 100 49 101 47 102
REMARK H PARENT 90 30 71 55 39 66
REMARK Flexibility Score: inf
ROOT
ATOM      1  C   UNL A   1      40.914  21.998  27.119  1.00  0.00     0.188 C 
ENDROOT
BRANCH   1   2
ATOM      2  O   UNL A   1      39.883  22.692  26.246  1.00  0.00    -0.376 OA
BRANCH   2   3
ATOM      3  C   UNL A   1      38.214  22.180  25.950  1.00  0.00     0.202 C 
BRANCH   3   4
ATOM      4  C   UNL A   1      36.929  23.174  24.505  1.00  0.00     0.261 C 
BRANCH   4   5
ATOM      5  O   UNL A   1      35.879  24.238  24.813  1.00  0.00    -0.460 OA
BRANCH   5   6
ATOM      6  C   UNL A   1      34.799  24.120  24.028  1.00  0.00     0.338 C 
ATOM      7  O   UNL A   1      34.736  24.201  22.827  1.00  0.00    -0.246 OA
BRANCH   6   8
ATOM      8  C   UNL A   1      33.809  24.404  25.055  1.00  0.00     0.087 C 
ATOM      9  C   UNL A   1      34.110  25.500  25.952  1.00  0.00     0.027 C 
ATOM     10  C   UNL A   1      32.357  24.386  23.813  1.00  0.00     0.316 C 
ATOM     11  C   UNL A   1      33.390  27.129  25.830  1.00  0.00     0.019 A 
ATOM     12  O   UNL A   1      31.646  26.205  23.545  1.00  0.00    -0.475 OA
ATOM     13  C   UNL A   1      33.959  28.109  26.601  1.00  0.00     0.032 A 
ATOM     14  C   UNL A   1      32.222  27.567  24.628  1.00  0.00     0.135 A 
ATOM     15  C   UNL A   1      33.493  29.404  26.365  1.00  0.00     0.042 A 
ATOM     16  C   UNL A   1      31.767  28.875  24.518  1.00  0.00     0.026 A 
ATOM     17  Cl  UNL A   1      34.229  30.691  27.261  1.00  0.00    -0.084 Cl
ATOM     18  C   UNL A   1      32.461  29.751  25.418  1.00  0.00     0.033 A 
BRANCH  10  19
ATOM     19  C   UNL A   1      31.734  22.970  24.593  1.00  0.00     0.430 C 
ATOM     20  F   UNL A   1      32.123  22.581  25.809  1.00  0.00    -0.167 F 
ATOM     21  F   UNL A   1      30.380  23.120  24.673  1.00  0.00    -0.167 F 
ATOM     22  F   UNL A   1      31.898  21.841  23.832  1.00  0.00    -0.167 F 
ENDBRANCH  10  19
BRANCH  16  23
ATOM     23  C   UNL A   1      30.710  29.501  23.727  1.00  0.00    -0.014 A 
ATOM     24  C   UNL A   1      30.569  29.253  22.359  1.00  0.00     0.012 A 
ATOM     25  C   UNL A   1      29.953  30.560  24.278  1.00  0.00     0.012 A 
ATOM     26  C   UNL A   1      29.612  29.939  21.601  1.00  0.00     0.047 A 
ATOM     27  C   UNL A   1      28.964  31.219  23.534  1.00  0.00     0.047 A 
ATOM     28  C   UNL A   1      28.777  30.869  22.207  1.00  0.00     0.115 A 
BRANCH  28  29
ATOM     29  O   UNL A   1      27.768  31.410  21.469  1.00  0.00    -0.508 OA
ATOM     30  H   UNL A   1      27.871  31.519  20.545  1.00  0.00     0.293 HD
ENDBRANCH  28  29
ENDBRANCH  16  23
ENDBRANCH   6   8
ENDBRANCH   5   6
ENDBRANCH   4   5
ENDBRANCH   3   4
ENDBRANCH   2   3
ENDBRANCH   1   2
BRANCH   1  31
ATOM     31  C   UNL A   1      41.112  20.480  27.214  1.00  0.00     0.188 C 
BRANCH  31  32
ATOM     32  O   UNL A   1      41.547  19.756  26.105  1.00  0.00    -0.376 OA
BRANCH  32  33
ATOM     33  C   UNL A   1      42.447  18.711  26.387  1.00  0.00     0.202 C 
BRANCH  33  34
ATOM     34  C   UNL A   1      43.534  18.317  25.390  1.00  0.00     0.261 C 
BRANCH  34  35
ATOM     35  O   UNL A   1      44.670  19.181  25.393  1.00  0.00    -0.460 OA
BRANCH  35  36
ATOM     36  C   UNL A   1      44.693  20.098  24.401  1.00  0.00     0.338 C 
ATOM     37  O   UNL A   1      44.731  19.906  23.198  1.00  0.00    -0.246 OA
BRANCH  36  38
ATOM     38  C   UNL A   1      44.465  21.418  25.000  1.00  0.00     0.060 A 
ATOM     39  C   UNL A   1      44.102  22.487  24.169  1.00  0.00     0.016 A 
ATOM     40  C   UNL A   1      44.683  21.603  26.365  1.00  0.00     0.016 A 
ATOM     41  C   UNL A   1      43.977  23.761  24.698  1.00  0.00     0.010 A 
ATOM     42  C   UNL A   1      44.618  22.891  26.887  1.00  0.00     0.010 A 
ATOM     43  C   UNL A   1      44.315  23.970  26.038  1.00  0.00    -0.014 A 
BRANCH  43  44
ATOM     44  C   UNL A   1      44.682  25.342  26.431  1.00  0.00     0.031 A 
ATOM     45  C   UNL A   1      43.595  26.200  27.014  1.00  0.00     0.074 A 
ATOM     46  C   UNL A   1      45.949  25.769  26.350  1.00  0.00     0.049 A 
ATOM     47  N   UNL A   1      43.654  27.419  27.478  1.00  0.00    -0.248 NA
ATOM     48  C   UNL A   1      42.254  25.593  27.086  1.00  0.00     0.031 C 
ATOM     49  C   UNL A   1      47.079  24.981  25.864  1.00  0.00     0.029 A 
ATOM     50  N   UNL A   1      46.494  26.978  26.689  1.00  0.00    -0.354 N 
ATOM     51  C   UNL A   1      42.364  27.724  27.890  1.00  0.00     0.074 A 
ATOM     52  C   UNL A   1      41.534  26.581  27.590  1.00  0.00     0.031 C 
ATOM     53  C   UNL A   1      48.190  25.734  25.932  1.00  0.00     0.029 A 
ATOM     54  C   UNL A   1      47.838  27.059  26.440  1.00  0.00     0.049 A 
ATOM     55  H   UNL A   1      45.969  27.717  27.075  1.00  0.00     0.167 HD
ATOM     56  C   UNL A   1      41.917  28.859  28.474  1.00  0.00     0.037 A 
ATOM     57  C   UNL A   1      48.674  28.102  26.597  1.00  0.00     0.037 A 
ATOM     58  C   UNL A   1      42.758  29.992  28.746  1.00  0.00     0.049 A 
ATOM     59  C   UNL A   1      48.128  29.391  27.162  1.00  0.00     0.074 A 
ATOM     60  C   UNL A   1      42.419  31.193  29.340  1.00  0.00     0.029 A 
ATOM     61  N   UNL A   1      44.106  30.067  28.422  1.00  0.00    -0.354 N 
ATOM     62  N   UNL A   1      46.915  29.671  27.578  1.00  0.00    -0.248 NA
ATOM     63  C   UNL A   1      49.075  30.505  27.290  1.00  0.00     0.031 C 
ATOM     64  C   UNL A   1      43.541  32.028  29.292  1.00  0.00     0.029 A 
ATOM     65  C   UNL A   1      44.604  31.312  28.764  1.00  0.00     0.049 A 
ATOM     66  H   UNL A   1      44.629  29.342  28.009  1.00  0.00     0.167 HD
ATOM     67  C   UNL A   1      46.964  30.974  28.059  1.00  0.00     0.074 A 
ATOM     68  C   UNL A   1      48.332  31.421  27.893  1.00  0.00     0.031 C 
ATOM     69  C   UNL A   1      45.974  31.732  28.596  1.00  0.00     0.037 A 
BRANCH  56  70
ATOM     70  C   UNL A   1      40.451  28.945  28.788  1.00  0.00     0.064 A 
ATOM     71  C   UNL A   1      39.940  28.668  30.066  1.00  0.00     0.173 A 
ATOM     72  C   UNL A   1      39.540  29.311  27.785  1.00  0.00     0.173 A 
ATOM     73  F   UNL A   1      40.762  28.294  31.058  1.00  0.00    -0.203 F 
ATOM     74  C   UNL A   1      38.570  28.719  30.317  1.00  0.00     0.198 A 
ATOM     75  C   UNL A   1      38.177  29.402  28.050  1.00  0.00     0.198 A 
ATOM     76  F   UNL A   1      39.972  29.582  26.545  1.00  0.00    -0.203 F 
ATOM     77  F   UNL A   1      38.099  28.386  31.526  1.00  0.00    -0.200 F 
ATOM     78  C   UNL A   1      37.691  29.094  29.311  1.00  0.00     0.200 A 
ATOM     79  F   UNL A   1      37.332  29.779  27.080  1.00  0.00    -0.200 F 
ATOM     80  F   UNL A   1      36.375  29.150  29.556  1.00  0.00    -0.200 F 
ENDBRANCH  56  70
BRANCH  57  81
ATOM     81  C   UNL A   1      50.108  27.976  26.223  1.00  0.00     0.064 A 
ATOM     82  C   UNL A   1      50.510  27.987  24.881  1.00  0.00     0.173 A 
ATOM     83  C   UNL A   1      51.102  27.810  27.199  1.00  0.00     0.173 A 
ATOM     84  F   UNL A   1      49.596  28.121  23.909  1.00  0.00    -0.203 F 
ATOM     85  C   UNL A   1      51.845  27.801  24.526  1.00  0.00     0.198 A 
ATOM     86  C   UNL A   1      52.441  27.663  26.845  1.00  0.00     0.198 A 
ATOM     87  F   UNL A   1      50.774  27.791  28.499  1.00  0.00    -0.203 F 
ATOM     88  F   UNL A   1      52.191  27.749  23.233  1.00  0.00    -0.200 F 
ATOM     89  C   UNL A   1      52.811  27.646  25.509  1.00  0.00     0.200 A 
ATOM     90  F   UNL A   1      53.373  27.526  27.800  1.00  0.00    -0.200 F 
ATOM     91  F   UNL A   1      54.094  27.465  25.168  1.00  0.00    -0.200 F 
ENDBRANCH  57  81
BRANCH  69  92
ATOM     92  C   UNL A   1      46.349  33.098  29.103  1.00  0.00     0.064 A 
ATOM     93  C   UNL A   1      46.286  34.241  28.295  1.00  0.00     0.173 A 
ATOM     94  C   UNL A   1      46.757  33.263  30.438  1.00  0.00     0.173 A 
ATOM     95  F   UNL A   1      45.907  34.143  27.011  1.00  0.00    -0.203 F 
ATOM     96  C   UNL A   1      46.668  35.487  28.786  1.00  0.00     0.198 A 
ATOM     97  C   UNL A   1      47.091  34.516  30.939  1.00  0.00     0.198 A 
ATOM     98  F   UNL A   1      46.820  32.207  31.264  1.00  0.00    -0.203 F 
ATOM     99  F   UNL A   1      46.677  36.552  27.971  1.00  0.00    -0.200 F 
ATOM    100  C   UNL A   1      47.063  35.626  30.108  1.00  0.00     0.200 A 
ATOM    101  F   UNL A   1      47.445  34.651  32.224  1.00  0.00    -0.200 F 
ATOM    102  F   UNL A   1      47.426  36.826  30.579  1.00  0.00    -0.200 F 
ENDBRANCH  69  92
ENDBRANCH  43  44
ENDBRANCH  36  38
ENDBRANCH  35  36
ENDBRANCH  34  35
ENDBRANCH  33  34
ENDBRANCH  32  33
ENDBRANCH  31  32
ENDBRANCH   1  31
TORSDOF 20
ENDMDL
