MODEL 1
REMARK VINA RESULT:     -11.6      0.000      0.000
REMARK SMILES Cc1ccccc1OCC(=O)NCCC(=O)OCCOCCOCCOC(=O)c1ccc(-c2c3nc(c(-c4c(F)c(F)c(F)c(F)c4F)c4ccc([nH]4)c(-c4c(F)c(F)c(F)c(F)c4F)c4nc(c(-c5c(F)c(F)c(F)c(F)c5F)c5ccc2[nH]5)C=C4)C=C3)cc1
REMARK SMILES IDX 20 1 19 2 18 3 17 4 15 5 16 6 14 7 13 8 12 9 10 10 11 11
REMARK SMILES IDX 9 13 8 14 7 15 1 16 2 17 3 18 4 19 6 20 5 21 21 22 22 23
REMARK SMILES IDX 23 24 24 25 25 26 26 27 27 28 28 29 29 30 30 31 91 32 31 33
REMARK SMILES IDX 90 34 32 35 33 36 34 37 84 38 35 39 89 40 83 41 85 42 36 43
REMARK SMILES IDX 88 44 82 45 81 46 37 48 69 49 49 50 68 51 50 52 53 53 67 54
REMARK SMILES IDX 86 55 51 56 52 57 66 59 87 60 54 61 38 62 39 63 47 64 40 65
REMARK SMILES IDX 41 66 45 67 48 68 42 69 43 70 46 71 44 72 70 73 71 74 79 75
REMARK SMILES IDX 72 76 73 77 77 78 80 79 74 80 75 81 78 82 76 83 55 84 56 85
REMARK SMILES IDX 64 86 57 87 58 88 62 89 65 90 59 91 60 92 63 93 61 94
REMARK H PARENT 12 12 85 47 53 58
REMARK Flexibility Score: inf
ROOT
ATOM      1  O   UNL A   1      33.178  22.399  26.463  1.00  0.00    -0.376 OA
ENDROOT
BRANCH   1   2
ATOM      2  C   UNL A   1      32.984  23.816  26.305  1.00  0.00     0.202 C 
BRANCH   2   3
ATOM      3  C   UNL A   1      33.932  25.083  25.620  1.00  0.00     0.261 C 
BRANCH   3   4
ATOM      4  O   UNL A   1      34.057  26.870  25.824  1.00  0.00    -0.463 OA
BRANCH   4   5
ATOM      5  C   UNL A   1      33.437  28.028  26.518  1.00  0.00     0.307 C 
ATOM      6  O   UNL A   1      33.793  28.669  27.516  1.00  0.00    -0.252 OA
BRANCH   5   7
ATOM      7  C   UNL A   1      32.124  28.505  26.076  1.00  0.00     0.144 C 
BRANCH   7   8
ATOM      8  C   UNL A   1      32.274  29.286  24.821  1.00  0.00     0.127 C 
BRANCH   8   9
ATOM      9  N   UNL A   1      30.973  29.817  24.546  1.00  0.00    -0.353 N 
ATOM     10  C   UNL A   1      30.223  29.440  23.467  1.00  0.00     0.257 C 
ATOM     11  O   UNL A   1      29.283  30.159  23.131  1.00  0.00    -0.271 OA
ATOM     12  H   UNL A   1      30.600  30.488  25.163  1.00  0.00     0.163 HD
BRANCH  10  13
ATOM     13  C   UNL A   1      30.539  28.090  22.774  1.00  0.00     0.329 C 
BRANCH  13  14
ATOM     14  O   UNL A   1      30.541  26.835  23.425  1.00  0.00    -0.484 OA
BRANCH  14  15
ATOM     15  C   UNL A   1      31.234  25.729  23.031  1.00  0.00     0.122 A 
ATOM     16  C   UNL A   1      33.343  26.745  21.935  1.00  0.00     0.048 C 
ATOM     17  C   UNL A   1      32.474  25.613  22.393  1.00  0.00    -0.009 A 
ATOM     18  C   UNL A   1      33.031  24.322  22.228  1.00  0.00     0.007 A 
ATOM     19  C   UNL A   1      32.383  23.171  22.672  1.00  0.00     0.001 A 
ATOM     20  C   UNL A   1      30.570  24.547  23.432  1.00  0.00     0.047 A 
ATOM     21  C   UNL A   1      31.141  23.283  23.272  1.00  0.00     0.004 A 
ENDBRANCH  14  15
ENDBRANCH  13  14
ENDBRANCH  10  13
ENDBRANCH   8   9
ENDBRANCH   7   8
ENDBRANCH   5   7
ENDBRANCH   4   5
ENDBRANCH   3   4
ENDBRANCH   2   3
ENDBRANCH   1   2
BRANCH   1  22
ATOM     22  C   UNL A   1      34.428  21.693  26.547  1.00  0.00     0.188 C 
BRANCH  22  23
ATOM     23  C   UNL A   1      35.293  21.444  25.334  1.00  0.00     0.188 C 
BRANCH  23  24
ATOM     24  O   UNL A   1      36.640  21.552  25.719  1.00  0.00    -0.376 OA
BRANCH  24  25
ATOM     25  C   UNL A   1      37.549  20.722  25.043  1.00  0.00     0.202 C 
BRANCH  25  26
ATOM     26  C   UNL A   1      39.005  20.945  25.488  1.00  0.00     0.261 C 
BRANCH  26  27
ATOM     27  O   UNL A   1      39.100  21.948  26.537  1.00  0.00    -0.460 OA
BRANCH  27  28
ATOM     28  C   UNL A   1      40.216  22.757  26.601  1.00  0.00     0.338 C 
ATOM     29  O   UNL A   1      41.355  22.351  26.800  1.00  0.00    -0.246 OA
BRANCH  28  30
ATOM     30  C   UNL A   1      39.800  24.205  26.657  1.00  0.00     0.060 A 
ATOM     31  C   UNL A   1      40.475  25.329  26.139  1.00  0.00     0.016 A 
ATOM     32  C   UNL A   1      38.953  24.463  27.666  1.00  0.00     0.016 A 
ATOM     33  C   UNL A   1      40.495  26.616  26.843  1.00  0.00     0.010 A 
ATOM     34  C   UNL A   1      39.348  25.519  28.463  1.00  0.00     0.010 A 
ATOM     35  C   UNL A   1      40.042  26.737  28.160  1.00  0.00    -0.014 A 
BRANCH  35  36
ATOM     36  C   UNL A   1      40.173  28.145  29.217  1.00  0.00     0.031 A 
ATOM     37  C   UNL A   1      39.136  29.597  29.386  1.00  0.00     0.074 A 
ATOM     38  C   UNL A   1      41.276  28.195  29.986  1.00  0.00     0.049 A 
ATOM     39  N   UNL A   1      39.564  30.845  29.383  1.00  0.00    -0.248 NA
ATOM     40  C   UNL A   1      37.572  29.756  29.318  1.00  0.00     0.031 C 
ATOM     41  C   UNL A   1      41.565  29.059  31.122  1.00  0.00     0.029 A 
ATOM     42  N   UNL A   1      42.407  27.376  29.904  1.00  0.00    -0.354 N 
ATOM     43  C   UNL A   1      38.406  31.657  29.492  1.00  0.00     0.074 A 
ATOM     44  C   UNL A   1      37.384  30.972  28.844  1.00  0.00     0.031 C 
ATOM     45  C   UNL A   1      42.880  28.960  31.405  1.00  0.00     0.029 A 
ATOM     46  C   UNL A   1      43.479  28.149  30.353  1.00  0.00     0.049 A 
ATOM     47  H   UNL A   1      42.440  26.442  29.592  1.00  0.00     0.167 HD
ATOM     48  C   UNL A   1      38.195  32.537  30.521  1.00  0.00     0.037 A 
ATOM     49  C   UNL A   1      44.421  28.528  29.447  1.00  0.00     0.037 A 
ATOM     50  C   UNL A   1      39.478  32.731  31.144  1.00  0.00     0.049 A 
ATOM     51  C   UNL A   1      44.404  30.034  29.333  1.00  0.00     0.074 A 
ATOM     52  C   UNL A   1      40.054  32.280  32.312  1.00  0.00     0.029 A 
ATOM     53  N   UNL A   1      40.506  33.100  30.296  1.00  0.00    -0.354 N 
ATOM     54  N   UNL A   1      43.358  30.779  29.592  1.00  0.00    -0.248 NA
ATOM     55  C   UNL A   1      45.604  30.822  29.094  1.00  0.00     0.031 C 
ATOM     56  C   UNL A   1      41.469  32.283  32.099  1.00  0.00     0.029 A 
ATOM     57  C   UNL A   1      41.728  32.767  30.824  1.00  0.00     0.049 A 
ATOM     58  H   UNL A   1      40.378  33.543  29.427  1.00  0.00     0.167 HD
ATOM     59  C   UNL A   1      43.737  32.091  29.667  1.00  0.00     0.074 A 
ATOM     60  C   UNL A   1      45.147  32.064  29.325  1.00  0.00     0.031 C 
ATOM     61  C   UNL A   1      42.904  33.109  30.044  1.00  0.00     0.037 A 
BRANCH  48  62
ATOM     62  C   UNL A   1      36.837  33.019  31.111  1.00  0.00     0.064 A 
ATOM     63  C   UNL A   1      36.018  33.857  30.318  1.00  0.00     0.173 A 
ATOM     64  C   UNL A   1      36.291  32.796  32.410  1.00  0.00     0.173 A 
ATOM     65  F   UNL A   1      36.370  34.166  29.063  1.00  0.00    -0.203 F 
ATOM     66  C   UNL A   1      34.809  34.418  30.775  1.00  0.00     0.198 A 
ATOM     67  C   UNL A   1      35.069  33.333  32.854  1.00  0.00     0.198 A 
ATOM     68  F   UNL A   1      36.899  32.087  33.361  1.00  0.00    -0.203 F 
ATOM     69  F   UNL A   1      34.110  35.232  29.971  1.00  0.00    -0.200 F 
ATOM     70  C   UNL A   1      34.331  34.154  32.040  1.00  0.00     0.200 A 
ATOM     71  F   UNL A   1      34.634  33.057  34.094  1.00  0.00    -0.200 F 
ATOM     72  F   UNL A   1      33.182  34.688  32.475  1.00  0.00    -0.200 F 
ENDBRANCH  48  62
BRANCH  49  73
ATOM     73  C   UNL A   1      44.683  27.465  28.409  1.00  0.00     0.064 A 
ATOM     74  C   UNL A   1      45.166  26.212  28.877  1.00  0.00     0.173 A 
ATOM     75  C   UNL A   1      44.169  27.477  27.108  1.00  0.00     0.173 A 
ATOM     76  F   UNL A   1      45.705  26.118  30.104  1.00  0.00    -0.203 F 
ATOM     77  C   UNL A   1      44.979  25.024  28.168  1.00  0.00     0.198 A 
ATOM     78  C   UNL A   1      44.038  26.284  26.370  1.00  0.00     0.198 A 
ATOM     79  F   UNL A   1      43.671  28.604  26.584  1.00  0.00    -0.203 F 
ATOM     80  F   UNL A   1      45.278  23.846  28.738  1.00  0.00    -0.200 F 
ATOM     81  C   UNL A   1      44.396  25.058  26.920  1.00  0.00     0.200 A 
ATOM     82  F   UNL A   1      43.416  26.297  25.181  1.00  0.00    -0.200 F 
ATOM     83  F   UNL A   1      44.111  23.913  26.280  1.00  0.00    -0.200 F 
ENDBRANCH  49  73
BRANCH  61  84
ATOM     84  C   UNL A   1      43.085  34.572  29.673  1.00  0.00     0.064 A 
ATOM     85  C   UNL A   1      43.280  35.593  30.614  1.00  0.00     0.173 A 
ATOM     86  C   UNL A   1      43.293  34.958  28.319  1.00  0.00     0.173 A 
ATOM     87  F   UNL A   1      43.262  35.357  31.931  1.00  0.00    -0.203 F 
ATOM     88  C   UNL A   1      43.577  36.903  30.234  1.00  0.00     0.198 A 
ATOM     89  C   UNL A   1      43.708  36.235  27.956  1.00  0.00     0.198 A 
ATOM     90  F   UNL A   1      43.144  34.103  27.296  1.00  0.00    -0.203 F 
ATOM     91  F   UNL A   1      43.667  37.853  31.173  1.00  0.00    -0.200 F 
ATOM     92  C   UNL A   1      43.818  37.218  28.911  1.00  0.00     0.200 A 
ATOM     93  F   UNL A   1      44.025  36.495  26.679  1.00  0.00    -0.200 F 
ATOM     94  F   UNL A   1      44.172  38.460  28.562  1.00  0.00    -0.200 F 
ENDBRANCH  61  84
ENDBRANCH  35  36
ENDBRANCH  28  30
ENDBRANCH  27  28
ENDBRANCH  26  27
ENDBRANCH  25  26
ENDBRANCH  24  25
ENDBRANCH  23  24
ENDBRANCH  22  23
ENDBRANCH   1  22
TORSDOF 22
ENDMDL
MODEL 2
REMARK VINA RESULT:     -11.6      3.140      9.677
REMARK SMILES Cc1ccccc1OCC(=O)NCCC(=O)OCCOCCOCCOC(=O)c1ccc(-c2c3nc(c(-c4c(F)c(F)c(F)c(F)c4F)c4ccc([nH]4)c(-c4c(F)c(F)c(F)c(F)c4F)c4nc(c(-c5c(F)c(F)c(F)c(F)c5F)c5ccc2[nH]5)C=C4)C=C3)cc1
REMARK SMILES IDX 20 1 19 2 18 3 17 4 15 5 16 6 14 7 13 8 12 9 10 10 11 11
REMARK SMILES IDX 9 13 8 14 7 15 1 16 2 17 3 18 4 19 6 20 5 21 21 22 22 23
REMARK SMILES IDX 23 24 24 25 25 26 26 27 27 28 28 29 29 30 30 31 91 32 31 33
REMARK SMILES IDX 90 34 32 35 33 36 34 37 84 38 35 39 89 40 83 41 85 42 36 43
REMARK SMILES IDX 88 44 82 45 81 46 37 48 69 49 49 50 68 51 50 52 53 53 67 54
REMARK SMILES IDX 86 55 51 56 52 57 66 59 87 60 54 61 38 62 39 63 47 64 40 65
REMARK SMILES IDX 41 66 45 67 48 68 42 69 43 70 46 71 44 72 70 73 71 74 79 75
REMARK SMILES IDX 72 76 73 77 77 78 80 79 74 80 75 81 78 82 76 83 55 84 56 85
REMARK SMILES IDX 64 86 57 87 58 88 62 89 65 90 59 91 60 92 63 93 61 94
REMARK H PARENT 12 12 85 47 53 58
REMARK Flexibility Score: inf
ROOT
ATOM      1  O   UNL A   1      32.321  28.020  23.852  1.00  0.00    -0.376 OA
ENDROOT
BRANCH   1   2
ATOM      2  C   UNL A   1      32.061  26.732  24.438  1.00  0.00     0.202 C 
BRANCH   2   3
ATOM      3  C   UNL A   1      30.814  26.111  25.455  1.00  0.00     0.261 C 
BRANCH   3   4
ATOM      4  O   UNL A   1      30.663  24.781  26.663  1.00  0.00    -0.463 OA
BRANCH   4   5
ATOM      5  C   UNL A   1      30.118  23.412  26.855  1.00  0.00     0.307 C 
ATOM      6  O   UNL A   1      29.559  22.884  27.826  1.00  0.00    -0.252 OA
BRANCH   5   7
ATOM      7  C   UNL A   1      30.314  22.414  25.802  1.00  0.00     0.144 C 
BRANCH   7   8
ATOM      8  C   UNL A   1      31.745  22.383  25.404  1.00  0.00     0.127 C 
BRANCH   8   9
ATOM      9  N   UNL A   1      32.482  22.495  26.627  1.00  0.00    -0.353 N 
ATOM     10  C   UNL A   1      33.703  21.909  26.821  1.00  0.00     0.257 C 
ATOM     11  O   UNL A   1      34.111  21.783  27.975  1.00  0.00    -0.271 OA
ATOM     12  H   UNL A   1      32.092  23.017  27.364  1.00  0.00     0.163 HD
BRANCH  10  13
ATOM     13  C   UNL A   1      34.545  21.512  25.582  1.00  0.00     0.329 C 
BRANCH  13  14
ATOM     14  O   UNL A   1      35.596  22.288  25.044  1.00  0.00    -0.484 OA
BRANCH  14  15
ATOM     15  C   UNL A   1      36.865  22.369  25.537  1.00  0.00     0.122 A 
ATOM     16  C   UNL A   1      37.879  20.088  24.869  1.00  0.00     0.048 C 
ATOM     17  C   UNL A   1      37.923  21.455  25.480  1.00  0.00    -0.009 A 
ATOM     18  C   UNL A   1      39.194  21.862  25.955  1.00  0.00     0.007 A 
ATOM     19  C   UNL A   1      39.418  23.132  26.482  1.00  0.00     0.001 A 
ATOM     20  C   UNL A   1      37.101  23.636  26.118  1.00  0.00     0.047 A 
ATOM     21  C   UNL A   1      38.364  24.024  26.570  1.00  0.00     0.004 A 
ENDBRANCH  14  15
ENDBRANCH  13  14
ENDBRANCH  10  13
ENDBRANCH   8   9
ENDBRANCH   7   8
ENDBRANCH   5   7
ENDBRANCH   4   5
ENDBRANCH   3   4
ENDBRANCH   2   3
ENDBRANCH   1   2
BRANCH   1  22
ATOM     22  C   UNL A   1      33.278  29.000  24.290  1.00  0.00     0.188 C 
BRANCH  22  23
ATOM     23  C   UNL A   1      33.234  29.603  25.674  1.00  0.00     0.188 C 
BRANCH  23  24
ATOM     24  O   UNL A   1      34.320  29.102  26.411  1.00  0.00    -0.376 OA
BRANCH  24  25
ATOM     25  C   UNL A   1      34.714  29.856  27.530  1.00  0.00     0.202 C 
BRANCH  25  26
ATOM     26  C   UNL A   1      33.939  31.179  27.660  1.00  0.00     0.261 C 
BRANCH  26  27
ATOM     27  O   UNL A   1      34.831  32.305  27.881  1.00  0.00    -0.460 OA
BRANCH  27  28
ATOM     28  C   UNL A   1      34.758  33.004  29.069  1.00  0.00     0.338 C 
ATOM     29  O   UNL A   1      33.768  33.616  29.452  1.00  0.00    -0.246 OA
BRANCH  28  30
ATOM     30  C   UNL A   1      36.130  33.125  29.682  1.00  0.00     0.060 A 
ATOM     31  C   UNL A   1      37.291  33.696  29.121  1.00  0.00     0.016 A 
ATOM     32  C   UNL A   1      36.350  32.218  30.647  1.00  0.00     0.016 A 
ATOM     33  C   UNL A   1      38.623  33.124  29.344  1.00  0.00     0.010 A 
ATOM     34  C   UNL A   1      37.516  31.501  30.477  1.00  0.00     0.010 A 
ATOM     35  C   UNL A   1      38.791  31.867  29.931  1.00  0.00    -0.014 A 
BRANCH  35  36
ATOM     36  C   UNL A   1      40.290  30.948  30.093  1.00  0.00     0.031 A 
ATOM     37  C   UNL A   1      40.736  29.304  29.536  1.00  0.00     0.074 A 
ATOM     38  C   UNL A   1      41.256  31.535  30.824  1.00  0.00     0.049 A 
ATOM     39  N   UNL A   1      41.290  28.369  30.283  1.00  0.00    -0.248 NA
ATOM     40  C   UNL A   1      40.372  28.534  28.212  1.00  0.00     0.031 C 
ATOM     41  C   UNL A   1      42.664  31.179  30.940  1.00  0.00     0.029 A 
ATOM     42  N   UNL A   1      41.143  32.679  31.620  1.00  0.00    -0.354 N 
ATOM     43  C   UNL A   1      41.418  27.227  29.451  1.00  0.00     0.074 A 
ATOM     44  C   UNL A   1      40.347  27.265  28.565  1.00  0.00     0.031 C 
ATOM     45  C   UNL A   1      43.186  31.853  31.984  1.00  0.00     0.029 A 
ATOM     46  C   UNL A   1      42.079  32.532  32.645  1.00  0.00     0.049 A 
ATOM     47  H   UNL A   1      40.527  33.436  31.484  1.00  0.00     0.167 HD
ATOM     48  C   UNL A   1      42.620  26.634  29.164  1.00  0.00     0.037 A 
ATOM     49  C   UNL A   1      41.618  32.331  33.910  1.00  0.00     0.037 A 
ATOM     50  C   UNL A   1      43.548  27.125  30.147  1.00  0.00     0.049 A 
ATOM     51  C   UNL A   1      42.063  30.965  34.375  1.00  0.00     0.074 A 
ATOM     52  C   UNL A   1      44.568  28.052  30.123  1.00  0.00     0.029 A 
ATOM     53  N   UNL A   1      43.156  26.982  31.465  1.00  0.00    -0.354 N 
ATOM     54  N   UNL A   1      42.329  29.965  33.571  1.00  0.00    -0.248 NA
ATOM     55  C   UNL A   1      42.413  30.676  35.758  1.00  0.00     0.031 C 
ATOM     56  C   UNL A   1      44.704  28.547  31.459  1.00  0.00     0.029 A 
ATOM     57  C   UNL A   1      43.792  27.891  32.273  1.00  0.00     0.049 A 
ATOM     58  H   UNL A   1      42.506  26.316  31.783  1.00  0.00     0.167 HD
ATOM     59  C   UNL A   1      42.965  28.973  34.267  1.00  0.00     0.074 A 
ATOM     60  C   UNL A   1      42.972  29.460  35.634  1.00  0.00     0.031 C 
ATOM     61  C   UNL A   1      43.485  27.847  33.693  1.00  0.00     0.037 A 
BRANCH  48  62
ATOM     62  C   UNL A   1      43.014  25.829  27.890  1.00  0.00     0.064 A 
ATOM     63  C   UNL A   1      43.732  26.494  26.868  1.00  0.00     0.173 A 
ATOM     64  C   UNL A   1      42.694  24.483  27.542  1.00  0.00     0.173 A 
ATOM     65  F   UNL A   1      44.125  27.764  27.026  1.00  0.00    -0.203 F 
ATOM     66  C   UNL A   1      44.071  25.892  25.640  1.00  0.00     0.198 A 
ATOM     67  C   UNL A   1      43.060  23.874  26.328  1.00  0.00     0.198 A 
ATOM     68  F   UNL A   1      41.976  23.665  28.314  1.00  0.00    -0.203 F 
ATOM     69  F   UNL A   1      44.722  26.605  24.709  1.00  0.00    -0.200 F 
ATOM     70  C   UNL A   1      43.740  24.582  25.371  1.00  0.00     0.200 A 
ATOM     71  F   UNL A   1      42.719  22.596  26.098  1.00  0.00    -0.200 F 
ATOM     72  F   UNL A   1      44.063  24.009  24.203  1.00  0.00    -0.200 F 
ENDBRANCH  48  62
BRANCH  49  73
ATOM     73  C   UNL A   1      40.354  33.103  34.193  1.00  0.00     0.064 A 
ATOM     74  C   UNL A   1      39.123  32.410  34.022  1.00  0.00     0.173 A 
ATOM     75  C   UNL A   1      40.292  34.288  34.932  1.00  0.00     0.173 A 
ATOM     76  F   UNL A   1      39.087  31.278  33.299  1.00  0.00    -0.203 F 
ATOM     77  C   UNL A   1      37.956  32.776  34.696  1.00  0.00     0.198 A 
ATOM     78  C   UNL A   1      39.096  34.689  35.561  1.00  0.00     0.198 A 
ATOM     79  F   UNL A   1      41.401  35.002  35.166  1.00  0.00    -0.203 F 
ATOM     80  F   UNL A   1      36.877  31.980  34.653  1.00  0.00    -0.200 F 
ATOM     81  C   UNL A   1      37.948  33.907  35.482  1.00  0.00     0.200 A 
ATOM     82  F   UNL A   1      39.093  35.754  36.378  1.00  0.00    -0.200 F 
ATOM     83  F   UNL A   1      36.867  34.206  36.219  1.00  0.00    -0.200 F 
ENDBRANCH  49  73
BRANCH  61  84
ATOM     84  C   UNL A   1      43.729  26.529  34.410  1.00  0.00     0.064 A 
ATOM     85  C   UNL A   1      42.705  25.731  34.938  1.00  0.00     0.173 A 
ATOM     86  C   UNL A   1      45.014  25.916  34.387  1.00  0.00     0.173 A 
ATOM     87  F   UNL A   1      41.421  26.107  34.899  1.00  0.00    -0.203 F 
ATOM     88  C   UNL A   1      42.953  24.465  35.470  1.00  0.00     0.198 A 
ATOM     89  C   UNL A   1      45.232  24.608  34.807  1.00  0.00     0.198 A 
ATOM     90  F   UNL A   1      46.102  26.545  33.918  1.00  0.00    -0.203 F 
ATOM     91  F   UNL A   1      41.949  23.784  36.038  1.00  0.00    -0.200 F 
ATOM     92  C   UNL A   1      44.207  23.893  35.380  1.00  0.00     0.200 A 
ATOM     93  F   UNL A   1      46.433  24.042  34.626  1.00  0.00    -0.200 F 
ATOM     94  F   UNL A   1      44.421  22.650  35.829  1.00  0.00    -0.200 F 
ENDBRANCH  61  84
ENDBRANCH  35  36
ENDBRANCH  28  30
ENDBRANCH  27  28
ENDBRANCH  26  27
ENDBRANCH  25  26
ENDBRANCH  24  25
ENDBRANCH  23  24
ENDBRANCH  22  23
ENDBRANCH   1  22
TORSDOF 22
ENDMDL
MODEL 3
REMARK VINA RESULT:     -11.2      3.354      9.947
REMARK SMILES Cc1ccccc1OCC(=O)NCCC(=O)OCCOCCOCCOC(=O)c1ccc(-c2c3nc(c(-c4c(F)c(F)c(F)c(F)c4F)c4ccc([nH]4)c(-c4c(F)c(F)c(F)c(F)c4F)c4nc(c(-c5c(F)c(F)c(F)c(F)c5F)c5ccc2[nH]5)C=C4)C=C3)cc1
REMARK SMILES IDX 20 1 19 2 18 3 17 4 15 5 16 6 14 7 13 8 12 9 10 10 11 11
REMARK SMILES IDX 9 13 8 14 7 15 1 16 2 17 3 18 4 19 6 20 5 21 21 22 22 23
REMARK SMILES IDX 23 24 24 25 25 26 26 27 27 28 28 29 29 30 30 31 91 32 31 33
REMARK SMILES IDX 90 34 32 35 33 36 34 37 84 38 35 39 89 40 83 41 85 42 36 43
REMARK SMILES IDX 88 44 82 45 81 46 37 48 69 49 49 50 68 51 50 52 53 53 67 54
REMARK SMILES IDX 86 55 51 56 52 57 66 59 87 60 54 61 38 62 39 63 47 64 40 65
REMARK SMILES IDX 41 66 45 67 48 68 42 69 43 70 46 71 44 72 70 73 71 74 79 75
REMARK SMILES IDX 72 76 73 77 77 78 80 79 74 80 75 81 78 82 76 83 55 84 56 85
REMARK SMILES IDX 64 86 57 87 58 88 62 89 65 90 59 91 60 92 63 93 61 94
REMARK H PARENT 12 12 85 47 53 58
REMARK Flexibility Score: inf
ROOT
ATOM      1  O   UNL A   1      30.029  30.607  23.968  1.00  0.00    -0.376 OA
ENDROOT
BRANCH   1   2
ATOM      2  C   UNL A   1      29.667  29.564  23.046  1.00  0.00     0.202 C 
BRANCH   2   3
ATOM      3  C   UNL A   1      29.264  27.896  23.224  1.00  0.00     0.261 C 
BRANCH   3   4
ATOM      4  O   UNL A   1      30.099  26.321  22.959  1.00  0.00    -0.463 OA
BRANCH   4   5
ATOM      5  C   UNL A   1      30.362  25.000  23.588  1.00  0.00     0.307 C 
ATOM      6  O   UNL A   1      30.298  23.851  23.131  1.00  0.00    -0.252 OA
BRANCH   5   7
ATOM      7  C   UNL A   1      30.659  24.939  25.020  1.00  0.00     0.144 C 
BRANCH   7   8
ATOM      8  C   UNL A   1      32.029  25.458  25.268  1.00  0.00     0.127 C 
BRANCH   8   9
ATOM      9  N   UNL A   1      32.697  25.385  24.003  1.00  0.00    -0.353 N 
ATOM     10  C   UNL A   1      33.592  24.401  23.686  1.00  0.00     0.257 C 
ATOM     11  O   UNL A   1      34.346  24.586  22.731  1.00  0.00    -0.271 OA
ATOM     12  H   UNL A   1      32.505  26.076  23.330  1.00  0.00     0.163 HD
BRANCH  10  13
ATOM     13  C   UNL A   1      33.559  23.075  24.487  1.00  0.00     0.329 C 
BRANCH  13  14
ATOM     14  O   UNL A   1      34.300  22.830  25.665  1.00  0.00    -0.484 OA
BRANCH  14  15
ATOM     15  C   UNL A   1      35.633  22.546  25.728  1.00  0.00     0.122 A 
ATOM     16  C   UNL A   1      35.716  20.067  24.999  1.00  0.00     0.048 C 
ATOM     17  C   UNL A   1      36.325  21.366  25.431  1.00  0.00    -0.009 A 
ATOM     18  C   UNL A   1      37.741  21.392  25.446  1.00  0.00     0.007 A 
ATOM     19  C   UNL A   1      38.460  22.546  25.751  1.00  0.00     0.001 A 
ATOM     20  C   UNL A   1      36.378  23.693  26.081  1.00  0.00     0.047 A 
ATOM     21  C   UNL A   1      37.775  23.703  26.078  1.00  0.00     0.004 A 
ENDBRANCH  14  15
ENDBRANCH  13  14
ENDBRANCH  10  13
ENDBRANCH   8   9
ENDBRANCH   7   8
ENDBRANCH   5   7
ENDBRANCH   4   5
ENDBRANCH   3   4
ENDBRANCH   2   3
ENDBRANCH   1   2
BRANCH   1  22
ATOM     22  C   UNL A   1      30.931  30.510  25.084  1.00  0.00     0.188 C 
BRANCH  22  23
ATOM     23  C   UNL A   1      31.055  31.606  26.115  1.00  0.00     0.188 C 
BRANCH  23  24
ATOM     24  O   UNL A   1      31.962  31.187  27.103  1.00  0.00    -0.376 OA
BRANCH  24  25
ATOM     25  C   UNL A   1      32.486  29.892  26.957  1.00  0.00     0.202 C 
BRANCH  25  26
ATOM     26  C   UNL A   1      33.999  29.826  27.233  1.00  0.00     0.261 C 
BRANCH  26  27
ATOM     27  O   UNL A   1      34.575  31.152  27.389  1.00  0.00    -0.460 OA
BRANCH  27  28
ATOM     28  C   UNL A   1      35.686  31.316  28.191  1.00  0.00     0.338 C 
ATOM     29  O   UNL A   1      36.139  32.403  28.533  1.00  0.00    -0.246 OA
BRANCH  28  30
ATOM     30  C   UNL A   1      36.402  30.000  28.356  1.00  0.00     0.060 A 
ATOM     31  C   UNL A   1      36.799  29.365  29.551  1.00  0.00     0.016 A 
ATOM     32  C   UNL A   1      37.097  29.646  27.263  1.00  0.00     0.016 A 
ATOM     33  C   UNL A   1      38.062  28.625  29.654  1.00  0.00     0.010 A 
ATOM     34  C   UNL A   1      38.413  29.324  27.526  1.00  0.00     0.010 A 
ATOM     35  C   UNL A   1      39.036  28.697  28.655  1.00  0.00    -0.014 A 
BRANCH  35  36
ATOM     36  C   UNL A   1      40.675  28.041  28.703  1.00  0.00     0.031 A 
ATOM     37  C   UNL A   1      41.316  26.426  28.261  1.00  0.00     0.074 A 
ATOM     38  C   UNL A   1      41.611  28.852  29.229  1.00  0.00     0.049 A 
ATOM     39  N   UNL A   1      42.101  25.685  29.017  1.00  0.00    -0.248 NA
ATOM     40  C   UNL A   1      40.928  25.453  27.087  1.00  0.00     0.031 C 
ATOM     41  C   UNL A   1      43.062  28.729  29.186  1.00  0.00     0.029 A 
ATOM     42  N   UNL A   1      41.407  30.056  29.911  1.00  0.00    -0.354 N 
ATOM     43  C   UNL A   1      42.316  24.481  28.298  1.00  0.00     0.074 A 
ATOM     44  C   UNL A   1      41.155  24.248  27.568  1.00  0.00     0.031 C 
ATOM     45  C   UNL A   1      43.587  29.597  30.073  1.00  0.00     0.029 A 
ATOM     46  C   UNL A   1      42.470  30.178  30.807  1.00  0.00     0.049 A 
ATOM     47  H   UNL A   1      40.663  30.689  29.785  1.00  0.00     0.167 HD
ATOM     48  C   UNL A   1      43.556  24.044  27.910  1.00  0.00     0.037 A 
ATOM     49  C   UNL A   1      42.204  30.068  32.137  1.00  0.00     0.037 A 
ATOM     50  C   UNL A   1      44.502  24.787  28.700  1.00  0.00     0.049 A 
ATOM     51  C   UNL A   1      42.921  28.852  32.675  1.00  0.00     0.074 A 
ATOM     52  C   UNL A   1      45.344  25.846  28.440  1.00  0.00     0.029 A 
ATOM     53  N   UNL A   1      44.299  24.750  30.067  1.00  0.00    -0.354 N 
ATOM     54  N   UNL A   1      43.250  27.812  31.949  1.00  0.00    -0.248 NA
ATOM     55  C   UNL A   1      43.477  28.792  34.018  1.00  0.00     0.031 C 
ATOM     56  C   UNL A   1      45.556  26.517  29.686  1.00  0.00     0.029 A 
ATOM     57  C   UNL A   1      44.868  25.837  30.682  1.00  0.00     0.049 A 
ATOM     58  H   UNL A   1      43.810  24.038  30.538  1.00  0.00     0.167 HD
ATOM     59  C   UNL A   1      44.119  27.021  32.649  1.00  0.00     0.074 A 
ATOM     60  C   UNL A   1      44.210  27.668  33.945  1.00  0.00     0.031 C 
ATOM     61  C   UNL A   1      44.745  25.923  32.127  1.00  0.00     0.037 A 
BRANCH  48  62
ATOM     62  C   UNL A   1      43.922  23.157  26.683  1.00  0.00     0.064 A 
ATOM     63  C   UNL A   1      43.456  21.822  26.654  1.00  0.00     0.173 A 
ATOM     64  C   UNL A   1      44.748  23.469  25.562  1.00  0.00     0.173 A 
ATOM     65  F   UNL A   1      42.658  21.356  27.624  1.00  0.00    -0.203 F 
ATOM     66  C   UNL A   1      43.791  20.904  25.639  1.00  0.00     0.198 A 
ATOM     67  C   UNL A   1      45.056  22.561  24.534  1.00  0.00     0.198 A 
ATOM     68  F   UNL A   1      45.352  24.645  25.388  1.00  0.00    -0.203 F 
ATOM     69  F   UNL A   1      43.336  19.645  25.705  1.00  0.00    -0.200 F 
ATOM     70  C   UNL A   1      44.587  21.274  24.576  1.00  0.00     0.200 A 
ATOM     71  F   UNL A   1      45.836  22.954  23.514  1.00  0.00    -0.200 F 
ATOM     72  F   UNL A   1      44.906  20.402  23.610  1.00  0.00    -0.200 F 
ENDBRANCH  48  62
BRANCH  49  73
ATOM     73  C   UNL A   1      40.873  30.670  32.511  1.00  0.00     0.064 A 
ATOM     74  C   UNL A   1      39.784  29.771  32.684  1.00  0.00     0.173 A 
ATOM     75  C   UNL A   1      40.699  31.953  33.041  1.00  0.00     0.173 A 
ATOM     76  F   UNL A   1      39.855  28.529  32.178  1.00  0.00    -0.203 F 
ATOM     77  C   UNL A   1      38.682  30.073  33.486  1.00  0.00     0.198 A 
ATOM     78  C   UNL A   1      39.555  32.274  33.799  1.00  0.00     0.198 A 
ATOM     79  F   UNL A   1      41.675  32.865  32.948  1.00  0.00    -0.203 F 
ATOM     80  F   UNL A   1      37.778  29.124  33.772  1.00  0.00    -0.200 F 
ATOM     81  C   UNL A   1      38.577  31.321  34.061  1.00  0.00     0.200 A 
ATOM     82  F   UNL A   1      39.473  33.465  34.414  1.00  0.00    -0.200 F 
ATOM     83  F   UNL A   1      37.581  31.584  34.921  1.00  0.00    -0.200 F 
ENDBRANCH  49  73
BRANCH  61  84
ATOM     84  C   UNL A   1      45.288  24.756  32.936  1.00  0.00     0.064 A 
ATOM     85  C   UNL A   1      46.557  24.747  33.531  1.00  0.00     0.173 A 
ATOM     86  C   UNL A   1      44.436  23.684  33.326  1.00  0.00     0.173 A 
ATOM     87  F   UNL A   1      47.419  25.758  33.379  1.00  0.00    -0.203 F 
ATOM     88  C   UNL A   1      46.969  23.717  34.379  1.00  0.00     0.198 A 
ATOM     89  C   UNL A   1      44.810  22.728  34.265  1.00  0.00     0.198 A 
ATOM     90  F   UNL A   1      43.191  23.543  32.846  1.00  0.00    -0.203 F 
ATOM     91  F   UNL A   1      48.223  23.718  34.850  1.00  0.00    -0.200 F 
ATOM     92  C   UNL A   1      46.091  22.725  34.767  1.00  0.00     0.200 A 
ATOM     93  F   UNL A   1      43.913  21.830  34.695  1.00  0.00    -0.200 F 
ATOM     94  F   UNL A   1      46.472  21.781  35.635  1.00  0.00    -0.200 F 
ENDBRANCH  61  84
ENDBRANCH  35  36
ENDBRANCH  28  30
ENDBRANCH  27  28
ENDBRANCH  26  27
ENDBRANCH  25  26
ENDBRANCH  24  25
ENDBRANCH  23  24
ENDBRANCH  22  23
ENDBRANCH   1  22
TORSDOF 22
ENDMDL
