MODEL 1
REMARK VINA RESULT:     -10.3      0.000      0.000
REMARK SMILES C[C@@H]1[C@@H](C(=O)OCCOCCOCCOC(=O)c2ccc(-c3c4nc(c(-c5c(F)c(F)c(F)c(F)c5F)c5ccc([nH]5)c(-c5c(F)c(F)c(F)c(F)c5F)c5nc(c(-c6c(F)c(F)c(F)c(F)c6F)c6ccc3[nH]6)C=C5)C=C4)cc2)CCN1C(=O)CC[C@@H]1CCCC[NH2+]1
REMARK SMILES IDX 10 1 9 2 8 3 7 4 6 5 4 6 5 7 3 8 1 9 2 10 83 11 81 12 82 13
REMARK SMILES IDX 84 14 85 15 86 16 87 17 88 18 89 19 93 20 90 21 92 22 91 25
REMARK SMILES IDX 11 26 12 27 13 28 14 29 15 30 16 31 17 32 18 33 19 34 80 35
REMARK SMILES IDX 20 36 79 37 21 38 22 39 23 40 73 41 24 42 78 43 72 44 74 45
REMARK SMILES IDX 25 46 77 47 71 48 70 49 26 51 58 52 38 53 57 54 39 55 42 56
REMARK SMILES IDX 56 57 75 58 40 59 41 60 55 62 76 63 43 64 27 65 28 66 36 67
REMARK SMILES IDX 29 68 30 69 34 70 37 71 31 72 32 73 35 74 33 75 59 76 60 77
REMARK SMILES IDX 68 78 61 79 62 80 66 81 69 82 63 83 64 84 67 85 65 86 44 87
REMARK SMILES IDX 45 88 53 89 46 90 47 91 51 92 54 93 48 94 49 95 52 96 50 97
REMARK H PARENT 93 23 93 24 74 50 42 61
REMARK Flexibility Score: inf
ROOT
ATOM      1  C   UNL A   1      39.004  22.414  26.167  1.00  0.00     0.188 C 
ENDROOT
BRANCH   1   2
ATOM      2  O   UNL A   1      37.757  22.339  25.501  1.00  0.00    -0.376 OA
BRANCH   2   3
ATOM      3  C   UNL A   1      37.041  23.546  25.300  1.00  0.00     0.202 C 
BRANCH   3   4
ATOM      4  C   UNL A   1      35.520  23.385  25.363  1.00  0.00     0.261 C 
BRANCH   4   5
ATOM      5  O   UNL A   1      34.893  23.334  24.067  1.00  0.00    -0.463 OA
BRANCH   5   6
ATOM      6  C   UNL A   1      33.676  22.732  24.019  1.00  0.00     0.311 C 
ATOM      7  O   UNL A   1      33.331  21.827  24.767  1.00  0.00    -0.252 OA
BRANCH   6   8
ATOM      8  C   UNL A   1      32.797  23.393  22.960  1.00  0.00     0.123 C 
ATOM      9  C   UNL A   1      32.845  25.504  21.525  1.00  0.00     0.032 C 
ATOM     10  C   UNL A   1      33.081  24.902  22.908  1.00  0.00     0.096 C 
ATOM     11  N   UNL A   1      32.212  25.481  23.940  1.00  0.00    -0.339 N 
ATOM     12  C   UNL A   1      31.334  23.343  23.351  1.00  0.00     0.039 C 
ATOM     13  C   UNL A   1      31.205  24.501  24.337  1.00  0.00     0.121 C 
BRANCH  11  14
ATOM     14  C   UNL A   1      32.413  26.585  24.758  1.00  0.00     0.223 C 
ATOM     15  O   UNL A   1      33.249  26.544  25.668  1.00  0.00    -0.275 OA
BRANCH  14  16
ATOM     16  C   UNL A   1      31.534  27.834  24.644  1.00  0.00     0.106 C 
BRANCH  16  17
ATOM     17  C   UNL A   1      31.742  28.710  23.392  1.00  0.00     0.075 C 
BRANCH  17  18
ATOM     18  C   UNL A   1      30.418  29.328  22.956  1.00  0.00     0.182 C 
ATOM     19  C   UNL A   1      29.235  28.362  23.032  1.00  0.00     0.065 C 
ATOM     20  N   UNL A   1      30.412  30.053  21.683  1.00  0.00    -0.344 N 
ATOM     21  C   UNL A   1      27.918  29.108  22.840  1.00  0.00     0.012 C 
ATOM     22  C   UNL A   1      29.221  30.919  21.694  1.00  0.00     0.260 C 
ATOM     23  H   UNL A   1      30.361  29.395  20.905  1.00  0.00     0.346 HD
ATOM     24  H   UNL A   1      31.264  30.601  21.570  1.00  0.00     0.346 HD
ATOM     25  C   UNL A   1      27.956  30.064  21.656  1.00  0.00     0.062 C 
ENDBRANCH  17  18
ENDBRANCH  16  17
ENDBRANCH  14  16
ENDBRANCH  11  14
ENDBRANCH   6   8
ENDBRANCH   5   6
ENDBRANCH   4   5
ENDBRANCH   3   4
ENDBRANCH   2   3
ENDBRANCH   1   2
BRANCH   1  26
ATOM     26  C   UNL A   1      39.807  21.104  26.133  1.00  0.00     0.188 C 
BRANCH  26  27
ATOM     27  O   UNL A   1      41.190  21.090  26.455  1.00  0.00    -0.376 OA
BRANCH  27  28
ATOM     28  C   UNL A   1      41.757  19.966  27.110  1.00  0.00     0.202 C 
BRANCH  28  29
ATOM     29  C   UNL A   1      42.503  18.932  26.258  1.00  0.00     0.261 C 
BRANCH  29  30
ATOM     30  O   UNL A   1      42.818  19.323  24.906  1.00  0.00    -0.460 OA
BRANCH  30  31
ATOM     31  C   UNL A   1      44.139  19.484  24.638  1.00  0.00     0.338 C 
ATOM     32  O   UNL A   1      44.901  18.647  24.186  1.00  0.00    -0.246 OA
BRANCH  31  33
ATOM     33  C   UNL A   1      44.574  20.882  24.879  1.00  0.00     0.060 A 
ATOM     34  C   UNL A   1      45.382  21.143  25.991  1.00  0.00     0.016 A 
ATOM     35  C   UNL A   1      44.087  21.946  24.113  1.00  0.00     0.016 A 
ATOM     36  C   UNL A   1      45.674  22.465  26.356  1.00  0.00     0.010 A 
ATOM     37  C   UNL A   1      44.371  23.273  24.489  1.00  0.00     0.010 A 
ATOM     38  C   UNL A   1      45.148  23.548  25.627  1.00  0.00    -0.014 A 
BRANCH  38  39
ATOM     39  C   UNL A   1      45.286  24.938  26.163  1.00  0.00     0.031 A 
ATOM     40  C   UNL A   1      46.578  25.668  25.951  1.00  0.00     0.074 A 
ATOM     41  C   UNL A   1      44.289  25.574  26.808  1.00  0.00     0.049 A 
ATOM     42  N   UNL A   1      46.911  26.881  26.312  1.00  0.00    -0.248 NA
ATOM     43  C   UNL A   1      47.657  24.912  25.298  1.00  0.00     0.031 C 
ATOM     44  C   UNL A   1      43.030  24.966  27.187  1.00  0.00     0.029 A 
ATOM     45  N   UNL A   1      44.149  26.881  27.220  1.00  0.00    -0.354 N 
ATOM     46  C   UNL A   1      48.247  27.020  25.974  1.00  0.00     0.074 A 
ATOM     47  C   UNL A   1      48.661  25.775  25.361  1.00  0.00     0.031 C 
ATOM     48  C   UNL A   1      42.173  25.914  27.594  1.00  0.00     0.029 A 
ATOM     49  C   UNL A   1      42.882  27.185  27.673  1.00  0.00     0.049 A 
ATOM     50  H   UNL A   1      44.884  27.536  27.194  1.00  0.00     0.167 HD
ATOM     51  C   UNL A   1      49.064  28.078  26.190  1.00  0.00     0.037 A 
ATOM     52  C   UNL A   1      42.362  28.341  28.137  1.00  0.00     0.037 A 
ATOM     53  C   UNL A   1      48.663  29.304  26.832  1.00  0.00     0.049 A 
ATOM     54  C   UNL A   1      43.288  29.512  28.340  1.00  0.00     0.074 A 
ATOM     55  C   UNL A   1      49.433  30.419  27.114  1.00  0.00     0.029 A 
ATOM     56  N   UNL A   1      47.385  29.573  27.302  1.00  0.00    -0.354 N 
ATOM     57  N   UNL A   1      44.552  29.632  28.017  1.00  0.00    -0.248 NA
ATOM     58  C   UNL A   1      42.734  30.684  29.034  1.00  0.00     0.031 C 
ATOM     59  C   UNL A   1      48.633  31.345  27.792  1.00  0.00     0.029 A 
ATOM     60  C   UNL A   1      47.349  30.834  27.879  1.00  0.00     0.049 A 
ATOM     61  H   UNL A   1      46.618  28.960  27.236  1.00  0.00     0.167 HD
ATOM     62  C   UNL A   1      44.946  30.881  28.478  1.00  0.00     0.074 A 
ATOM     63  C   UNL A   1      43.775  31.503  29.059  1.00  0.00     0.031 C 
ATOM     64  C   UNL A   1      46.176  31.448  28.446  1.00  0.00     0.037 A 
BRANCH  51  65
ATOM     65  C   UNL A   1      50.497  27.926  25.776  1.00  0.00     0.064 A 
ATOM     66  C   UNL A   1      50.900  28.088  24.443  1.00  0.00     0.173 A 
ATOM     67  C   UNL A   1      51.480  27.621  26.730  1.00  0.00     0.173 A 
ATOM     68  F   UNL A   1      49.992  28.357  23.492  1.00  0.00    -0.203 F 
ATOM     69  C   UNL A   1      52.231  27.924  24.075  1.00  0.00     0.198 A 
ATOM     70  C   UNL A   1      52.816  27.490  26.363  1.00  0.00     0.198 A 
ATOM     71  F   UNL A   1      51.145  27.454  28.018  1.00  0.00    -0.203 F 
ATOM     72  F   UNL A   1      52.586  28.030  22.787  1.00  0.00    -0.200 F 
ATOM     73  C   UNL A   1      53.189  27.633  25.036  1.00  0.00     0.200 A 
ATOM     74  F   UNL A   1      53.741  27.218  27.294  1.00  0.00    -0.200 F 
ATOM     75  F   UNL A   1      54.472  27.480  24.679  1.00  0.00    -0.200 F 
ENDBRANCH  51  65
BRANCH  52  76
ATOM     76  C   UNL A   1      40.921  28.451  28.515  1.00  0.00     0.064 A 
ATOM     77  C   UNL A   1      39.981  28.986  27.618  1.00  0.00     0.173 A 
ATOM     78  C   UNL A   1      40.456  28.088  29.788  1.00  0.00     0.173 A 
ATOM     79  F   UNL A   1      40.372  29.392  26.401  1.00  0.00    -0.203 F 
ATOM     80  C   UNL A   1      38.648  29.168  27.986  1.00  0.00     0.198 A 
ATOM     81  C   UNL A   1      39.115  28.226  30.139  1.00  0.00     0.198 A 
ATOM     82  F   UNL A   1      41.309  27.599  30.701  1.00  0.00    -0.203 F 
ATOM     83  F   UNL A   1      37.792  29.750  27.134  1.00  0.00    -0.200 F 
ATOM     84  C   UNL A   1      38.214  28.778  29.242  1.00  0.00     0.200 A 
ATOM     85  F   UNL A   1      38.700  27.841  31.353  1.00  0.00    -0.200 F 
ATOM     86  F   UNL A   1      36.934  28.955  29.598  1.00  0.00    -0.200 F 
ENDBRANCH  52  76
BRANCH  64  87
ATOM     87  C   UNL A   1      46.314  32.828  29.023  1.00  0.00     0.064 A 
ATOM     88  C   UNL A   1      46.110  33.979  28.248  1.00  0.00     0.173 A 
ATOM     89  C   UNL A   1      46.619  32.999  30.382  1.00  0.00     0.173 A 
ATOM     90  F   UNL A   1      45.831  33.871  26.939  1.00  0.00    -0.203 F 
ATOM     91  C   UNL A   1      46.232  35.250  28.805  1.00  0.00     0.198 A 
ATOM     92  C   UNL A   1      46.711  34.269  30.943  1.00  0.00     0.198 A 
ATOM     93  F   UNL A   1      46.819  31.930  31.168  1.00  0.00    -0.203 F 
ATOM     94  F   UNL A   1      46.080  36.336  28.035  1.00  0.00    -0.200 F 
ATOM     95  C   UNL A   1      46.523  35.393  30.153  1.00  0.00     0.200 A 
ATOM     96  F   UNL A   1      46.979  34.404  32.249  1.00  0.00    -0.200 F 
ATOM     97  F   UNL A   1      46.634  36.616  30.691  1.00  0.00    -0.200 F 
ENDBRANCH  64  87
ENDBRANCH  38  39
ENDBRANCH  31  33
ENDBRANCH  30  31
ENDBRANCH  29  30
ENDBRANCH  28  29
ENDBRANCH  27  28
ENDBRANCH  26  27
ENDBRANCH   1  26
TORSDOF 21
ENDMDL
MODEL 2
REMARK VINA RESULT:     -10.2      0.583      7.250
REMARK SMILES C[C@@H]1[C@@H](C(=O)OCCOCCOCCOC(=O)c2ccc(-c3c4nc(c(-c5c(F)c(F)c(F)c(F)c5F)c5ccc([nH]5)c(-c5c(F)c(F)c(F)c(F)c5F)c5nc(c(-c6c(F)c(F)c(F)c(F)c6F)c6ccc3[nH]6)C=C5)C=C4)cc2)CCN1C(=O)CC[C@@H]1CCCC[NH2+]1
REMARK SMILES IDX 10 1 9 2 8 3 7 4 6 5 4 6 5 7 3 8 1 9 2 10 83 11 81 12 82 13
REMARK SMILES IDX 84 14 85 15 86 16 87 17 88 18 89 19 93 20 90 21 92 22 91 25
REMARK SMILES IDX 11 26 12 27 13 28 14 29 15 30 16 31 17 32 18 33 19 34 80 35
REMARK SMILES IDX 20 36 79 37 21 38 22 39 23 40 73 41 24 42 78 43 72 44 74 45
REMARK SMILES IDX 25 46 77 47 71 48 70 49 26 51 58 52 38 53 57 54 39 55 42 56
REMARK SMILES IDX 56 57 75 58 40 59 41 60 55 62 76 63 43 64 27 65 28 66 36 67
REMARK SMILES IDX 29 68 30 69 34 70 37 71 31 72 32 73 35 74 33 75 59 76 60 77
REMARK SMILES IDX 68 78 61 79 62 80 66 81 69 82 63 83 64 84 67 85 65 86 44 87
REMARK SMILES IDX 45 88 53 89 46 90 47 91 51 92 54 93 48 94 49 95 52 96 50 97
REMARK H PARENT 93 23 93 24 74 50 42 61
REMARK Flexibility Score: inf
ROOT
ATOM      1  C   UNL A   1      38.733  22.654  26.114  1.00  0.00     0.188 C 
ENDROOT
BRANCH   1   2
ATOM      2  O   UNL A   1      37.418  22.481  25.621  1.00  0.00    -0.376 OA
BRANCH   2   3
ATOM      3  C   UNL A   1      36.727  23.630  25.161  1.00  0.00     0.202 C 
BRANCH   3   4
ATOM      4  C   UNL A   1      35.203  23.492  25.187  1.00  0.00     0.261 C 
BRANCH   4   5
ATOM      5  O   UNL A   1      34.606  23.462  23.876  1.00  0.00    -0.463 OA
BRANCH   5   6
ATOM      6  C   UNL A   1      33.412  22.822  23.782  1.00  0.00     0.311 C 
ATOM      7  O   UNL A   1      33.128  21.809  24.408  1.00  0.00    -0.252 OA
BRANCH   6   8
ATOM      8  C   UNL A   1      32.471  23.584  22.853  1.00  0.00     0.123 C 
ATOM      9  C   UNL A   1      32.548  25.691  21.413  1.00  0.00     0.032 C 
ATOM     10  C   UNL A   1      32.906  25.054  22.754  1.00  0.00     0.096 C 
ATOM     11  N   UNL A   1      32.257  25.714  23.893  1.00  0.00    -0.339 N 
ATOM     12  C   UNL A   1      31.079  23.688  23.443  1.00  0.00     0.039 C 
ATOM     13  C   UNL A   1      31.214  24.844  24.432  1.00  0.00     0.121 C 
BRANCH  11  14
ATOM     14  C   UNL A   1      32.688  26.781  24.670  1.00  0.00     0.223 C 
ATOM     15  O   UNL A   1      33.598  26.628  25.492  1.00  0.00    -0.275 OA
BRANCH  14  16
ATOM     16  C   UNL A   1      31.980  28.139  24.623  1.00  0.00     0.106 C 
BRANCH  16  17
ATOM     17  C   UNL A   1      32.002  28.881  23.272  1.00  0.00     0.075 C 
BRANCH  17  18
ATOM     18  C   UNL A   1      30.602  29.364  22.913  1.00  0.00     0.182 C 
ATOM     19  C   UNL A   1      29.525  28.289  23.063  1.00  0.00     0.065 C 
ATOM     20  N   UNL A   1      30.450  30.072  21.639  1.00  0.00    -0.344 N 
ATOM     21  C   UNL A   1      28.132  28.902  22.948  1.00  0.00     0.012 C 
ATOM     22  C   UNL A   1      29.184  30.819  21.717  1.00  0.00     0.260 C 
ATOM     23  H   UNL A   1      30.418  29.404  20.868  1.00  0.00     0.346 HD
ATOM     24  H   UNL A   1      31.237  30.698  21.473  1.00  0.00     0.346 HD
ATOM     25  C   UNL A   1      28.008  29.845  21.759  1.00  0.00     0.062 C 
ENDBRANCH  17  18
ENDBRANCH  16  17
ENDBRANCH  14  16
ENDBRANCH  11  14
ENDBRANCH   6   8
ENDBRANCH   5   6
ENDBRANCH   4   5
ENDBRANCH   3   4
ENDBRANCH   2   3
ENDBRANCH   1   2
BRANCH   1  26
ATOM     26  C   UNL A   1      39.567  21.363  26.129  1.00  0.00     0.188 C 
BRANCH  26  27
ATOM     27  O   UNL A   1      40.910  21.369  26.591  1.00  0.00    -0.376 OA
BRANCH  27  28
ATOM     28  C   UNL A   1      41.401  20.288  27.368  1.00  0.00     0.202 C 
BRANCH  28  29
ATOM     29  C   UNL A   1      42.243  19.215  26.666  1.00  0.00     0.261 C 
BRANCH  29  30
ATOM     30  O   UNL A   1      42.538  19.443  25.272  1.00  0.00    -0.460 OA
BRANCH  30  31
ATOM     31  C   UNL A   1      43.856  19.509  24.959  1.00  0.00     0.338 C 
ATOM     32  O   UNL A   1      44.570  18.588  24.602  1.00  0.00    -0.246 OA
BRANCH  31  33
ATOM     33  C   UNL A   1      44.356  20.905  25.008  1.00  0.00     0.060 A 
ATOM     34  C   UNL A   1      45.499  21.175  25.769  1.00  0.00     0.016 A 
ATOM     35  C   UNL A   1      43.641  21.963  24.436  1.00  0.00     0.016 A 
ATOM     36  C   UNL A   1      45.906  22.499  25.986  1.00  0.00     0.010 A 
ATOM     37  C   UNL A   1      44.044  23.292  24.667  1.00  0.00     0.010 A 
ATOM     38  C   UNL A   1      45.167  23.576  25.462  1.00  0.00    -0.014 A 
BRANCH  38  39
ATOM     39  C   UNL A   1      45.489  24.972  25.892  1.00  0.00     0.031 A 
ATOM     40  C   UNL A   1      44.448  25.757  26.634  1.00  0.00     0.074 A 
ATOM     41  C   UNL A   1      46.685  25.549  25.665  1.00  0.00     0.049 A 
ATOM     42  N   UNL A   1      44.517  26.971  27.116  1.00  0.00    -0.248 NA
ATOM     43  C   UNL A   1      43.139  25.110  26.804  1.00  0.00     0.031 C 
ATOM     44  C   UNL A   1      47.746  24.965  24.869  1.00  0.00     0.029 A 
ATOM     45  N   UNL A   1      47.236  26.729  26.115  1.00  0.00    -0.354 N 
ATOM     46  C   UNL A   1      43.252  27.254  27.604  1.00  0.00     0.074 A 
ATOM     47  C   UNL A   1      42.439  26.077  27.379  1.00  0.00     0.031 C 
ATOM     48  C   UNL A   1      48.875  25.670  25.032  1.00  0.00     0.029 A 
ATOM     49  C   UNL A   1      48.574  26.865  25.810  1.00  0.00     0.049 A 
ATOM     50  H   UNL A   1      46.723  27.410  26.607  1.00  0.00     0.167 HD
ATOM     51  C   UNL A   1      42.801  28.404  28.157  1.00  0.00     0.037 A 
ATOM     52  C   UNL A   1      49.449  27.855  26.089  1.00  0.00     0.037 A 
ATOM     53  C   UNL A   1      43.599  29.588  28.349  1.00  0.00     0.049 A 
ATOM     54  C   UNL A   1      48.924  29.113  26.731  1.00  0.00     0.074 A 
ATOM     55  C   UNL A   1      43.216  30.808  28.879  1.00  0.00     0.029 A 
ATOM     56  N   UNL A   1      44.940  29.705  28.009  1.00  0.00    -0.354 N 
ATOM     57  N   UNL A   1      47.725  29.369  27.189  1.00  0.00    -0.248 NA
ATOM     58  C   UNL A   1      49.859  30.245  26.834  1.00  0.00     0.031 C 
ATOM     59  C   UNL A   1      44.311  31.677  28.821  1.00  0.00     0.029 A 
ATOM     60  C   UNL A   1      45.394  30.980  28.311  1.00  0.00     0.049 A 
ATOM     61  H   UNL A   1      45.486  28.990  27.612  1.00  0.00     0.167 HD
ATOM     62  C   UNL A   1      47.755  30.689  27.620  1.00  0.00     0.074 A 
ATOM     63  C   UNL A   1      49.106  31.166  27.416  1.00  0.00     0.031 C 
ATOM     64  C   UNL A   1      46.744  31.443  28.115  1.00  0.00     0.037 A 
BRANCH  51  65
ATOM     65  C   UNL A   1      41.352  28.452  28.539  1.00  0.00     0.064 A 
ATOM     66  C   UNL A   1      40.908  28.030  29.800  1.00  0.00     0.173 A 
ATOM     67  C   UNL A   1      40.396  28.935  27.632  1.00  0.00     0.173 A 
ATOM     68  F   UNL A   1      41.782  27.539  30.693  1.00  0.00    -0.203 F 
ATOM     69  C   UNL A   1      39.557  28.064  30.130  1.00  0.00     0.198 A 
ATOM     70  C   UNL A   1      39.050  28.998  27.977  1.00  0.00     0.198 A 
ATOM     71  F   UNL A   1      40.770  29.348  26.411  1.00  0.00    -0.203 F 
ATOM     72  F   UNL A   1      39.149  27.605  31.321  1.00  0.00    -0.200 F 
ATOM     73  C   UNL A   1      38.631  28.554  29.221  1.00  0.00     0.200 A 
ATOM     74  F   UNL A   1      38.157  29.480  27.102  1.00  0.00    -0.200 F 
ATOM     75  F   UNL A   1      37.330  28.591  29.543  1.00  0.00    -0.200 F 
ENDBRANCH  51  65
BRANCH  52  76
ATOM     76  C   UNL A   1      50.890  27.751  25.709  1.00  0.00     0.064 A 
ATOM     77  C   UNL A   1      51.858  27.371  26.654  1.00  0.00     0.173 A 
ATOM     78  C   UNL A   1      51.345  28.085  24.425  1.00  0.00     0.173 A 
ATOM     79  F   UNL A   1      51.489  27.082  27.911  1.00  0.00    -0.203 F 
ATOM     80  C   UNL A   1      53.215  27.347  26.334  1.00  0.00     0.198 A 
ATOM     81  C   UNL A   1      52.697  28.016  24.092  1.00  0.00     0.198 A 
ATOM     82  F   UNL A   1      50.476  28.486  23.485  1.00  0.00    -0.203 F 
ATOM     83  F   UNL A   1      54.120  27.053  27.278  1.00  0.00    -0.200 F 
ATOM     84  C   UNL A   1      53.633  27.660  25.051  1.00  0.00     0.200 A 
ATOM     85  F   UNL A   1      53.094  28.312  22.847  1.00  0.00    -0.200 F 
ATOM     86  F   UNL A   1      54.937  27.640  24.743  1.00  0.00    -0.200 F 
ENDBRANCH  52  76
BRANCH  64  87
ATOM     87  C   UNL A   1      47.068  32.857  28.506  1.00  0.00     0.064 A 
ATOM     88  C   UNL A   1      46.931  33.924  27.606  1.00  0.00     0.173 A 
ATOM     89  C   UNL A   1      47.487  33.151  29.812  1.00  0.00     0.173 A 
ATOM     90  F   UNL A   1      46.549  33.695  26.340  1.00  0.00    -0.203 F 
ATOM     91  C   UNL A   1      47.226  35.230  27.992  1.00  0.00     0.198 A 
ATOM     92  C   UNL A   1      47.752  34.460  30.203  1.00  0.00     0.198 A 
ATOM     93  F   UNL A   1      47.629  32.167  30.713  1.00  0.00    -0.203 F 
ATOM     94  F   UNL A   1      47.134  36.227  27.101  1.00  0.00    -0.200 F 
ATOM     95  C   UNL A   1      47.628  35.497  29.291  1.00  0.00     0.200 A 
ATOM     96  F   UNL A   1      48.127  34.717  31.464  1.00  0.00    -0.200 F 
ATOM     97  F   UNL A   1      47.905  36.754  29.664  1.00  0.00    -0.200 F 
ENDBRANCH  64  87
ENDBRANCH  38  39
ENDBRANCH  31  33
ENDBRANCH  30  31
ENDBRANCH  29  30
ENDBRANCH  28  29
ENDBRANCH  27  28
ENDBRANCH  26  27
ENDBRANCH   1  26
TORSDOF 21
ENDMDL
MODEL 3
REMARK VINA RESULT:     -10.2      1.463      2.634
REMARK SMILES C[C@@H]1[C@@H](C(=O)OCCOCCOCCOC(=O)c2ccc(-c3c4nc(c(-c5c(F)c(F)c(F)c(F)c5F)c5ccc([nH]5)c(-c5c(F)c(F)c(F)c(F)c5F)c5nc(c(-c6c(F)c(F)c(F)c(F)c6F)c6ccc3[nH]6)C=C5)C=C4)cc2)CCN1C(=O)CC[C@@H]1CCCC[NH2+]1
REMARK SMILES IDX 10 1 9 2 8 3 7 4 6 5 4 6 5 7 3 8 1 9 2 10 83 11 81 12 82 13
REMARK SMILES IDX 84 14 85 15 86 16 87 17 88 18 89 19 93 20 90 21 92 22 91 25
REMARK SMILES IDX 11 26 12 27 13 28 14 29 15 30 16 31 17 32 18 33 19 34 80 35
REMARK SMILES IDX 20 36 79 37 21 38 22 39 23 40 73 41 24 42 78 43 72 44 74 45
REMARK SMILES IDX 25 46 77 47 71 48 70 49 26 51 58 52 38 53 57 54 39 55 42 56
REMARK SMILES IDX 56 57 75 58 40 59 41 60 55 62 76 63 43 64 27 65 28 66 36 67
REMARK SMILES IDX 29 68 30 69 34 70 37 71 31 72 32 73 35 74 33 75 59 76 60 77
REMARK SMILES IDX 68 78 61 79 62 80 66 81 69 82 63 83 64 84 67 85 65 86 44 87
REMARK SMILES IDX 45 88 53 89 46 90 47 91 51 92 54 93 48 94 49 95 52 96 50 97
REMARK H PARENT 93 23 93 24 74 50 42 61
REMARK Flexibility Score: inf
ROOT
ATOM      1  C   UNL A   1      39.684  22.861  26.861  1.00  0.00     0.188 C 
ENDROOT
BRANCH   1   2
ATOM      2  O   UNL A   1      38.518  23.264  26.167  1.00  0.00    -0.376 OA
BRANCH   2   3
ATOM      3  C   UNL A   1      37.766  22.264  25.501  1.00  0.00     0.202 C 
BRANCH   3   4
ATOM      4  C   UNL A   1      36.301  22.193  25.939  1.00  0.00     0.261 C 
BRANCH   4   5
ATOM      5  O   UNL A   1      35.369  22.296  24.845  1.00  0.00    -0.463 OA
BRANCH   5   6
ATOM      6  C   UNL A   1      34.615  21.192  24.601  1.00  0.00     0.311 C 
ATOM      7  O   UNL A   1      34.907  20.066  24.984  1.00  0.00    -0.252 OA
BRANCH   6   8
ATOM      8  C   UNL A   1      33.339  21.574  23.856  1.00  0.00     0.123 C 
ATOM      9  C   UNL A   1      32.294  23.684  22.871  1.00  0.00     0.032 C 
ATOM     10  C   UNL A   1      33.042  23.068  24.050  1.00  0.00     0.096 C 
ATOM     11  N   UNL A   1      32.288  23.140  25.307  1.00  0.00    -0.339 N 
ATOM     12  C   UNL A   1      32.123  20.911  24.473  1.00  0.00     0.039 C 
ATOM     13  C   UNL A   1      31.820  21.805  25.673  1.00  0.00     0.121 C 
BRANCH  11  14
ATOM     14  C   UNL A   1      32.264  24.133  26.278  1.00  0.00     0.223 C 
ATOM     15  O   UNL A   1      31.582  23.992  27.299  1.00  0.00    -0.275 OA
BRANCH  14  16
ATOM     16  C   UNL A   1      32.976  25.473  26.066  1.00  0.00     0.106 C 
BRANCH  16  17
ATOM     17  C   UNL A   1      32.211  26.539  25.257  1.00  0.00     0.075 C 
BRANCH  17  18
ATOM     18  C   UNL A   1      32.631  27.936  25.698  1.00  0.00     0.182 C 
ATOM     19  C   UNL A   1      33.527  27.946  26.937  1.00  0.00     0.065 C 
ATOM     20  N   UNL A   1      31.571  28.940  25.819  1.00  0.00    -0.344 N 
ATOM     21  C   UNL A   1      34.119  29.334  27.162  1.00  0.00     0.012 C 
ATOM     22  C   UNL A   1      32.229  30.257  25.796  1.00  0.00     0.260 C 
ATOM     23  H   UNL A   1      31.067  28.814  26.698  1.00  0.00     0.346 HD
ATOM     24  H   UNL A   1      30.895  28.853  25.061  1.00  0.00     0.346 HD
ATOM     25  C   UNL A   1      33.076  30.437  27.054  1.00  0.00     0.062 C 
ENDBRANCH  17  18
ENDBRANCH  16  17
ENDBRANCH  14  16
ENDBRANCH  11  14
ENDBRANCH   6   8
ENDBRANCH   5   6
ENDBRANCH   4   5
ENDBRANCH   3   4
ENDBRANCH   2   3
ENDBRANCH   1   2
BRANCH   1  26
ATOM     26  C   UNL A   1      40.237  21.499  26.411  1.00  0.00     0.188 C 
BRANCH  26  27
ATOM     27  O   UNL A   1      41.583  21.136  26.678  1.00  0.00    -0.376 OA
BRANCH  27  28
ATOM     28  C   UNL A   1      41.886  19.845  27.183  1.00  0.00     0.202 C 
BRANCH  28  29
ATOM     29  C   UNL A   1      42.654  18.875  26.276  1.00  0.00     0.261 C 
BRANCH  29  30
ATOM     30  O   UNL A   1      42.875  19.306  24.918  1.00  0.00    -0.460 OA
BRANCH  30  31
ATOM     31  C   UNL A   1      44.173  19.499  24.572  1.00  0.00     0.338 C 
ATOM     32  O   UNL A   1      44.927  18.680  24.075  1.00  0.00    -0.246 OA
BRANCH  31  33
ATOM     33  C   UNL A   1      44.588  20.908  24.786  1.00  0.00     0.060 A 
ATOM     34  C   UNL A   1      45.555  21.174  25.762  1.00  0.00     0.016 A 
ATOM     35  C   UNL A   1      43.943  21.970  24.144  1.00  0.00     0.016 A 
ATOM     36  C   UNL A   1      45.851  22.497  26.119  1.00  0.00     0.010 A 
ATOM     37  C   UNL A   1      44.233  23.297  24.514  1.00  0.00     0.010 A 
ATOM     38  C   UNL A   1      45.172  23.575  25.520  1.00  0.00    -0.014 A 
BRANCH  38  39
ATOM     39  C   UNL A   1      45.342  24.955  26.074  1.00  0.00     0.031 A 
ATOM     40  C   UNL A   1      46.650  25.659  25.869  1.00  0.00     0.074 A 
ATOM     41  C   UNL A   1      44.360  25.605  26.728  1.00  0.00     0.049 A 
ATOM     42  N   UNL A   1      47.010  26.860  26.244  1.00  0.00    -0.248 NA
ATOM     43  C   UNL A   1      47.711  24.887  25.205  1.00  0.00     0.031 C 
ATOM     44  C   UNL A   1      43.088  25.021  27.101  1.00  0.00     0.029 A 
ATOM     45  N   UNL A   1      44.249  26.910  27.156  1.00  0.00    -0.354 N 
ATOM     46  C   UNL A   1      48.349  26.973  25.906  1.00  0.00     0.074 A 
ATOM     47  C   UNL A   1      48.733  25.726  25.277  1.00  0.00     0.031 C 
ATOM     48  C   UNL A   1      42.252  25.983  27.521  1.00  0.00     0.029 A 
ATOM     49  C   UNL A   1      42.990  27.236  27.615  1.00  0.00     0.049 A 
ATOM     50  H   UNL A   1      44.999  27.549  27.137  1.00  0.00     0.167 HD
ATOM     51  C   UNL A   1      49.188  28.009  26.134  1.00  0.00     0.037 A 
ATOM     52  C   UNL A   1      42.496  28.398  28.093  1.00  0.00     0.037 A 
ATOM     53  C   UNL A   1      48.816  29.236  26.791  1.00  0.00     0.049 A 
ATOM     54  C   UNL A   1      43.449  29.545  28.309  1.00  0.00     0.074 A 
ATOM     55  C   UNL A   1      49.611  30.331  27.087  1.00  0.00     0.029 A 
ATOM     56  N   UNL A   1      47.544  29.528  27.266  1.00  0.00    -0.354 N 
ATOM     57  N   UNL A   1      44.714  29.641  27.986  1.00  0.00    -0.248 NA
ATOM     58  C   UNL A   1      42.922  30.721  29.019  1.00  0.00     0.031 C 
ATOM     59  C   UNL A   1      48.833  31.266  27.777  1.00  0.00     0.029 A 
ATOM     60  C   UNL A   1      47.538  30.782  27.859  1.00  0.00     0.049 A 
ATOM     61  H   UNL A   1      46.764  28.933  27.194  1.00  0.00     0.167 HD
ATOM     62  C   UNL A   1      45.137  30.875  28.462  1.00  0.00     0.074 A 
ATOM     63  C   UNL A   1      43.981  31.516  29.052  1.00  0.00     0.031 C 
ATOM     64  C   UNL A   1      46.379  31.415  28.435  1.00  0.00     0.037 A 
BRANCH  51  65
ATOM     65  C   UNL A   1      50.617  27.831  25.716  1.00  0.00     0.064 A 
ATOM     66  C   UNL A   1      51.615  27.481  26.636  1.00  0.00     0.173 A 
ATOM     67  C   UNL A   1      50.989  28.005  24.374  1.00  0.00     0.173 A 
ATOM     68  F   UNL A   1      51.313  27.327  27.935  1.00  0.00    -0.203 F 
ATOM     69  C   UNL A   1      52.939  27.339  26.233  1.00  0.00     0.198 A 
ATOM     70  C   UNL A   1      52.308  27.829  23.969  1.00  0.00     0.198 A 
ATOM     71  F   UNL A   1      50.071  28.342  23.456  1.00  0.00    -0.203 F 
ATOM     72  F   UNL A   1      53.887  27.057  27.138  1.00  0.00    -0.200 F 
ATOM     73  C   UNL A   1      53.284  27.506  24.899  1.00  0.00     0.200 A 
ATOM     74  F   UNL A   1      52.638  27.981  22.679  1.00  0.00    -0.200 F 
ATOM     75  F   UNL A   1      54.559  27.362  24.513  1.00  0.00    -0.200 F 
ENDBRANCH  51  65
BRANCH  52  76
ATOM     76  C   UNL A   1      41.058  28.535  28.475  1.00  0.00     0.064 A 
ATOM     77  C   UNL A   1      40.605  28.112  29.735  1.00  0.00     0.173 A 
ATOM     78  C   UNL A   1      40.097  29.029  27.581  1.00  0.00     0.173 A 
ATOM     79  F   UNL A   1      41.470  27.591  30.618  1.00  0.00    -0.203 F 
ATOM     80  C   UNL A   1      39.253  28.161  30.074  1.00  0.00     0.198 A 
ATOM     81  C   UNL A   1      38.752  29.121  27.937  1.00  0.00     0.198 A 
ATOM     82  F   UNL A   1      40.460  29.421  26.350  1.00  0.00    -0.203 F 
ATOM     83  F   UNL A   1      38.842  27.681  31.256  1.00  0.00    -0.200 F 
ATOM     84  C   UNL A   1      38.329  28.675  29.179  1.00  0.00     0.200 A 
ATOM     85  F   UNL A   1      37.866  29.626  27.069  1.00  0.00    -0.200 F 
ATOM     86  F   UNL A   1      37.029  28.721  29.503  1.00  0.00    -0.200 F 
ENDBRANCH  52  76
BRANCH  64  87
ATOM     87  C   UNL A   1      46.548  32.784  29.029  1.00  0.00     0.064 A 
ATOM     88  C   UNL A   1      46.903  32.969  30.374  1.00  0.00     0.173 A 
ATOM     89  C   UNL A   1      46.387  33.927  28.232  1.00  0.00     0.173 A 
ATOM     90  F   UNL A   1      47.053  31.910  31.184  1.00  0.00    -0.203 F 
ATOM     91  C   UNL A   1      47.065  34.247  30.904  1.00  0.00     0.198 A 
ATOM     92  C   UNL A   1      46.579  35.202  28.756  1.00  0.00     0.198 A 
ATOM     93  F   UNL A   1      46.052  33.805  26.938  1.00  0.00    -0.203 F 
ATOM     94  F   UNL A   1      47.357  34.401  32.202  1.00  0.00    -0.200 F 
ATOM     95  C   UNL A   1      46.912  35.361  30.092  1.00  0.00     0.200 A 
ATOM     96  F   UNL A   1      46.444  36.276  27.966  1.00  0.00    -0.200 F 
ATOM     97  F   UNL A   1      47.075  36.590  30.601  1.00  0.00    -0.200 F 
ENDBRANCH  64  87
ENDBRANCH  38  39
ENDBRANCH  31  33
ENDBRANCH  30  31
ENDBRANCH  29  30
ENDBRANCH  28  29
ENDBRANCH  27  28
ENDBRANCH  26  27
ENDBRANCH   1  26
TORSDOF 21
ENDMDL
