MODEL 1
REMARK VINA RESULT:     -11.0      0.000      0.000
REMARK SMILES COCCNC(=O)c1cccc(NC(=O)[C@@H]2CCCC[C@H]2C(=O)OCCOCCOCCOC(=O)c2ccc(-c3c4nc(c(-c5c(F)c(F)c(F)c(F)c5F)c5ccc([nH]5)c(-c5c(F)c(F)c(F)c(F)c5F)c5nc(c(-c6c(F)c(F)c(F)c(F)c6F)c6ccc3[nH]6)C=C5)C=C4)cc2)c1
REMARK SMILES IDX 26 1 25 2 24 3 22 4 23 5 21 6 16 7 17 8 18 9 20 10 19 11
REMARK SMILES IDX 14 12 13 13 15 15 12 16 8 17 9 18 99 19 10 20 11 21 6 22
REMARK SMILES IDX 5 23 7 25 4 26 3 27 2 28 1 29 27 30 28 31 29 32 30 33 31 34
REMARK SMILES IDX 32 35 33 36 34 37 35 38 36 39 37 40 98 41 38 42 97 43 39 44
REMARK SMILES IDX 40 45 41 46 91 47 42 48 96 49 90 50 92 51 43 52 95 53 89 54
REMARK SMILES IDX 88 55 44 57 76 58 56 59 75 60 57 61 60 62 74 63 93 64 58 65
REMARK SMILES IDX 59 66 73 68 94 69 61 70 45 71 46 72 54 73 47 74 48 75 52 76
REMARK SMILES IDX 55 77 49 78 50 79 53 80 51 81 77 82 78 83 86 84 79 85 80 86
REMARK SMILES IDX 84 87 87 88 81 89 82 90 85 91 83 92 62 93 63 94 71 95 64 96
REMARK SMILES IDX 65 97 69 98 72 99 66 100 67 101 70 102 68 103
REMARK H PARENT 13 14 5 24 92 56 60 67
REMARK Flexibility Score: inf
ROOT
ATOM      1  C   UNL A   1      34.321  27.959  26.491  1.00  0.00     0.202 C 
ENDROOT
BRANCH   1   2
ATOM      2  C   UNL A   1      33.649  28.032  25.117  1.00  0.00     0.261 C 
BRANCH   2   3
ATOM      3  O   UNL A   1      33.691  26.820  24.332  1.00  0.00    -0.463 OA
BRANCH   3   4
ATOM      4  C   UNL A   1      32.547  26.082  24.327  1.00  0.00     0.309 C 
ATOM      5  O   UNL A   1      31.445  26.511  24.649  1.00  0.00    -0.252 OA
BRANCH   4   6
ATOM      6  C   UNL A   1      32.789  24.599  24.080  1.00  0.00     0.111 C 
ATOM      7  C   UNL A   1      32.006  23.582  24.953  1.00  0.00     0.093 C 
ATOM      8  C   UNL A   1      32.284  22.148  24.446  1.00  0.00     0.014 C 
ATOM      9  C   UNL A   1      31.977  21.970  22.968  1.00  0.00     0.001 C 
ATOM     10  C   UNL A   1      32.475  24.393  22.586  1.00  0.00     0.016 C 
ATOM     11  C   UNL A   1      32.754  22.971  22.128  1.00  0.00     0.001 C 
BRANCH   7  12
ATOM     12  C   UNL A   1      32.439  23.571  26.412  1.00  0.00     0.228 C 
ATOM     13  N   UNL A   1      33.728  23.353  26.823  1.00  0.00    -0.326 N 
ATOM     14  H   UNL A   1      33.838  23.498  27.790  1.00  0.00     0.169 HD
ATOM     15  O   UNL A   1      31.604  23.802  27.294  1.00  0.00    -0.274 OA
BRANCH  13  16
ATOM     16  C   UNL A   1      34.938  22.971  26.198  1.00  0.00     0.041 A 
ATOM     17  C   UNL A   1      36.220  21.135  25.197  1.00  0.00     0.041 A 
ATOM     18  C   UNL A   1      37.226  22.032  24.837  1.00  0.00     0.014 A 
ATOM     19  C   UNL A   1      35.087  21.601  25.887  1.00  0.00     0.040 A 
ATOM     20  C   UNL A   1      37.108  23.375  25.176  1.00  0.00     0.003 A 
ATOM     21  C   UNL A   1      35.980  23.833  25.861  1.00  0.00     0.026 A 
BRANCH  17  22
ATOM     22  C   UNL A   1      36.500  19.694  24.986  1.00  0.00     0.251 C 
ATOM     23  N   UNL A   1      35.513  18.768  24.792  1.00  0.00    -0.350 N 
ATOM     24  H   UNL A   1      35.795  17.837  24.936  1.00  0.00     0.163 HD
ATOM     25  O   UNL A   1      37.670  19.315  24.986  1.00  0.00    -0.269 OA
BRANCH  23  26
ATOM     26  C   UNL A   1      34.120  18.923  24.409  1.00  0.00     0.144 C 
BRANCH  26  27
ATOM     27  C   UNL A   1      33.436  17.586  24.091  1.00  0.00     0.181 C 
BRANCH  27  28
ATOM     28  O   UNL A   1      32.657  17.077  25.177  1.00  0.00    -0.383 OA
ATOM     29  C   UNL A   1      33.157  15.871  25.737  1.00  0.00     0.194 C 
ENDBRANCH  27  28
ENDBRANCH  26  27
ENDBRANCH  23  26
ENDBRANCH  17  22
ENDBRANCH  13  16
ENDBRANCH   7  12
ENDBRANCH   4   6
ENDBRANCH   3   4
ENDBRANCH   2   3
ENDBRANCH   1   2
BRANCH   1  30
ATOM     30  O   UNL A   1      33.833  28.873  27.461  1.00  0.00    -0.376 OA
BRANCH  30  31
ATOM     31  C   UNL A   1      34.543  30.088  27.694  1.00  0.00     0.188 C 
BRANCH  31  32
ATOM     32  C   UNL A   1      33.810  31.419  27.544  1.00  0.00     0.188 C 
BRANCH  32  33
ATOM     33  O   UNL A   1      32.495  31.229  27.030  1.00  0.00    -0.376 OA
BRANCH  33  34
ATOM     34  C   UNL A   1      31.731  32.420  26.956  1.00  0.00     0.202 C 
BRANCH  34  35
ATOM     35  C   UNL A   1      32.635  33.624  27.228  1.00  0.00     0.261 C 
BRANCH  35  36
ATOM     36  O   UNL A   1      32.216  34.429  28.348  1.00  0.00    -0.460 OA
BRANCH  36  37
ATOM     37  C   UNL A   1      33.122  35.297  28.847  1.00  0.00     0.338 C 
ATOM     38  O   UNL A   1      32.966  36.499  29.024  1.00  0.00    -0.246 OA
BRANCH  37  39
ATOM     39  C   UNL A   1      34.281  34.530  29.348  1.00  0.00     0.060 A 
ATOM     40  C   UNL A   1      34.093  33.689  30.450  1.00  0.00     0.016 A 
ATOM     41  C   UNL A   1      35.541  34.637  28.757  1.00  0.00     0.016 A 
ATOM     42  C   UNL A   1      35.159  32.959  30.975  1.00  0.00     0.010 A 
ATOM     43  C   UNL A   1      36.618  33.927  29.300  1.00  0.00     0.010 A 
ATOM     44  C   UNL A   1      36.438  33.102  30.426  1.00  0.00    -0.014 A 
BRANCH  44  45
ATOM     45  C   UNL A   1      37.614  32.533  31.127  1.00  0.00     0.031 A 
ATOM     46  C   UNL A   1      38.368  31.412  30.467  1.00  0.00     0.074 A 
ATOM     47  C   UNL A   1      38.020  33.004  32.320  1.00  0.00     0.049 A 
ATOM     48  N   UNL A   1      39.336  30.668  30.935  1.00  0.00    -0.248 NA
ATOM     49  C   UNL A   1      37.969  31.085  29.088  1.00  0.00     0.031 C 
ATOM     50  C   UNL A   1      37.423  34.128  33.036  1.00  0.00     0.029 A 
ATOM     51  N   UNL A   1      39.031  32.575  33.148  1.00  0.00    -0.354 N 
ATOM     52  C   UNL A   1      39.641  29.769  29.923  1.00  0.00     0.074 A 
ATOM     53  C   UNL A   1      38.754  30.054  28.816  1.00  0.00     0.031 C 
ATOM     54  C   UNL A   1      38.063  34.286  34.208  1.00  0.00     0.029 A 
ATOM     55  C   UNL A   1      39.084  33.249  34.343  1.00  0.00     0.049 A 
ATOM     56  H   UNL A   1      39.657  31.854  32.905  1.00  0.00     0.167 HD
ATOM     57  C   UNL A   1      40.577  28.791  29.919  1.00  0.00     0.037 A 
ATOM     58  C   UNL A   1      39.845  33.025  35.433  1.00  0.00     0.037 A 
ATOM     59  C   UNL A   1      41.478  28.524  31.008  1.00  0.00     0.049 A 
ATOM     60  C   UNL A   1      40.841  31.892  35.425  1.00  0.00     0.074 A 
ATOM     61  C   UNL A   1      42.476  27.568  31.087  1.00  0.00     0.029 A 
ATOM     62  N   UNL A   1      41.490  29.217  32.208  1.00  0.00    -0.354 N 
ATOM     63  N   UNL A   1      41.123  31.040  34.468  1.00  0.00    -0.248 NA
ATOM     64  C   UNL A   1      41.623  31.684  36.653  1.00  0.00     0.031 C 
ATOM     65  C   UNL A   1      43.062  27.653  32.354  1.00  0.00     0.029 A 
ATOM     66  C   UNL A   1      42.464  28.694  33.044  1.00  0.00     0.049 A 
ATOM     67  H   UNL A   1      40.896  29.969  32.433  1.00  0.00     0.167 HD
ATOM     68  C   UNL A   1      42.127  30.220  34.967  1.00  0.00     0.074 A 
ATOM     69  C   UNL A   1      42.417  30.682  36.307  1.00  0.00     0.031 C 
ATOM     70  C   UNL A   1      42.752  29.176  34.370  1.00  0.00     0.037 A 
BRANCH  57  71
ATOM     71  C   UNL A   1      40.653  27.906  28.711  1.00  0.00     0.064 A 
ATOM     72  C   UNL A   1      39.906  26.725  28.610  1.00  0.00     0.173 A 
ATOM     73  C   UNL A   1      41.452  28.277  27.619  1.00  0.00     0.173 A 
ATOM     74  F   UNL A   1      39.141  26.318  29.634  1.00  0.00    -0.203 F 
ATOM     75  C   UNL A   1      39.968  25.937  27.462  1.00  0.00     0.198 A 
ATOM     76  C   UNL A   1      41.493  27.502  26.465  1.00  0.00     0.198 A 
ATOM     77  F   UNL A   1      42.186  29.401  27.668  1.00  0.00    -0.203 F 
ATOM     78  F   UNL A   1      39.275  24.792  27.399  1.00  0.00    -0.200 F 
ATOM     79  C   UNL A   1      40.755  26.331  26.389  1.00  0.00     0.200 A 
ATOM     80  F   UNL A   1      42.244  27.890  25.424  1.00  0.00    -0.200 F 
ATOM     81  F   UNL A   1      40.804  25.578  25.281  1.00  0.00    -0.200 F 
ENDBRANCH  57  71
BRANCH  58  82
ATOM     82  C   UNL A   1      39.667  33.859  36.652  1.00  0.00     0.064 A 
ATOM     83  C   UNL A   1      38.845  33.439  37.707  1.00  0.00     0.173 A 
ATOM     84  C   UNL A   1      40.277  35.117  36.763  1.00  0.00     0.173 A 
ATOM     85  F   UNL A   1      38.210  32.260  37.634  1.00  0.00    -0.203 F 
ATOM     86  C   UNL A   1      38.621  34.256  38.814  1.00  0.00     0.198 A 
ATOM     87  C   UNL A   1      40.077  35.919  37.885  1.00  0.00     0.198 A 
ATOM     88  F   UNL A   1      41.063  35.572  35.776  1.00  0.00    -0.203 F 
ATOM     89  F   UNL A   1      37.781  33.856  39.779  1.00  0.00    -0.200 F 
ATOM     90  C   UNL A   1      39.242  35.493  38.905  1.00  0.00     0.200 A 
ATOM     91  F   UNL A   1      40.682  37.112  37.968  1.00  0.00    -0.200 F 
ATOM     92  F   UNL A   1      39.020  36.280  39.965  1.00  0.00    -0.200 F 
ENDBRANCH  58  82
BRANCH  70  93
ATOM     93  C   UNL A   1      43.840  28.484  35.140  1.00  0.00     0.064 A 
ATOM     94  C   UNL A   1      45.173  28.910  35.075  1.00  0.00     0.173 A 
ATOM     95  C   UNL A   1      43.531  27.413  35.995  1.00  0.00     0.173 A 
ATOM     96  F   UNL A   1      45.522  29.921  34.265  1.00  0.00    -0.203 F 
ATOM     97  C   UNL A   1      46.164  28.274  35.820  1.00  0.00     0.198 A 
ATOM     98  C   UNL A   1      44.519  26.799  36.758  1.00  0.00     0.198 A 
ATOM     99  F   UNL A   1      42.268  26.974  36.100  1.00  0.00    -0.203 F 
ATOM    100  F   UNL A   1      47.440  28.670  35.711  1.00  0.00    -0.200 F 
ATOM    101  C   UNL A   1      45.835  27.226  36.666  1.00  0.00     0.200 A 
ATOM    102  F   UNL A   1      44.197  25.797  37.587  1.00  0.00    -0.200 F 
ATOM    103  F   UNL A   1      46.788  26.621  37.390  1.00  0.00    -0.200 F 
ENDBRANCH  70  93
ENDBRANCH  44  45
ENDBRANCH  37  39
ENDBRANCH  36  37
ENDBRANCH  35  36
ENDBRANCH  34  35
ENDBRANCH  33  34
ENDBRANCH  32  33
ENDBRANCH  31  32
ENDBRANCH  30  31
ENDBRANCH   1  30
TORSDOF 23
ENDMDL
MODEL 2
REMARK VINA RESULT:     -10.9      1.327      7.037
REMARK SMILES COCCNC(=O)c1cccc(NC(=O)[C@@H]2CCCC[C@H]2C(=O)OCCOCCOCCOC(=O)c2ccc(-c3c4nc(c(-c5c(F)c(F)c(F)c(F)c5F)c5ccc([nH]5)c(-c5c(F)c(F)c(F)c(F)c5F)c5nc(c(-c6c(F)c(F)c(F)c(F)c6F)c6ccc3[nH]6)C=C5)C=C4)cc2)c1
REMARK SMILES IDX 26 1 25 2 24 3 22 4 23 5 21 6 16 7 17 8 18 9 20 10 19 11
REMARK SMILES IDX 14 12 13 13 15 15 12 16 8 17 9 18 99 19 10 20 11 21 6 22
REMARK SMILES IDX 5 23 7 25 4 26 3 27 2 28 1 29 27 30 28 31 29 32 30 33 31 34
REMARK SMILES IDX 32 35 33 36 34 37 35 38 36 39 37 40 98 41 38 42 97 43 39 44
REMARK SMILES IDX 40 45 41 46 91 47 42 48 96 49 90 50 92 51 43 52 95 53 89 54
REMARK SMILES IDX 88 55 44 57 76 58 56 59 75 60 57 61 60 62 74 63 93 64 58 65
REMARK SMILES IDX 59 66 73 68 94 69 61 70 45 71 46 72 54 73 47 74 48 75 52 76
REMARK SMILES IDX 55 77 49 78 50 79 53 80 51 81 77 82 78 83 86 84 79 85 80 86
REMARK SMILES IDX 84 87 87 88 81 89 82 90 85 91 83 92 62 93 63 94 71 95 64 96
REMARK SMILES IDX 65 97 69 98 72 99 66 100 67 101 70 102 68 103
REMARK H PARENT 13 14 5 24 92 56 60 67
REMARK Flexibility Score: inf
ROOT
ATOM      1  C   UNL A   1      33.838  26.883  25.690  1.00  0.00     0.202 C 
ENDROOT
BRANCH   1   2
ATOM      2  C   UNL A   1      32.973  26.988  24.432  1.00  0.00     0.261 C 
BRANCH   2   3
ATOM      3  O   UNL A   1      32.798  25.765  23.684  1.00  0.00    -0.463 OA
BRANCH   3   4
ATOM      4  C   UNL A   1      31.860  24.906  24.170  1.00  0.00     0.309 C 
ATOM      5  O   UNL A   1      30.812  25.254  24.700  1.00  0.00    -0.252 OA
BRANCH   4   6
ATOM      6  C   UNL A   1      32.324  23.455  24.184  1.00  0.00     0.111 C 
ATOM      7  C   UNL A   1      31.939  22.585  25.410  1.00  0.00     0.093 C 
ATOM      8  C   UNL A   1      32.375  21.123  25.160  1.00  0.00     0.014 C 
ATOM      9  C   UNL A   1      31.815  20.549  23.868  1.00  0.00     0.001 C 
ATOM     10  C   UNL A   1      31.759  22.850  22.885  1.00  0.00     0.016 C 
ATOM     11  C   UNL A   1      32.203  21.411  22.678  1.00  0.00     0.001 C 
BRANCH   7  12
ATOM     12  C   UNL A   1      32.652  22.989  26.692  1.00  0.00     0.228 C 
ATOM     13  N   UNL A   1      34.014  23.097  26.807  1.00  0.00    -0.326 N 
ATOM     14  H   UNL A   1      34.284  23.480  27.671  1.00  0.00     0.169 HD
ATOM     15  O   UNL A   1      31.985  23.276  27.693  1.00  0.00    -0.274 OA
BRANCH  13  16
ATOM     16  C   UNL A   1      35.125  22.789  25.987  1.00  0.00     0.041 A 
ATOM     17  C   UNL A   1      36.499  21.012  25.004  1.00  0.00     0.041 A 
ATOM     18  C   UNL A   1      37.230  21.966  24.296  1.00  0.00     0.014 A 
ATOM     19  C   UNL A   1      35.460  21.423  25.857  1.00  0.00     0.040 A 
ATOM     20  C   UNL A   1      36.935  23.316  24.450  1.00  0.00     0.003 A 
ATOM     21  C   UNL A   1      35.901  23.719  25.298  1.00  0.00     0.026 A 
BRANCH  17  22
ATOM     22  C   UNL A   1      36.993  19.614  24.951  1.00  0.00     0.251 C 
ATOM     23  N   UNL A   1      36.157  18.534  24.907  1.00  0.00    -0.350 N 
ATOM     24  H   UNL A   1      36.582  17.680  25.147  1.00  0.00     0.163 HD
ATOM     25  O   UNL A   1      38.208  19.418  24.948  1.00  0.00    -0.269 OA
BRANCH  23  26
ATOM     26  C   UNL A   1      34.749  18.429  24.566  1.00  0.00     0.144 C 
BRANCH  26  27
ATOM     27  C   UNL A   1      34.420  17.164  23.763  1.00  0.00     0.181 C 
BRANCH  27  28
ATOM     28  O   UNL A   1      34.502  15.964  24.537  1.00  0.00    -0.383 OA
ATOM     29  C   UNL A   1      33.299  15.625  25.214  1.00  0.00     0.194 C 
ENDBRANCH  27  28
ENDBRANCH  26  27
ENDBRANCH  23  26
ENDBRANCH  17  22
ENDBRANCH  13  16
ENDBRANCH   7  12
ENDBRANCH   4   6
ENDBRANCH   3   4
ENDBRANCH   2   3
ENDBRANCH   1   2
BRANCH   1  30
ATOM     30  O   UNL A   1      33.348  27.571  26.830  1.00  0.00    -0.376 OA
BRANCH  30  31
ATOM     31  C   UNL A   1      33.458  28.992  26.888  1.00  0.00     0.188 C 
BRANCH  31  32
ATOM     32  C   UNL A   1      32.219  29.822  27.215  1.00  0.00     0.188 C 
BRANCH  32  33
ATOM     33  O   UNL A   1      32.016  30.849  26.248  1.00  0.00    -0.376 OA
BRANCH  33  34
ATOM     34  C   UNL A   1      31.279  31.957  26.736  1.00  0.00     0.202 C 
BRANCH  34  35
ATOM     35  C   UNL A   1      32.185  33.190  26.785  1.00  0.00     0.261 C 
BRANCH  35  36
ATOM     36  O   UNL A   1      32.465  33.657  28.120  1.00  0.00    -0.460 OA
BRANCH  36  37
ATOM     37  C   UNL A   1      33.558  34.434  28.275  1.00  0.00     0.338 C 
ATOM     38  O   UNL A   1      33.595  35.660  28.251  1.00  0.00    -0.246 OA
BRANCH  37  39
ATOM     39  C   UNL A   1      34.689  33.579  28.688  1.00  0.00     0.060 A 
ATOM     40  C   UNL A   1      34.408  32.300  29.178  1.00  0.00     0.016 A 
ATOM     41  C   UNL A   1      36.010  34.023  28.610  1.00  0.00     0.016 A 
ATOM     42  C   UNL A   1      35.437  31.460  29.602  1.00  0.00     0.010 A 
ATOM     43  C   UNL A   1      37.042  33.193  29.060  1.00  0.00     0.010 A 
ATOM     44  C   UNL A   1      36.760  31.915  29.580  1.00  0.00    -0.014 A 
BRANCH  44  45
ATOM     45  C   UNL A   1      37.825  31.136  30.257  1.00  0.00     0.031 A 
ATOM     46  C   UNL A   1      38.103  31.415  31.707  1.00  0.00     0.074 A 
ATOM     47  C   UNL A   1      38.526  30.189  29.608  1.00  0.00     0.049 A 
ATOM     48  N   UNL A   1      39.064  30.966  32.474  1.00  0.00    -0.248 NA
ATOM     49  C   UNL A   1      37.170  32.331  32.384  1.00  0.00     0.031 C 
ATOM     50  C   UNL A   1      38.311  29.773  28.225  1.00  0.00     0.029 A 
ATOM     51  N   UNL A   1      39.580  29.416  30.034  1.00  0.00    -0.354 N 
ATOM     52  C   UNL A   1      38.868  31.565  33.711  1.00  0.00     0.074 A 
ATOM     53  C   UNL A   1      37.702  32.414  33.594  1.00  0.00     0.031 C 
ATOM     54  C   UNL A   1      39.222  28.836  27.907  1.00  0.00     0.029 A 
ATOM     55  C   UNL A   1      40.108  28.618  29.049  1.00  0.00     0.049 A 
ATOM     56  H   UNL A   1      39.922  29.432  30.957  1.00  0.00     0.167 HD
ATOM     57  C   UNL A   1      39.598  31.422  34.841  1.00  0.00     0.037 A 
ATOM     58  C   UNL A   1      41.205  27.835  29.060  1.00  0.00     0.037 A 
ATOM     59  C   UNL A   1      40.741  30.557  34.966  1.00  0.00     0.049 A 
ATOM     60  C   UNL A   1      42.035  27.736  30.316  1.00  0.00     0.074 A 
ATOM     61  C   UNL A   1      41.531  30.328  36.079  1.00  0.00     0.029 A 
ATOM     62  N   UNL A   1      41.255  29.778  33.941  1.00  0.00    -0.354 N 
ATOM     63  N   UNL A   1      41.850  28.309  31.482  1.00  0.00    -0.248 NA
ATOM     64  C   UNL A   1      43.233  26.885  30.257  1.00  0.00     0.031 C 
ATOM     65  C   UNL A   1      42.552  29.445  35.715  1.00  0.00     0.029 A 
ATOM     66  C   UNL A   1      42.367  29.085  34.390  1.00  0.00     0.049 A 
ATOM     67  H   UNL A   1      40.885  29.725  33.030  1.00  0.00     0.167 HD
ATOM     68  C   UNL A   1      42.886  27.867  32.296  1.00  0.00     0.074 A 
ATOM     69  C   UNL A   1      43.691  26.968  31.498  1.00  0.00     0.031 C 
ATOM     70  C   UNL A   1      43.149  28.180  33.588  1.00  0.00     0.037 A 
BRANCH  57  71
ATOM     71  C   UNL A   1      39.207  32.246  36.031  1.00  0.00     0.064 A 
ATOM     72  C   UNL A   1      38.320  31.767  37.005  1.00  0.00     0.173 A 
ATOM     73  C   UNL A   1      39.770  33.517  36.219  1.00  0.00     0.173 A 
ATOM     74  F   UNL A   1      37.742  30.565  36.861  1.00  0.00    -0.203 F 
ATOM     75  C   UNL A   1      38.000  32.539  38.119  1.00  0.00     0.198 A 
ATOM     76  C   UNL A   1      39.467  34.275  37.345  1.00  0.00     0.198 A 
ATOM     77  F   UNL A   1      40.625  34.019  35.314  1.00  0.00    -0.203 F 
ATOM     78  F   UNL A   1      37.121  32.079  39.021  1.00  0.00    -0.200 F 
ATOM     79  C   UNL A   1      38.579  33.788  38.292  1.00  0.00     0.200 A 
ATOM     80  F   UNL A   1      40.037  35.477  37.516  1.00  0.00    -0.200 F 
ATOM     81  F   UNL A   1      38.278  34.524  39.371  1.00  0.00    -0.200 F 
ENDBRANCH  57  71
BRANCH  58  82
ATOM     82  C   UNL A   1      41.621  27.113  27.827  1.00  0.00     0.064 A 
ATOM     83  C   UNL A   1      41.219  25.791  27.589  1.00  0.00     0.173 A 
ATOM     84  C   UNL A   1      42.472  27.714  26.888  1.00  0.00     0.173 A 
ATOM     85  F   UNL A   1      40.435  25.159  28.474  1.00  0.00    -0.203 F 
ATOM     86  C   UNL A   1      41.672  25.092  26.471  1.00  0.00     0.198 A 
ATOM     87  C   UNL A   1      42.898  27.024  25.755  1.00  0.00     0.198 A 
ATOM     88  F   UNL A   1      42.896  28.972  27.075  1.00  0.00    -0.203 F 
ATOM     89  F   UNL A   1      41.322  23.809  26.300  1.00  0.00    -0.200 F 
ATOM     90  C   UNL A   1      42.506  25.711  25.552  1.00  0.00     0.200 A 
ATOM     91  F   UNL A   1      43.702  27.628  24.870  1.00  0.00    -0.200 F 
ATOM     92  F   UNL A   1      42.947  25.036  24.483  1.00  0.00    -0.200 F 
ENDBRANCH  58  82
BRANCH  70  93
ATOM     93  C   UNL A   1      44.329  27.517  34.237  1.00  0.00     0.064 A 
ATOM     94  C   UNL A   1      44.239  26.236  34.799  1.00  0.00     0.173 A 
ATOM     95  C   UNL A   1      45.581  28.154  34.249  1.00  0.00     0.173 A 
ATOM     96  F   UNL A   1      43.063  25.590  34.822  1.00  0.00    -0.203 F 
ATOM     97  C   UNL A   1      45.353  25.625  35.370  1.00  0.00     0.198 A 
ATOM     98  C   UNL A   1      46.697  27.530  34.796  1.00  0.00     0.198 A 
ATOM     99  F   UNL A   1      45.722  29.377  33.716  1.00  0.00    -0.203 F 
ATOM    100  F   UNL A   1      45.234  24.418  35.939  1.00  0.00    -0.200 F 
ATOM    101  C   UNL A   1      46.581  26.269  35.361  1.00  0.00     0.200 A 
ATOM    102  F   UNL A   1      47.887  28.146  34.772  1.00  0.00    -0.200 F 
ATOM    103  F   UNL A   1      47.655  25.675  35.903  1.00  0.00    -0.200 F 
ENDBRANCH  70  93
ENDBRANCH  44  45
ENDBRANCH  37  39
ENDBRANCH  36  37
ENDBRANCH  35  36
ENDBRANCH  34  35
ENDBRANCH  33  34
ENDBRANCH  32  33
ENDBRANCH  31  32
ENDBRANCH  30  31
ENDBRANCH   1  30
TORSDOF 23
ENDMDL
MODEL 3
REMARK VINA RESULT:     -10.2      1.872      7.960
REMARK SMILES COCCNC(=O)c1cccc(NC(=O)[C@@H]2CCCC[C@H]2C(=O)OCCOCCOCCOC(=O)c2ccc(-c3c4nc(c(-c5c(F)c(F)c(F)c(F)c5F)c5ccc([nH]5)c(-c5c(F)c(F)c(F)c(F)c5F)c5nc(c(-c6c(F)c(F)c(F)c(F)c6F)c6ccc3[nH]6)C=C5)C=C4)cc2)c1
REMARK SMILES IDX 26 1 25 2 24 3 22 4 23 5 21 6 16 7 17 8 18 9 20 10 19 11
REMARK SMILES IDX 14 12 13 13 15 15 12 16 8 17 9 18 99 19 10 20 11 21 6 22
REMARK SMILES IDX 5 23 7 25 4 26 3 27 2 28 1 29 27 30 28 31 29 32 30 33 31 34
REMARK SMILES IDX 32 35 33 36 34 37 35 38 36 39 37 40 98 41 38 42 97 43 39 44
REMARK SMILES IDX 40 45 41 46 91 47 42 48 96 49 90 50 92 51 43 52 95 53 89 54
REMARK SMILES IDX 88 55 44 57 76 58 56 59 75 60 57 61 60 62 74 63 93 64 58 65
REMARK SMILES IDX 59 66 73 68 94 69 61 70 45 71 46 72 54 73 47 74 48 75 52 76
REMARK SMILES IDX 55 77 49 78 50 79 53 80 51 81 77 82 78 83 86 84 79 85 80 86
REMARK SMILES IDX 84 87 87 88 81 89 82 90 85 91 83 92 62 93 63 94 71 95 64 96
REMARK SMILES IDX 65 97 69 98 72 99 66 100 67 101 70 102 68 103
REMARK H PARENT 13 14 5 24 92 56 60 67
REMARK Flexibility Score: inf
ROOT
ATOM      1  C   UNL A   1      33.760  26.501  25.682  1.00  0.00     0.202 C 
ENDROOT
BRANCH   1   2
ATOM      2  C   UNL A   1      34.396  25.316  24.951  1.00  0.00     0.261 C 
BRANCH   2   3
ATOM      3  O   UNL A   1      35.277  24.488  25.743  1.00  0.00    -0.463 OA
BRANCH   3   4
ATOM      4  C   UNL A   1      34.688  23.434  26.372  1.00  0.00     0.309 C 
ATOM      5  O   UNL A   1      33.780  23.536  27.190  1.00  0.00    -0.252 OA
BRANCH   4   6
ATOM      6  C   UNL A   1      35.400  22.111  26.125  1.00  0.00     0.111 C 
ATOM      7  C   UNL A   1      34.864  21.203  24.986  1.00  0.00     0.093 C 
ATOM      8  C   UNL A   1      35.808  19.992  24.807  1.00  0.00     0.014 C 
ATOM      9  C   UNL A   1      37.254  20.396  24.568  1.00  0.00     0.001 C 
ATOM     10  C   UNL A   1      36.869  22.498  25.871  1.00  0.00     0.016 C 
ATOM     11  C   UNL A   1      37.763  21.282  25.693  1.00  0.00     0.001 C 
BRANCH   7  12
ATOM     12  C   UNL A   1      33.501  20.594  25.282  1.00  0.00     0.228 C 
ATOM     13  N   UNL A   1      32.315  21.146  24.876  1.00  0.00    -0.326 N 
ATOM     14  H   UNL A   1      31.549  20.555  25.057  1.00  0.00     0.169 HD
ATOM     15  O   UNL A   1      33.436  19.521  25.894  1.00  0.00    -0.274 OA
BRANCH  13  16
ATOM     16  C   UNL A   1      31.921  22.358  24.261  1.00  0.00     0.041 A 
ATOM     17  C   UNL A   1      30.864  24.549  24.574  1.00  0.00     0.041 A 
ATOM     18  C   UNL A   1      31.163  24.883  23.252  1.00  0.00     0.014 A 
ATOM     19  C   UNL A   1      31.229  23.286  25.072  1.00  0.00     0.040 A 
ATOM     20  C   UNL A   1      31.805  23.960  22.435  1.00  0.00     0.003 A 
ATOM     21  C   UNL A   1      32.166  22.707  22.935  1.00  0.00     0.026 A 
BRANCH  17  22
ATOM     22  C   UNL A   1      30.004  25.494  25.327  1.00  0.00     0.251 C 
ATOM     23  N   UNL A   1      29.456  26.610  24.759  1.00  0.00    -0.350 N 
ATOM     24  H   UNL A   1      29.144  27.284  25.405  1.00  0.00     0.163 HD
ATOM     25  O   UNL A   1      29.776  25.265  26.514  1.00  0.00    -0.269 OA
BRANCH  23  26
ATOM     26  C   UNL A   1      29.251  26.971  23.367  1.00  0.00     0.144 C 
BRANCH  26  27
ATOM     27  C   UNL A   1      30.149  28.129  22.911  1.00  0.00     0.181 C 
BRANCH  27  28
ATOM     28  O   UNL A   1      29.417  29.292  22.517  1.00  0.00    -0.383 OA
ATOM     29  C   UNL A   1      29.331  30.295  23.520  1.00  0.00     0.194 C 
ENDBRANCH  27  28
ENDBRANCH  26  27
ENDBRANCH  23  26
ENDBRANCH  17  22
ENDBRANCH  13  16
ENDBRANCH   7  12
ENDBRANCH   4   6
ENDBRANCH   3   4
ENDBRANCH   2   3
ENDBRANCH   1   2
BRANCH   1  30
ATOM     30  O   UNL A   1      33.763  27.730  24.972  1.00  0.00    -0.376 OA
BRANCH  30  31
ATOM     31  C   UNL A   1      33.649  28.954  25.696  1.00  0.00     0.188 C 
BRANCH  31  32
ATOM     32  C   UNL A   1      32.261  29.480  26.054  1.00  0.00     0.188 C 
BRANCH  32  33
ATOM     33  O   UNL A   1      32.346  30.657  26.853  1.00  0.00    -0.376 OA
BRANCH  33  34
ATOM     34  C   UNL A   1      31.413  31.661  26.493  1.00  0.00     0.202 C 
BRANCH  34  35
ATOM     35  C   UNL A   1      31.994  33.039  26.821  1.00  0.00     0.261 C 
BRANCH  35  36
ATOM     36  O   UNL A   1      32.878  33.045  27.960  1.00  0.00    -0.460 OA
BRANCH  36  37
ATOM     37  C   UNL A   1      33.994  33.797  27.859  1.00  0.00     0.338 C 
ATOM     38  O   UNL A   1      34.053  34.989  27.580  1.00  0.00    -0.246 OA
BRANCH  37  39
ATOM     39  C   UNL A   1      35.141  33.003  28.345  1.00  0.00     0.060 A 
ATOM     40  C   UNL A   1      34.913  31.681  28.742  1.00  0.00     0.016 A 
ATOM     41  C   UNL A   1      36.425  33.544  28.425  1.00  0.00     0.016 A 
ATOM     42  C   UNL A   1      35.957  30.896  29.228  1.00  0.00     0.010 A 
ATOM     43  C   UNL A   1      37.469  32.766  28.938  1.00  0.00     0.010 A 
ATOM     44  C   UNL A   1      37.236  31.445  29.364  1.00  0.00    -0.014 A 
BRANCH  44  45
ATOM     45  C   UNL A   1      38.285  30.707  30.109  1.00  0.00     0.031 A 
ATOM     46  C   UNL A   1      38.495  31.033  31.561  1.00  0.00     0.074 A 
ATOM     47  C   UNL A   1      39.033  29.758  29.518  1.00  0.00     0.049 A 
ATOM     48  N   UNL A   1      39.429  30.626  32.381  1.00  0.00    -0.248 NA
ATOM     49  C   UNL A   1      37.515  31.947  32.170  1.00  0.00     0.031 C 
ATOM     50  C   UNL A   1      38.887  29.298  28.140  1.00  0.00     0.029 A 
ATOM     51  N   UNL A   1      40.082  29.019  30.011  1.00  0.00    -0.354 N 
ATOM     52  C   UNL A   1      39.168  31.256  33.590  1.00  0.00     0.074 A 
ATOM     53  C   UNL A   1      37.992  32.076  33.399  1.00  0.00     0.031 C 
ATOM     54  C   UNL A   1      39.829  28.372  27.888  1.00  0.00     0.029 A 
ATOM     55  C   UNL A   1      40.669  28.205  29.073  1.00  0.00     0.049 A 
ATOM     56  H   UNL A   1      40.383  29.069  30.948  1.00  0.00     0.167 HD
ATOM     57  C   UNL A   1      39.851  31.159  34.754  1.00  0.00     0.037 A 
ATOM     58  C   UNL A   1      41.780  27.446  29.154  1.00  0.00     0.037 A 
ATOM     59  C   UNL A   1      41.004  30.323  34.953  1.00  0.00     0.049 A 
ATOM     60  C   UNL A   1      42.556  27.400  30.447  1.00  0.00     0.074 A 
ATOM     61  C   UNL A   1      41.749  30.141  36.106  1.00  0.00     0.029 A 
ATOM     62  N   UNL A   1      41.578  29.526  33.975  1.00  0.00    -0.354 N 
ATOM     63  N   UNL A   1      42.309  28.001  31.587  1.00  0.00    -0.248 NA
ATOM     64  C   UNL A   1      43.772  26.573  30.464  1.00  0.00     0.031 C 
ATOM     65  C   UNL A   1      42.803  29.270  35.811  1.00  0.00     0.029 A 
ATOM     66  C   UNL A   1      42.683  28.869  34.491  1.00  0.00     0.049 A 
ATOM     67  H   UNL A   1      41.249  29.440  33.051  1.00  0.00     0.167 HD
ATOM     68  C   UNL A   1      43.316  27.604  32.457  1.00  0.00     0.074 A 
ATOM     69  C   UNL A   1      44.173  26.700  31.721  1.00  0.00     0.031 C 
ATOM     70  C   UNL A   1      43.516  27.959  33.750  1.00  0.00     0.037 A 
BRANCH  57  71
ATOM     71  C   UNL A   1      39.392  32.008  35.902  1.00  0.00     0.064 A 
ATOM     72  C   UNL A   1      38.439  31.555  36.824  1.00  0.00     0.173 A 
ATOM     73  C   UNL A   1      39.955  33.277  36.105  1.00  0.00     0.173 A 
ATOM     74  F   UNL A   1      37.858  30.356  36.663  1.00  0.00    -0.203 F 
ATOM     75  C   UNL A   1      38.054  32.350  37.901  1.00  0.00     0.198 A 
ATOM     76  C   UNL A   1      39.588  34.058  37.196  1.00  0.00     0.198 A 
ATOM     77  F   UNL A   1      40.873  33.755  35.249  1.00  0.00    -0.203 F 
ATOM     78  F   UNL A   1      37.114  31.914  38.751  1.00  0.00    -0.200 F 
ATOM     79  C   UNL A   1      38.635  33.596  38.091  1.00  0.00     0.200 A 
ATOM     80  F   UNL A   1      40.158  35.256  37.384  1.00  0.00    -0.200 F 
ATOM     81  F   UNL A   1      38.272  34.354  39.135  1.00  0.00    -0.200 F 
ENDBRANCH  57  71
BRANCH  58  82
ATOM     82  C   UNL A   1      42.263  26.698  27.962  1.00  0.00     0.064 A 
ATOM     83  C   UNL A   1      43.108  27.300  27.020  1.00  0.00     0.173 A 
ATOM     84  C   UNL A   1      41.846  25.382  27.716  1.00  0.00     0.173 A 
ATOM     85  F   UNL A   1      43.505  28.569  27.190  1.00  0.00    -0.203 F 
ATOM     86  C   UNL A   1      43.498  26.622  25.865  1.00  0.00     0.198 A 
ATOM     87  C   UNL A   1      42.262  24.694  26.578  1.00  0.00     0.198 A 
ATOM     88  F   UNL A   1      41.027  24.764  28.580  1.00  0.00    -0.203 F 
ATOM     89  F   UNL A   1      44.255  27.243  24.951  1.00  0.00    -0.200 F 
ATOM     90  C   UNL A   1      43.079  25.318  25.648  1.00  0.00     0.200 A 
ATOM     91  F   UNL A   1      41.856  23.433  26.375  1.00  0.00    -0.200 F 
ATOM     92  F   UNL A   1      43.447  24.670  24.536  1.00  0.00    -0.200 F 
ENDBRANCH  58  82
BRANCH  70  93
ATOM     93  C   UNL A   1      44.680  27.340  34.468  1.00  0.00     0.064 A 
ATOM     94  C   UNL A   1      45.922  27.984  34.552  1.00  0.00     0.173 A 
ATOM     95  C   UNL A   1      44.533  26.107  35.126  1.00  0.00     0.173 A 
ATOM     96  F   UNL A   1      46.118  29.157  33.931  1.00  0.00    -0.203 F 
ATOM     97  C   UNL A   1      46.982  27.408  35.248  1.00  0.00     0.198 A 
ATOM     98  C   UNL A   1      45.585  25.548  35.844  1.00  0.00     0.198 A 
ATOM     99  F   UNL A   1      43.362  25.455  35.084  1.00  0.00    -0.203 F 
ATOM    100  F   UNL A   1      48.173  28.022  35.280  1.00  0.00    -0.200 F 
ATOM    101  C   UNL A   1      46.810  26.196  35.900  1.00  0.00     0.200 A 
ATOM    102  F   UNL A   1      45.413  24.385  36.486  1.00  0.00    -0.200 F 
ATOM    103  F   UNL A   1      47.829  25.647  36.578  1.00  0.00    -0.200 F 
ENDBRANCH  70  93
ENDBRANCH  44  45
ENDBRANCH  37  39
ENDBRANCH  36  37
ENDBRANCH  35  36
ENDBRANCH  34  35
ENDBRANCH  33  34
ENDBRANCH  32  33
ENDBRANCH  31  32
ENDBRANCH  30  31
ENDBRANCH   1  30
TORSDOF 23
ENDMDL
