MODEL 1
REMARK VINA RESULT:     -10.6      0.000      0.000
REMARK SMILES COc1cc(/C=N/NC(=O)c2cccnc2)ccc1OCC(=O)OCCOCCOCCOC(=O)c1ccc(-c2c3nc(c(-c4c(F)c(F)c(F)c(F)c4F)c4ccc([nH]4)c(-c4c(F)c(F)c(F)c(F)c4F)c4nc(c(-c5c(F)c(F)c(F)c(F)c5F)c5ccc2[nH]5)C=C4)C=C3)cc1
REMARK SMILES IDX 27 1 26 2 25 3 24 4 22 5 23 6 21 7 20 8 19 9 3 10 4 11 5 12
REMARK SMILES IDX 18 13 17 14 2 15 1 16 6 17 7 18 8 19 9 20 10 22 11 23 12 24
REMARK SMILES IDX 16 25 13 26 15 27 14 28 28 29 29 30 30 31 31 32 32 33 33 34
REMARK SMILES IDX 34 35 35 36 36 37 37 38 98 39 38 40 97 41 39 42 40 43 41 44
REMARK SMILES IDX 91 45 42 46 96 47 90 48 92 49 43 50 95 51 89 52 88 53 44 55
REMARK SMILES IDX 76 56 56 57 75 58 57 59 60 60 74 61 93 62 58 63 59 64 73 66
REMARK SMILES IDX 94 67 61 68 45 69 46 70 54 71 47 72 48 73 52 74 55 75 49 76
REMARK SMILES IDX 50 77 53 78 51 79 77 80 78 81 86 82 79 83 80 84 84 85 87 86
REMARK SMILES IDX 81 87 82 88 85 89 83 90 62 91 63 92 71 93 64 94 65 95 69 96
REMARK SMILES IDX 72 97 66 98 67 99 70 100 68 101
REMARK H PARENT 8 21 92 54 60 65
REMARK Flexibility Score: inf
ROOT
ATOM      1  O   UNL A   1      35.089  24.160  22.770  1.00  0.00    -0.376 OA
ENDROOT
BRANCH   1   2
ATOM      2  C   UNL A   1      33.716  23.805  22.641  1.00  0.00     0.202 C 
BRANCH   2   3
ATOM      3  C   UNL A   1      32.907  24.734  21.736  1.00  0.00     0.261 C 
BRANCH   3   4
ATOM      4  O   UNL A   1      33.464  26.066  21.672  1.00  0.00    -0.461 OA
BRANCH   4   5
ATOM      5  C   UNL A   1      32.814  27.037  22.376  1.00  0.00     0.344 C 
ATOM      6  O   UNL A   1      31.661  27.398  22.165  1.00  0.00    -0.248 OA
BRANCH   5   7
ATOM      7  C   UNL A   1      33.729  27.718  23.398  1.00  0.00     0.352 C 
BRANCH   7   8
ATOM      8  O   UNL A   1      33.423  27.643  24.776  1.00  0.00    -0.478 OA
BRANCH   8   9
ATOM      9  C   UNL A   1      33.104  26.458  25.375  1.00  0.00     0.162 A 
ATOM     10  C   UNL A   1      31.842  25.914  25.648  1.00  0.00     0.161 A 
ATOM     11  C   UNL A   1      31.738  24.629  26.218  1.00  0.00     0.060 A 
ATOM     12  C   UNL A   1      32.891  23.868  26.444  1.00  0.00    -0.002 A 
ATOM     13  C   UNL A   1      34.246  25.726  25.732  1.00  0.00     0.051 A 
ATOM     14  C   UNL A   1      34.147  24.433  26.243  1.00  0.00     0.014 A 
BRANCH  10  15
ATOM     15  O   UNL A   1      30.723  26.674  25.452  1.00  0.00    -0.493 OA
ATOM     16  C   UNL A   1      29.575  25.941  25.028  1.00  0.00     0.278 C 
ENDBRANCH  10  15
BRANCH  12  17
ATOM     17  C   UNL A   1      32.858  22.425  26.765  1.00  0.00     0.141 C 
ATOM     18  N   UNL A   1      32.813  21.489  25.871  1.00  0.00    -0.180 NA
BRANCH  18  19
ATOM     19  N   UNL A   1      32.860  20.197  26.331  1.00  0.00    -0.243 N 
ATOM     20  C   UNL A   1      32.756  18.992  25.661  1.00  0.00     0.272 C 
ATOM     21  H   UNL A   1      32.989  20.113  27.303  1.00  0.00     0.194 HD
ATOM     22  O   UNL A   1      32.760  17.931  26.283  1.00  0.00    -0.267 OA
BRANCH  20  23
ATOM     23  C   UNL A   1      32.638  18.953  24.198  1.00  0.00     0.059 A 
ATOM     24  C   UNL A   1      32.261  20.059  23.437  1.00  0.00     0.017 A 
ATOM     25  C   UNL A   1      32.866  17.746  23.552  1.00  0.00     0.124 A 
ATOM     26  C   UNL A   1      32.061  19.897  22.069  1.00  0.00     0.021 A 
ATOM     27  N   UNL A   1      32.673  17.563  22.224  1.00  0.00    -0.264 NA
ATOM     28  C   UNL A   1      32.269  18.642  21.516  1.00  0.00     0.111 A 
ENDBRANCH  20  23
ENDBRANCH  18  19
ENDBRANCH  12  17
ENDBRANCH   8   9
ENDBRANCH   7   8
ENDBRANCH   5   7
ENDBRANCH   4   5
ENDBRANCH   3   4
ENDBRANCH   2   3
ENDBRANCH   1   2
BRANCH   1  29
ATOM     29  C   UNL A   1      35.939  23.222  23.417  1.00  0.00     0.188 C 
BRANCH  29  30
ATOM     30  C   UNL A   1      35.299  21.907  23.884  1.00  0.00     0.188 C 
BRANCH  30  31
ATOM     31  O   UNL A   1      35.804  21.320  25.079  1.00  0.00    -0.376 OA
BRANCH  31  32
ATOM     32  C   UNL A   1      36.352  20.011  24.968  1.00  0.00     0.202 C 
BRANCH  32  33
ATOM     33  C   UNL A   1      37.877  19.992  24.965  1.00  0.00     0.261 C 
BRANCH  33  34
ATOM     34  O   UNL A   1      38.394  21.254  25.426  1.00  0.00    -0.460 OA
BRANCH  34  35
ATOM     35  C   UNL A   1      39.530  21.129  26.149  1.00  0.00     0.338 C 
ATOM     36  O   UNL A   1      40.201  20.118  26.266  1.00  0.00    -0.246 OA
BRANCH  35  37
ATOM     37  C   UNL A   1      39.891  22.405  26.808  1.00  0.00     0.060 A 
ATOM     38  C   UNL A   1      39.393  23.632  26.365  1.00  0.00     0.016 A 
ATOM     39  C   UNL A   1      40.894  22.375  27.777  1.00  0.00     0.016 A 
ATOM     40  C   UNL A   1      39.990  24.825  26.797  1.00  0.00     0.010 A 
ATOM     41  C   UNL A   1      41.440  23.569  28.255  1.00  0.00     0.010 A 
ATOM     42  C   UNL A   1      41.040  24.807  27.726  1.00  0.00    -0.014 A 
BRANCH  42  43
ATOM     43  C   UNL A   1      41.826  26.031  28.070  1.00  0.00     0.031 A 
ATOM     44  C   UNL A   1      41.180  27.108  28.904  1.00  0.00     0.074 A 
ATOM     45  C   UNL A   1      43.093  26.220  27.657  1.00  0.00     0.049 A 
ATOM     46  N   UNL A   1      41.472  28.378  29.023  1.00  0.00    -0.248 NA
ATOM     47  C   UNL A   1      40.028  26.685  29.709  1.00  0.00     0.031 C 
ATOM     48  C   UNL A   1      43.917  25.248  26.944  1.00  0.00     0.029 A 
ATOM     49  N   UNL A   1      43.900  27.327  27.772  1.00  0.00    -0.354 N 
ATOM     50  C   UNL A   1      40.483  28.916  29.841  1.00  0.00     0.074 A 
ATOM     51  C   UNL A   1      39.594  27.835  30.203  1.00  0.00     0.031 C 
ATOM     52  C   UNL A   1      45.113  25.800  26.685  1.00  0.00     0.029 A 
ATOM     53  C   UNL A   1      45.103  27.193  27.125  1.00  0.00     0.049 A 
ATOM     54  H   UNL A   1      43.640  28.136  28.268  1.00  0.00     0.167 HD
ATOM     55  C   UNL A   1      40.332  30.198  30.250  1.00  0.00     0.037 A 
ATOM     56  C   UNL A   1      46.056  28.105  26.857  1.00  0.00     0.037 A 
ATOM     57  C   UNL A   1      41.274  31.248  29.974  1.00  0.00     0.049 A 
ATOM     58  C   UNL A   1      45.857  29.540  27.274  1.00  0.00     0.074 A 
ATOM     59  C   UNL A   1      41.216  32.584  30.334  1.00  0.00     0.029 A 
ATOM     60  N   UNL A   1      42.471  31.067  29.299  1.00  0.00    -0.354 N 
ATOM     61  N   UNL A   1      44.859  30.085  27.927  1.00  0.00    -0.248 NA
ATOM     62  C   UNL A   1      46.909  30.493  26.888  1.00  0.00     0.031 C 
ATOM     63  C   UNL A   1      42.370  33.215  29.858  1.00  0.00     0.029 A 
ATOM     64  C   UNL A   1      43.161  32.264  29.234  1.00  0.00     0.049 A 
ATOM     65  H   UNL A   1      42.784  30.212  28.923  1.00  0.00     0.167 HD
ATOM     66  C   UNL A   1      45.169  31.434  28.044  1.00  0.00     0.074 A 
ATOM     67  C   UNL A   1      46.456  31.625  27.410  1.00  0.00     0.031 C 
ATOM     68  C   UNL A   1      44.450  32.430  28.617  1.00  0.00     0.037 A 
BRANCH  55  69
ATOM     69  C   UNL A   1      39.084  30.552  31.005  1.00  0.00     0.064 A 
ATOM     70  C   UNL A   1      39.022  30.518  32.405  1.00  0.00     0.173 A 
ATOM     71  C   UNL A   1      37.946  30.987  30.306  1.00  0.00     0.173 A 
ATOM     72  F   UNL A   1      40.078  30.096  33.117  1.00  0.00    -0.203 F 
ATOM     73  C   UNL A   1      37.860  30.890  33.078  1.00  0.00     0.198 A 
ATOM     74  C   UNL A   1      36.796  31.383  30.982  1.00  0.00     0.198 A 
ATOM     75  F   UNL A   1      37.957  31.046  28.966  1.00  0.00    -0.203 F 
ATOM     76  F   UNL A   1      37.811  30.820  34.415  1.00  0.00    -0.200 F 
ATOM     77  C   UNL A   1      36.753  31.331  32.367  1.00  0.00     0.200 A 
ATOM     78  F   UNL A   1      35.733  31.824  30.295  1.00  0.00    -0.200 F 
ATOM     79  F   UNL A   1      35.642  31.705  33.018  1.00  0.00    -0.200 F 
ENDBRANCH  55  69
BRANCH  56  80
ATOM     80  C   UNL A   1      47.265  27.708  26.089  1.00  0.00     0.064 A 
ATOM     81  C   UNL A   1      47.259  27.702  24.688  1.00  0.00     0.173 A 
ATOM     82  C   UNL A   1      48.444  27.310  26.739  1.00  0.00     0.173 A 
ATOM     83  F   UNL A   1      46.145  28.043  24.023  1.00  0.00    -0.203 F 
ATOM     84  C   UNL A   1      48.381  27.300  23.966  1.00  0.00     0.198 A 
ATOM     85  C   UNL A   1      49.575  26.941  26.016  1.00  0.00     0.198 A 
ATOM     86  F   UNL A   1      48.498  27.293  28.078  1.00  0.00    -0.203 F 
ATOM     87  F   UNL A   1      48.333  27.258  22.627  1.00  0.00    -0.200 F 
ATOM     88  C   UNL A   1      49.539  26.928  24.630  1.00  0.00     0.200 A 
ATOM     89  F   UNL A   1      50.696  26.595  26.662  1.00  0.00    -0.200 F 
ATOM     90  F   UNL A   1      50.620  26.548  23.935  1.00  0.00    -0.200 F 
ENDBRANCH  56  80
BRANCH  68  91
ATOM     91  C   UNL A   1      45.056  33.802  28.625  1.00  0.00     0.064 A 
ATOM     92  C   UNL A   1      45.946  34.206  29.629  1.00  0.00     0.173 A 
ATOM     93  C   UNL A   1      44.769  34.708  27.592  1.00  0.00     0.173 A 
ATOM     94  F   UNL A   1      46.238  33.379  30.644  1.00  0.00    -0.203 F 
ATOM     95  C   UNL A   1      46.512  35.477  29.612  1.00  0.00     0.198 A 
ATOM     96  C   UNL A   1      45.357  35.970  27.565  1.00  0.00     0.198 A 
ATOM     97  F   UNL A   1      43.929  34.364  26.604  1.00  0.00    -0.203 F 
ATOM     98  F   UNL A   1      47.328  35.859  30.604  1.00  0.00    -0.200 F 
ATOM     99  C   UNL A   1      46.222  36.356  28.578  1.00  0.00     0.200 A 
ATOM    100  F   UNL A   1      45.082  36.814  26.561  1.00  0.00    -0.200 F 
ATOM    101  F   UNL A   1      46.770  37.578  28.562  1.00  0.00    -0.200 F 
ENDBRANCH  68  91
ENDBRANCH  42  43
ENDBRANCH  35  37
ENDBRANCH  34  35
ENDBRANCH  33  34
ENDBRANCH  32  33
ENDBRANCH  31  32
ENDBRANCH  30  31
ENDBRANCH  29  30
ENDBRANCH   1  29
TORSDOF 23
ENDMDL
MODEL 2
REMARK VINA RESULT:     -10.0      0.764      2.026
REMARK SMILES COc1cc(/C=N/NC(=O)c2cccnc2)ccc1OCC(=O)OCCOCCOCCOC(=O)c1ccc(-c2c3nc(c(-c4c(F)c(F)c(F)c(F)c4F)c4ccc([nH]4)c(-c4c(F)c(F)c(F)c(F)c4F)c4nc(c(-c5c(F)c(F)c(F)c(F)c5F)c5ccc2[nH]5)C=C4)C=C3)cc1
REMARK SMILES IDX 27 1 26 2 25 3 24 4 22 5 23 6 21 7 20 8 19 9 3 10 4 11 5 12
REMARK SMILES IDX 18 13 17 14 2 15 1 16 6 17 7 18 8 19 9 20 10 22 11 23 12 24
REMARK SMILES IDX 16 25 13 26 15 27 14 28 28 29 29 30 30 31 31 32 32 33 33 34
REMARK SMILES IDX 34 35 35 36 36 37 37 38 98 39 38 40 97 41 39 42 40 43 41 44
REMARK SMILES IDX 91 45 42 46 96 47 90 48 92 49 43 50 95 51 89 52 88 53 44 55
REMARK SMILES IDX 76 56 56 57 75 58 57 59 60 60 74 61 93 62 58 63 59 64 73 66
REMARK SMILES IDX 94 67 61 68 45 69 46 70 54 71 47 72 48 73 52 74 55 75 49 76
REMARK SMILES IDX 50 77 53 78 51 79 77 80 78 81 86 82 79 83 80 84 84 85 87 86
REMARK SMILES IDX 81 87 82 88 85 89 83 90 62 91 63 92 71 93 64 94 65 95 69 96
REMARK SMILES IDX 72 97 66 98 67 99 70 100 68 101
REMARK H PARENT 8 21 92 54 60 65
REMARK Flexibility Score: inf
ROOT
ATOM      1  O   UNL A   1      35.596  23.746  22.904  1.00  0.00    -0.376 OA
ENDROOT
BRANCH   1   2
ATOM      2  C   UNL A   1      34.263  23.266  22.769  1.00  0.00     0.202 C 
BRANCH   2   3
ATOM      3  C   UNL A   1      33.232  24.348  22.454  1.00  0.00     0.261 C 
BRANCH   3   4
ATOM      4  O   UNL A   1      33.833  25.650  22.276  1.00  0.00    -0.461 OA
BRANCH   4   5
ATOM      5  C   UNL A   1      33.109  26.725  22.702  1.00  0.00     0.344 C 
ATOM      6  O   UNL A   1      32.031  27.069  22.233  1.00  0.00    -0.248 OA
BRANCH   5   7
ATOM      7  C   UNL A   1      33.853  27.533  23.769  1.00  0.00     0.352 C 
BRANCH   7   8
ATOM      8  O   UNL A   1      33.533  27.358  25.135  1.00  0.00    -0.478 OA
BRANCH   8   9
ATOM      9  C   UNL A   1      33.142  26.146  25.628  1.00  0.00     0.162 A 
ATOM     10  C   UNL A   1      31.851  25.677  25.905  1.00  0.00     0.161 A 
ATOM     11  C   UNL A   1      31.664  24.353  26.349  1.00  0.00     0.060 A 
ATOM     12  C   UNL A   1      32.759  23.485  26.444  1.00  0.00    -0.002 A 
ATOM     13  C   UNL A   1      34.233  25.295  25.855  1.00  0.00     0.051 A 
ATOM     14  C   UNL A   1      34.048  23.967  26.240  1.00  0.00     0.014 A 
BRANCH  10  15
ATOM     15  O   UNL A   1      30.791  26.538  25.840  1.00  0.00    -0.493 OA
ATOM     16  C   UNL A   1      29.616  25.987  25.251  1.00  0.00     0.278 C 
ENDBRANCH  10  15
BRANCH  12  17
ATOM     17  C   UNL A   1      32.620  22.023  26.622  1.00  0.00     0.141 C 
ATOM     18  N   UNL A   1      33.467  21.158  26.162  1.00  0.00    -0.180 NA
BRANCH  18  19
ATOM     19  N   UNL A   1      33.232  19.842  26.474  1.00  0.00    -0.243 N 
ATOM     20  C   UNL A   1      32.834  18.780  25.683  1.00  0.00     0.272 C 
ATOM     21  H   UNL A   1      33.370  19.615  27.422  1.00  0.00     0.194 HD
ATOM     22  O   UNL A   1      32.616  17.678  26.184  1.00  0.00    -0.267 OA
BRANCH  20  23
ATOM     23  C   UNL A   1      32.663  18.945  24.234  1.00  0.00     0.059 A 
ATOM     24  C   UNL A   1      32.363  20.170  23.639  1.00  0.00     0.017 A 
ATOM     25  C   UNL A   1      32.758  17.818  23.429  1.00  0.00     0.124 A 
ATOM     26  C   UNL A   1      32.102  20.207  22.273  1.00  0.00     0.021 A 
ATOM     27  N   UNL A   1      32.503  17.830  22.099  1.00  0.00    -0.264 NA
ATOM     28  C   UNL A   1      32.176  19.023  21.554  1.00  0.00     0.111 A 
ENDBRANCH  20  23
ENDBRANCH  18  19
ENDBRANCH  12  17
ENDBRANCH   8   9
ENDBRANCH   7   8
ENDBRANCH   5   7
ENDBRANCH   4   5
ENDBRANCH   3   4
ENDBRANCH   2   3
ENDBRANCH   1   2
BRANCH   1  29
ATOM     29  C   UNL A   1      36.613  22.776  23.118  1.00  0.00     0.188 C 
BRANCH  29  30
ATOM     30  C   UNL A   1      36.425  21.818  24.303  1.00  0.00     0.188 C 
BRANCH  30  31
ATOM     31  O   UNL A   1      37.589  21.433  25.026  1.00  0.00    -0.376 OA
BRANCH  31  32
ATOM     32  C   UNL A   1      37.916  20.047  25.024  1.00  0.00     0.202 C 
BRANCH  32  33
ATOM     33  C   UNL A   1      39.328  19.758  25.522  1.00  0.00     0.261 C 
BRANCH  33  34
ATOM     34  O   UNL A   1      40.010  20.986  25.834  1.00  0.00    -0.460 OA
BRANCH  34  35
ATOM     35  C   UNL A   1      40.597  20.971  27.053  1.00  0.00     0.338 C 
ATOM     36  O   UNL A   1      40.880  19.979  27.703  1.00  0.00    -0.246 OA
BRANCH  35  37
ATOM     37  C   UNL A   1      40.876  22.344  27.532  1.00  0.00     0.060 A 
ATOM     38  C   UNL A   1      40.442  23.472  26.834  1.00  0.00     0.016 A 
ATOM     39  C   UNL A   1      41.747  22.491  28.612  1.00  0.00     0.016 A 
ATOM     40  C   UNL A   1      40.984  24.731  27.134  1.00  0.00     0.010 A 
ATOM     41  C   UNL A   1      42.233  23.757  28.951  1.00  0.00     0.010 A 
ATOM     42  C   UNL A   1      41.907  24.884  28.179  1.00  0.00    -0.014 A 
BRANCH  42  43
ATOM     43  C   UNL A   1      42.647  26.161  28.412  1.00  0.00     0.031 A 
ATOM     44  C   UNL A   1      41.957  27.287  29.140  1.00  0.00     0.074 A 
ATOM     45  C   UNL A   1      43.910  26.356  27.990  1.00  0.00     0.049 A 
ATOM     46  N   UNL A   1      42.205  28.572  29.142  1.00  0.00    -0.248 NA
ATOM     47  C   UNL A   1      40.814  26.901  29.974  1.00  0.00     0.031 C 
ATOM     48  C   UNL A   1      44.774  25.352  27.375  1.00  0.00     0.029 A 
ATOM     49  N   UNL A   1      44.678  27.497  28.007  1.00  0.00    -0.354 N 
ATOM     50  C   UNL A   1      41.190  29.148  29.901  1.00  0.00     0.074 A 
ATOM     51  C   UNL A   1      40.336  28.075  30.357  1.00  0.00     0.031 C 
ATOM     52  C   UNL A   1      45.953  25.919  27.073  1.00  0.00     0.029 A 
ATOM     53  C   UNL A   1      45.891  27.346  27.382  1.00  0.00     0.049 A 
ATOM     54  H   UNL A   1      44.386  28.339  28.424  1.00  0.00     0.167 HD
ATOM     55  C   UNL A   1      40.991  30.457  30.188  1.00  0.00     0.037 A 
ATOM     56  C   UNL A   1      46.814  28.263  27.036  1.00  0.00     0.037 A 
ATOM     57  C   UNL A   1      41.899  31.509  29.822  1.00  0.00     0.049 A 
ATOM     58  C   UNL A   1      46.561  29.722  27.317  1.00  0.00     0.074 A 
ATOM     59  C   UNL A   1      41.792  32.869  30.056  1.00  0.00     0.029 A 
ATOM     60  N   UNL A   1      43.108  31.309  29.173  1.00  0.00    -0.354 N 
ATOM     61  N   UNL A   1      45.540  30.289  27.912  1.00  0.00    -0.248 NA
ATOM     62  C   UNL A   1      47.583  30.672  26.850  1.00  0.00     0.031 C 
ATOM     63  C   UNL A   1      42.928  33.495  29.531  1.00  0.00     0.029 A 
ATOM     64  C   UNL A   1      43.757  32.519  29.001  1.00  0.00     0.049 A 
ATOM     65  H   UNL A   1      43.453  30.435  28.880  1.00  0.00     0.167 HD
ATOM     66  C   UNL A   1      45.803  31.653  27.904  1.00  0.00     0.074 A 
ATOM     67  C   UNL A   1      47.087  31.830  27.263  1.00  0.00     0.031 C 
ATOM     68  C   UNL A   1      45.044  32.672  28.379  1.00  0.00     0.037 A 
BRANCH  55  69
ATOM     69  C   UNL A   1      39.726  30.835  30.901  1.00  0.00     0.064 A 
ATOM     70  C   UNL A   1      38.526  31.077  30.218  1.00  0.00     0.173 A 
ATOM     71  C   UNL A   1      39.709  30.900  32.304  1.00  0.00     0.173 A 
ATOM     72  F   UNL A   1      38.494  31.040  28.877  1.00  0.00    -0.203 F 
ATOM     73  C   UNL A   1      37.359  31.387  30.912  1.00  0.00     0.198 A 
ATOM     74  C   UNL A   1      38.535  31.185  32.995  1.00  0.00     0.198 A 
ATOM     75  F   UNL A   1      40.829  30.669  33.005  1.00  0.00    -0.203 F 
ATOM     76  F   UNL A   1      36.230  31.646  30.239  1.00  0.00    -0.200 F 
ATOM     77  C   UNL A   1      37.362  31.432  32.299  1.00  0.00     0.200 A 
ATOM     78  F   UNL A   1      38.538  31.212  34.336  1.00  0.00    -0.200 F 
ATOM     79  F   UNL A   1      36.233  31.713  32.965  1.00  0.00    -0.200 F 
ENDBRANCH  55  69
BRANCH  56  80
ATOM     80  C   UNL A   1      48.042  27.839  26.314  1.00  0.00     0.064 A 
ATOM     81  C   UNL A   1      49.243  27.621  27.000  1.00  0.00     0.173 A 
ATOM     82  C   UNL A   1      48.044  27.661  24.921  1.00  0.00     0.173 A 
ATOM     83  F   UNL A   1      49.299  27.810  28.327  1.00  0.00    -0.203 F 
ATOM     84  C   UNL A   1      50.403  27.254  26.321  1.00  0.00     0.198 A 
ATOM     85  C   UNL A   1      49.196  27.262  24.248  1.00  0.00     0.198 A 
ATOM     86  F   UNL A   1      46.921  27.863  24.217  1.00  0.00    -0.203 F 
ATOM     87  F   UNL A   1      51.551  27.098  26.996  1.00  0.00    -0.200 F 
ATOM     88  C   UNL A   1      50.376  27.067  24.948  1.00  0.00     0.200 A 
ATOM     89  F   UNL A   1      49.161  27.070  22.923  1.00  0.00    -0.200 F 
ATOM     90  F   UNL A   1      51.490  26.707  24.296  1.00  0.00    -0.200 F 
ENDBRANCH  56  80
BRANCH  68  91
ATOM     91  C   UNL A   1      45.602  34.059  28.263  1.00  0.00     0.064 A 
ATOM     92  C   UNL A   1      45.203  34.928  27.238  1.00  0.00     0.173 A 
ATOM     93  C   UNL A   1      46.518  34.535  29.214  1.00  0.00     0.173 A 
ATOM     94  F   UNL A   1      44.340  34.511  26.299  1.00  0.00    -0.203 F 
ATOM     95  C   UNL A   1      45.718  36.218  27.155  1.00  0.00     0.198 A 
ATOM     96  C   UNL A   1      47.012  35.835  29.141  1.00  0.00     0.198 A 
ATOM     97  F   UNL A   1      46.924  33.744  30.217  1.00  0.00    -0.203 F 
ATOM     98  F   UNL A   1      45.355  37.019  26.144  1.00  0.00    -0.200 F 
ATOM     99  C   UNL A   1      46.617  36.673  28.109  1.00  0.00     0.200 A 
ATOM    100  F   UNL A   1      47.874  36.275  30.069  1.00  0.00    -0.200 F 
ATOM    101  F   UNL A   1      47.109  37.916  28.029  1.00  0.00    -0.200 F 
ENDBRANCH  68  91
ENDBRANCH  42  43
ENDBRANCH  35  37
ENDBRANCH  34  35
ENDBRANCH  33  34
ENDBRANCH  32  33
ENDBRANCH  31  32
ENDBRANCH  30  31
ENDBRANCH  29  30
ENDBRANCH   1  29
TORSDOF 23
ENDMDL
MODEL 3
REMARK VINA RESULT:      -9.7      2.753      5.399
REMARK SMILES COc1cc(/C=N/NC(=O)c2cccnc2)ccc1OCC(=O)OCCOCCOCCOC(=O)c1ccc(-c2c3nc(c(-c4c(F)c(F)c(F)c(F)c4F)c4ccc([nH]4)c(-c4c(F)c(F)c(F)c(F)c4F)c4nc(c(-c5c(F)c(F)c(F)c(F)c5F)c5ccc2[nH]5)C=C4)C=C3)cc1
REMARK SMILES IDX 27 1 26 2 25 3 24 4 22 5 23 6 21 7 20 8 19 9 3 10 4 11 5 12
REMARK SMILES IDX 18 13 17 14 2 15 1 16 6 17 7 18 8 19 9 20 10 22 11 23 12 24
REMARK SMILES IDX 16 25 13 26 15 27 14 28 28 29 29 30 30 31 31 32 32 33 33 34
REMARK SMILES IDX 34 35 35 36 36 37 37 38 98 39 38 40 97 41 39 42 40 43 41 44
REMARK SMILES IDX 91 45 42 46 96 47 90 48 92 49 43 50 95 51 89 52 88 53 44 55
REMARK SMILES IDX 76 56 56 57 75 58 57 59 60 60 74 61 93 62 58 63 59 64 73 66
REMARK SMILES IDX 94 67 61 68 45 69 46 70 54 71 47 72 48 73 52 74 55 75 49 76
REMARK SMILES IDX 50 77 53 78 51 79 77 80 78 81 86 82 79 83 80 84 84 85 87 86
REMARK SMILES IDX 81 87 82 88 85 89 83 90 62 91 63 92 71 93 64 94 65 95 69 96
REMARK SMILES IDX 72 97 66 98 67 99 70 100 68 101
REMARK H PARENT 8 21 92 54 60 65
REMARK Flexibility Score: inf
ROOT
ATOM      1  O   UNL A   1      38.804  22.720  26.134  1.00  0.00    -0.376 OA
ENDROOT
BRANCH   1   2
ATOM      2  C   UNL A   1      37.970  21.815  25.417  1.00  0.00     0.202 C 
BRANCH   2   3
ATOM      3  C   UNL A   1      36.576  22.357  25.102  1.00  0.00     0.261 C 
BRANCH   3   4
ATOM      4  O   UNL A   1      35.801  22.614  26.295  1.00  0.00    -0.461 OA
BRANCH   4   5
ATOM      5  C   UNL A   1      34.806  21.727  26.583  1.00  0.00     0.344 C 
ATOM      6  O   UNL A   1      34.208  21.674  27.652  1.00  0.00    -0.248 OA
BRANCH   5   7
ATOM      7  C   UNL A   1      34.592  20.715  25.454  1.00  0.00     0.352 C 
BRANCH   7   8
ATOM      8  O   UNL A   1      33.320  20.594  24.850  1.00  0.00    -0.478 OA
BRANCH   8   9
ATOM      9  C   UNL A   1      32.669  21.676  24.329  1.00  0.00     0.162 A 
ATOM     10  C   UNL A   1      31.547  22.357  24.820  1.00  0.00     0.161 A 
ATOM     11  C   UNL A   1      31.073  23.505  24.154  1.00  0.00     0.060 A 
ATOM     12  C   UNL A   1      31.766  24.006  23.045  1.00  0.00    -0.002 A 
ATOM     13  C   UNL A   1      33.265  22.125  23.142  1.00  0.00     0.051 A 
ATOM     14  C   UNL A   1      32.835  23.292  22.512  1.00  0.00     0.014 A 
BRANCH  10  15
ATOM     15  O   UNL A   1      30.860  21.845  25.885  1.00  0.00    -0.493 OA
ATOM     16  C   UNL A   1      30.275  22.825  26.740  1.00  0.00     0.278 C 
ENDBRANCH  10  15
BRANCH  12  17
ATOM     17  C   UNL A   1      31.511  25.344  22.470  1.00  0.00     0.141 C 
ATOM     18  N   UNL A   1      30.879  26.288  23.093  1.00  0.00    -0.180 NA
BRANCH  18  19
ATOM     19  N   UNL A   1      30.787  27.496  22.449  1.00  0.00    -0.243 N 
ATOM     20  C   UNL A   1      31.232  28.754  22.812  1.00  0.00     0.272 C 
ATOM     21  H   UNL A   1      30.326  27.462  21.580  1.00  0.00     0.194 HD
ATOM     22  O   UNL A   1      30.985  29.730  22.106  1.00  0.00    -0.267 OA
BRANCH  20  23
ATOM     23  C   UNL A   1      32.004  28.950  24.046  1.00  0.00     0.059 A 
ATOM     24  C   UNL A   1      33.297  28.459  24.219  1.00  0.00     0.017 A 
ATOM     25  C   UNL A   1      31.396  29.614  25.102  1.00  0.00     0.124 A 
ATOM     26  C   UNL A   1      33.905  28.591  25.463  1.00  0.00     0.021 A 
ATOM     27  N   UNL A   1      31.966  29.750  26.323  1.00  0.00    -0.264 NA
ATOM     28  C   UNL A   1      33.204  29.230  26.476  1.00  0.00     0.111 A 
ENDBRANCH  20  23
ENDBRANCH  18  19
ENDBRANCH  12  17
ENDBRANCH   8   9
ENDBRANCH   7   8
ENDBRANCH   5   7
ENDBRANCH   4   5
ENDBRANCH   3   4
ENDBRANCH   2   3
ENDBRANCH   1   2
BRANCH   1  29
ATOM     29  C   UNL A   1      40.062  22.226  26.575  1.00  0.00     0.188 C 
BRANCH  29  30
ATOM     30  C   UNL A   1      40.447  20.806  26.135  1.00  0.00     0.188 C 
BRANCH  30  31
ATOM     31  O   UNL A   1      41.711  20.308  26.560  1.00  0.00    -0.376 OA
BRANCH  31  32
ATOM     32  C   UNL A   1      42.003  18.950  26.248  1.00  0.00     0.202 C 
BRANCH  32  33
ATOM     33  C   UNL A   1      43.379  18.754  25.623  1.00  0.00     0.261 C 
BRANCH  33  34
ATOM     34  O   UNL A   1      43.534  19.611  24.477  1.00  0.00    -0.460 OA
BRANCH  34  35
ATOM     35  C   UNL A   1      44.736  20.231  24.437  1.00  0.00     0.338 C 
ATOM     36  O   UNL A   1      45.768  19.769  23.981  1.00  0.00    -0.246 OA
BRANCH  35  37
ATOM     37  C   UNL A   1      44.663  21.587  25.027  1.00  0.00     0.060 A 
ATOM     38  C   UNL A   1      44.423  22.719  24.247  1.00  0.00     0.016 A 
ATOM     39  C   UNL A   1      45.025  21.733  26.366  1.00  0.00     0.016 A 
ATOM     40  C   UNL A   1      44.672  23.995  24.773  1.00  0.00     0.010 A 
ATOM     41  C   UNL A   1      45.207  23.009  26.906  1.00  0.00     0.010 A 
ATOM     42  C   UNL A   1      45.094  24.154  26.101  1.00  0.00    -0.014 A 
BRANCH  42  43
ATOM     43  C   UNL A   1      45.549  25.470  26.644  1.00  0.00     0.031 A 
ATOM     44  C   UNL A   1      44.541  26.387  27.288  1.00  0.00     0.074 A 
ATOM     45  C   UNL A   1      46.830  25.880  26.576  1.00  0.00     0.049 A 
ATOM     46  N   UNL A   1      44.576  27.680  27.487  1.00  0.00    -0.248 NA
ATOM     47  C   UNL A   1      43.310  25.746  27.763  1.00  0.00     0.031 C 
ATOM     48  C   UNL A   1      47.959  25.089  26.097  1.00  0.00     0.029 A 
ATOM     49  N   UNL A   1      47.384  27.096  26.903  1.00  0.00    -0.354 N 
ATOM     50  C   UNL A   1      43.334  28.012  28.021  1.00  0.00     0.074 A 
ATOM     51  C   UNL A   1      42.577  26.785  28.134  1.00  0.00     0.031 C 
ATOM     52  C   UNL A   1      49.072  25.838  26.161  1.00  0.00     0.029 A 
ATOM     53  C   UNL A   1      48.717  27.189  26.591  1.00  0.00     0.049 A 
ATOM     54  H   UNL A   1      46.873  27.827  27.319  1.00  0.00     0.167 HD
ATOM     55  C   UNL A   1      42.871  29.232  28.385  1.00  0.00     0.037 A 
ATOM     56  C   UNL A   1      49.540  28.254  26.585  1.00  0.00     0.037 A 
ATOM     57  C   UNL A   1      43.663  30.431  28.369  1.00  0.00     0.049 A 
ATOM     58  C   UNL A   1      49.002  29.616  26.945  1.00  0.00     0.074 A 
ATOM     59  C   UNL A   1      43.291  31.721  28.710  1.00  0.00     0.029 A 
ATOM     60  N   UNL A   1      45.005  30.478  28.028  1.00  0.00    -0.354 N 
ATOM     61  N   UNL A   1      47.794  29.960  27.319  1.00  0.00    -0.248 NA
ATOM     62  C   UNL A   1      49.943  30.743  26.851  1.00  0.00     0.031 C 
ATOM     63  C   UNL A   1      44.406  32.552  28.554  1.00  0.00     0.029 A 
ATOM     64  C   UNL A   1      45.478  31.772  28.152  1.00  0.00     0.049 A 
ATOM     65  H   UNL A   1      45.543  29.704  27.741  1.00  0.00     0.167 HD
ATOM     66  C   UNL A   1      47.834  31.334  27.520  1.00  0.00     0.074 A 
ATOM     67  C   UNL A   1      49.189  31.760  27.244  1.00  0.00     0.031 C 
ATOM     68  C   UNL A   1      46.835  32.172  27.892  1.00  0.00     0.037 A 
BRANCH  55  69
ATOM     69  C   UNL A   1      41.431  29.343  28.791  1.00  0.00     0.064 A 
ATOM     70  C   UNL A   1      40.387  29.346  27.856  1.00  0.00     0.173 A 
ATOM     71  C   UNL A   1      41.094  29.392  30.154  1.00  0.00     0.173 A 
ATOM     72  F   UNL A   1      40.658  29.315  26.543  1.00  0.00    -0.203 F 
ATOM     73  C   UNL A   1      39.058  29.411  28.269  1.00  0.00     0.198 A 
ATOM     74  C   UNL A   1      39.764  29.431  30.564  1.00  0.00     0.198 A 
ATOM     75  F   UNL A   1      42.056  29.384  31.089  1.00  0.00    -0.203 F 
ATOM     76  F   UNL A   1      38.076  29.444  27.358  1.00  0.00    -0.200 F 
ATOM     77  C   UNL A   1      38.748  29.444  29.621  1.00  0.00     0.200 A 
ATOM     78  F   UNL A   1      39.467  29.446  31.871  1.00  0.00    -0.200 F 
ATOM     79  F   UNL A   1      37.467  29.489  30.016  1.00  0.00    -0.200 F 
ENDBRANCH  55  69
BRANCH  56  80
ATOM     80  C   UNL A   1      50.953  28.094  26.155  1.00  0.00     0.064 A 
ATOM     81  C   UNL A   1      51.296  28.074  24.798  1.00  0.00     0.173 A 
ATOM     82  C   UNL A   1      51.987  27.940  27.093  1.00  0.00     0.173 A 
ATOM     83  F   UNL A   1      50.339  28.185  23.865  1.00  0.00    -0.203 F 
ATOM     84  C   UNL A   1      52.616  27.894  24.392  1.00  0.00     0.198 A 
ATOM     85  C   UNL A   1      53.310  27.792  26.686  1.00  0.00     0.198 A 
ATOM     86  F   UNL A   1      51.710  27.945  28.404  1.00  0.00    -0.203 F 
ATOM     87  F   UNL A   1      52.911  27.831  23.086  1.00  0.00    -0.200 F 
ATOM     88  C   UNL A   1      53.623  27.761  25.336  1.00  0.00     0.200 A 
ATOM     89  F   UNL A   1      54.280  27.677  27.603  1.00  0.00    -0.200 F 
ATOM     90  F   UNL A   1      54.893  27.594  24.946  1.00  0.00    -0.200 F 
ENDBRANCH  56  80
BRANCH  68  91
ATOM     91  C   UNL A   1      47.180  33.622  28.065  1.00  0.00     0.064 A 
ATOM     92  C   UNL A   1      47.053  34.537  27.012  1.00  0.00     0.173 A 
ATOM     93  C   UNL A   1      47.604  34.104  29.313  1.00  0.00     0.173 A 
ATOM     94  F   UNL A   1      46.664  34.119  25.798  1.00  0.00    -0.203 F 
ATOM     95  C   UNL A   1      47.361  35.882  27.194  1.00  0.00     0.198 A 
ATOM     96  C   UNL A   1      47.888  35.455  29.497  1.00  0.00     0.198 A 
ATOM     97  F   UNL A   1      47.734  33.268  30.353  1.00  0.00    -0.203 F 
ATOM     98  F   UNL A   1      47.273  36.734  26.163  1.00  0.00    -0.200 F 
ATOM     99  C   UNL A   1      47.772  36.341  28.437  1.00  0.00     0.200 A 
ATOM    100  F   UNL A   1      48.277  35.898  30.702  1.00  0.00    -0.200 F 
ATOM    101  F   UNL A   1      48.065  37.637  28.612  1.00  0.00    -0.200 F 
ENDBRANCH  68  91
ENDBRANCH  42  43
ENDBRANCH  35  37
ENDBRANCH  34  35
ENDBRANCH  33  34
ENDBRANCH  32  33
ENDBRANCH  31  32
ENDBRANCH  30  31
ENDBRANCH  29  30
ENDBRANCH   1  29
TORSDOF 23
ENDMDL
