MODEL 1
REMARK VINA RESULT:     -10.8      0.000      0.000
REMARK SMILES COCC[C@]1(C(=O)OCCOCCOCCOC(=O)c2ccc(-c3c4nc(c(-c5c(F)c(F)c(F)c(F)c5F)c5ccc([nH]5)c(-c5c(F)c(F)c(F)c(F)c5F)c5nc(c(-c6c(F)c(F)c(F)c(F)c6F)c6ccc3[nH]6)C=C5)C=C4)cc2)CCCN(C(=O)c2ccc(=O)[nH]c2)C1
REMARK SMILES IDX 12 1 11 2 10 3 9 4 8 5 6 6 7 7 5 8 83 9 96 10 84 11 86 12
REMARK SMILES IDX 85 13 4 14 3 15 2 16 1 17 87 18 88 19 89 20 90 21 95 22
REMARK SMILES IDX 91 23 94 24 92 25 93 27 13 28 14 29 15 30 16 31 17 32 18 33
REMARK SMILES IDX 19 34 20 35 21 36 82 37 22 38 81 39 23 40 24 41 25 42 75 43
REMARK SMILES IDX 26 44 80 45 74 46 76 47 27 48 79 49 73 50 72 51 28 53 60 54
REMARK SMILES IDX 40 55 59 56 41 57 44 58 58 59 77 60 42 61 43 62 57 64 78 65
REMARK SMILES IDX 45 66 29 67 30 68 38 69 31 70 32 71 36 72 39 73 33 74 34 75
REMARK SMILES IDX 37 76 35 77 61 78 62 79 70 80 63 81 64 82 68 83 71 84 65 85
REMARK SMILES IDX 66 86 69 87 67 88 46 89 47 90 55 91 48 92 49 93 53 94 56 95
REMARK SMILES IDX 50 96 51 97 54 98 52 99
REMARK H PARENT 94 26 76 52 44 63
REMARK Flexibility Score: inf
ROOT
ATOM      1  C   UNL A   1      40.600  20.887  26.207  1.00  0.00     0.188 C 
ENDROOT
BRANCH   1   2
ATOM      2  O   UNL A   1      39.861  21.996  26.656  1.00  0.00    -0.376 OA
BRANCH   2   3
ATOM      3  C   UNL A   1      38.561  22.169  26.111  1.00  0.00     0.202 C 
BRANCH   3   4
ATOM      4  C   UNL A   1      37.866  23.547  25.950  1.00  0.00     0.261 C 
BRANCH   4   5
ATOM      5  O   UNL A   1      36.462  23.549  25.637  1.00  0.00    -0.463 OA
BRANCH   5   6
ATOM      6  C   UNL A   1      36.082  23.312  24.351  1.00  0.00     0.314 C 
ATOM      7  O   UNL A   1      36.855  23.351  23.402  1.00  0.00    -0.252 OA
BRANCH   6   8
ATOM      8  C   UNL A   1      34.567  23.017  24.220  1.00  0.00     0.088 C 
ATOM      9  C   UNL A   1      34.021  23.593  22.868  1.00  0.00     0.022 C 
ATOM     10  C   UNL A   1      34.403  21.484  24.079  1.00  0.00     0.138 C 
ATOM     11  C   UNL A   1      32.576  23.196  22.573  1.00  0.00     0.023 C 
ATOM     12  N   UNL A   1      33.002  21.116  23.814  1.00  0.00    -0.337 N 
ATOM     13  C   UNL A   1      32.425  21.685  22.593  1.00  0.00     0.120 C 
BRANCH   8  14
ATOM     14  C   UNL A   1      33.778  23.558  25.463  1.00  0.00     0.049 C 
BRANCH  14  15
ATOM     15  C   UNL A   1      33.078  24.913  25.318  1.00  0.00     0.161 C 
BRANCH  15  16
ATOM     16  O   UNL A   1      33.735  25.878  26.127  1.00  0.00    -0.385 OA
ATOM     17  C   UNL A   1      32.967  27.070  26.263  1.00  0.00     0.194 C 
ENDBRANCH  15  16
ENDBRANCH  14  15
ENDBRANCH   8  14
BRANCH  12  18
ATOM     18  C   UNL A   1      32.337  20.302  24.719  1.00  0.00     0.255 C 
ATOM     19  O   UNL A   1      31.416  20.690  25.435  1.00  0.00    -0.269 OA
BRANCH  18  20
ATOM     20  C   UNL A   1      32.736  18.873  24.783  1.00  0.00     0.056 A 
ATOM     21  C   UNL A   1      33.008  18.094  23.594  1.00  0.00     0.021 A 
ATOM     22  C   UNL A   1      32.897  18.324  25.996  1.00  0.00     0.099 A 
ATOM     23  C   UNL A   1      33.387  16.811  23.693  1.00  0.00     0.072 A 
ATOM     24  N   UNL A   1      33.290  17.011  26.111  1.00  0.00    -0.328 N 
ATOM     25  C   UNL A   1      33.552  16.192  25.036  1.00  0.00     0.247 A 
ATOM     26  H   UNL A   1      33.390  16.634  27.016  1.00  0.00     0.169 HD
ATOM     27  O   UNL A   1      33.899  15.024  25.158  1.00  0.00    -0.270 OA
ENDBRANCH  18  20
ENDBRANCH  12  18
ENDBRANCH   6   8
ENDBRANCH   5   6
ENDBRANCH   4   5
ENDBRANCH   3   4
ENDBRANCH   2   3
ENDBRANCH   1   2
BRANCH   1  28
ATOM     28  C   UNL A   1      41.727  20.517  27.171  1.00  0.00     0.188 C 
BRANCH  28  29
ATOM     29  O   UNL A   1      41.927  19.187  27.615  1.00  0.00    -0.376 OA
BRANCH  29  30
ATOM     30  C   UNL A   1      43.000  18.443  27.055  1.00  0.00     0.202 C 
BRANCH  30  31
ATOM     31  C   UNL A   1      43.257  18.415  25.531  1.00  0.00     0.261 C 
BRANCH  31  32
ATOM     32  O   UNL A   1      44.625  18.435  25.091  1.00  0.00    -0.460 OA
BRANCH  32  33
ATOM     33  C   UNL A   1      44.911  19.322  24.102  1.00  0.00     0.338 C 
ATOM     34  O   UNL A   1      45.019  19.088  22.907  1.00  0.00    -0.246 OA
BRANCH  33  35
ATOM     35  C   UNL A   1      44.827  20.698  24.648  1.00  0.00     0.060 A 
ATOM     36  C   UNL A   1      44.376  21.728  23.802  1.00  0.00     0.016 A 
ATOM     37  C   UNL A   1      45.169  20.976  25.970  1.00  0.00     0.016 A 
ATOM     38  C   UNL A   1      44.266  23.034  24.273  1.00  0.00     0.010 A 
ATOM     39  C   UNL A   1      45.106  22.298  26.427  1.00  0.00     0.010 A 
ATOM     40  C   UNL A   1      44.678  23.335  25.575  1.00  0.00    -0.014 A 
BRANCH  40  41
ATOM     41  C   UNL A   1      44.859  24.751  25.974  1.00  0.00     0.031 A 
ATOM     42  C   UNL A   1      46.230  25.355  25.850  1.00  0.00     0.074 A 
ATOM     43  C   UNL A   1      43.835  25.494  26.423  1.00  0.00     0.049 A 
ATOM     44  N   UNL A   1      46.656  26.540  26.202  1.00  0.00    -0.248 NA
ATOM     45  C   UNL A   1      47.262  24.496  25.249  1.00  0.00     0.031 C 
ATOM     46  C   UNL A   1      42.451  25.046  26.540  1.00  0.00     0.029 A 
ATOM     47  N   UNL A   1      43.813  26.789  26.882  1.00  0.00    -0.354 N 
ATOM     48  C   UNL A   1      48.007  26.564  25.882  1.00  0.00     0.074 A 
ATOM     49  C   UNL A   1      48.335  25.267  25.332  1.00  0.00     0.031 C 
ATOM     50  C   UNL A   1      41.715  26.041  27.065  1.00  0.00     0.029 A 
ATOM     51  C   UNL A   1      42.586  27.181  27.354  1.00  0.00     0.049 A 
ATOM     52  H   UNL A   1      44.601  27.378  26.873  1.00  0.00     0.167 HD
ATOM     53  C   UNL A   1      48.894  27.577  26.033  1.00  0.00     0.037 A 
ATOM     54  C   UNL A   1      42.217  28.318  27.977  1.00  0.00     0.037 A 
ATOM     55  C   UNL A   1      48.565  28.864  26.588  1.00  0.00     0.049 A 
ATOM     56  C   UNL A   1      43.237  29.406  28.206  1.00  0.00     0.074 A 
ATOM     57  C   UNL A   1      49.384  29.966  26.754  1.00  0.00     0.029 A 
ATOM     58  N   UNL A   1      47.318  29.215  27.085  1.00  0.00    -0.354 N 
ATOM     59  N   UNL A   1      44.505  29.436  27.877  1.00  0.00    -0.248 NA
ATOM     60  C   UNL A   1      42.768  30.619  28.891  1.00  0.00     0.031 C 
ATOM     61  C   UNL A   1      48.653  30.958  27.417  1.00  0.00     0.029 A 
ATOM     62  C   UNL A   1      47.355  30.504  27.595  1.00  0.00     0.049 A 
ATOM     63  H   UNL A   1      46.522  28.634  27.077  1.00  0.00     0.167 HD
ATOM     64  C   UNL A   1      44.981  30.676  28.291  1.00  0.00     0.074 A 
ATOM     65  C   UNL A   1      43.859  31.375  28.880  1.00  0.00     0.031 C 
ATOM     66  C   UNL A   1      46.234  31.188  28.189  1.00  0.00     0.037 A 
BRANCH  53  67
ATOM     67  C   UNL A   1      50.318  27.308  25.636  1.00  0.00     0.064 A 
ATOM     68  C   UNL A   1      51.285  26.887  26.562  1.00  0.00     0.173 A 
ATOM     69  C   UNL A   1      50.721  27.477  24.302  1.00  0.00     0.173 A 
ATOM     70  F   UNL A   1      50.957  26.725  27.854  1.00  0.00    -0.203 F 
ATOM     71  C   UNL A   1      52.608  26.687  26.177  1.00  0.00     0.198 A 
ATOM     72  C   UNL A   1      52.036  27.240  23.913  1.00  0.00     0.198 A 
ATOM     73  F   UNL A   1      49.839  27.875  23.373  1.00  0.00    -0.203 F 
ATOM     74  F   UNL A   1      53.527  26.351  27.094  1.00  0.00    -0.200 F 
ATOM     75  C   UNL A   1      52.982  26.858  24.853  1.00  0.00     0.200 A 
ATOM     76  F   UNL A   1      52.392  27.391  22.629  1.00  0.00    -0.200 F 
ATOM     77  F   UNL A   1      54.256  26.663  24.484  1.00  0.00    -0.200 F 
ENDBRANCH  53  67
BRANCH  54  78
ATOM     78  C   UNL A   1      40.815  28.475  28.448  1.00  0.00     0.064 A 
ATOM     79  C   UNL A   1      39.825  29.009  27.612  1.00  0.00     0.173 A 
ATOM     80  C   UNL A   1      40.439  28.093  29.744  1.00  0.00     0.173 A 
ATOM     81  F   UNL A   1      40.143  29.419  26.376  1.00  0.00    -0.203 F 
ATOM     82  C   UNL A   1      38.513  29.161  28.058  1.00  0.00     0.198 A 
ATOM     83  C   UNL A   1      39.121  28.216  30.178  1.00  0.00     0.198 A 
ATOM     84  F   UNL A   1      41.351  27.583  30.585  1.00  0.00    -0.203 F 
ATOM     85  F   UNL A   1      37.595  29.711  27.253  1.00  0.00    -0.200 F 
ATOM     86  C   UNL A   1      38.161  28.754  29.336  1.00  0.00     0.200 A 
ATOM     87  F   UNL A   1      38.783  27.812  31.410  1.00  0.00    -0.200 F 
ATOM     88  F   UNL A   1      36.896  28.890  29.760  1.00  0.00    -0.200 F 
ENDBRANCH  54  78
BRANCH  66  89
ATOM     89  C   UNL A   1      46.454  32.587  28.698  1.00  0.00     0.064 A 
ATOM     90  C   UNL A   1      46.892  32.840  30.007  1.00  0.00     0.173 A 
ATOM     91  C   UNL A   1      46.261  33.690  27.850  1.00  0.00     0.173 A 
ATOM     92  F   UNL A   1      47.082  31.825  30.863  1.00  0.00    -0.203 F 
ATOM     93  C   UNL A   1      47.093  34.143  30.458  1.00  0.00     0.198 A 
ATOM     94  C   UNL A   1      46.499  34.989  28.293  1.00  0.00     0.198 A 
ATOM     95  F   UNL A   1      45.852  33.509  26.585  1.00  0.00    -0.203 F 
ATOM     96  F   UNL A   1      47.455  34.361  31.730  1.00  0.00    -0.200 F 
ATOM     97  C   UNL A   1      46.905  35.215  29.599  1.00  0.00     0.200 A 
ATOM     98  F   UNL A   1      46.333  36.023  27.456  1.00  0.00    -0.200 F 
ATOM     99  F   UNL A   1      47.105  36.467  30.032  1.00  0.00    -0.200 F 
ENDBRANCH  66  89
ENDBRANCH  40  41
ENDBRANCH  33  35
ENDBRANCH  32  33
ENDBRANCH  31  32
ENDBRANCH  30  31
ENDBRANCH  29  30
ENDBRANCH  28  29
ENDBRANCH   1  28
TORSDOF 22
ENDMDL
MODEL 2
REMARK VINA RESULT:     -10.6      5.233      8.039
REMARK SMILES COCC[C@]1(C(=O)OCCOCCOCCOC(=O)c2ccc(-c3c4nc(c(-c5c(F)c(F)c(F)c(F)c5F)c5ccc([nH]5)c(-c5c(F)c(F)c(F)c(F)c5F)c5nc(c(-c6c(F)c(F)c(F)c(F)c6F)c6ccc3[nH]6)C=C5)C=C4)cc2)CCCN(C(=O)c2ccc(=O)[nH]c2)C1
REMARK SMILES IDX 12 1 11 2 10 3 9 4 8 5 6 6 7 7 5 8 83 9 96 10 84 11 86 12
REMARK SMILES IDX 85 13 4 14 3 15 2 16 1 17 87 18 88 19 89 20 90 21 95 22
REMARK SMILES IDX 91 23 94 24 92 25 93 27 13 28 14 29 15 30 16 31 17 32 18 33
REMARK SMILES IDX 19 34 20 35 21 36 82 37 22 38 81 39 23 40 24 41 25 42 75 43
REMARK SMILES IDX 26 44 80 45 74 46 76 47 27 48 79 49 73 50 72 51 28 53 60 54
REMARK SMILES IDX 40 55 59 56 41 57 44 58 58 59 77 60 42 61 43 62 57 64 78 65
REMARK SMILES IDX 45 66 29 67 30 68 38 69 31 70 32 71 36 72 39 73 33 74 34 75
REMARK SMILES IDX 37 76 35 77 61 78 62 79 70 80 63 81 64 82 68 83 71 84 65 85
REMARK SMILES IDX 66 86 69 87 67 88 46 89 47 90 55 91 48 92 49 93 53 94 56 95
REMARK SMILES IDX 50 96 51 97 54 98 52 99
REMARK H PARENT 94 26 76 52 44 63
REMARK Flexibility Score: inf
ROOT
ATOM      1  C   UNL A   1      39.935  21.691  25.885  1.00  0.00     0.188 C 
ENDROOT
BRANCH   1   2
ATOM      2  O   UNL A   1      38.543  21.792  26.053  1.00  0.00    -0.376 OA
BRANCH   2   3
ATOM      3  C   UNL A   1      37.994  23.100  26.130  1.00  0.00     0.202 C 
BRANCH   3   4
ATOM      4  C   UNL A   1      36.980  23.675  25.106  1.00  0.00     0.261 C 
BRANCH   4   5
ATOM      5  O   UNL A   1      35.581  23.556  25.421  1.00  0.00    -0.463 OA
BRANCH   5   6
ATOM      6  C   UNL A   1      34.688  23.497  24.395  1.00  0.00     0.314 C 
ATOM      7  O   UNL A   1      34.761  22.684  23.483  1.00  0.00    -0.252 OA
BRANCH   6   8
ATOM      8  C   UNL A   1      33.590  24.586  24.496  1.00  0.00     0.088 C 
ATOM      9  C   UNL A   1      33.880  25.532  25.712  1.00  0.00     0.022 C 
ATOM     10  C   UNL A   1      33.728  25.502  23.255  1.00  0.00     0.138 C 
ATOM     11  C   UNL A   1      32.947  26.740  25.783  1.00  0.00     0.023 C 
ATOM     12  N   UNL A   1      32.810  26.650  23.330  1.00  0.00    -0.337 N 
ATOM     13  C   UNL A   1      33.000  27.529  24.487  1.00  0.00     0.120 C 
BRANCH   8  14
ATOM     14  C   UNL A   1      32.161  23.943  24.566  1.00  0.00     0.049 C 
BRANCH  14  15
ATOM     15  C   UNL A   1      32.060  22.510  25.101  1.00  0.00     0.161 C 
BRANCH  15  16
ATOM     16  O   UNL A   1      30.865  22.367  25.857  1.00  0.00    -0.385 OA
ATOM     17  C   UNL A   1      30.601  23.516  26.656  1.00  0.00     0.194 C 
ENDBRANCH  15  16
ENDBRANCH  14  15
ENDBRANCH   8  14
BRANCH  12  18
ATOM     18  C   UNL A   1      31.845  26.805  22.346  1.00  0.00     0.255 C 
ATOM     19  O   UNL A   1      31.806  26.132  21.319  1.00  0.00    -0.269 OA
BRANCH  18  20
ATOM     20  C   UNL A   1      30.777  27.810  22.581  1.00  0.00     0.056 A 
ATOM     21  C   UNL A   1      29.479  27.448  23.108  1.00  0.00     0.021 A 
ATOM     22  C   UNL A   1      31.068  29.099  22.342  1.00  0.00     0.099 A 
ATOM     23  C   UNL A   1      28.547  28.388  23.327  1.00  0.00     0.072 A 
ATOM     24  N   UNL A   1      30.123  30.071  22.567  1.00  0.00    -0.328 N 
ATOM     25  C   UNL A   1      28.859  29.816  23.048  1.00  0.00     0.247 A 
ATOM     26  H   UNL A   1      30.365  31.006  22.372  1.00  0.00     0.169 HD
ATOM     27  O   UNL A   1      28.029  30.696  23.241  1.00  0.00    -0.270 OA
ENDBRANCH  18  20
ENDBRANCH  12  18
ENDBRANCH   6   8
ENDBRANCH   5   6
ENDBRANCH   4   5
ENDBRANCH   3   4
ENDBRANCH   2   3
ENDBRANCH   1   2
BRANCH   1  28
ATOM     28  C   UNL A   1      40.513  20.460  26.582  1.00  0.00     0.188 C 
BRANCH  28  29
ATOM     29  O   UNL A   1      41.429  19.594  25.936  1.00  0.00    -0.376 OA
BRANCH  29  30
ATOM     30  C   UNL A   1      42.739  20.075  25.669  1.00  0.00     0.202 C 
BRANCH  30  31
ATOM     31  C   UNL A   1      43.147  21.531  25.992  1.00  0.00     0.261 C 
BRANCH  31  32
ATOM     32  O   UNL A   1      42.761  22.549  25.053  1.00  0.00    -0.460 OA
BRANCH  32  33
ATOM     33  C   UNL A   1      43.524  23.673  25.061  1.00  0.00     0.338 C 
ATOM     34  O   UNL A   1      44.441  23.950  24.301  1.00  0.00    -0.246 OA
BRANCH  33  35
ATOM     35  C   UNL A   1      42.919  24.663  25.985  1.00  0.00     0.060 A 
ATOM     36  C   UNL A   1      43.471  25.955  26.039  1.00  0.00     0.016 A 
ATOM     37  C   UNL A   1      41.818  24.337  26.776  1.00  0.00     0.016 A 
ATOM     38  C   UNL A   1      42.929  26.923  26.881  1.00  0.00     0.010 A 
ATOM     39  C   UNL A   1      41.306  25.296  27.658  1.00  0.00     0.010 A 
ATOM     40  C   UNL A   1      41.873  26.583  27.731  1.00  0.00    -0.014 A 
BRANCH  40  41
ATOM     41  C   UNL A   1      41.502  27.499  28.836  1.00  0.00     0.031 A 
ATOM     42  C   UNL A   1      42.308  27.447  30.104  1.00  0.00     0.074 A 
ATOM     43  C   UNL A   1      40.486  28.370  28.721  1.00  0.00     0.049 A 
ATOM     44  N   UNL A   1      42.136  28.088  31.231  1.00  0.00    -0.248 NA
ATOM     45  C   UNL A   1      43.466  26.539  30.097  1.00  0.00     0.031 C 
ATOM     46  C   UNL A   1      39.663  28.557  27.530  1.00  0.00     0.029 A 
ATOM     47  N   UNL A   1      39.966  29.251  29.636  1.00  0.00    -0.354 N 
ATOM     48  C   UNL A   1      43.150  27.649  32.071  1.00  0.00     0.074 A 
ATOM     49  C   UNL A   1      43.917  26.669  31.334  1.00  0.00     0.031 C 
ATOM     50  C   UNL A   1      38.720  29.478  27.795  1.00  0.00     0.029 A 
ATOM     51  C   UNL A   1      38.853  29.916  29.185  1.00  0.00     0.049 A 
ATOM     52  H   UNL A   1      40.353  29.394  30.530  1.00  0.00     0.167 HD
ATOM     53  C   UNL A   1      43.419  28.030  33.343  1.00  0.00     0.037 A 
ATOM     54  C   UNL A   1      38.019  30.754  29.832  1.00  0.00     0.037 A 
ATOM     55  C   UNL A   1      42.649  29.001  34.076  1.00  0.00     0.049 A 
ATOM     56  C   UNL A   1      38.290  31.108  31.273  1.00  0.00     0.074 A 
ATOM     57  C   UNL A   1      42.858  29.478  35.358  1.00  0.00     0.029 A 
ATOM     58  N   UNL A   1      41.509  29.630  33.597  1.00  0.00    -0.354 N 
ATOM     59  N   UNL A   1      39.265  30.714  32.055  1.00  0.00    -0.248 NA
ATOM     60  C   UNL A   1      37.342  32.028  31.918  1.00  0.00     0.031 C 
ATOM     61  C   UNL A   1      41.804  30.339  35.680  1.00  0.00     0.029 A 
ATOM     62  C   UNL A   1      40.979  30.461  34.573  1.00  0.00     0.049 A 
ATOM     63  H   UNL A   1      41.130  29.504  32.696  1.00  0.00     0.167 HD
ATOM     64  C   UNL A   1      39.065  31.354  33.273  1.00  0.00     0.074 A 
ATOM     65  C   UNL A   1      37.883  32.176  33.120  1.00  0.00     0.031 C 
ATOM     66  C   UNL A   1      39.796  31.269  34.414  1.00  0.00     0.037 A 
BRANCH  53  67
ATOM     67  C   UNL A   1      44.567  27.352  34.036  1.00  0.00     0.064 A 
ATOM     68  C   UNL A   1      44.408  26.153  34.747  1.00  0.00     0.173 A 
ATOM     69  C   UNL A   1      45.852  27.917  33.987  1.00  0.00     0.173 A 
ATOM     70  F   UNL A   1      43.198  25.579  34.839  1.00  0.00    -0.203 F 
ATOM     71  C   UNL A   1      45.479  25.568  35.417  1.00  0.00     0.198 A 
ATOM     72  C   UNL A   1      46.929  27.309  34.626  1.00  0.00     0.198 A 
ATOM     73  F   UNL A   1      46.064  29.061  33.319  1.00  0.00    -0.203 F 
ATOM     74  F   UNL A   1      45.287  24.459  36.146  1.00  0.00    -0.200 F 
ATOM     75  C   UNL A   1      46.740  26.143  35.351  1.00  0.00     0.200 A 
ATOM     76  F   UNL A   1      48.149  27.859  34.548  1.00  0.00    -0.200 F 
ATOM     77  F   UNL A   1      47.770  25.577  35.996  1.00  0.00    -0.200 F 
ENDBRANCH  53  67
BRANCH  54  78
ATOM     78  C   UNL A   1      36.834  31.303  29.121  1.00  0.00     0.064 A 
ATOM     79  C   UNL A   1      35.731  30.494  28.819  1.00  0.00     0.173 A 
ATOM     80  C   UNL A   1      36.782  32.649  28.732  1.00  0.00     0.173 A 
ATOM     81  F   UNL A   1      35.746  29.193  29.143  1.00  0.00    -0.203 F 
ATOM     82  C   UNL A   1      34.624  31.009  28.147  1.00  0.00     0.198 A 
ATOM     83  C   UNL A   1      35.662  33.171  28.087  1.00  0.00     0.198 A 
ATOM     84  F   UNL A   1      37.815  33.464  28.991  1.00  0.00    -0.203 F 
ATOM     85  F   UNL A   1      33.599  30.204  27.834  1.00  0.00    -0.200 F 
ATOM     86  C   UNL A   1      34.586  32.349  27.791  1.00  0.00     0.200 A 
ATOM     87  F   UNL A   1      35.626  34.468  27.755  1.00  0.00    -0.200 F 
ATOM     88  F   UNL A   1      33.516  32.846  27.156  1.00  0.00    -0.200 F 
ENDBRANCH  54  78
BRANCH  66  89
ATOM     89  C   UNL A   1      39.358  32.111  35.582  1.00  0.00     0.064 A 
ATOM     90  C   UNL A   1      38.495  31.617  36.571  1.00  0.00     0.173 A 
ATOM     91  C   UNL A   1      39.841  33.422  35.733  1.00  0.00     0.173 A 
ATOM     92  F   UNL A   1      37.995  30.376  36.472  1.00  0.00    -0.203 F 
ATOM     93  C   UNL A   1      38.105  32.412  37.647  1.00  0.00     0.198 A 
ATOM     94  C   UNL A   1      39.478  34.201  36.829  1.00  0.00     0.198 A 
ATOM     95  F   UNL A   1      40.677  33.945  34.823  1.00  0.00    -0.203 F 
ATOM     96  F   UNL A   1      37.234  31.936  38.548  1.00  0.00    -0.200 F 
ATOM     97  C   UNL A   1      38.602  33.699  37.779  1.00  0.00     0.200 A 
ATOM     98  F   UNL A   1      39.974  35.439  36.964  1.00  0.00    -0.200 F 
ATOM     99  F   UNL A   1      38.231  34.461  38.818  1.00  0.00    -0.200 F 
ENDBRANCH  66  89
ENDBRANCH  40  41
ENDBRANCH  33  35
ENDBRANCH  32  33
ENDBRANCH  31  32
ENDBRANCH  30  31
ENDBRANCH  29  30
ENDBRANCH  28  29
ENDBRANCH   1  28
TORSDOF 22
ENDMDL
MODEL 3
REMARK VINA RESULT:     -10.4      0.596      7.137
REMARK SMILES COCC[C@]1(C(=O)OCCOCCOCCOC(=O)c2ccc(-c3c4nc(c(-c5c(F)c(F)c(F)c(F)c5F)c5ccc([nH]5)c(-c5c(F)c(F)c(F)c(F)c5F)c5nc(c(-c6c(F)c(F)c(F)c(F)c6F)c6ccc3[nH]6)C=C5)C=C4)cc2)CCCN(C(=O)c2ccc(=O)[nH]c2)C1
REMARK SMILES IDX 12 1 11 2 10 3 9 4 8 5 6 6 7 7 5 8 83 9 96 10 84 11 86 12
REMARK SMILES IDX 85 13 4 14 3 15 2 16 1 17 87 18 88 19 89 20 90 21 95 22
REMARK SMILES IDX 91 23 94 24 92 25 93 27 13 28 14 29 15 30 16 31 17 32 18 33
REMARK SMILES IDX 19 34 20 35 21 36 82 37 22 38 81 39 23 40 24 41 25 42 75 43
REMARK SMILES IDX 26 44 80 45 74 46 76 47 27 48 79 49 73 50 72 51 28 53 60 54
REMARK SMILES IDX 40 55 59 56 41 57 44 58 58 59 77 60 42 61 43 62 57 64 78 65
REMARK SMILES IDX 45 66 29 67 30 68 38 69 31 70 32 71 36 72 39 73 33 74 34 75
REMARK SMILES IDX 37 76 35 77 61 78 62 79 70 80 63 81 64 82 68 83 71 84 65 85
REMARK SMILES IDX 66 86 69 87 67 88 46 89 47 90 55 91 48 92 49 93 53 94 56 95
REMARK SMILES IDX 50 96 51 97 54 98 52 99
REMARK H PARENT 94 26 76 52 44 63
REMARK Flexibility Score: inf
ROOT
ATOM      1  C   UNL A   1      40.234  21.022  26.288  1.00  0.00     0.188 C 
ENDROOT
BRANCH   1   2
ATOM      2  O   UNL A   1      39.502  22.124  26.763  1.00  0.00    -0.376 OA
BRANCH   2   3
ATOM      3  C   UNL A   1      38.205  22.322  26.216  1.00  0.00     0.202 C 
BRANCH   3   4
ATOM      4  C   UNL A   1      37.741  23.641  25.544  1.00  0.00     0.261 C 
BRANCH   4   5
ATOM      5  O   UNL A   1      36.344  23.767  25.226  1.00  0.00    -0.463 OA
BRANCH   5   6
ATOM      6  C   UNL A   1      35.925  23.400  23.983  1.00  0.00     0.314 C 
ATOM      7  O   UNL A   1      36.662  23.364  23.007  1.00  0.00    -0.252 OA
BRANCH   6   8
ATOM      8  C   UNL A   1      34.413  23.064  23.938  1.00  0.00     0.088 C 
ATOM      9  C   UNL A   1      33.785  23.587  22.600  1.00  0.00     0.022 C 
ATOM     10  C   UNL A   1      34.282  21.524  23.848  1.00  0.00     0.138 C 
ATOM     11  C   UNL A   1      32.337  23.146  22.391  1.00  0.00     0.023 C 
ATOM     12  N   UNL A   1      32.880  21.114  23.665  1.00  0.00    -0.337 N 
ATOM     13  C   UNL A   1      32.228  21.632  22.460  1.00  0.00     0.120 C 
BRANCH   8  14
ATOM     14  C   UNL A   1      33.673  23.621  25.204  1.00  0.00     0.049 C 
BRANCH  14  15
ATOM     15  C   UNL A   1      33.200  25.078  25.159  1.00  0.00     0.161 C 
BRANCH  15  16
ATOM     16  O   UNL A   1      32.503  25.391  26.357  1.00  0.00    -0.385 OA
ATOM     17  C   UNL A   1      31.167  24.899  26.338  1.00  0.00     0.194 C 
ENDBRANCH  15  16
ENDBRANCH  14  15
ENDBRANCH   8  14
BRANCH  12  18
ATOM     18  C   UNL A   1      32.283  20.311  24.625  1.00  0.00     0.255 C 
ATOM     19  O   UNL A   1      31.404  20.703  25.390  1.00  0.00    -0.269 OA
BRANCH  18  20
ATOM     20  C   UNL A   1      32.701  18.887  24.691  1.00  0.00     0.056 A 
ATOM     21  C   UNL A   1      32.958  18.103  23.502  1.00  0.00     0.021 A 
ATOM     22  C   UNL A   1      32.896  18.349  25.905  1.00  0.00     0.099 A 
ATOM     23  C   UNL A   1      33.356  16.826  23.602  1.00  0.00     0.072 A 
ATOM     24  N   UNL A   1      33.309  17.042  26.020  1.00  0.00    -0.328 N 
ATOM     25  C   UNL A   1      33.558  16.219  24.946  1.00  0.00     0.247 A 
ATOM     26  H   UNL A   1      33.433  16.674  26.925  1.00  0.00     0.169 HD
ATOM     27  O   UNL A   1      33.924  15.056  25.068  1.00  0.00    -0.270 OA
ENDBRANCH  18  20
ENDBRANCH  12  18
ENDBRANCH   6   8
ENDBRANCH   5   6
ENDBRANCH   4   5
ENDBRANCH   3   4
ENDBRANCH   2   3
ENDBRANCH   1   2
BRANCH   1  28
ATOM     28  C   UNL A   1      41.323  20.588  27.270  1.00  0.00     0.188 C 
BRANCH  28  29
ATOM     29  O   UNL A   1      41.615  19.223  27.510  1.00  0.00    -0.376 OA
BRANCH  29  30
ATOM     30  C   UNL A   1      42.770  18.663  26.901  1.00  0.00     0.202 C 
BRANCH  30  31
ATOM     31  C   UNL A   1      43.051  18.832  25.390  1.00  0.00     0.261 C 
BRANCH  31  32
ATOM     32  O   UNL A   1      44.427  18.868  24.974  1.00  0.00    -0.460 OA
BRANCH  32  33
ATOM     33  C   UNL A   1      44.728  19.790  24.023  1.00  0.00     0.338 C 
ATOM     34  O   UNL A   1      44.735  19.628  22.811  1.00  0.00    -0.246 OA
BRANCH  33  35
ATOM     35  C   UNL A   1      44.808  21.129  24.656  1.00  0.00     0.060 A 
ATOM     36  C   UNL A   1      44.505  22.259  23.875  1.00  0.00     0.016 A 
ATOM     37  C   UNL A   1      45.160  21.278  25.996  1.00  0.00     0.016 A 
ATOM     38  C   UNL A   1      44.552  23.536  24.428  1.00  0.00     0.010 A 
ATOM     39  C   UNL A   1      45.256  22.565  26.537  1.00  0.00     0.010 A 
ATOM     40  C   UNL A   1      44.976  23.699  25.750  1.00  0.00    -0.014 A 
BRANCH  40  41
ATOM     41  C   UNL A   1      45.327  25.053  26.242  1.00  0.00     0.031 A 
ATOM     42  C   UNL A   1      44.239  25.893  26.850  1.00  0.00     0.074 A 
ATOM     43  C   UNL A   1      46.581  25.528  26.169  1.00  0.00     0.049 A 
ATOM     44  N   UNL A   1      44.278  27.127  27.281  1.00  0.00    -0.248 NA
ATOM     45  C   UNL A   1      42.924  25.248  26.984  1.00  0.00     0.031 C 
ATOM     46  C   UNL A   1      47.734  24.797  25.652  1.00  0.00     0.029 A 
ATOM     47  N   UNL A   1      47.086  26.756  26.519  1.00  0.00    -0.354 N 
ATOM     48  C   UNL A   1      42.992  27.412  27.720  1.00  0.00     0.074 A 
ATOM     49  C   UNL A   1      42.190  26.232  27.480  1.00  0.00     0.031 C 
ATOM     50  C   UNL A   1      48.811  25.600  25.694  1.00  0.00     0.029 A 
ATOM     51  C   UNL A   1      48.413  26.912  26.205  1.00  0.00     0.049 A 
ATOM     52  H   UNL A   1      46.549  27.457  26.954  1.00  0.00     0.167 HD
ATOM     53  C   UNL A   1      42.522  28.555  28.275  1.00  0.00     0.037 A 
ATOM     54  C   UNL A   1      49.204  28.000  26.290  1.00  0.00     0.037 A 
ATOM     55  C   UNL A   1      43.321  29.731  28.505  1.00  0.00     0.049 A 
ATOM     56  C   UNL A   1      48.643  29.288  26.839  1.00  0.00     0.074 A 
ATOM     57  C   UNL A   1      42.945  30.927  29.089  1.00  0.00     0.029 A 
ATOM     58  N   UNL A   1      44.654  29.863  28.144  1.00  0.00    -0.354 N 
ATOM     59  N   UNL A   1      47.435  29.545  27.279  1.00  0.00    -0.248 NA
ATOM     60  C   UNL A   1      49.560  30.435  26.905  1.00  0.00     0.031 C 
ATOM     61  C   UNL A   1      44.031  31.808  29.015  1.00  0.00     0.029 A 
ATOM     62  C   UNL A   1      45.106  31.136  28.457  1.00  0.00     0.049 A 
ATOM     63  H   UNL A   1      45.199  29.156  27.727  1.00  0.00     0.167 HD
ATOM     64  C   UNL A   1      47.452  30.872  27.696  1.00  0.00     0.074 A 
ATOM     65  C   UNL A   1      48.796  31.360  27.471  1.00  0.00     0.031 C 
ATOM     66  C   UNL A   1      46.445  31.617  28.220  1.00  0.00     0.037 A 
BRANCH  53  67
ATOM     67  C   UNL A   1      41.060  28.601  28.621  1.00  0.00     0.064 A 
ATOM     68  C   UNL A   1      40.085  29.001  27.695  1.00  0.00     0.173 A 
ATOM     69  C   UNL A   1      40.630  28.238  29.907  1.00  0.00     0.173 A 
ATOM     70  F   UNL A   1      40.443  29.373  26.456  1.00  0.00    -0.203 F 
ATOM     71  C   UNL A   1      38.741  29.076  28.054  1.00  0.00     0.198 A 
ATOM     72  C   UNL A   1      39.282  28.277  30.252  1.00  0.00     0.198 A 
ATOM     73  F   UNL A   1      41.517  27.844  30.833  1.00  0.00    -0.203 F 
ATOM     74  F   UNL A   1      37.838  29.526  27.172  1.00  0.00    -0.200 F 
ATOM     75  C   UNL A   1      38.340  28.709  29.330  1.00  0.00     0.200 A 
ATOM     76  F   UNL A   1      38.895  27.908  31.481  1.00  0.00    -0.200 F 
ATOM     77  F   UNL A   1      37.047  28.781  29.673  1.00  0.00    -0.200 F 
ENDBRANCH  53  67
BRANCH  54  78
ATOM     78  C   UNL A   1      50.614  27.920  25.823  1.00  0.00     0.064 A 
ATOM     79  C   UNL A   1      51.671  27.762  26.730  1.00  0.00     0.173 A 
ATOM     80  C   UNL A   1      50.931  27.998  24.459  1.00  0.00     0.173 A 
ATOM     81  F   UNL A   1      51.421  27.714  28.046  1.00  0.00    -0.203 F 
ATOM     82  C   UNL A   1      52.991  27.693  26.290  1.00  0.00     0.198 A 
ATOM     83  C   UNL A   1      52.249  27.899  24.017  1.00  0.00     0.198 A 
ATOM     84  F   UNL A   1      49.957  28.157  23.551  1.00  0.00    -0.203 F 
ATOM     85  F   UNL A   1      53.986  27.583  27.181  1.00  0.00    -0.200 F 
ATOM     86  C   UNL A   1      53.278  27.751  24.934  1.00  0.00     0.200 A 
ATOM     87  F   UNL A   1      52.519  27.944  22.706  1.00  0.00    -0.200 F 
ATOM     88  F   UNL A   1      54.548  27.673  24.511  1.00  0.00    -0.200 F 
ENDBRANCH  54  78
BRANCH  66  89
ATOM     89  C   UNL A   1      46.764  33.033  28.617  1.00  0.00     0.064 A 
ATOM     90  C   UNL A   1      47.271  33.351  29.886  1.00  0.00     0.173 A 
ATOM     91  C   UNL A   1      46.595  34.083  27.700  1.00  0.00     0.173 A 
ATOM     92  F   UNL A   1      47.443  32.389  30.805  1.00  0.00    -0.203 F 
ATOM     93  C   UNL A   1      47.563  34.668  30.233  1.00  0.00     0.198 A 
ATOM     94  C   UNL A   1      46.923  35.393  28.038  1.00  0.00     0.198 A 
ATOM     95  F   UNL A   1      46.123  33.837  26.468  1.00  0.00    -0.203 F 
ATOM     96  F   UNL A   1      47.992  34.953  31.470  1.00  0.00    -0.200 F 
ATOM     97  C   UNL A   1      47.397  35.686  29.307  1.00  0.00     0.200 A 
ATOM     98  F   UNL A   1      46.778  36.373  27.134  1.00  0.00    -0.200 F 
ATOM     99  F   UNL A   1      47.685  36.952  29.640  1.00  0.00    -0.200 F 
ENDBRANCH  66  89
ENDBRANCH  40  41
ENDBRANCH  33  35
ENDBRANCH  32  33
ENDBRANCH  31  32
ENDBRANCH  30  31
ENDBRANCH  29  30
ENDBRANCH  28  29
ENDBRANCH   1  28
TORSDOF 22
ENDMDL
