MODEL 1
REMARK VINA RESULT:     -11.5      0.000      0.000
REMARK SMILES CCn1c([C@@H]2CCC[N@@H+](Cc3ccc(C(=O)OCCOCCOCCOC(=O)c4ccc(-c5c6nc(c(-c7c(F)c(F)c(F)c(F)c7F)c7ccc([nH]7)c(-c7c(F)c(F)c(F)c(F)c7F)c7nc(c(-c8c(F)c(F)c(F)c(F)c8F)c8ccc5[nH]8)C=C7)C=C6)cc4)cc3)C2)nn(C)c1=O
REMARK SMILES IDX 21 1 20 2 19 3 18 4 17 5 15 6 16 7 14 8 11 9 12 10 93 11
REMARK SMILES IDX 13 12 92 13 10 14 9 15 5 16 6 17 94 18 7 19 8 20 4 22 3 23
REMARK SMILES IDX 98 24 95 25 96 26 99 27 97 28 2 29 1 30 22 31 23 32 24 33
REMARK SMILES IDX 25 34 26 35 27 36 28 37 29 38 30 39 91 40 31 41 90 42 32 43
REMARK SMILES IDX 33 44 34 45 84 46 35 47 89 48 83 49 85 50 36 51 88 52 82 53
REMARK SMILES IDX 81 54 37 56 69 57 49 58 68 59 50 60 53 61 67 62 86 63 51 64
REMARK SMILES IDX 52 65 66 67 87 68 54 69 38 70 39 71 47 72 40 73 41 74 45 75
REMARK SMILES IDX 48 76 42 77 43 78 46 79 44 80 70 81 71 82 79 83 72 84 73 85
REMARK SMILES IDX 77 86 80 87 74 88 75 89 78 90 76 91 55 92 56 93 64 94 57 95
REMARK SMILES IDX 58 96 62 97 65 98 59 99 60 100 63 101 61 102
REMARK H PARENT 9 21 85 55 53 66
REMARK Flexibility Score: inf
ROOT
ATOM      1  C   UNL A   1      44.393  18.814  25.070  1.00  0.00     0.188 C 
ENDROOT
BRANCH   1   2
ATOM      2  O   UNL A   1      43.032  19.169  25.007  1.00  0.00    -0.376 OA
BRANCH   2   3
ATOM      3  C   UNL A   1      42.163  18.971  26.111  1.00  0.00     0.202 C 
BRANCH   3   4
ATOM      4  C   UNL A   1      40.701  19.453  26.224  1.00  0.00     0.261 C 
BRANCH   4   5
ATOM      5  O   UNL A   1      40.418  20.776  25.780  1.00  0.00    -0.460 OA
BRANCH   5   6
ATOM      6  C   UNL A   1      39.790  21.573  26.676  1.00  0.00     0.338 C 
ATOM      7  O   UNL A   1      40.202  21.909  27.775  1.00  0.00    -0.246 OA
BRANCH   6   8
ATOM      8  C   UNL A   1      38.601  22.172  26.039  1.00  0.00     0.060 A 
ATOM      9  C   UNL A   1      36.424  23.232  24.670  1.00  0.00     0.006 A 
ATOM     10  C   UNL A   1      36.733  21.870  24.542  1.00  0.00     0.010 A 
ATOM     11  C   UNL A   1      37.101  24.010  25.622  1.00  0.00     0.010 A 
ATOM     12  C   UNL A   1      37.825  21.345  25.219  1.00  0.00     0.016 A 
ATOM     13  C   UNL A   1      38.213  23.494  26.280  1.00  0.00     0.016 A 
BRANCH   9  14
ATOM     14  C   UNL A   1      35.568  23.883  23.605  1.00  0.00     0.299 C 
BRANCH  14  15
ATOM     15  N   UNL A   1      34.255  24.361  24.106  1.00  0.00    -0.331 N 
ATOM     16  C   UNL A   1      32.352  25.880  23.696  1.00  0.00     0.113 C 
ATOM     17  C   UNL A   1      31.381  24.902  24.352  1.00  0.00     0.023 C 
ATOM     18  C   UNL A   1      33.597  25.226  23.131  1.00  0.00     0.274 C 
ATOM     19  C   UNL A   1      32.031  23.773  25.136  1.00  0.00     0.062 C 
ATOM     20  C   UNL A   1      33.351  23.278  24.539  1.00  0.00     0.262 C 
ATOM     21  H   UNL A   1      34.464  24.904  24.943  1.00  0.00     0.348 HD
BRANCH  16  22
ATOM     22  C   UNL A   1      32.640  27.208  24.383  1.00  0.00     0.142 A 
ATOM     23  N   UNL A   1      31.956  28.369  24.363  1.00  0.00    -0.279 N 
ATOM     24  C   UNL A   1      32.599  29.180  25.289  1.00  0.00     0.345 A 
ATOM     25  N   UNL A   1      33.675  27.212  25.185  1.00  0.00    -0.155 NA
ATOM     26  N   UNL A   1      33.662  28.434  25.770  1.00  0.00    -0.216 N 
ATOM     27  O   UNL A   1      32.256  30.287  25.678  1.00  0.00    -0.246 OA
ATOM     28  C   UNL A   1      34.473  28.739  26.915  1.00  0.00     0.179 C 
BRANCH  23  29
ATOM     29  C   UNL A   1      30.642  28.798  23.884  1.00  0.00     0.125 C 
ATOM     30  C   UNL A   1      30.269  28.464  22.454  1.00  0.00     0.028 C 
ENDBRANCH  23  29
ENDBRANCH  16  22
ENDBRANCH  14  15
ENDBRANCH   9  14
ENDBRANCH   6   8
ENDBRANCH   5   6
ENDBRANCH   4   5
ENDBRANCH   3   4
ENDBRANCH   2   3
ENDBRANCH   1   2
BRANCH   1  31
ATOM     31  C   UNL A   1      45.359  19.600  24.159  1.00  0.00     0.188 C 
BRANCH  31  32
ATOM     32  O   UNL A   1      44.956  20.763  23.455  1.00  0.00    -0.376 OA
BRANCH  32  33
ATOM     33  C   UNL A   1      45.096  22.067  23.999  1.00  0.00     0.202 C 
BRANCH  33  34
ATOM     34  C   UNL A   1      43.955  23.081  24.060  1.00  0.00     0.261 C 
BRANCH  34  35
ATOM     35  O   UNL A   1      43.912  23.860  25.239  1.00  0.00    -0.460 OA
BRANCH  35  36
ATOM     36  C   UNL A   1      43.357  23.224  26.290  1.00  0.00     0.338 C 
ATOM     37  O   UNL A   1      43.538  22.075  26.647  1.00  0.00    -0.246 OA
BRANCH  36  38
ATOM     38  C   UNL A   1      42.423  24.136  26.950  1.00  0.00     0.060 A 
ATOM     39  C   UNL A   1      41.829  25.110  26.145  1.00  0.00     0.016 A 
ATOM     40  C   UNL A   1      42.403  24.200  28.350  1.00  0.00     0.016 A 
ATOM     41  C   UNL A   1      41.454  26.289  26.741  1.00  0.00     0.010 A 
ATOM     42  C   UNL A   1      42.025  25.378  28.943  1.00  0.00     0.010 A 
ATOM     43  C   UNL A   1      41.675  26.439  28.115  1.00  0.00    -0.014 A 
BRANCH  43  44
ATOM     44  C   UNL A   1      41.566  27.770  28.667  1.00  0.00     0.031 A 
ATOM     45  C   UNL A   1      42.696  28.651  28.317  1.00  0.00     0.074 A 
ATOM     46  C   UNL A   1      40.495  28.147  29.390  1.00  0.00     0.049 A 
ATOM     47  N   UNL A   1      43.569  29.167  29.116  1.00  0.00    -0.248 NA
ATOM     48  C   UNL A   1      42.972  28.862  26.888  1.00  0.00     0.031 C 
ATOM     49  C   UNL A   1      39.232  27.430  29.600  1.00  0.00     0.029 A 
ATOM     50  N   UNL A   1      40.286  29.323  30.036  1.00  0.00    -0.354 N 
ATOM     51  C   UNL A   1      44.403  29.927  28.307  1.00  0.00     0.074 A 
ATOM     52  C   UNL A   1      44.091  29.584  26.943  1.00  0.00     0.031 C 
ATOM     53  C   UNL A   1      38.317  28.278  30.123  1.00  0.00     0.029 A 
ATOM     54  C   UNL A   1      38.969  29.543  30.414  1.00  0.00     0.049 A 
ATOM     55  H   UNL A   1      41.008  29.966  30.221  1.00  0.00     0.167 HD
ATOM     56  C   UNL A   1      45.110  30.968  28.816  1.00  0.00     0.037 A 
ATOM     57  C   UNL A   1      38.455  30.713  30.864  1.00  0.00     0.037 A 
ATOM     58  C   UNL A   1      45.266  30.865  30.243  1.00  0.00     0.049 A 
ATOM     59  C   UNL A   1      39.589  31.532  31.362  1.00  0.00     0.074 A 
ATOM     60  C   UNL A   1      45.876  29.955  31.084  1.00  0.00     0.029 A 
ATOM     61  N   UNL A   1      44.422  31.597  31.040  1.00  0.00    -0.354 N 
ATOM     62  N   UNL A   1      40.294  31.223  32.414  1.00  0.00    -0.248 NA
ATOM     63  C   UNL A   1      40.234  32.438  30.424  1.00  0.00     0.031 C 
ATOM     64  C   UNL A   1      45.027  29.873  32.227  1.00  0.00     0.029 A 
ATOM     65  C   UNL A   1      43.975  30.772  32.042  1.00  0.00     0.049 A 
ATOM     66  H   UNL A   1      44.183  32.543  30.916  1.00  0.00     0.167 HD
ATOM     67  C   UNL A   1      41.602  31.532  32.067  1.00  0.00     0.074 A 
ATOM     68  C   UNL A   1      41.492  32.358  30.867  1.00  0.00     0.031 C 
ATOM     69  C   UNL A   1      42.653  30.855  32.617  1.00  0.00     0.037 A 
BRANCH  56  70
ATOM     70  C   UNL A   1      45.309  32.250  28.061  1.00  0.00     0.064 A 
ATOM     71  C   UNL A   1      44.203  33.066  27.770  1.00  0.00     0.173 A 
ATOM     72  C   UNL A   1      46.501  32.555  27.365  1.00  0.00     0.173 A 
ATOM     73  F   UNL A   1      43.014  32.832  28.347  1.00  0.00    -0.203 F 
ATOM     74  C   UNL A   1      44.276  34.082  26.814  1.00  0.00     0.198 A 
ATOM     75  C   UNL A   1      46.585  33.604  26.456  1.00  0.00     0.198 A 
ATOM     76  F   UNL A   1      47.590  31.781  27.451  1.00  0.00    -0.203 F 
ATOM     77  F   UNL A   1      43.169  34.761  26.482  1.00  0.00    -0.200 F 
ATOM     78  C   UNL A   1      45.465  34.350  26.159  1.00  0.00     0.200 A 
ATOM     79  F   UNL A   1      47.740  33.827  25.813  1.00  0.00    -0.200 F 
ATOM     80  F   UNL A   1      45.521  35.285  25.203  1.00  0.00    -0.200 F 
ENDBRANCH  56  70
BRANCH  57  81
ATOM     81  C   UNL A   1      37.136  31.294  30.518  1.00  0.00     0.064 A 
ATOM     82  C   UNL A   1      36.166  31.542  31.502  1.00  0.00     0.173 A 
ATOM     83  C   UNL A   1      36.908  31.873  29.254  1.00  0.00     0.173 A 
ATOM     84  F   UNL A   1      36.336  31.073  32.746  1.00  0.00    -0.203 F 
ATOM     85  C   UNL A   1      35.041  32.333  31.240  1.00  0.00     0.198 A 
ATOM     86  C   UNL A   1      35.784  32.658  28.991  1.00  0.00     0.198 A 
ATOM     87  F   UNL A   1      37.819  31.771  28.275  1.00  0.00    -0.203 F 
ATOM     88  F   UNL A   1      34.165  32.596  32.218  1.00  0.00    -0.200 F 
ATOM     89  C   UNL A   1      34.857  32.897  29.987  1.00  0.00     0.200 A 
ATOM     90  F   UNL A   1      35.640  33.230  27.788  1.00  0.00    -0.200 F 
ATOM     91  F   UNL A   1      33.811  33.702  29.751  1.00  0.00    -0.200 F 
ENDBRANCH  57  81
BRANCH  69  92
ATOM     92  C   UNL A   1      42.351  29.947  33.780  1.00  0.00     0.064 A 
ATOM     93  C   UNL A   1      41.934  28.610  33.643  1.00  0.00     0.173 A 
ATOM     94  C   UNL A   1      42.607  30.408  35.077  1.00  0.00     0.173 A 
ATOM     95  F   UNL A   1      41.770  28.060  32.435  1.00  0.00    -0.203 F 
ATOM     96  C   UNL A   1      41.727  27.796  34.756  1.00  0.00     0.198 A 
ATOM     97  C   UNL A   1      42.435  29.582  36.185  1.00  0.00     0.198 A 
ATOM     98  F   UNL A   1      43.066  31.654  35.267  1.00  0.00    -0.203 F 
ATOM     99  F   UNL A   1      41.308  26.532  34.596  1.00  0.00    -0.200 F 
ATOM    100  C   UNL A   1      41.982  28.283  36.027  1.00  0.00     0.200 A 
ATOM    101  F   UNL A   1      42.731  30.041  37.409  1.00  0.00    -0.200 F 
ATOM    102  F   UNL A   1      41.818  27.491  37.096  1.00  0.00    -0.200 F 
ENDBRANCH  69  92
ENDBRANCH  43  44
ENDBRANCH  36  38
ENDBRANCH  35  36
ENDBRANCH  34  35
ENDBRANCH  33  34
ENDBRANCH  32  33
ENDBRANCH  31  32
ENDBRANCH   1  31
TORSDOF 21
ENDMDL
MODEL 2
REMARK VINA RESULT:     -11.3      1.909      3.053
REMARK SMILES CCn1c([C@@H]2CCC[N@@H+](Cc3ccc(C(=O)OCCOCCOCCOC(=O)c4ccc(-c5c6nc(c(-c7c(F)c(F)c(F)c(F)c7F)c7ccc([nH]7)c(-c7c(F)c(F)c(F)c(F)c7F)c7nc(c(-c8c(F)c(F)c(F)c(F)c8F)c8ccc5[nH]8)C=C7)C=C6)cc4)cc3)C2)nn(C)c1=O
REMARK SMILES IDX 21 1 20 2 19 3 18 4 17 5 15 6 16 7 14 8 11 9 12 10 93 11
REMARK SMILES IDX 13 12 92 13 10 14 9 15 5 16 6 17 94 18 7 19 8 20 4 22 3 23
REMARK SMILES IDX 98 24 95 25 96 26 99 27 97 28 2 29 1 30 22 31 23 32 24 33
REMARK SMILES IDX 25 34 26 35 27 36 28 37 29 38 30 39 91 40 31 41 90 42 32 43
REMARK SMILES IDX 33 44 34 45 84 46 35 47 89 48 83 49 85 50 36 51 88 52 82 53
REMARK SMILES IDX 81 54 37 56 69 57 49 58 68 59 50 60 53 61 67 62 86 63 51 64
REMARK SMILES IDX 52 65 66 67 87 68 54 69 38 70 39 71 47 72 40 73 41 74 45 75
REMARK SMILES IDX 48 76 42 77 43 78 46 79 44 80 70 81 71 82 79 83 72 84 73 85
REMARK SMILES IDX 77 86 80 87 74 88 75 89 78 90 76 91 55 92 56 93 64 94 57 95
REMARK SMILES IDX 58 96 62 97 65 98 59 99 60 100 63 101 61 102
REMARK H PARENT 9 21 85 55 53 66
REMARK Flexibility Score: inf
ROOT
ATOM      1  C   UNL A   1      44.373  19.535  25.377  1.00  0.00     0.188 C 
ENDROOT
BRANCH   1   2
ATOM      2  O   UNL A   1      43.008  19.735  25.095  1.00  0.00    -0.376 OA
BRANCH   2   3
ATOM      3  C   UNL A   1      42.010  19.519  26.080  1.00  0.00     0.202 C 
BRANCH   3   4
ATOM      4  C   UNL A   1      41.365  20.593  26.983  1.00  0.00     0.261 C 
BRANCH   4   5
ATOM      5  O   UNL A   1      39.944  20.609  27.060  1.00  0.00    -0.460 OA
BRANCH   5   6
ATOM      6  C   UNL A   1      39.292  20.290  25.917  1.00  0.00     0.338 C 
ATOM      7  O   UNL A   1      39.267  19.202  25.365  1.00  0.00    -0.246 OA
BRANCH   6   8
ATOM      8  C   UNL A   1      38.415  21.414  25.532  1.00  0.00     0.060 A 
ATOM      9  C   UNL A   1      36.730  23.559  24.995  1.00  0.00     0.006 A 
ATOM     10  C   UNL A   1      37.802  23.720  25.884  1.00  0.00     0.010 A 
ATOM     11  C   UNL A   1      36.619  22.377  24.247  1.00  0.00     0.010 A 
ATOM     12  C   UNL A   1      38.637  22.645  26.158  1.00  0.00     0.016 A 
ATOM     13  C   UNL A   1      37.437  21.289  24.540  1.00  0.00     0.016 A 
BRANCH   9  14
ATOM     14  C   UNL A   1      35.582  24.543  25.061  1.00  0.00     0.299 C 
BRANCH  14  15
ATOM     15  N   UNL A   1      34.304  23.939  25.513  1.00  0.00    -0.331 N 
ATOM     16  C   UNL A   1      33.253  22.025  26.667  1.00  0.00     0.113 C 
ATOM     17  C   UNL A   1      32.135  22.914  27.203  1.00  0.00     0.023 C 
ATOM     18  C   UNL A   1      34.537  22.770  26.356  1.00  0.00     0.274 C 
ATOM     19  C   UNL A   1      32.041  24.292  26.567  1.00  0.00     0.062 C 
ATOM     20  C   UNL A   1      33.395  24.893  26.178  1.00  0.00     0.262 C 
ATOM     21  H   UNL A   1      33.826  23.643  24.661  1.00  0.00     0.348 HD
BRANCH  16  22
ATOM     22  C   UNL A   1      32.920  20.962  25.630  1.00  0.00     0.142 A 
ATOM     23  N   UNL A   1      32.549  21.085  24.340  1.00  0.00    -0.279 N 
ATOM     24  C   UNL A   1      32.532  19.787  23.847  1.00  0.00     0.345 A 
ATOM     25  N   UNL A   1      33.094  19.724  26.020  1.00  0.00    -0.155 NA
ATOM     26  N   UNL A   1      32.865  18.972  24.917  1.00  0.00    -0.216 N 
ATOM     27  O   UNL A   1      32.354  19.428  22.692  1.00  0.00    -0.246 OA
ATOM     28  C   UNL A   1      33.217  17.581  24.856  1.00  0.00     0.179 C 
BRANCH  23  29
ATOM     29  C   UNL A   1      32.490  22.178  23.371  1.00  0.00     0.125 C 
ATOM     30  C   UNL A   1      31.234  23.024  23.337  1.00  0.00     0.028 C 
ENDBRANCH  23  29
ENDBRANCH  16  22
ENDBRANCH  14  15
ENDBRANCH   9  14
ENDBRANCH   6   8
ENDBRANCH   5   6
ENDBRANCH   4   5
ENDBRANCH   3   4
ENDBRANCH   2   3
ENDBRANCH   1   2
BRANCH   1  31
ATOM     31  C   UNL A   1      45.381  20.014  24.311  1.00  0.00     0.188 C 
BRANCH  31  32
ATOM     32  O   UNL A   1      45.783  21.370  24.207  1.00  0.00    -0.376 OA
BRANCH  32  33
ATOM     33  C   UNL A   1      46.053  22.171  25.347  1.00  0.00     0.202 C 
BRANCH  33  34
ATOM     34  C   UNL A   1      45.286  23.451  25.678  1.00  0.00     0.261 C 
BRANCH  34  35
ATOM     35  O   UNL A   1      44.149  23.269  26.497  1.00  0.00    -0.460 OA
BRANCH  35  36
ATOM     36  C   UNL A   1      42.979  23.431  25.847  1.00  0.00     0.338 C 
ATOM     37  O   UNL A   1      42.666  22.994  24.755  1.00  0.00    -0.246 OA
BRANCH  36  38
ATOM     38  C   UNL A   1      42.109  24.287  26.653  1.00  0.00     0.060 A 
ATOM     39  C   UNL A   1      41.333  25.217  25.959  1.00  0.00     0.016 A 
ATOM     40  C   UNL A   1      42.313  24.359  28.038  1.00  0.00     0.016 A 
ATOM     41  C   UNL A   1      40.987  26.375  26.611  1.00  0.00     0.010 A 
ATOM     42  C   UNL A   1      41.964  25.516  28.688  1.00  0.00     0.010 A 
ATOM     43  C   UNL A   1      41.419  26.548  27.932  1.00  0.00    -0.014 A 
BRANCH  43  44
ATOM     44  C   UNL A   1      41.318  27.873  28.499  1.00  0.00     0.031 A 
ATOM     45  C   UNL A   1      42.425  28.768  28.114  1.00  0.00     0.074 A 
ATOM     46  C   UNL A   1      40.271  28.234  29.265  1.00  0.00     0.049 A 
ATOM     47  N   UNL A   1      43.323  29.286  28.883  1.00  0.00    -0.248 NA
ATOM     48  C   UNL A   1      42.645  28.992  26.677  1.00  0.00     0.031 C 
ATOM     49  C   UNL A   1      39.024  27.503  29.517  1.00  0.00     0.029 A 
ATOM     50  N   UNL A   1      40.076  29.402  29.928  1.00  0.00    -0.354 N 
ATOM     51  C   UNL A   1      44.119  30.060  28.049  1.00  0.00     0.074 A 
ATOM     52  C   UNL A   1      43.758  29.725  26.695  1.00  0.00     0.031 C 
ATOM     53  C   UNL A   1      38.122  28.338  30.081  1.00  0.00     0.029 A 
ATOM     54  C   UNL A   1      38.773  29.606  30.358  1.00  0.00     0.049 A 
ATOM     55  H   UNL A   1      40.798  30.051  30.091  1.00  0.00     0.167 HD
ATOM     56  C   UNL A   1      44.835  31.104  28.540  1.00  0.00     0.037 A 
ATOM     57  C   UNL A   1      38.265  30.767  30.837  1.00  0.00     0.037 A 
ATOM     58  C   UNL A   1      45.046  30.991  29.958  1.00  0.00     0.049 A 
ATOM     59  C   UNL A   1      39.409  31.594  31.299  1.00  0.00     0.074 A 
ATOM     60  C   UNL A   1      45.697  30.081  30.768  1.00  0.00     0.029 A 
ATOM     61  N   UNL A   1      44.226  31.709  30.793  1.00  0.00    -0.354 N 
ATOM     62  N   UNL A   1      40.157  31.283  32.321  1.00  0.00    -0.248 NA
ATOM     63  C   UNL A   1      40.010  32.514  30.344  1.00  0.00     0.031 C 
ATOM     64  C   UNL A   1      44.892  29.982  31.942  1.00  0.00     0.029 A 
ATOM     65  C   UNL A   1      43.826  30.871  31.804  1.00  0.00     0.049 A 
ATOM     66  H   UNL A   1      43.973  32.653  30.686  1.00  0.00     0.167 HD
ATOM     67  C   UNL A   1      41.448  31.608  31.926  1.00  0.00     0.074 A 
ATOM     68  C   UNL A   1      41.284  32.442  30.738  1.00  0.00     0.031 C 
ATOM     69  C   UNL A   1      42.526  30.937  32.430  1.00  0.00     0.037 A 
BRANCH  56  70
ATOM     70  C   UNL A   1      44.992  32.394  27.788  1.00  0.00     0.064 A 
ATOM     71  C   UNL A   1      46.206  32.680  27.143  1.00  0.00     0.173 A 
ATOM     72  C   UNL A   1      44.096  33.479  27.927  1.00  0.00     0.173 A 
ATOM     73  F   UNL A   1      47.141  31.729  26.998  1.00  0.00    -0.203 F 
ATOM     74  C   UNL A   1      46.518  33.973  26.712  1.00  0.00     0.198 A 
ATOM     75  C   UNL A   1      44.386  34.751  27.446  1.00  0.00     0.198 A 
ATOM     76  F   UNL A   1      42.963  33.377  28.633  1.00  0.00    -0.203 F 
ATOM     77  F   UNL A   1      47.732  34.228  26.205  1.00  0.00    -0.200 F 
ATOM     78  C   UNL A   1      45.609  35.005  26.864  1.00  0.00     0.200 A 
ATOM     79  F   UNL A   1      43.502  35.741  27.629  1.00  0.00    -0.200 F 
ATOM     80  F   UNL A   1      45.929  36.254  26.503  1.00  0.00    -0.200 F 
ENDBRANCH  56  70
BRANCH  57  81
ATOM     81  C   UNL A   1      36.929  31.339  30.546  1.00  0.00     0.064 A 
ATOM     82  C   UNL A   1      36.087  31.789  31.576  1.00  0.00     0.173 A 
ATOM     83  C   UNL A   1      36.567  31.708  29.235  1.00  0.00     0.173 A 
ATOM     84  F   UNL A   1      36.390  31.527  32.855  1.00  0.00    -0.203 F 
ATOM     85  C   UNL A   1      34.958  32.572  31.309  1.00  0.00     0.198 A 
ATOM     86  C   UNL A   1      35.439  32.485  28.970  1.00  0.00     0.198 A 
ATOM     87  F   UNL A   1      37.355  31.405  28.193  1.00  0.00    -0.203 F 
ATOM     88  F   UNL A   1      34.208  33.031  32.320  1.00  0.00    -0.200 F 
ATOM     89  C   UNL A   1      34.640  32.926  30.007  1.00  0.00     0.200 A 
ATOM     90  F   UNL A   1      35.168  32.855  27.710  1.00  0.00    -0.200 F 
ATOM     91  F   UNL A   1      33.593  33.724  29.756  1.00  0.00    -0.200 F 
ENDBRANCH  57  81
BRANCH  69  92
ATOM     92  C   UNL A   1      42.277  30.016  33.596  1.00  0.00     0.064 A 
ATOM     93  C   UNL A   1      41.899  28.668  33.464  1.00  0.00     0.173 A 
ATOM     94  C   UNL A   1      42.544  30.483  34.889  1.00  0.00     0.173 A 
ATOM     95  F   UNL A   1      41.728  28.116  32.257  1.00  0.00    -0.203 F 
ATOM     96  C   UNL A   1      41.741  27.844  34.578  1.00  0.00     0.198 A 
ATOM     97  C   UNL A   1      42.422  29.648  35.998  1.00  0.00     0.198 A 
ATOM     98  F   UNL A   1      42.967  31.742  35.074  1.00  0.00    -0.203 F 
ATOM     99  F   UNL A   1      41.360  26.568  34.423  1.00  0.00    -0.200 F 
ATOM    100  C   UNL A   1      42.007  28.335  35.844  1.00  0.00     0.200 A 
ATOM    101  F   UNL A   1      42.729  30.114  37.217  1.00  0.00    -0.200 F 
ATOM    102  F   UNL A   1      41.890  27.536  36.914  1.00  0.00    -0.200 F 
ENDBRANCH  69  92
ENDBRANCH  43  44
ENDBRANCH  36  38
ENDBRANCH  35  36
ENDBRANCH  34  35
ENDBRANCH  33  34
ENDBRANCH  32  33
ENDBRANCH  31  32
ENDBRANCH   1  31
TORSDOF 21
ENDMDL
MODEL 3
REMARK VINA RESULT:     -11.3      1.648      2.646
REMARK SMILES CCn1c([C@@H]2CCC[N@@H+](Cc3ccc(C(=O)OCCOCCOCCOC(=O)c4ccc(-c5c6nc(c(-c7c(F)c(F)c(F)c(F)c7F)c7ccc([nH]7)c(-c7c(F)c(F)c(F)c(F)c7F)c7nc(c(-c8c(F)c(F)c(F)c(F)c8F)c8ccc5[nH]8)C=C7)C=C6)cc4)cc3)C2)nn(C)c1=O
REMARK SMILES IDX 21 1 20 2 19 3 18 4 17 5 15 6 16 7 14 8 11 9 12 10 93 11
REMARK SMILES IDX 13 12 92 13 10 14 9 15 5 16 6 17 94 18 7 19 8 20 4 22 3 23
REMARK SMILES IDX 98 24 95 25 96 26 99 27 97 28 2 29 1 30 22 31 23 32 24 33
REMARK SMILES IDX 25 34 26 35 27 36 28 37 29 38 30 39 91 40 31 41 90 42 32 43
REMARK SMILES IDX 33 44 34 45 84 46 35 47 89 48 83 49 85 50 36 51 88 52 82 53
REMARK SMILES IDX 81 54 37 56 69 57 49 58 68 59 50 60 53 61 67 62 86 63 51 64
REMARK SMILES IDX 52 65 66 67 87 68 54 69 38 70 39 71 47 72 40 73 41 74 45 75
REMARK SMILES IDX 48 76 42 77 43 78 46 79 44 80 70 81 71 82 79 83 72 84 73 85
REMARK SMILES IDX 77 86 80 87 74 88 75 89 78 90 76 91 55 92 56 93 64 94 57 95
REMARK SMILES IDX 58 96 62 97 65 98 59 99 60 100 63 101 61 102
REMARK H PARENT 9 21 85 55 53 66
REMARK Flexibility Score: inf
ROOT
ATOM      1  C   UNL A   1      45.548  20.171  24.629  1.00  0.00     0.188 C 
ENDROOT
BRANCH   1   2
ATOM      2  O   UNL A   1      44.152  20.002  24.562  1.00  0.00    -0.376 OA
BRANCH   2   3
ATOM      3  C   UNL A   1      43.522  18.835  25.069  1.00  0.00     0.202 C 
BRANCH   3   4
ATOM      4  C   UNL A   1      42.324  18.790  26.041  1.00  0.00     0.261 C 
BRANCH   4   5
ATOM      5  O   UNL A   1      41.222  19.644  25.753  1.00  0.00    -0.460 OA
BRANCH   5   6
ATOM      6  C   UNL A   1      40.654  20.248  26.823  1.00  0.00     0.338 C 
ATOM      7  O   UNL A   1      41.012  20.167  27.987  1.00  0.00    -0.246 OA
BRANCH   6   8
ATOM      8  C   UNL A   1      39.645  21.217  26.351  1.00  0.00     0.060 A 
ATOM      9  C   UNL A   1      37.707  23.083  25.647  1.00  0.00     0.006 A 
ATOM     10  C   UNL A   1      38.748  23.450  26.512  1.00  0.00     0.010 A 
ATOM     11  C   UNL A   1      37.747  21.837  25.003  1.00  0.00     0.010 A 
ATOM     12  C   UNL A   1      39.709  22.515  26.869  1.00  0.00     0.016 A 
ATOM     13  C   UNL A   1      38.693  20.888  25.380  1.00  0.00     0.016 A 
BRANCH   9  14
ATOM     14  C   UNL A   1      36.445  23.918  25.638  1.00  0.00     0.299 C 
BRANCH  14  15
ATOM     15  N   UNL A   1      35.209  23.129  25.417  1.00  0.00    -0.331 N 
ATOM     16  C   UNL A   1      33.650  22.218  23.731  1.00  0.00     0.113 C 
ATOM     17  C   UNL A   1      33.348  21.007  24.609  1.00  0.00     0.023 C 
ATOM     18  C   UNL A   1      35.001  22.852  23.998  1.00  0.00     0.274 C 
ATOM     19  C   UNL A   1      33.832  21.113  26.046  1.00  0.00     0.062 C 
ATOM     20  C   UNL A   1      35.145  21.885  26.208  1.00  0.00     0.262 C 
ATOM     21  H   UNL A   1      34.446  23.716  25.754  1.00  0.00     0.348 HD
BRANCH  16  22
ATOM     22  C   UNL A   1      32.553  23.245  23.486  1.00  0.00     0.142 A 
ATOM     23  N   UNL A   1      31.475  23.568  24.229  1.00  0.00    -0.279 N 
ATOM     24  C   UNL A   1      30.921  24.671  23.595  1.00  0.00     0.345 A 
ATOM     25  N   UNL A   1      32.713  23.995  22.424  1.00  0.00    -0.155 NA
ATOM     26  N   UNL A   1      31.708  24.900  22.478  1.00  0.00    -0.216 N 
ATOM     27  O   UNL A   1      29.989  25.365  23.978  1.00  0.00    -0.246 OA
ATOM     28  C   UNL A   1      31.688  26.068  21.642  1.00  0.00     0.179 C 
BRANCH  23  29
ATOM     29  C   UNL A   1      31.008  23.256  25.579  1.00  0.00     0.125 C 
ATOM     30  C   UNL A   1      31.712  23.927  26.741  1.00  0.00     0.028 C 
ENDBRANCH  23  29
ENDBRANCH  16  22
ENDBRANCH  14  15
ENDBRANCH   9  14
ENDBRANCH   6   8
ENDBRANCH   5   6
ENDBRANCH   4   5
ENDBRANCH   3   4
ENDBRANCH   2   3
ENDBRANCH   1   2
BRANCH   1  31
ATOM     31  C   UNL A   1      46.058  21.543  25.120  1.00  0.00     0.188 C 
BRANCH  31  32
ATOM     32  O   UNL A   1      46.230  22.643  24.242  1.00  0.00    -0.376 OA
BRANCH  32  33
ATOM     33  C   UNL A   1      46.382  23.974  24.713  1.00  0.00     0.202 C 
BRANCH  33  34
ATOM     34  C   UNL A   1      45.206  24.869  25.102  1.00  0.00     0.261 C 
BRANCH  34  35
ATOM     35  O   UNL A   1      44.452  24.415  26.208  1.00  0.00    -0.460 OA
BRANCH  35  36
ATOM     36  C   UNL A   1      43.182  24.082  25.901  1.00  0.00     0.338 C 
ATOM     37  O   UNL A   1      42.803  23.257  25.090  1.00  0.00    -0.246 OA
BRANCH  36  38
ATOM     38  C   UNL A   1      42.275  24.924  26.680  1.00  0.00     0.060 A 
ATOM     39  C   UNL A   1      41.514  25.850  25.964  1.00  0.00     0.016 A 
ATOM     40  C   UNL A   1      42.428  24.989  28.072  1.00  0.00     0.016 A 
ATOM     41  C   UNL A   1      41.132  26.999  26.611  1.00  0.00     0.010 A 
ATOM     42  C   UNL A   1      42.043  26.137  28.716  1.00  0.00     0.010 A 
ATOM     43  C   UNL A   1      41.514  27.168  27.947  1.00  0.00    -0.014 A 
BRANCH  43  44
ATOM     44  C   UNL A   1      41.379  28.488  28.518  1.00  0.00     0.031 A 
ATOM     45  C   UNL A   1      42.458  29.416  28.130  1.00  0.00     0.074 A 
ATOM     46  C   UNL A   1      40.326  28.817  29.291  1.00  0.00     0.049 A 
ATOM     47  N   UNL A   1      43.344  29.957  28.896  1.00  0.00    -0.248 NA
ATOM     48  C   UNL A   1      42.663  29.650  26.693  1.00  0.00     0.031 C 
ATOM     49  C   UNL A   1      39.102  28.050  29.547  1.00  0.00     0.029 A 
ATOM     50  N   UNL A   1      40.101  29.978  29.959  1.00  0.00    -0.354 N 
ATOM     51  C   UNL A   1      44.114  30.756  28.060  1.00  0.00     0.074 A 
ATOM     52  C   UNL A   1      43.755  30.414  26.707  1.00  0.00     0.031 C 
ATOM     53  C   UNL A   1      38.180  28.857  30.120  1.00  0.00     0.029 A 
ATOM     54  C   UNL A   1      38.796  30.143  30.397  1.00  0.00     0.049 A 
ATOM     55  H   UNL A   1      40.806  30.646  30.120  1.00  0.00     0.167 HD
ATOM     56  C   UNL A   1      44.802  31.819  28.550  1.00  0.00     0.037 A 
ATOM     57  C   UNL A   1      38.257  31.288  30.881  1.00  0.00     0.037 A 
ATOM     58  C   UNL A   1      45.024  31.708  29.967  1.00  0.00     0.049 A 
ATOM     59  C   UNL A   1      39.380  32.146  31.339  1.00  0.00     0.074 A 
ATOM     60  C   UNL A   1      45.705  30.814  30.771  1.00  0.00     0.029 A 
ATOM     61  N   UNL A   1      44.189  32.399  30.808  1.00  0.00    -0.354 N 
ATOM     62  N   UNL A   1      40.142  31.853  32.356  1.00  0.00    -0.248 NA
ATOM     63  C   UNL A   1      39.949  33.085  30.384  1.00  0.00     0.031 C 
ATOM     64  C   UNL A   1      44.909  30.689  31.949  1.00  0.00     0.029 A 
ATOM     65  C   UNL A   1      43.818  31.548  31.819  1.00  0.00     0.049 A 
ATOM     66  H   UNL A   1      43.908  33.337  30.705  1.00  0.00     0.167 HD
ATOM     67  C   UNL A   1      41.421  32.216  31.956  1.00  0.00     0.074 A 
ATOM     68  C   UNL A   1      41.226  33.049  30.771  1.00  0.00     0.031 C 
ATOM     69  C   UNL A   1      42.520  31.575  32.452  1.00  0.00     0.037 A 
BRANCH  56  70
ATOM     70  C   UNL A   1      44.918  33.115  27.801  1.00  0.00     0.064 A 
ATOM     71  C   UNL A   1      46.171  33.533  27.324  1.00  0.00     0.173 A 
ATOM     72  C   UNL A   1      43.896  34.091  27.793  1.00  0.00     0.173 A 
ATOM     73  F   UNL A   1      47.217  32.693  27.330  1.00  0.00    -0.203 F 
ATOM     74  C   UNL A   1      46.394  34.850  26.914  1.00  0.00     0.198 A 
ATOM     75  C   UNL A   1      44.108  35.386  27.331  1.00  0.00     0.198 A 
ATOM     76  F   UNL A   1      42.694  33.866  28.337  1.00  0.00    -0.203 F 
ATOM     77  F   UNL A   1      47.631  35.239  26.575  1.00  0.00    -0.200 F 
ATOM     78  C   UNL A   1      45.364  35.774  26.918  1.00  0.00     0.200 A 
ATOM     79  F   UNL A   1      43.102  36.271  27.369  1.00  0.00    -0.200 F 
ATOM     80  F   UNL A   1      45.590  37.049  26.579  1.00  0.00    -0.200 F 
ENDBRANCH  56  70
BRANCH  57  81
ATOM     81  C   UNL A   1      36.903  31.822  30.599  1.00  0.00     0.064 A 
ATOM     82  C   UNL A   1      35.996  32.096  31.635  1.00  0.00     0.173 A 
ATOM     83  C   UNL A   1      36.575  32.332  29.327  1.00  0.00     0.173 A 
ATOM     84  F   UNL A   1      36.261  31.693  32.885  1.00  0.00    -0.203 F 
ATOM     85  C   UNL A   1      34.836  32.847  31.413  1.00  0.00     0.198 A 
ATOM     86  C   UNL A   1      35.416  33.077  29.106  1.00  0.00     0.198 A 
ATOM     87  F   UNL A   1      37.420  32.203  28.295  1.00  0.00    -0.203 F 
ATOM     88  F   UNL A   1      34.021  33.138  32.435  1.00  0.00    -0.200 F 
ATOM     89  C   UNL A   1      34.552  33.344  30.150  1.00  0.00     0.200 A 
ATOM     90  F   UNL A   1      35.176  33.586  27.889  1.00  0.00    -0.200 F 
ATOM     91  F   UNL A   1      33.473  34.112  29.949  1.00  0.00    -0.200 F 
ENDBRANCH  57  81
BRANCH  69  92
ATOM     92  C   UNL A   1      42.304  30.645  33.617  1.00  0.00     0.064 A 
ATOM     93  C   UNL A   1      42.309  31.057  34.962  1.00  0.00     0.173 A 
ATOM     94  C   UNL A   1      41.963  29.312  33.357  1.00  0.00     0.173 A 
ATOM     95  F   UNL A   1      42.521  32.337  35.288  1.00  0.00    -0.203 F 
ATOM     96  C   UNL A   1      42.043  30.163  35.998  1.00  0.00     0.198 A 
ATOM     97  C   UNL A   1      41.660  28.428  34.392  1.00  0.00     0.198 A 
ATOM     98  F   UNL A   1      41.881  28.875  32.092  1.00  0.00    -0.203 F 
ATOM     99  F   UNL A   1      42.077  30.579  37.272  1.00  0.00    -0.200 F 
ATOM    100  C   UNL A   1      41.715  28.849  35.710  1.00  0.00     0.200 A 
ATOM    101  F   UNL A   1      41.294  27.171  34.106  1.00  0.00    -0.200 F 
ATOM    102  F   UNL A   1      41.424  27.995  36.702  1.00  0.00    -0.200 F 
ENDBRANCH  69  92
ENDBRANCH  43  44
ENDBRANCH  36  38
ENDBRANCH  35  36
ENDBRANCH  34  35
ENDBRANCH  33  34
ENDBRANCH  32  33
ENDBRANCH  31  32
ENDBRANCH   1  31
TORSDOF 21
ENDMDL
