MODEL 1
REMARK VINA RESULT:     -11.3      0.000      0.000
REMARK SMILES O=C(NNS(=O)(=O)c1cccc(C(=O)OCCOCCOCCOC(=O)c2ccc(-c3c4nc(c(-c5c(F)c(F)c(F)c(F)c5F)c5ccc([nH]5)c(-c5c(F)c(F)c(F)c(F)c5F)c5nc(c(-c6c(F)c(F)c(F)c(F)c6F)c6ccc3[nH]6)C=C5)C=C4)cc2)c1)c1ccc2c(c1)OCO2
REMARK SMILES IDX 19 1 18 2 17 3 16 4 15 5 13 6 14 7 12 8 8 9 9 10 90 11 10 12
REMARK SMILES IDX 11 13 5 14 6 15 7 16 4 17 3 19 1 20 2 21 91 23 92 24 96 25
REMARK SMILES IDX 93 26 95 27 94 28 97 29 99 30 98 31 20 32 21 33 22 34 23 35
REMARK SMILES IDX 24 36 25 37 26 38 27 39 28 40 89 41 29 42 88 43 30 44 31 45
REMARK SMILES IDX 32 46 82 47 33 48 87 49 81 50 83 51 34 52 86 53 80 54 79 55
REMARK SMILES IDX 35 57 67 58 47 59 66 60 48 61 51 62 65 63 84 64 49 65 50 66
REMARK SMILES IDX 64 68 85 69 52 70 36 71 37 72 45 73 38 74 39 75 43 76 46 77
REMARK SMILES IDX 40 78 41 79 44 80 42 81 68 82 69 83 77 84 70 85 71 86 75 87
REMARK SMILES IDX 78 88 72 89 73 90 76 91 74 92 53 93 54 94 62 95 55 96 56 97
REMARK SMILES IDX 60 98 63 99 57 100 58 101 61 102 59 103
REMARK H PARENT 4 18 3 22 83 56 51 67
REMARK Flexibility Score: inf
ROOT
ATOM      1  C   UNL A   1      37.624  23.601  25.909  1.00  0.00     0.188 C 
ENDROOT
BRANCH   1   2
ATOM      2  O   UNL A   1      36.914  23.788  24.700  1.00  0.00    -0.376 OA
BRANCH   2   3
ATOM      3  C   UNL A   1      35.682  23.119  24.481  1.00  0.00     0.202 C 
BRANCH   3   4
ATOM      4  C   UNL A   1      34.973  23.112  23.115  1.00  0.00     0.261 C 
BRANCH   4   5
ATOM      5  O   UNL A   1      33.567  23.396  23.131  1.00  0.00    -0.460 OA
BRANCH   5   6
ATOM      6  C   UNL A   1      33.094  24.058  22.044  1.00  0.00     0.338 C 
ATOM      7  O   UNL A   1      33.324  23.814  20.872  1.00  0.00    -0.246 OA
BRANCH   6   8
ATOM      8  C   UNL A   1      32.043  25.005  22.474  1.00  0.00     0.061 A 
ATOM      9  C   UNL A   1      31.174  27.215  22.827  1.00  0.00     0.084 A 
ATOM     10  C   UNL A   1      30.040  26.678  23.454  1.00  0.00     0.022 A 
ATOM     11  C   UNL A   1      32.196  26.389  22.350  1.00  0.00     0.037 A 
ATOM     12  C   UNL A   1      29.900  25.298  23.576  1.00  0.00     0.002 A 
ATOM     13  C   UNL A   1      30.894  24.462  23.071  1.00  0.00     0.016 A 
BRANCH   9  14
ATOM     14  S   UNL A   1      31.274  28.979  22.702  1.00  0.00     0.257 S 
ATOM     15  O   UNL A   1      30.319  29.400  21.690  1.00  0.00    -0.205 OA
ATOM     16  O   UNL A   1      32.667  29.331  22.634  1.00  0.00    -0.205 OA
BRANCH  14  17
ATOM     17  N   UNL A   1      30.691  29.551  24.183  1.00  0.00    -0.123 NA
ATOM     18  H   UNL A   1      29.952  30.221  23.975  1.00  0.00     0.167 HD
BRANCH  17  19
ATOM     19  N   UNL A   1      31.607  30.200  25.089  1.00  0.00    -0.273 N 
ATOM     20  O   UNL A   1      32.932  30.159  26.932  1.00  0.00    -0.268 OA
ATOM     21  C   UNL A   1      32.353  29.545  26.040  1.00  0.00     0.266 C 
ATOM     22  H   UNL A   1      31.703  31.177  25.023  1.00  0.00     0.186 HD
BRANCH  21  23
ATOM     23  C   UNL A   1      32.527  28.080  25.939  1.00  0.00     0.045 A 
ATOM     24  C   UNL A   1      33.764  27.528  25.524  1.00  0.00     0.018 A 
ATOM     25  C   UNL A   1      31.499  27.259  26.414  1.00  0.00     0.064 A 
ATOM     26  C   UNL A   1      33.973  26.147  25.572  1.00  0.00     0.051 A 
ATOM     27  C   UNL A   1      31.751  25.908  26.478  1.00  0.00     0.166 A 
ATOM     28  C   UNL A   1      32.952  25.367  26.074  1.00  0.00     0.165 A 
ATOM     29  O   UNL A   1      30.907  24.967  26.980  1.00  0.00    -0.454 OA
ATOM     30  O   UNL A   1      33.007  24.025  26.283  1.00  0.00    -0.454 OA
ATOM     31  C   UNL A   1      31.791  23.829  27.036  1.00  0.00     0.468 C 
ENDBRANCH  21  23
ENDBRANCH  17  19
ENDBRANCH  14  17
ENDBRANCH   9  14
ENDBRANCH   6   8
ENDBRANCH   5   6
ENDBRANCH   4   5
ENDBRANCH   3   4
ENDBRANCH   2   3
ENDBRANCH   1   2
BRANCH   1  32
ATOM     32  C   UNL A   1      38.540  22.375  26.103  1.00  0.00     0.188 C 
BRANCH  32  33
ATOM     33  O   UNL A   1      38.585  21.434  25.062  1.00  0.00    -0.376 OA
BRANCH  33  34
ATOM     34  C   UNL A   1      38.488  20.044  25.334  1.00  0.00     0.202 C 
BRANCH  34  35
ATOM     35  C   UNL A   1      39.598  19.140  25.908  1.00  0.00     0.261 C 
BRANCH  35  36
ATOM     36  O   UNL A   1      40.903  19.207  25.332  1.00  0.00    -0.460 OA
BRANCH  36  37
ATOM     37  C   UNL A   1      41.929  19.269  26.214  1.00  0.00     0.338 C 
ATOM     38  O   UNL A   1      42.655  18.361  26.578  1.00  0.00    -0.246 OA
BRANCH  37  39
ATOM     39  C   UNL A   1      42.159  20.679  26.567  1.00  0.00     0.060 A 
ATOM     40  C   UNL A   1      42.288  21.623  25.538  1.00  0.00     0.016 A 
ATOM     41  C   UNL A   1      42.289  21.056  27.903  1.00  0.00     0.016 A 
ATOM     42  C   UNL A   1      42.567  22.954  25.846  1.00  0.00     0.010 A 
ATOM     43  C   UNL A   1      42.591  22.384  28.208  1.00  0.00     0.010 A 
ATOM     44  C   UNL A   1      42.759  23.332  27.181  1.00  0.00    -0.014 A 
BRANCH  44  45
ATOM     45  C   UNL A   1      43.320  24.663  27.511  1.00  0.00     0.031 A 
ATOM     46  C   UNL A   1      42.397  25.705  28.075  1.00  0.00     0.074 A 
ATOM     47  C   UNL A   1      44.614  24.951  27.293  1.00  0.00     0.049 A 
ATOM     48  N   UNL A   1      42.614  26.973  28.312  1.00  0.00    -0.248 NA
ATOM     49  C   UNL A   1      41.037  25.252  28.408  1.00  0.00     0.031 C 
ATOM     50  C   UNL A   1      45.619  24.013  26.800  1.00  0.00     0.029 A 
ATOM     51  N   UNL A   1      45.297  26.133  27.438  1.00  0.00    -0.354 N 
ATOM     52  C   UNL A   1      41.415  27.472  28.805  1.00  0.00     0.074 A 
ATOM     53  C   UNL A   1      40.468  26.378  28.810  1.00  0.00     0.031 C 
ATOM     54  C   UNL A   1      46.788  24.661  26.662  1.00  0.00     0.029 A 
ATOM     55  C   UNL A   1      46.600  26.069  27.013  1.00  0.00     0.049 A 
ATOM     56  H   UNL A   1      44.890  26.949  27.811  1.00  0.00     0.167 HD
ATOM     57  C   UNL A   1      41.132  28.730  29.218  1.00  0.00     0.037 A 
ATOM     58  C   UNL A   1      47.521  27.045  26.890  1.00  0.00     0.037 A 
ATOM     59  C   UNL A   1      42.076  29.816  29.201  1.00  0.00     0.049 A 
ATOM     60  C   UNL A   1      47.157  28.460  27.269  1.00  0.00     0.074 A 
ATOM     61  C   UNL A   1      41.893  31.126  29.605  1.00  0.00     0.029 A 
ATOM     62  N   UNL A   1      43.382  29.718  28.742  1.00  0.00    -0.354 N 
ATOM     63  N   UNL A   1      46.028  28.927  27.746  1.00  0.00    -0.248 NA
ATOM     64  C   UNL A   1      48.198  29.482  27.093  1.00  0.00     0.031 C 
ATOM     65  C   UNL A   1      43.068  31.835  29.335  1.00  0.00     0.029 A 
ATOM     66  C   UNL A   1      44.008  30.952  28.829  1.00  0.00     0.049 A 
ATOM     67  H   UNL A   1      43.802  28.894  28.404  1.00  0.00     0.167 HD
ATOM     68  C   UNL A   1      46.234  30.284  27.963  1.00  0.00     0.074 A 
ATOM     69  C   UNL A   1      47.599  30.565  27.568  1.00  0.00     0.031 C 
ATOM     70  C   UNL A   1      45.374  31.213  28.450  1.00  0.00     0.037 A 
BRANCH  57  71
ATOM     71  C   UNL A   1      39.731  29.005  29.684  1.00  0.00     0.064 A 
ATOM     72  C   UNL A   1      39.339  28.799  31.016  1.00  0.00     0.173 A 
ATOM     73  C   UNL A   1      38.769  29.491  28.786  1.00  0.00     0.173 A 
ATOM     74  F   UNL A   1      40.215  28.320  31.911  1.00  0.00    -0.203 F 
ATOM     75  C   UNL A   1      38.029  29.039  31.422  1.00  0.00     0.198 A 
ATOM     76  C   UNL A   1      37.469  29.763  29.204  1.00  0.00     0.198 A 
ATOM     77  F   UNL A   1      39.090  29.709  27.502  1.00  0.00    -0.203 F 
ATOM     78  F   UNL A   1      37.663  28.778  32.685  1.00  0.00    -0.200 F 
ATOM     79  C   UNL A   1      37.097  29.526  30.518  1.00  0.00     0.200 A 
ATOM     80  F   UNL A   1      36.574  30.248  28.331  1.00  0.00    -0.200 F 
ATOM     81  F   UNL A   1      35.837  29.760  30.911  1.00  0.00    -0.200 F 
ENDBRANCH  57  71
BRANCH  58  82
ATOM     82  C   UNL A   1      48.877  26.727  26.368  1.00  0.00     0.064 A 
ATOM     83  C   UNL A   1      49.878  26.236  27.217  1.00  0.00     0.173 A 
ATOM     84  C   UNL A   1      49.205  26.922  25.018  1.00  0.00     0.173 A 
ATOM     85  F   UNL A   1      49.621  26.058  28.521  1.00  0.00    -0.203 F 
ATOM     86  C   UNL A   1      51.160  25.968  26.741  1.00  0.00     0.198 A 
ATOM     87  C   UNL A   1      50.478  26.625  24.536  1.00  0.00     0.198 A 
ATOM     88  F   UNL A   1      48.286  27.395  24.164  1.00  0.00    -0.203 F 
ATOM     89  F   UNL A   1      52.111  25.546  27.584  1.00  0.00    -0.200 F 
ATOM     90  C   UNL A   1      51.458  26.156  25.400  1.00  0.00     0.200 A 
ATOM     91  F   UNL A   1      50.759  26.799  23.237  1.00  0.00    -0.200 F 
ATOM     92  F   UNL A   1      52.689  25.896  24.941  1.00  0.00    -0.200 F 
ENDBRANCH  58  82
BRANCH  70  93
ATOM     93  C   UNL A   1      45.894  32.610  28.648  1.00  0.00     0.064 A 
ATOM     94  C   UNL A   1      46.538  33.004  29.829  1.00  0.00     0.173 A 
ATOM     95  C   UNL A   1      45.792  33.551  27.611  1.00  0.00     0.173 A 
ATOM     96  F   UNL A   1      46.651  32.148  30.855  1.00  0.00    -0.203 F 
ATOM     97  C   UNL A   1      47.040  34.296  29.974  1.00  0.00     0.198 A 
ATOM     98  C   UNL A   1      46.325  34.830  27.746  1.00  0.00     0.198 A 
ATOM     99  F   UNL A   1      45.192  33.224  26.456  1.00  0.00    -0.203 F 
ATOM    100  F   UNL A   1      47.611  34.665  31.128  1.00  0.00    -0.200 F 
ATOM    101  C   UNL A   1      46.942  35.204  28.929  1.00  0.00     0.200 A 
ATOM    102  F   UNL A   1      46.244  35.700  26.729  1.00  0.00    -0.200 F 
ATOM    103  F   UNL A   1      47.437  36.442  29.066  1.00  0.00    -0.200 F 
ENDBRANCH  70  93
ENDBRANCH  44  45
ENDBRANCH  37  39
ENDBRANCH  36  37
ENDBRANCH  35  36
ENDBRANCH  34  35
ENDBRANCH  33  34
ENDBRANCH  32  33
ENDBRANCH   1  32
TORSDOF 21
ENDMDL
MODEL 2
REMARK VINA RESULT:     -11.2      3.070      8.712
REMARK SMILES O=C(NNS(=O)(=O)c1cccc(C(=O)OCCOCCOCCOC(=O)c2ccc(-c3c4nc(c(-c5c(F)c(F)c(F)c(F)c5F)c5ccc([nH]5)c(-c5c(F)c(F)c(F)c(F)c5F)c5nc(c(-c6c(F)c(F)c(F)c(F)c6F)c6ccc3[nH]6)C=C5)C=C4)cc2)c1)c1ccc2c(c1)OCO2
REMARK SMILES IDX 19 1 18 2 17 3 16 4 15 5 13 6 14 7 12 8 8 9 9 10 90 11 10 12
REMARK SMILES IDX 11 13 5 14 6 15 7 16 4 17 3 19 1 20 2 21 91 23 92 24 96 25
REMARK SMILES IDX 93 26 95 27 94 28 97 29 99 30 98 31 20 32 21 33 22 34 23 35
REMARK SMILES IDX 24 36 25 37 26 38 27 39 28 40 89 41 29 42 88 43 30 44 31 45
REMARK SMILES IDX 32 46 82 47 33 48 87 49 81 50 83 51 34 52 86 53 80 54 79 55
REMARK SMILES IDX 35 57 67 58 47 59 66 60 48 61 51 62 65 63 84 64 49 65 50 66
REMARK SMILES IDX 64 68 85 69 52 70 36 71 37 72 45 73 38 74 39 75 43 76 46 77
REMARK SMILES IDX 40 78 41 79 44 80 42 81 68 82 69 83 77 84 70 85 71 86 75 87
REMARK SMILES IDX 78 88 72 89 73 90 76 91 74 92 53 93 54 94 62 95 55 96 56 97
REMARK SMILES IDX 60 98 63 99 57 100 58 101 61 102 59 103
REMARK H PARENT 4 18 3 22 83 56 51 67
REMARK Flexibility Score: inf
ROOT
ATOM      1  C   UNL A   1      34.036  32.177  28.332  1.00  0.00     0.188 C 
ENDROOT
BRANCH   1   2
ATOM      2  O   UNL A   1      34.710  31.538  27.265  1.00  0.00    -0.376 OA
BRANCH   2   3
ATOM      3  C   UNL A   1      35.363  30.295  27.471  1.00  0.00     0.202 C 
BRANCH   3   4
ATOM      4  C   UNL A   1      34.659  28.943  27.259  1.00  0.00     0.261 C 
BRANCH   4   5
ATOM      5  O   UNL A   1      33.520  28.953  26.387  1.00  0.00    -0.460 OA
BRANCH   5   6
ATOM      6  C   UNL A   1      33.590  28.107  25.328  1.00  0.00     0.338 C 
ATOM      7  O   UNL A   1      34.040  28.344  24.220  1.00  0.00    -0.246 OA
BRANCH   6   8
ATOM      8  C   UNL A   1      33.246  26.741  25.777  1.00  0.00     0.061 A 
ATOM      9  C   UNL A   1      33.761  24.428  26.169  1.00  0.00     0.084 A 
ATOM     10  C   UNL A   1      32.425  24.182  26.516  1.00  0.00     0.022 A 
ATOM     11  C   UNL A   1      34.182  25.702  25.775  1.00  0.00     0.037 A 
ATOM     12  C   UNL A   1      31.500  25.222  26.510  1.00  0.00     0.002 A 
ATOM     13  C   UNL A   1      31.915  26.505  26.157  1.00  0.00     0.016 A 
BRANCH   9  14
ATOM     14  S   UNL A   1      34.879  23.055  26.210  1.00  0.00     0.257 S 
ATOM     15  O   UNL A   1      34.248  22.001  26.986  1.00  0.00    -0.205 OA
ATOM     16  O   UNL A   1      36.184  23.567  26.532  1.00  0.00    -0.205 OA
BRANCH  14  17
ATOM     17  N   UNL A   1      34.945  22.504  24.612  1.00  0.00    -0.123 NA
ATOM     18  H   UNL A   1      34.660  23.280  24.016  1.00  0.00     0.167 HD
BRANCH  17  19
ATOM     19  N   UNL A   1      34.146  21.364  24.234  1.00  0.00    -0.273 N 
ATOM     20  O   UNL A   1      32.157  20.452  23.631  1.00  0.00    -0.268 OA
ATOM     21  C   UNL A   1      32.876  21.443  23.714  1.00  0.00     0.266 C 
ATOM     22  H   UNL A   1      34.536  20.469  24.359  1.00  0.00     0.186 HD
BRANCH  21  23
ATOM     23  C   UNL A   1      32.397  22.733  23.171  1.00  0.00     0.045 A 
ATOM     24  C   UNL A   1      31.111  23.222  23.503  1.00  0.00     0.018 A 
ATOM     25  C   UNL A   1      33.303  23.524  22.456  1.00  0.00     0.064 A 
ATOM     26  C   UNL A   1      30.719  24.505  23.111  1.00  0.00     0.051 A 
ATOM     27  C   UNL A   1      32.895  24.794  22.114  1.00  0.00     0.166 A 
ATOM     28  C   UNL A   1      31.644  25.272  22.435  1.00  0.00     0.165 A 
ATOM     29  O   UNL A   1      33.660  25.731  21.490  1.00  0.00    -0.454 OA
ATOM     30  O   UNL A   1      31.477  26.568  22.058  1.00  0.00    -0.454 OA
ATOM     31  C   UNL A   1      32.823  26.895  21.648  1.00  0.00     0.468 C 
ENDBRANCH  21  23
ENDBRANCH  17  19
ENDBRANCH  14  17
ENDBRANCH   9  14
ENDBRANCH   6   8
ENDBRANCH   5   6
ENDBRANCH   4   5
ENDBRANCH   3   4
ENDBRANCH   2   3
ENDBRANCH   1   2
BRANCH   1  32
ATOM     32  C   UNL A   1      33.873  33.710  28.354  1.00  0.00     0.188 C 
BRANCH  32  33
ATOM     33  O   UNL A   1      33.297  34.281  29.500  1.00  0.00    -0.376 OA
BRANCH  33  34
ATOM     34  C   UNL A   1      34.087  34.579  30.640  1.00  0.00     0.202 C 
BRANCH  34  35
ATOM     35  C   UNL A   1      34.263  33.696  31.893  1.00  0.00     0.261 C 
BRANCH  35  36
ATOM     36  O   UNL A   1      34.879  32.415  31.747  1.00  0.00    -0.460 OA
BRANCH  36  37
ATOM     37  C   UNL A   1      35.874  32.143  32.623  1.00  0.00     0.338 C 
ATOM     38  O   UNL A   1      35.886  32.339  33.826  1.00  0.00    -0.246 OA
BRANCH  37  39
ATOM     39  C   UNL A   1      36.927  31.395  31.917  1.00  0.00     0.060 A 
ATOM     40  C   UNL A   1      37.795  30.580  32.659  1.00  0.00     0.016 A 
ATOM     41  C   UNL A   1      37.081  31.532  30.538  1.00  0.00     0.016 A 
ATOM     42  C   UNL A   1      38.837  29.910  32.020  1.00  0.00     0.010 A 
ATOM     43  C   UNL A   1      38.139  30.879  29.904  1.00  0.00     0.010 A 
ATOM     44  C   UNL A   1      39.037  30.089  30.645  1.00  0.00    -0.014 A 
BRANCH  44  45
ATOM     45  C   UNL A   1      40.285  29.615  30.001  1.00  0.00     0.031 A 
ATOM     46  C   UNL A   1      41.403  30.598  29.805  1.00  0.00     0.074 A 
ATOM     47  C   UNL A   1      40.415  28.347  29.576  1.00  0.00     0.049 A 
ATOM     48  N   UNL A   1      42.528  30.464  29.151  1.00  0.00    -0.248 NA
ATOM     49  C   UNL A   1      41.220  31.919  30.429  1.00  0.00     0.031 C 
ATOM     50  C   UNL A   1      39.424  27.289  29.754  1.00  0.00     0.029 A 
ATOM     51  N   UNL A   1      41.434  27.744  28.881  1.00  0.00    -0.354 N 
ATOM     52  C   UNL A   1      43.177  31.686  29.269  1.00  0.00     0.074 A 
ATOM     53  C   UNL A   1      42.312  32.556  30.035  1.00  0.00     0.031 C 
ATOM     54  C   UNL A   1      39.875  26.169  29.163  1.00  0.00     0.029 A 
ATOM     55  C   UNL A   1      41.163  26.446  28.527  1.00  0.00     0.049 A 
ATOM     56  H   UNL A   1      42.278  28.200  28.658  1.00  0.00     0.167 HD
ATOM     57  C   UNL A   1      44.388  32.048  28.782  1.00  0.00     0.037 A 
ATOM     58  C   UNL A   1      41.860  25.596  27.749  1.00  0.00     0.037 A 
ATOM     59  C   UNL A   1      45.240  31.180  28.012  1.00  0.00     0.049 A 
ATOM     60  C   UNL A   1      43.165  26.050  27.140  1.00  0.00     0.074 A 
ATOM     61  C   UNL A   1      46.488  31.445  27.479  1.00  0.00     0.029 A 
ATOM     62  N   UNL A   1      44.921  29.878  27.654  1.00  0.00    -0.354 N 
ATOM     63  N   UNL A   1      43.783  27.200  27.262  1.00  0.00    -0.248 NA
ATOM     64  C   UNL A   1      43.869  25.084  26.284  1.00  0.00     0.031 C 
ATOM     65  C   UNL A   1      46.899  30.326  26.748  1.00  0.00     0.029 A 
ATOM     66  C   UNL A   1      45.939  29.337  26.885  1.00  0.00     0.049 A 
ATOM     67  H   UNL A   1      44.094  29.408  27.908  1.00  0.00     0.167 HD
ATOM     68  C   UNL A   1      44.961  27.083  26.535  1.00  0.00     0.074 A 
ATOM     69  C   UNL A   1      44.974  25.748  25.976  1.00  0.00     0.031 C 
ATOM     70  C   UNL A   1      45.947  27.998  26.351  1.00  0.00     0.037 A 
BRANCH  57  71
ATOM     71  C   UNL A   1      44.841  33.456  29.037  1.00  0.00     0.064 A 
ATOM     72  C   UNL A   1      45.599  33.799  30.168  1.00  0.00     0.173 A 
ATOM     73  C   UNL A   1      44.522  34.478  28.129  1.00  0.00     0.173 A 
ATOM     74  F   UNL A   1      45.919  32.864  31.075  1.00  0.00    -0.203 F 
ATOM     75  C   UNL A   1      45.990  35.116  30.396  1.00  0.00     0.198 A 
ATOM     76  C   UNL A   1      44.944  35.787  28.344  1.00  0.00     0.198 A 
ATOM     77  F   UNL A   1      43.802  34.206  27.030  1.00  0.00    -0.203 F 
ATOM     78  F   UNL A   1      46.662  35.428  31.513  1.00  0.00    -0.200 F 
ATOM     79  C   UNL A   1      45.668  36.107  29.481  1.00  0.00     0.200 A 
ATOM     80  F   UNL A   1      44.644  36.741  27.450  1.00  0.00    -0.200 F 
ATOM     81  F   UNL A   1      46.049  37.373  29.701  1.00  0.00    -0.200 F 
ENDBRANCH  57  71
BRANCH  58  82
ATOM     82  C   UNL A   1      41.336  24.230  27.483  1.00  0.00     0.064 A 
ATOM     83  C   UNL A   1      41.939  23.103  28.058  1.00  0.00     0.173 A 
ATOM     84  C   UNL A   1      40.236  24.021  26.638  1.00  0.00     0.173 A 
ATOM     85  F   UNL A   1      43.011  23.249  28.850  1.00  0.00    -0.203 F 
ATOM     86  C   UNL A   1      41.473  21.818  27.785  1.00  0.00     0.198 A 
ATOM     87  C   UNL A   1      39.752  22.738  26.390  1.00  0.00     0.198 A 
ATOM     88  F   UNL A   1      39.626  25.065  26.058  1.00  0.00    -0.203 F 
ATOM     89  F   UNL A   1      42.099  20.756  28.309  1.00  0.00    -0.200 F 
ATOM     90  C   UNL A   1      40.376  21.637  26.957  1.00  0.00     0.200 A 
ATOM     91  F   UNL A   1      38.684  22.568  25.597  1.00  0.00    -0.200 F 
ATOM     92  F   UNL A   1      39.926  20.402  26.697  1.00  0.00    -0.200 F 
ENDBRANCH  58  82
BRANCH  70  93
ATOM     93  C   UNL A   1      47.156  27.571  25.566  1.00  0.00     0.064 A 
ATOM     94  C   UNL A   1      47.225  27.705  24.172  1.00  0.00     0.173 A 
ATOM     95  C   UNL A   1      48.287  27.072  26.233  1.00  0.00     0.173 A 
ATOM     96  F   UNL A   1      46.169  28.164  23.485  1.00  0.00    -0.203 F 
ATOM     97  C   UNL A   1      48.371  27.331  23.472  1.00  0.00     0.198 A 
ATOM     98  C   UNL A   1      49.442  26.732  25.535  1.00  0.00     0.198 A 
ATOM     99  F   UNL A   1      48.278  26.932  27.567  1.00  0.00    -0.203 F 
ATOM    100  F   UNL A   1      48.397  27.424  22.136  1.00  0.00    -0.200 F 
ATOM    101  C   UNL A   1      49.481  26.855  24.154  1.00  0.00     0.200 A 
ATOM    102  F   UNL A   1      50.519  26.289  26.198  1.00  0.00    -0.200 F 
ATOM    103  F   UNL A   1      50.586  26.509  23.481  1.00  0.00    -0.200 F 
ENDBRANCH  70  93
ENDBRANCH  44  45
ENDBRANCH  37  39
ENDBRANCH  36  37
ENDBRANCH  35  36
ENDBRANCH  34  35
ENDBRANCH  33  34
ENDBRANCH  32  33
ENDBRANCH   1  32
TORSDOF 21
ENDMDL
MODEL 3
REMARK VINA RESULT:     -11.1      0.947      7.152
REMARK SMILES O=C(NNS(=O)(=O)c1cccc(C(=O)OCCOCCOCCOC(=O)c2ccc(-c3c4nc(c(-c5c(F)c(F)c(F)c(F)c5F)c5ccc([nH]5)c(-c5c(F)c(F)c(F)c(F)c5F)c5nc(c(-c6c(F)c(F)c(F)c(F)c6F)c6ccc3[nH]6)C=C5)C=C4)cc2)c1)c1ccc2c(c1)OCO2
REMARK SMILES IDX 19 1 18 2 17 3 16 4 15 5 13 6 14 7 12 8 8 9 9 10 90 11 10 12
REMARK SMILES IDX 11 13 5 14 6 15 7 16 4 17 3 19 1 20 2 21 91 23 92 24 96 25
REMARK SMILES IDX 93 26 95 27 94 28 97 29 99 30 98 31 20 32 21 33 22 34 23 35
REMARK SMILES IDX 24 36 25 37 26 38 27 39 28 40 89 41 29 42 88 43 30 44 31 45
REMARK SMILES IDX 32 46 82 47 33 48 87 49 81 50 83 51 34 52 86 53 80 54 79 55
REMARK SMILES IDX 35 57 67 58 47 59 66 60 48 61 51 62 65 63 84 64 49 65 50 66
REMARK SMILES IDX 64 68 85 69 52 70 36 71 37 72 45 73 38 74 39 75 43 76 46 77
REMARK SMILES IDX 40 78 41 79 44 80 42 81 68 82 69 83 77 84 70 85 71 86 75 87
REMARK SMILES IDX 78 88 72 89 73 90 76 91 74 92 53 93 54 94 62 95 55 96 56 97
REMARK SMILES IDX 60 98 63 99 57 100 58 101 61 102 59 103
REMARK H PARENT 4 18 3 22 83 56 51 67
REMARK Flexibility Score: inf
ROOT
ATOM      1  C   UNL A   1      36.357  22.420  25.752  1.00  0.00     0.188 C 
ENDROOT
BRANCH   1   2
ATOM      2  O   UNL A   1      36.069  23.504  24.889  1.00  0.00    -0.376 OA
BRANCH   2   3
ATOM      3  C   UNL A   1      35.882  23.285  23.500  1.00  0.00     0.202 C 
BRANCH   3   4
ATOM      4  C   UNL A   1      34.513  22.935  22.891  1.00  0.00     0.261 C 
BRANCH   4   5
ATOM      5  O   UNL A   1      33.438  23.835  23.194  1.00  0.00    -0.460 OA
BRANCH   5   6
ATOM      6  C   UNL A   1      32.946  24.531  22.138  1.00  0.00     0.338 C 
ATOM      7  O   UNL A   1      33.250  24.408  20.964  1.00  0.00    -0.246 OA
BRANCH   6   8
ATOM      8  C   UNL A   1      31.783  25.329  22.584  1.00  0.00     0.061 A 
ATOM      9  C   UNL A   1      30.658  27.406  23.022  1.00  0.00     0.084 A 
ATOM     10  C   UNL A   1      29.580  26.711  23.588  1.00  0.00     0.022 A 
ATOM     11  C   UNL A   1      31.780  26.726  22.534  1.00  0.00     0.037 A 
ATOM     12  C   UNL A   1      29.596  25.320  23.637  1.00  0.00     0.002 A 
ATOM     13  C   UNL A   1      30.690  24.629  23.120  1.00  0.00     0.016 A 
BRANCH   9  14
ATOM     14  S   UNL A   1      30.560  29.173  22.988  1.00  0.00     0.257 S 
ATOM     15  O   UNL A   1      29.506  29.570  23.908  1.00  0.00    -0.205 OA
ATOM     16  O   UNL A   1      30.567  29.583  21.610  1.00  0.00    -0.205 OA
BRANCH  14  17
ATOM     17  N   UNL A   1      32.016  29.700  23.667  1.00  0.00    -0.123 NA
ATOM     18  H   UNL A   1      32.660  28.910  23.645  1.00  0.00     0.167 HD
BRANCH  17  19
ATOM     19  N   UNL A   1      32.013  30.207  25.017  1.00  0.00    -0.273 N 
ATOM     20  O   UNL A   1      31.753  29.892  27.251  1.00  0.00    -0.268 OA
ATOM     21  C   UNL A   1      31.990  29.418  26.143  1.00  0.00     0.266 C 
ATOM     22  H   UNL A   1      32.027  31.183  25.141  1.00  0.00     0.186 HD
BRANCH  21  23
ATOM     23  C   UNL A   1      32.338  27.985  26.028  1.00  0.00     0.045 A 
ATOM     24  C   UNL A   1      33.656  27.588  25.698  1.00  0.00     0.018 A 
ATOM     25  C   UNL A   1      31.378  27.041  26.408  1.00  0.00     0.064 A 
ATOM     26  C   UNL A   1      34.018  26.238  25.735  1.00  0.00     0.051 A 
ATOM     27  C   UNL A   1      31.778  25.726  26.465  1.00  0.00     0.166 A 
ATOM     28  C   UNL A   1      33.059  25.335  26.143  1.00  0.00     0.165 A 
ATOM     29  O   UNL A   1      31.012  24.682  26.885  1.00  0.00    -0.454 OA
ATOM     30  O   UNL A   1      33.252  24.002  26.331  1.00  0.00    -0.454 OA
ATOM     31  C   UNL A   1      32.015  23.650  26.986  1.00  0.00     0.468 C 
ENDBRANCH  21  23
ENDBRANCH  17  19
ENDBRANCH  14  17
ENDBRANCH   9  14
ENDBRANCH   6   8
ENDBRANCH   5   6
ENDBRANCH   4   5
ENDBRANCH   3   4
ENDBRANCH   2   3
ENDBRANCH   1   2
BRANCH   1  32
ATOM     32  C   UNL A   1      36.531  20.994  25.192  1.00  0.00     0.188 C 
BRANCH  32  33
ATOM     33  O   UNL A   1      37.770  20.674  24.614  1.00  0.00    -0.376 OA
BRANCH  33  34
ATOM     34  C   UNL A   1      38.510  19.546  25.055  1.00  0.00     0.202 C 
BRANCH  34  35
ATOM     35  C   UNL A   1      39.644  19.542  26.101  1.00  0.00     0.261 C 
BRANCH  35  36
ATOM     36  O   UNL A   1      40.971  19.234  25.670  1.00  0.00    -0.460 OA
BRANCH  36  37
ATOM     37  C   UNL A   1      41.954  19.510  26.560  1.00  0.00     0.338 C 
ATOM     38  O   UNL A   1      42.800  18.751  26.998  1.00  0.00    -0.246 OA
BRANCH  37  39
ATOM     39  C   UNL A   1      41.959  20.960  26.816  1.00  0.00     0.060 A 
ATOM     40  C   UNL A   1      41.707  21.837  25.752  1.00  0.00     0.016 A 
ATOM     41  C   UNL A   1      42.253  21.447  28.090  1.00  0.00     0.016 A 
ATOM     42  C   UNL A   1      41.767  23.215  25.957  1.00  0.00     0.010 A 
ATOM     43  C   UNL A   1      42.335  22.825  28.287  1.00  0.00     0.010 A 
ATOM     44  C   UNL A   1      42.120  23.714  27.217  1.00  0.00    -0.014 A 
BRANCH  44  45
ATOM     45  C   UNL A   1      42.456  25.148  27.389  1.00  0.00     0.031 A 
ATOM     46  C   UNL A   1      43.830  25.609  26.995  1.00  0.00     0.074 A 
ATOM     47  C   UNL A   1      41.571  26.017  27.905  1.00  0.00     0.049 A 
ATOM     48  N   UNL A   1      44.405  26.770  27.176  1.00  0.00    -0.248 NA
ATOM     49  C   UNL A   1      44.675  24.616  26.311  1.00  0.00     0.031 C 
ATOM     50  C   UNL A   1      40.194  25.703  28.275  1.00  0.00     0.029 A 
ATOM     51  N   UNL A   1      41.716  27.343  28.229  1.00  0.00    -0.354 N 
ATOM     52  C   UNL A   1      45.682  26.642  26.644  1.00  0.00     0.074 A 
ATOM     53  C   UNL A   1      45.807  25.286  26.157  1.00  0.00     0.031 C 
ATOM     54  C   UNL A   1      39.624  26.803  28.798  1.00  0.00     0.029 A 
ATOM     55  C   UNL A   1      40.611  27.881  28.840  1.00  0.00     0.049 A 
ATOM     56  H   UNL A   1      42.534  27.858  28.041  1.00  0.00     0.167 HD
ATOM     57  C   UNL A   1      46.660  27.575  26.568  1.00  0.00     0.037 A 
ATOM     58  C   UNL A   1      40.435  29.094  29.400  1.00  0.00     0.037 A 
ATOM     59  C   UNL A   1      46.532  28.921  27.063  1.00  0.00     0.049 A 
ATOM     60  C   UNL A   1      41.570  30.089  29.386  1.00  0.00     0.074 A 
ATOM     61  C   UNL A   1      47.460  29.946  27.028  1.00  0.00     0.029 A 
ATOM     62  N   UNL A   1      45.404  29.423  27.697  1.00  0.00    -0.354 N 
ATOM     63  N   UNL A   1      42.771  29.971  28.873  1.00  0.00    -0.248 NA
ATOM     64  C   UNL A   1      41.322  31.386  30.030  1.00  0.00     0.031 C 
ATOM     65  C   UNL A   1      46.917  31.049  27.694  1.00  0.00     0.029 A 
ATOM     66  C   UNL A   1      45.624  30.737  28.081  1.00  0.00     0.049 A 
ATOM     67  H   UNL A   1      44.572  28.921  27.852  1.00  0.00     0.167 HD
ATOM     68  C   UNL A   1      43.406  31.187  29.096  1.00  0.00     0.074 A 
ATOM     69  C   UNL A   1      42.455  32.031  29.789  1.00  0.00     0.031 C 
ATOM     70  C   UNL A   1      44.661  31.572  28.754  1.00  0.00     0.037 A 
BRANCH  57  71
ATOM     71  C   UNL A   1      47.968  27.156  25.962  1.00  0.00     0.064 A 
ATOM     72  C   UNL A   1      48.225  27.285  24.588  1.00  0.00     0.173 A 
ATOM     73  C   UNL A   1      48.985  26.625  26.770  1.00  0.00     0.173 A 
ATOM     74  F   UNL A   1      47.281  27.772  23.768  1.00  0.00    -0.203 F 
ATOM     75  C   UNL A   1      49.436  26.869  24.043  1.00  0.00     0.198 A 
ATOM     76  C   UNL A   1      50.208  26.242  26.226  1.00  0.00     0.198 A 
ATOM     77  F   UNL A   1      48.795  26.481  28.090  1.00  0.00    -0.203 F 
ATOM     78  F   UNL A   1      49.635  26.948  22.719  1.00  0.00    -0.200 F 
ATOM     79  C   UNL A   1      50.429  26.354  24.863  1.00  0.00     0.200 A 
ATOM     80  F   UNL A   1      51.172  25.758  27.023  1.00  0.00    -0.200 F 
ATOM     81  F   UNL A   1      51.596  25.957  24.337  1.00  0.00    -0.200 F 
ENDBRANCH  57  71
BRANCH  58  82
ATOM     82  C   UNL A   1      39.136  29.437  30.038  1.00  0.00     0.064 A 
ATOM     83  C   UNL A   1      38.134  30.104  29.319  1.00  0.00     0.173 A 
ATOM     84  C   UNL A   1      38.875  29.122  31.380  1.00  0.00     0.173 A 
ATOM     85  F   UNL A   1      38.346  30.451  28.041  1.00  0.00    -0.203 F 
ATOM     86  C   UNL A   1      36.929  30.458  29.922  1.00  0.00     0.198 A 
ATOM     87  C   UNL A   1      37.658  29.449  31.973  1.00  0.00     0.198 A 
ATOM     88  F   UNL A   1      39.802  28.490  32.114  1.00  0.00    -0.203 F 
ATOM     89  F   UNL A   1      36.008  31.138  29.225  1.00  0.00    -0.200 F 
ATOM     90  C   UNL A   1      36.688  30.124  31.246  1.00  0.00     0.200 A 
ATOM     91  F   UNL A   1      37.425  29.116  33.250  1.00  0.00    -0.200 F 
ATOM     92  F   UNL A   1      35.528  30.462  31.825  1.00  0.00    -0.200 F 
ENDBRANCH  58  82
BRANCH  70  93
ATOM     93  C   UNL A   1      45.065  32.987  29.062  1.00  0.00     0.064 A 
ATOM     94  C   UNL A   1      44.794  34.046  28.184  1.00  0.00     0.173 A 
ATOM     95  C   UNL A   1      45.683  33.291  30.285  1.00  0.00     0.173 A 
ATOM     96  F   UNL A   1      44.217  33.809  26.997  1.00  0.00    -0.203 F 
ATOM     97  C   UNL A   1      45.151  35.354  28.508  1.00  0.00     0.198 A 
ATOM     98  C   UNL A   1      46.006  34.603  30.621  1.00  0.00     0.198 A 
ATOM     99  F   UNL A   1      45.957  32.317  31.166  1.00  0.00    -0.203 F 
ATOM    100  F   UNL A   1      44.925  36.344  27.634  1.00  0.00    -0.200 F 
ATOM    101  C   UNL A   1      45.747  35.632  29.730  1.00  0.00     0.200 A 
ATOM    102  F   UNL A   1      46.566  34.871  31.809  1.00  0.00    -0.200 F 
ATOM    103  F   UNL A   1      46.076  36.892  30.045  1.00  0.00    -0.200 F 
ENDBRANCH  70  93
ENDBRANCH  44  45
ENDBRANCH  37  39
ENDBRANCH  36  37
ENDBRANCH  35  36
ENDBRANCH  34  35
ENDBRANCH  33  34
ENDBRANCH  32  33
ENDBRANCH   1  32
TORSDOF 21
ENDMDL
