MODEL 1
REMARK VINA RESULT:     -12.5      0.000      0.000
REMARK SMILES Cc1nccn1C1(C(=O)OCCOCCOCCOC(=O)c2ccc(-c3c4nc(c(-c5c(F)c(F)c(F)c(F)c5F)c5ccc([nH]5)c(-c5c(F)c(F)c(F)c(F)c5F)c5nc(c(-c6c(F)c(F)c(F)c(F)c6F)c6ccc3[nH]6)C=C5)C=C4)cc2)CCN(C(=O)[C@@H]2C[C@H]2c2ccccc2)CC1
REMARK SMILES IDX 14 1 13 2 12 3 11 4 10 5 8 6 9 7 7 8 85 9 100 10 86 11 99 12
REMARK SMILES IDX 87 13 88 14 89 15 6 16 1 17 2 18 3 19 4 20 5 21 90 22 91 23
REMARK SMILES IDX 92 24 93 25 94 26 98 27 95 28 97 29 96 30 15 31 16 32 17 33
REMARK SMILES IDX 18 34 19 35 20 36 21 37 22 38 23 39 84 40 24 41 83 42 25 43
REMARK SMILES IDX 26 44 27 45 77 46 28 47 82 48 76 49 78 50 29 51 81 52 75 53
REMARK SMILES IDX 74 54 30 56 62 57 42 58 61 59 43 60 46 61 60 62 79 63 44 64
REMARK SMILES IDX 45 65 59 67 80 68 47 69 31 70 32 71 40 72 33 73 34 74 38 75
REMARK SMILES IDX 41 76 35 77 36 78 39 79 37 80 63 81 64 82 72 83 65 84 66 85
REMARK SMILES IDX 70 86 73 87 67 88 68 89 71 90 69 91 48 92 49 93 57 94 50 95
REMARK SMILES IDX 51 96 55 97 58 98 52 99 53 100 56 101 54 102
REMARK H PARENT 78 55 46 66
REMARK Flexibility Score: inf
ROOT
ATOM      1  C   UNL A   1      35.078  31.598  27.729  1.00  0.00     0.188 C 
ENDROOT
BRANCH   1   2
ATOM      2  O   UNL A   1      33.675  31.469  27.677  1.00  0.00    -0.376 OA
BRANCH   2   3
ATOM      3  C   UNL A   1      33.121  30.499  26.788  1.00  0.00     0.202 C 
BRANCH   3   4
ATOM      4  C   UNL A   1      32.340  29.272  27.292  1.00  0.00     0.261 C 
BRANCH   4   5
ATOM      5  O   UNL A   1      31.419  28.715  26.338  1.00  0.00    -0.461 OA
BRANCH   5   6
ATOM      6  C   UNL A   1      31.433  27.350  26.273  1.00  0.00     0.332 C 
ATOM      7  O   UNL A   1      31.112  26.642  27.226  1.00  0.00    -0.249 OA
BRANCH   6   8
ATOM      8  C   UNL A   1      31.772  26.789  24.845  1.00  0.00     0.146 C 
ATOM      9  C   UNL A   1      33.297  26.522  24.836  1.00  0.00     0.062 C 
ATOM     10  C   UNL A   1      31.030  25.444  24.793  1.00  0.00     0.062 C 
ATOM     11  C   UNL A   1      33.856  25.406  23.978  1.00  0.00     0.122 C 
ATOM     12  C   UNL A   1      31.581  24.472  23.781  1.00  0.00     0.122 C 
ATOM     13  N   UNL A   1      33.013  24.241  23.896  1.00  0.00    -0.342 N 
ATOM     14  C   UNL A   1      33.667  23.045  23.568  1.00  0.00     0.226 C 
ATOM     15  O   UNL A   1      34.871  22.982  23.340  1.00  0.00    -0.275 OA
BRANCH   8  16
ATOM     16  N   UNL A   1      31.212  27.716  23.821  1.00  0.00    -0.318 N 
ATOM     17  C   UNL A   1      33.225  28.987  22.762  1.00  0.00     0.087 C 
ATOM     18  C   UNL A   1      31.799  28.621  22.937  1.00  0.00     0.106 A 
ATOM     19  N   UNL A   1      30.889  29.195  22.171  1.00  0.00    -0.242 NA
ATOM     20  C   UNL A   1      29.697  28.645  22.486  1.00  0.00     0.131 A 
ATOM     21  C   UNL A   1      29.863  27.724  23.481  1.00  0.00     0.108 A 
ENDBRANCH   8  16
BRANCH  14  22
ATOM     22  C   UNL A   1      32.912  21.776  23.637  1.00  0.00     0.087 C 
ATOM     23  C   UNL A   1      31.847  21.505  24.666  1.00  0.00     0.023 C 
ATOM     24  C   UNL A   1      33.141  20.759  24.741  1.00  0.00     0.032 C 
BRANCH  24  25
ATOM     25  C   UNL A   1      33.384  19.331  24.292  1.00  0.00    -0.044 A 
ATOM     26  C   UNL A   1      34.529  18.637  24.698  1.00  0.00     0.004 A 
ATOM     27  C   UNL A   1      32.559  18.702  23.331  1.00  0.00     0.004 A 
ATOM     28  C   UNL A   1      34.849  17.390  24.150  1.00  0.00     0.000 A 
ATOM     29  C   UNL A   1      32.876  17.464  22.776  1.00  0.00     0.000 A 
ATOM     30  C   UNL A   1      34.029  16.810  23.184  1.00  0.00     0.000 A 
ENDBRANCH  24  25
ENDBRANCH  14  22
ENDBRANCH   6   8
ENDBRANCH   5   6
ENDBRANCH   4   5
ENDBRANCH   3   4
ENDBRANCH   2   3
ENDBRANCH   1   2
BRANCH   1  31
ATOM     31  C   UNL A   1      35.616  33.028  27.871  1.00  0.00     0.188 C 
BRANCH  31  32
ATOM     32  O   UNL A   1      34.877  34.185  27.494  1.00  0.00    -0.376 OA
BRANCH  32  33
ATOM     33  C   UNL A   1      34.505  35.200  28.415  1.00  0.00     0.202 C 
BRANCH  33  34
ATOM     34  C   UNL A   1      33.320  35.006  29.356  1.00  0.00     0.261 C 
BRANCH  34  35
ATOM     35  O   UNL A   1      33.660  34.233  30.486  1.00  0.00    -0.460 OA
BRANCH  35  36
ATOM     36  C   UNL A   1      34.096  34.969  31.525  1.00  0.00     0.338 C 
ATOM     37  O   UNL A   1      33.731  36.096  31.852  1.00  0.00    -0.246 OA
BRANCH  36  38
ATOM     38  C   UNL A   1      35.064  34.164  32.276  1.00  0.00     0.060 A 
ATOM     39  C   UNL A   1      36.177  34.830  32.791  1.00  0.00     0.016 A 
ATOM     40  C   UNL A   1      34.912  32.770  32.389  1.00  0.00     0.016 A 
ATOM     41  C   UNL A   1      37.267  34.079  33.150  1.00  0.00     0.010 A 
ATOM     42  C   UNL A   1      35.998  32.015  32.749  1.00  0.00     0.010 A 
ATOM     43  C   UNL A   1      37.191  32.694  32.979  1.00  0.00    -0.014 A 
BRANCH  43  44
ATOM     44  C   UNL A   1      38.444  32.018  32.727  1.00  0.00     0.031 A 
ATOM     45  C   UNL A   1      39.327  31.830  33.883  1.00  0.00     0.074 A 
ATOM     46  C   UNL A   1      38.717  31.593  31.477  1.00  0.00     0.049 A 
ATOM     47  N   UNL A   1      40.521  32.289  34.048  1.00  0.00    -0.248 NA
ATOM     48  C   UNL A   1      38.785  31.094  35.033  1.00  0.00     0.031 C 
ATOM     49  C   UNL A   1      37.778  31.502  30.348  1.00  0.00     0.029 A 
ATOM     50  N   UNL A   1      39.862  31.057  30.974  1.00  0.00    -0.354 N 
ATOM     51  C   UNL A   1      40.958  31.742  35.244  1.00  0.00     0.074 A 
ATOM     52  C   UNL A   1      39.815  31.135  35.876  1.00  0.00     0.031 C 
ATOM     53  C   UNL A   1      38.329  30.752  29.372  1.00  0.00     0.029 A 
ATOM     54  C   UNL A   1      39.692  30.431  29.751  1.00  0.00     0.049 A 
ATOM     55  H   UNL A   1      40.729  31.108  31.436  1.00  0.00     0.167 HD
ATOM     56  C   UNL A   1      42.282  31.586  35.492  1.00  0.00     0.037 A 
ATOM     57  C   UNL A   1      40.583  29.629  29.129  1.00  0.00     0.037 A 
ATOM     58  C   UNL A   1      43.094  32.435  34.662  1.00  0.00     0.049 A 
ATOM     59  C   UNL A   1      41.928  29.932  29.671  1.00  0.00     0.074 A 
ATOM     60  C   UNL A   1      43.313  33.792  34.561  1.00  0.00     0.029 A 
ATOM     61  N   UNL A   1      43.588  31.865  33.518  1.00  0.00    -0.354 N 
ATOM     62  N   UNL A   1      42.557  31.059  29.485  1.00  0.00    -0.248 NA
ATOM     63  C   UNL A   1      42.479  29.082  30.720  1.00  0.00     0.031 C 
ATOM     64  C   UNL A   1      43.690  34.031  33.208  1.00  0.00     0.029 A 
ATOM     65  C   UNL A   1      43.680  32.812  32.530  1.00  0.00     0.049 A 
ATOM     66  H   UNL A   1      43.841  30.918  33.420  1.00  0.00     0.167 HD
ATOM     67  C   UNL A   1      43.301  31.239  30.638  1.00  0.00     0.074 A 
ATOM     68  C   UNL A   1      43.355  29.928  31.264  1.00  0.00     0.031 C 
ATOM     69  C   UNL A   1      43.537  32.489  31.127  1.00  0.00     0.037 A 
BRANCH  56  70
ATOM     70  C   UNL A   1      42.840  30.365  36.172  1.00  0.00     0.064 A 
ATOM     71  C   UNL A   1      43.810  30.517  37.178  1.00  0.00     0.173 A 
ATOM     72  C   UNL A   1      42.678  29.057  35.664  1.00  0.00     0.173 A 
ATOM     73  F   UNL A   1      44.075  31.728  37.691  1.00  0.00    -0.203 F 
ATOM     74  C   UNL A   1      44.587  29.442  37.613  1.00  0.00     0.198 A 
ATOM     75  C   UNL A   1      43.414  27.977  36.141  1.00  0.00     0.198 A 
ATOM     76  F   UNL A   1      41.892  28.797  34.611  1.00  0.00    -0.203 F 
ATOM     77  F   UNL A   1      45.578  29.650  38.491  1.00  0.00    -0.200 F 
ATOM     78  C   UNL A   1      44.387  28.172  37.097  1.00  0.00     0.200 A 
ATOM     79  F   UNL A   1      43.224  26.762  35.607  1.00  0.00    -0.200 F 
ATOM     80  F   UNL A   1      45.166  27.151  37.477  1.00  0.00    -0.200 F 
ENDBRANCH  56  70
BRANCH  57  81
ATOM     81  C   UNL A   1      40.284  28.433  28.312  1.00  0.00     0.064 A 
ATOM     82  C   UNL A   1      40.861  28.258  27.047  1.00  0.00     0.173 A 
ATOM     83  C   UNL A   1      39.625  27.315  28.864  1.00  0.00     0.173 A 
ATOM     84  F   UNL A   1      41.544  29.259  26.473  1.00  0.00    -0.203 F 
ATOM     85  C   UNL A   1      40.801  27.029  26.382  1.00  0.00     0.198 A 
ATOM     86  C   UNL A   1      39.553  26.096  28.195  1.00  0.00     0.198 A 
ATOM     87  F   UNL A   1      39.118  27.355  30.105  1.00  0.00    -0.203 F 
ATOM     88  F   UNL A   1      41.419  26.878  25.203  1.00  0.00    -0.200 F 
ATOM     89  C   UNL A   1      40.154  25.948  26.960  1.00  0.00     0.200 A 
ATOM     90  F   UNL A   1      38.952  25.050  28.780  1.00  0.00    -0.200 F 
ATOM     91  F   UNL A   1      40.146  24.756  26.349  1.00  0.00    -0.200 F 
ENDBRANCH  57  81
BRANCH  69  92
ATOM     92  C   UNL A   1      43.401  33.629  30.162  1.00  0.00     0.064 A 
ATOM     93  C   UNL A   1      42.190  34.285  29.891  1.00  0.00     0.173 A 
ATOM     94  C   UNL A   1      44.561  34.126  29.552  1.00  0.00     0.173 A 
ATOM     95  F   UNL A   1      41.059  33.922  30.509  1.00  0.00    -0.203 F 
ATOM     96  C   UNL A   1      42.136  35.358  29.004  1.00  0.00     0.198 A 
ATOM     97  C   UNL A   1      44.511  35.221  28.695  1.00  0.00     0.198 A 
ATOM     98  F   UNL A   1      45.753  33.570  29.819  1.00  0.00    -0.203 F 
ATOM     99  F   UNL A   1      40.965  35.955  28.740  1.00  0.00    -0.200 F 
ATOM    100  C   UNL A   1      43.297  35.828  28.411  1.00  0.00     0.200 A 
ATOM    101  F   UNL A   1      45.641  35.701  28.160  1.00  0.00    -0.200 F 
ATOM    102  F   UNL A   1      43.252  36.879  27.580  1.00  0.00    -0.200 F 
ENDBRANCH  69  92
ENDBRANCH  43  44
ENDBRANCH  36  38
ENDBRANCH  35  36
ENDBRANCH  34  35
ENDBRANCH  33  34
ENDBRANCH  32  33
ENDBRANCH  31  32
ENDBRANCH   1  31
TORSDOF 20
ENDMDL
MODEL 2
REMARK VINA RESULT:     -12.2      4.085     10.301
REMARK SMILES Cc1nccn1C1(C(=O)OCCOCCOCCOC(=O)c2ccc(-c3c4nc(c(-c5c(F)c(F)c(F)c(F)c5F)c5ccc([nH]5)c(-c5c(F)c(F)c(F)c(F)c5F)c5nc(c(-c6c(F)c(F)c(F)c(F)c6F)c6ccc3[nH]6)C=C5)C=C4)cc2)CCN(C(=O)[C@@H]2C[C@H]2c2ccccc2)CC1
REMARK SMILES IDX 14 1 13 2 12 3 11 4 10 5 8 6 9 7 7 8 85 9 100 10 86 11 99 12
REMARK SMILES IDX 87 13 88 14 89 15 6 16 1 17 2 18 3 19 4 20 5 21 90 22 91 23
REMARK SMILES IDX 92 24 93 25 94 26 98 27 95 28 97 29 96 30 15 31 16 32 17 33
REMARK SMILES IDX 18 34 19 35 20 36 21 37 22 38 23 39 84 40 24 41 83 42 25 43
REMARK SMILES IDX 26 44 27 45 77 46 28 47 82 48 76 49 78 50 29 51 81 52 75 53
REMARK SMILES IDX 74 54 30 56 62 57 42 58 61 59 43 60 46 61 60 62 79 63 44 64
REMARK SMILES IDX 45 65 59 67 80 68 47 69 31 70 32 71 40 72 33 73 34 74 38 75
REMARK SMILES IDX 41 76 35 77 36 78 39 79 37 80 63 81 64 82 72 83 65 84 66 85
REMARK SMILES IDX 70 86 73 87 67 88 68 89 71 90 69 91 48 92 49 93 57 94 50 95
REMARK SMILES IDX 51 96 55 97 58 98 52 99 53 100 56 101 54 102
REMARK H PARENT 78 55 46 66
REMARK Flexibility Score: inf
ROOT
ATOM      1  C   UNL A   1      40.191  21.500  26.559  1.00  0.00     0.188 C 
ENDROOT
BRANCH   1   2
ATOM      2  O   UNL A   1      39.263  22.150  25.721  1.00  0.00    -0.376 OA
BRANCH   2   3
ATOM      3  C   UNL A   1      38.053  21.466  25.396  1.00  0.00     0.202 C 
BRANCH   3   4
ATOM      4  C   UNL A   1      37.106  21.951  24.284  1.00  0.00     0.261 C 
BRANCH   4   5
ATOM      5  O   UNL A   1      36.591  23.280  24.474  1.00  0.00    -0.461 OA
BRANCH   5   6
ATOM      6  C   UNL A   1      35.418  23.528  23.818  1.00  0.00     0.332 C 
ATOM      7  O   UNL A   1      35.280  23.319  22.614  1.00  0.00    -0.249 OA
BRANCH   6   8
ATOM      8  C   UNL A   1      34.248  23.978  24.766  1.00  0.00     0.146 C 
ATOM      9  C   UNL A   1      34.685  25.331  25.378  1.00  0.00     0.062 C 
ATOM     10  C   UNL A   1      33.072  24.221  23.806  1.00  0.00     0.062 C 
ATOM     11  C   UNL A   1      33.634  26.357  25.748  1.00  0.00     0.122 C 
ATOM     12  C   UNL A   1      32.006  25.136  24.354  1.00  0.00     0.122 C 
ATOM     13  N   UNL A   1      32.511  26.409  24.848  1.00  0.00    -0.342 N 
ATOM     14  C   UNL A   1      31.802  27.619  24.835  1.00  0.00     0.226 C 
ATOM     15  O   UNL A   1      32.092  28.571  25.552  1.00  0.00    -0.275 OA
BRANCH   8  16
ATOM     16  N   UNL A   1      33.923  22.856  25.691  1.00  0.00    -0.318 N 
ATOM     17  C   UNL A   1      33.165  20.847  24.215  1.00  0.00     0.087 C 
ATOM     18  C   UNL A   1      33.489  21.547  25.481  1.00  0.00     0.106 A 
ATOM     19  N   UNL A   1      33.380  20.894  26.624  1.00  0.00    -0.242 NA
ATOM     20  C   UNL A   1      33.792  21.729  27.603  1.00  0.00     0.131 A 
ATOM     21  C   UNL A   1      34.147  22.932  27.063  1.00  0.00     0.108 A 
ENDBRANCH   8  16
BRANCH  14  22
ATOM     22  C   UNL A   1      30.749  27.818  23.817  1.00  0.00     0.087 C 
ATOM     23  C   UNL A   1      30.907  27.410  22.377  1.00  0.00     0.023 C 
ATOM     24  C   UNL A   1      30.872  28.864  22.724  1.00  0.00     0.032 C 
BRANCH  24  25
ATOM     25  C   UNL A   1      29.690  29.800  22.560  1.00  0.00    -0.044 A 
ATOM     26  C   UNL A   1      29.426  30.414  21.331  1.00  0.00     0.004 A 
ATOM     27  C   UNL A   1      28.909  30.213  23.664  1.00  0.00     0.004 A 
ATOM     28  C   UNL A   1      28.450  31.410  21.217  1.00  0.00     0.000 A 
ATOM     29  C   UNL A   1      27.940  31.209  23.558  1.00  0.00     0.000 A 
ATOM     30  C   UNL A   1      27.716  31.814  22.330  1.00  0.00     0.000 A 
ENDBRANCH  24  25
ENDBRANCH  14  22
ENDBRANCH   6   8
ENDBRANCH   5   6
ENDBRANCH   4   5
ENDBRANCH   3   4
ENDBRANCH   2   3
ENDBRANCH   1   2
BRANCH   1  31
ATOM     31  C   UNL A   1      40.311  19.981  26.377  1.00  0.00     0.188 C 
BRANCH  31  32
ATOM     32  O   UNL A   1      41.220  19.369  25.468  1.00  0.00    -0.376 OA
BRANCH  32  33
ATOM     33  C   UNL A   1      42.368  18.648  25.889  1.00  0.00     0.202 C 
BRANCH  33  34
ATOM     34  C   UNL A   1      43.767  19.083  25.461  1.00  0.00     0.261 C 
BRANCH  34  35
ATOM     35  O   UNL A   1      43.986  20.458  25.689  1.00  0.00    -0.460 OA
BRANCH  35  36
ATOM     36  C   UNL A   1      44.968  20.976  24.928  1.00  0.00     0.338 C 
ATOM     37  O   UNL A   1      45.853  20.368  24.328  1.00  0.00    -0.246 OA
BRANCH  36  38
ATOM     38  C   UNL A   1      44.777  22.428  24.867  1.00  0.00     0.060 A 
ATOM     39  C   UNL A   1      45.910  23.223  25.042  1.00  0.00     0.016 A 
ATOM     40  C   UNL A   1      43.492  22.982  24.726  1.00  0.00     0.016 A 
ATOM     41  C   UNL A   1      45.726  24.542  25.373  1.00  0.00     0.010 A 
ATOM     42  C   UNL A   1      43.303  24.300  25.055  1.00  0.00     0.010 A 
ATOM     43  C   UNL A   1      44.414  25.004  25.510  1.00  0.00    -0.014 A 
BRANCH  43  44
ATOM     44  C   UNL A   1      44.222  26.097  26.436  1.00  0.00     0.031 A 
ATOM     45  C   UNL A   1      45.257  27.136  26.441  1.00  0.00     0.074 A 
ATOM     46  C   UNL A   1      43.120  26.109  27.212  1.00  0.00     0.049 A 
ATOM     47  N   UNL A   1      46.019  27.487  27.421  1.00  0.00    -0.248 NA
ATOM     48  C   UNL A   1      45.526  27.827  25.172  1.00  0.00     0.031 C 
ATOM     49  C   UNL A   1      41.925  25.263  27.067  1.00  0.00     0.029 A 
ATOM     50  N   UNL A   1      42.786  26.947  28.231  1.00  0.00    -0.354 N 
ATOM     51  C   UNL A   1      46.738  28.575  26.950  1.00  0.00     0.074 A 
ATOM     52  C   UNL A   1      46.505  28.656  25.532  1.00  0.00     0.031 C 
ATOM     53  C   UNL A   1      40.927  25.771  27.818  1.00  0.00     0.029 A 
ATOM     54  C   UNL A   1      41.449  26.884  28.587  1.00  0.00     0.049 A 
ATOM     55  H   UNL A   1      43.434  27.541  28.674  1.00  0.00     0.167 HD
ATOM     56  C   UNL A   1      47.245  29.493  27.809  1.00  0.00     0.037 A 
ATOM     57  C   UNL A   1      40.793  27.744  29.396  1.00  0.00     0.037 A 
ATOM     58  C   UNL A   1      47.366  28.979  29.146  1.00  0.00     0.049 A 
ATOM     59  C   UNL A   1      41.795  28.433  30.242  1.00  0.00     0.074 A 
ATOM     60  C   UNL A   1      48.146  28.027  29.766  1.00  0.00     0.029 A 
ATOM     61  N   UNL A   1      46.329  29.258  29.997  1.00  0.00    -0.354 N 
ATOM     62  N   UNL A   1      42.506  27.844  31.164  1.00  0.00    -0.248 NA
ATOM     63  C   UNL A   1      42.262  29.759  29.854  1.00  0.00     0.031 C 
ATOM     64  C   UNL A   1      47.385  27.552  30.872  1.00  0.00     0.029 A 
ATOM     65  C   UNL A   1      46.164  28.226  30.883  1.00  0.00     0.049 A 
ATOM     66  H   UNL A   1      45.784  30.078  29.974  1.00  0.00     0.167 HD
ATOM     67  C   UNL A   1      43.709  28.527  31.168  1.00  0.00     0.074 A 
ATOM     68  C   UNL A   1      43.436  29.783  30.489  1.00  0.00     0.031 C 
ATOM     69  C   UNL A   1      44.877  27.881  31.447  1.00  0.00     0.037 A 
BRANCH  56  70
ATOM     70  C   UNL A   1      47.222  30.970  27.521  1.00  0.00     0.064 A 
ATOM     71  C   UNL A   1      45.987  31.623  27.359  1.00  0.00     0.173 A 
ATOM     72  C   UNL A   1      48.362  31.693  27.103  1.00  0.00     0.173 A 
ATOM     73  F   UNL A   1      44.842  31.003  27.679  1.00  0.00    -0.203 F 
ATOM     74  C   UNL A   1      45.901  32.893  26.784  1.00  0.00     0.198 A 
ATOM     75  C   UNL A   1      48.276  32.981  26.583  1.00  0.00     0.198 A 
ATOM     76  F   UNL A   1      49.581  31.139  27.071  1.00  0.00    -0.203 F 
ATOM     77  F   UNL A   1      44.699  33.433  26.543  1.00  0.00    -0.200 F 
ATOM     78  C   UNL A   1      47.045  33.572  26.399  1.00  0.00     0.200 A 
ATOM     79  F   UNL A   1      49.394  33.609  26.191  1.00  0.00    -0.200 F 
ATOM     80  F   UNL A   1      46.960  34.767  25.801  1.00  0.00    -0.200 F 
ENDBRANCH  56  70
BRANCH  57  81
ATOM     81  C   UNL A   1      39.392  28.195  29.263  1.00  0.00     0.064 A 
ATOM     82  C   UNL A   1      38.546  28.269  30.378  1.00  0.00     0.173 A 
ATOM     83  C   UNL A   1      38.928  28.807  28.079  1.00  0.00     0.173 A 
ATOM     84  F   UNL A   1      38.933  27.752  31.553  1.00  0.00    -0.203 F 
ATOM     85  C   UNL A   1      37.317  28.934  30.319  1.00  0.00     0.198 A 
ATOM     86  C   UNL A   1      37.697  29.456  28.017  1.00  0.00     0.198 A 
ATOM     87  F   UNL A   1      39.700  28.867  26.984  1.00  0.00    -0.203 F 
ATOM     88  F   UNL A   1      36.563  29.041  31.421  1.00  0.00    -0.200 F 
ATOM     89  C   UNL A   1      36.897  29.533  29.141  1.00  0.00     0.200 A 
ATOM     90  F   UNL A   1      37.320  30.058  26.881  1.00  0.00    -0.200 F 
ATOM     91  F   UNL A   1      35.748  30.219  29.101  1.00  0.00    -0.200 F 
ENDBRANCH  57  81
BRANCH  69  92
ATOM     92  C   UNL A   1      44.771  26.588  32.198  1.00  0.00     0.064 A 
ATOM     93  C   UNL A   1      44.714  26.498  33.597  1.00  0.00     0.173 A 
ATOM     94  C   UNL A   1      44.641  25.401  31.464  1.00  0.00     0.173 A 
ATOM     95  F   UNL A   1      44.740  27.599  34.358  1.00  0.00    -0.203 F 
ATOM     96  C   UNL A   1      44.587  25.265  34.234  1.00  0.00     0.198 A 
ATOM     97  C   UNL A   1      44.477  24.175  32.101  1.00  0.00     0.198 A 
ATOM     98  F   UNL A   1      44.635  25.437  30.122  1.00  0.00    -0.203 F 
ATOM     99  F   UNL A   1      44.558  25.199  35.573  1.00  0.00    -0.200 F 
ATOM    100  C   UNL A   1      44.464  24.106  33.485  1.00  0.00     0.200 A 
ATOM    101  F   UNL A   1      44.312  23.062  31.373  1.00  0.00    -0.200 F 
ATOM    102  F   UNL A   1      44.311  22.921  34.096  1.00  0.00    -0.200 F 
ENDBRANCH  69  92
ENDBRANCH  43  44
ENDBRANCH  36  38
ENDBRANCH  35  36
ENDBRANCH  34  35
ENDBRANCH  33  34
ENDBRANCH  32  33
ENDBRANCH  31  32
ENDBRANCH   1  31
TORSDOF 20
ENDMDL
MODEL 3
REMARK VINA RESULT:     -12.1      2.648      3.848
REMARK SMILES Cc1nccn1C1(C(=O)OCCOCCOCCOC(=O)c2ccc(-c3c4nc(c(-c5c(F)c(F)c(F)c(F)c5F)c5ccc([nH]5)c(-c5c(F)c(F)c(F)c(F)c5F)c5nc(c(-c6c(F)c(F)c(F)c(F)c6F)c6ccc3[nH]6)C=C5)C=C4)cc2)CCN(C(=O)[C@@H]2C[C@H]2c2ccccc2)CC1
REMARK SMILES IDX 14 1 13 2 12 3 11 4 10 5 8 6 9 7 7 8 85 9 100 10 86 11 99 12
REMARK SMILES IDX 87 13 88 14 89 15 6 16 1 17 2 18 3 19 4 20 5 21 90 22 91 23
REMARK SMILES IDX 92 24 93 25 94 26 98 27 95 28 97 29 96 30 15 31 16 32 17 33
REMARK SMILES IDX 18 34 19 35 20 36 21 37 22 38 23 39 84 40 24 41 83 42 25 43
REMARK SMILES IDX 26 44 27 45 77 46 28 47 82 48 76 49 78 50 29 51 81 52 75 53
REMARK SMILES IDX 74 54 30 56 62 57 42 58 61 59 43 60 46 61 60 62 79 63 44 64
REMARK SMILES IDX 45 65 59 67 80 68 47 69 31 70 32 71 40 72 33 73 34 74 38 75
REMARK SMILES IDX 41 76 35 77 36 78 39 79 37 80 63 81 64 82 72 83 65 84 66 85
REMARK SMILES IDX 70 86 73 87 67 88 68 89 71 90 69 91 48 92 49 93 57 94 50 95
REMARK SMILES IDX 51 96 55 97 58 98 52 99 53 100 56 101 54 102
REMARK H PARENT 78 55 46 66
REMARK Flexibility Score: inf
ROOT
ATOM      1  C   UNL A   1      35.756  31.481  27.823  1.00  0.00     0.188 C 
ENDROOT
BRANCH   1   2
ATOM      2  O   UNL A   1      34.670  30.658  28.186  1.00  0.00    -0.376 OA
BRANCH   2   3
ATOM      3  C   UNL A   1      33.696  30.348  27.189  1.00  0.00     0.202 C 
BRANCH   3   4
ATOM      4  C   UNL A   1      33.362  28.900  26.788  1.00  0.00     0.261 C 
BRANCH   4   5
ATOM      5  O   UNL A   1      31.980  28.672  26.463  1.00  0.00    -0.461 OA
BRANCH   5   6
ATOM      6  C   UNL A   1      31.640  27.354  26.343  1.00  0.00     0.332 C 
ATOM      7  O   UNL A   1      31.095  26.730  27.251  1.00  0.00    -0.249 OA
BRANCH   6   8
ATOM      8  C   UNL A   1      31.896  26.764  24.909  1.00  0.00     0.146 C 
ATOM      9  C   UNL A   1      33.418  26.492  24.819  1.00  0.00     0.062 C 
ATOM     10  C   UNL A   1      31.149  25.420  24.926  1.00  0.00     0.062 C 
ATOM     11  C   UNL A   1      33.924  25.358  23.952  1.00  0.00     0.122 C 
ATOM     12  C   UNL A   1      31.640  24.427  23.904  1.00  0.00     0.122 C 
ATOM     13  N   UNL A   1      33.076  24.193  23.943  1.00  0.00    -0.342 N 
ATOM     14  C   UNL A   1      33.708  22.989  23.602  1.00  0.00     0.226 C 
ATOM     15  O   UNL A   1      34.896  22.918  23.307  1.00  0.00    -0.275 OA
BRANCH   8  16
ATOM     16  N   UNL A   1      31.281  27.673  23.900  1.00  0.00    -0.318 N 
ATOM     17  C   UNL A   1      33.230  28.953  22.739  1.00  0.00     0.087 C 
ATOM     18  C   UNL A   1      31.818  28.574  22.981  1.00  0.00     0.106 A 
ATOM     19  N   UNL A   1      30.867  29.128  22.249  1.00  0.00    -0.242 NA
ATOM     20  C   UNL A   1      29.696  28.569  22.624  1.00  0.00     0.131 A 
ATOM     21  C   UNL A   1      29.917  27.661  23.621  1.00  0.00     0.108 A 
ENDBRANCH   8  16
BRANCH  14  22
ATOM     22  C   UNL A   1      32.955  21.725  23.738  1.00  0.00     0.087 C 
ATOM     23  C   UNL A   1      31.930  21.488  24.815  1.00  0.00     0.023 C 
ATOM     24  C   UNL A   1      33.226  20.742  24.863  1.00  0.00     0.032 C 
BRANCH  24  25
ATOM     25  C   UNL A   1      33.450  19.300  24.450  1.00  0.00    -0.044 A 
ATOM     26  C   UNL A   1      34.656  18.651  24.738  1.00  0.00     0.004 A 
ATOM     27  C   UNL A   1      32.530  18.609  23.628  1.00  0.00     0.004 A 
ATOM     28  C   UNL A   1      34.940  17.387  24.209  1.00  0.00     0.000 A 
ATOM     29  C   UNL A   1      32.810  17.354  23.092  1.00  0.00     0.000 A 
ATOM     30  C   UNL A   1      34.022  16.745  23.379  1.00  0.00     0.000 A 
ENDBRANCH  24  25
ENDBRANCH  14  22
ENDBRANCH   6   8
ENDBRANCH   5   6
ENDBRANCH   4   5
ENDBRANCH   3   4
ENDBRANCH   2   3
ENDBRANCH   1   2
BRANCH   1  31
ATOM     31  C   UNL A   1      35.537  32.991  27.980  1.00  0.00     0.188 C 
BRANCH  31  32
ATOM     32  O   UNL A   1      34.587  33.557  28.877  1.00  0.00    -0.376 OA
BRANCH  32  33
ATOM     33  C   UNL A   1      34.947  34.137  30.122  1.00  0.00     0.202 C 
BRANCH  33  34
ATOM     34  C   UNL A   1      34.651  33.418  31.435  1.00  0.00     0.261 C 
BRANCH  34  35
ATOM     35  O   UNL A   1      34.983  32.048  31.375  1.00  0.00    -0.460 OA
BRANCH  35  36
ATOM     36  C   UNL A   1      36.067  31.729  32.104  1.00  0.00     0.338 C 
ATOM     37  O   UNL A   1      36.251  31.926  33.304  1.00  0.00    -0.246 OA
BRANCH  36  38
ATOM     38  C   UNL A   1      37.008  31.022  31.230  1.00  0.00     0.060 A 
ATOM     39  C   UNL A   1      36.766  29.666  31.004  1.00  0.00     0.016 A 
ATOM     40  C   UNL A   1      38.149  31.669  30.722  1.00  0.00     0.016 A 
ATOM     41  C   UNL A   1      37.798  28.897  30.530  1.00  0.00     0.010 A 
ATOM     42  C   UNL A   1      39.183  30.905  30.246  1.00  0.00     0.010 A 
ATOM     43  C   UNL A   1      39.026  29.523  30.302  1.00  0.00    -0.014 A 
BRANCH  43  44
ATOM     44  C   UNL A   1      40.198  28.688  30.445  1.00  0.00     0.031 A 
ATOM     45  C   UNL A   1      40.752  28.569  31.797  1.00  0.00     0.074 A 
ATOM     46  C   UNL A   1      40.693  28.066  29.356  1.00  0.00     0.049 A 
ATOM     47  N   UNL A   1      41.927  28.916  32.202  1.00  0.00    -0.248 NA
ATOM     48  C   UNL A   1      39.861  28.064  32.850  1.00  0.00     0.031 C 
ATOM     49  C   UNL A   1      40.039  27.918  28.046  1.00  0.00     0.029 A 
ATOM     50  N   UNL A   1      41.838  27.344  29.216  1.00  0.00    -0.354 N 
ATOM     51  C   UNL A   1      41.993  28.498  33.523  1.00  0.00     0.074 A 
ATOM     52  C   UNL A   1      40.662  28.112  33.913  1.00  0.00     0.031 C 
ATOM     53  C   UNL A   1      40.694  26.985  27.325  1.00  0.00     0.029 A 
ATOM     54  C   UNL A   1      41.873  26.576  28.065  1.00  0.00     0.049 A 
ATOM     55  H   UNL A   1      42.572  27.367  29.870  1.00  0.00     0.167 HD
ATOM     56  C   UNL A   1      43.189  28.237  34.107  1.00  0.00     0.037 A 
ATOM     57  C   UNL A   1      42.766  25.604  27.775  1.00  0.00     0.037 A 
ATOM     58  C   UNL A   1      44.280  28.869  33.417  1.00  0.00     0.049 A 
ATOM     59  C   UNL A   1      43.976  25.833  28.598  1.00  0.00     0.074 A 
ATOM     60  C   UNL A   1      44.702  30.167  33.226  1.00  0.00     0.029 A 
ATOM     61  N   UNL A   1      44.944  28.096  32.501  1.00  0.00    -0.354 N 
ATOM     62  N   UNL A   1      44.780  26.849  28.452  1.00  0.00    -0.248 NA
ATOM     63  C   UNL A   1      44.144  25.084  29.838  1.00  0.00     0.031 C 
ATOM     64  C   UNL A   1      45.413  30.173  31.991  1.00  0.00     0.029 A 
ATOM     65  C   UNL A   1      45.393  28.880  31.470  1.00  0.00     0.049 A 
ATOM     66  H   UNL A   1      45.079  27.123  32.574  1.00  0.00     0.167 HD
ATOM     67  C   UNL A   1      45.252  27.107  29.727  1.00  0.00     0.074 A 
ATOM     68  C   UNL A   1      44.978  25.899  30.487  1.00  0.00     0.031 C 
ATOM     69  C   UNL A   1      45.538  28.382  30.119  1.00  0.00     0.037 A 
BRANCH  56  70
ATOM     70  C   UNL A   1      43.399  27.070  35.034  1.00  0.00     0.064 A 
ATOM     71  C   UNL A   1      43.745  27.307  36.376  1.00  0.00     0.173 A 
ATOM     72  C   UNL A   1      43.566  25.743  34.579  1.00  0.00     0.173 A 
ATOM     73  F   UNL A   1      43.669  28.544  36.890  1.00  0.00    -0.203 F 
ATOM     74  C   UNL A   1      44.259  26.295  37.189  1.00  0.00     0.198 A 
ATOM     75  C   UNL A   1      44.024  24.725  35.408  1.00  0.00     0.198 A 
ATOM     76  F   UNL A   1      43.408  25.410  33.291  1.00  0.00    -0.203 F 
ATOM     77  F   UNL A   1      44.683  26.587  38.425  1.00  0.00    -0.200 F 
ATOM     78  C   UNL A   1      44.396  25.004  36.706  1.00  0.00     0.200 A 
ATOM     79  F   UNL A   1      44.176  23.488  34.913  1.00  0.00    -0.200 F 
ATOM     80  F   UNL A   1      44.935  24.045  37.469  1.00  0.00    -0.200 F 
ENDBRANCH  56  70
BRANCH  57  81
ATOM     81  C   UNL A   1      42.503  24.345  27.046  1.00  0.00     0.064 A 
ATOM     82  C   UNL A   1      43.126  24.075  25.820  1.00  0.00     0.173 A 
ATOM     83  C   UNL A   1      41.831  23.268  27.661  1.00  0.00     0.173 A 
ATOM     84  F   UNL A   1      43.823  25.033  25.193  1.00  0.00    -0.203 F 
ATOM     85  C   UNL A   1      43.097  22.797  25.253  1.00  0.00     0.198 A 
ATOM     86  C   UNL A   1      41.790  21.999  27.088  1.00  0.00     0.198 A 
ATOM     87  F   UNL A   1      41.279  23.401  28.877  1.00  0.00    -0.203 F 
ATOM     88  F   UNL A   1      43.757  22.559  24.112  1.00  0.00    -0.200 F 
ATOM     89  C   UNL A   1      42.435  21.759  25.891  1.00  0.00     0.200 A 
ATOM     90  F   UNL A   1      41.175  20.998  27.733  1.00  0.00    -0.200 F 
ATOM     91  F   UNL A   1      42.456  20.523  25.376  1.00  0.00    -0.200 F 
ENDBRANCH  57  81
BRANCH  69  92
ATOM     92  C   UNL A   1      45.789  29.384  29.032  1.00  0.00     0.064 A 
ATOM     93  C   UNL A   1      47.043  29.597  28.439  1.00  0.00     0.173 A 
ATOM     94  C   UNL A   1      44.697  30.096  28.519  1.00  0.00     0.173 A 
ATOM     95  F   UNL A   1      48.112  28.885  28.817  1.00  0.00    -0.203 F 
ATOM     96  C   UNL A   1      47.204  30.525  27.412  1.00  0.00     0.198 A 
ATOM     97  C   UNL A   1      44.853  30.995  27.469  1.00  0.00     0.198 A 
ATOM     98  F   UNL A   1      43.466  29.890  29.015  1.00  0.00    -0.203 F 
ATOM     99  F   UNL A   1      48.415  30.731  26.875  1.00  0.00    -0.200 F 
ATOM    100  C   UNL A   1      46.107  31.219  26.925  1.00  0.00     0.200 A 
ATOM    101  F   UNL A   1      43.783  31.630  26.970  1.00  0.00    -0.200 F 
ATOM    102  F   UNL A   1      46.255  32.090  25.916  1.00  0.00    -0.200 F 
ENDBRANCH  69  92
ENDBRANCH  43  44
ENDBRANCH  36  38
ENDBRANCH  35  36
ENDBRANCH  34  35
ENDBRANCH  33  34
ENDBRANCH  32  33
ENDBRANCH  31  32
ENDBRANCH   1  31
TORSDOF 20
ENDMDL
