MODEL 1
REMARK VINA RESULT:     -10.1      0.000      0.000
REMARK SMILES CN(CC(N)=O)C(=O)Cn1cccc1C(=O)OCCOCCOCCOC(=O)c1ccc(-c2c3nc(c(-c4c(F)c(F)c(F)c(F)c4F)c4ccc([nH]4)c(-c4c(F)c(F)c(F)c(F)c4F)c4nc(c(-c5c(F)c(F)c(F)c(F)c5F)c5ccc2[nH]5)C=C4)C=C3)cc1
REMARK SMILES IDX 20 1 19 2 18 3 17 4 15 5 16 6 14 7 10 8 11 9 12 10 13 11
REMARK SMILES IDX 9 12 7 13 8 14 2 15 1 16 3 17 4 18 5 19 6 20 21 23 22 24
REMARK SMILES IDX 23 25 24 26 25 27 26 28 27 29 28 30 29 31 30 32 91 33 31 34
REMARK SMILES IDX 90 35 32 36 33 37 34 38 84 39 35 40 89 41 83 42 85 43 36 44
REMARK SMILES IDX 88 45 82 46 81 47 37 49 69 50 49 51 68 52 50 53 53 54 67 55
REMARK SMILES IDX 86 56 51 57 52 58 66 60 87 61 54 62 38 63 39 64 47 65 40 66
REMARK SMILES IDX 41 67 45 68 48 69 42 70 43 71 46 72 44 73 70 74 71 75 79 76
REMARK SMILES IDX 72 77 73 78 77 79 80 80 74 81 75 82 78 83 76 84 55 85 56 86
REMARK SMILES IDX 64 87 57 88 58 89 62 90 65 91 59 92 60 93 63 94 61 95
REMARK H PARENT 5 21 5 22 85 48 53 59
REMARK Flexibility Score: inf
ROOT
ATOM      1  O   UNL A   1      35.460  22.465  24.580  1.00  0.00    -0.376 OA
ENDROOT
BRANCH   1   2
ATOM      2  C   UNL A   1      35.088  23.820  24.818  1.00  0.00     0.202 C 
BRANCH   2   3
ATOM      3  C   UNL A   1      33.835  24.041  25.669  1.00  0.00     0.261 C 
BRANCH   3   4
ATOM      4  O   UNL A   1      33.579  25.449  25.851  1.00  0.00    -0.459 OA
BRANCH   4   5
ATOM      5  C   UNL A   1      32.347  25.779  26.335  1.00  0.00     0.355 C 
ATOM      6  O   UNL A   1      31.589  24.993  26.881  1.00  0.00    -0.244 OA
BRANCH   5   7
ATOM      7  C   UNL A   1      32.129  27.204  26.175  1.00  0.00     0.128 A 
ATOM      8  N   UNL A   1      31.460  27.918  25.184  1.00  0.00    -0.333 N 
ATOM      9  C   UNL A   1      31.444  29.259  25.550  1.00  0.00     0.087 A 
ATOM     10  C   UNL A   1      32.099  29.417  26.741  1.00  0.00     0.020 A 
ATOM     11  C   UNL A   1      32.545  28.140  27.122  1.00  0.00     0.035 A 
BRANCH   8  12
ATOM     12  C   UNL A   1      30.972  27.580  23.837  1.00  0.00     0.222 C 
BRANCH  12  13
ATOM     13  C   UNL A   1      29.500  27.543  23.518  1.00  0.00     0.242 C 
ATOM     14  O   UNL A   1      28.842  26.548  23.835  1.00  0.00    -0.273 OA
BRANCH  13  15
ATOM     15  N   UNL A   1      28.896  28.686  22.998  1.00  0.00    -0.335 N 
ATOM     16  C   UNL A   1      27.445  28.790  23.038  1.00  0.00     0.147 C 
BRANCH  15  17
ATOM     17  C   UNL A   1      29.590  29.666  22.168  1.00  0.00     0.218 C 
BRANCH  17  18
ATOM     18  C   UNL A   1      28.847  30.774  21.425  1.00  0.00     0.237 C 
ATOM     19  N   UNL A   1      29.185  32.043  21.820  1.00  0.00    -0.368 N 
ATOM     20  O   UNL A   1      28.009  30.574  20.557  1.00  0.00    -0.273 OA
ATOM     21  H   UNL A   1      29.863  32.176  22.521  1.00  0.00     0.159 HD
ATOM     22  H   UNL A   1      28.749  32.820  21.402  1.00  0.00     0.159 HD
ENDBRANCH  17  18
ENDBRANCH  15  17
ENDBRANCH  13  15
ENDBRANCH  12  13
ENDBRANCH   8  12
ENDBRANCH   5   7
ENDBRANCH   4   5
ENDBRANCH   3   4
ENDBRANCH   2   3
ENDBRANCH   1   2
BRANCH   1  23
ATOM     23  C   UNL A   1      36.765  22.212  24.089  1.00  0.00     0.188 C 
BRANCH  23  24
ATOM     24  C   UNL A   1      37.668  21.219  24.834  1.00  0.00     0.188 C 
BRANCH  24  25
ATOM     25  O   UNL A   1      38.299  21.563  26.061  1.00  0.00    -0.376 OA
BRANCH  25  26
ATOM     26  C   UNL A   1      39.719  21.575  26.199  1.00  0.00     0.202 C 
BRANCH  26  27
ATOM     27  C   UNL A   1      40.363  22.912  26.509  1.00  0.00     0.261 C 
BRANCH  27  28
ATOM     28  O   UNL A   1      39.629  23.529  27.546  1.00  0.00    -0.460 OA
BRANCH  28  29
ATOM     29  C   UNL A   1      39.014  24.664  27.154  1.00  0.00     0.338 C 
ATOM     30  O   UNL A   1      38.034  24.794  26.461  1.00  0.00    -0.246 OA
BRANCH  29  31
ATOM     31  C   UNL A   1      39.761  25.781  27.728  1.00  0.00     0.060 A 
ATOM     32  C   UNL A   1      39.623  25.972  29.104  1.00  0.00     0.016 A 
ATOM     33  C   UNL A   1      40.320  26.736  26.871  1.00  0.00     0.016 A 
ATOM     34  C   UNL A   1      39.829  27.233  29.596  1.00  0.00     0.010 A 
ATOM     35  C   UNL A   1      40.453  28.011  27.341  1.00  0.00     0.010 A 
ATOM     36  C   UNL A   1      40.152  28.244  28.687  1.00  0.00    -0.014 A 
BRANCH  36  37
ATOM     37  C   UNL A   1      40.323  29.587  29.206  1.00  0.00     0.031 A 
ATOM     38  C   UNL A   1      38.957  30.278  29.232  1.00  0.00     0.074 A 
ATOM     39  C   UNL A   1      41.618  29.918  29.509  1.00  0.00     0.049 A 
ATOM     40  N   UNL A   1      38.690  31.538  29.163  1.00  0.00    -0.248 NA
ATOM     41  C   UNL A   1      37.691  29.477  29.244  1.00  0.00     0.031 C 
ATOM     42  C   UNL A   1      42.792  29.014  29.375  1.00  0.00     0.029 A 
ATOM     43  N   UNL A   1      42.227  31.062  29.975  1.00  0.00    -0.354 N 
ATOM     44  C   UNL A   1      37.311  31.688  29.392  1.00  0.00     0.074 A 
ATOM     45  C   UNL A   1      36.725  30.395  29.258  1.00  0.00     0.031 C 
ATOM     46  C   UNL A   1      43.946  29.662  29.652  1.00  0.00     0.029 A 
ATOM     47  C   UNL A   1      43.651  31.027  30.040  1.00  0.00     0.049 A 
ATOM     48  H   UNL A   1      41.710  31.854  30.248  1.00  0.00     0.167 HD
ATOM     49  C   UNL A   1      36.794  32.842  29.901  1.00  0.00     0.037 A 
ATOM     50  C   UNL A   1      44.511  32.047  30.359  1.00  0.00     0.037 A 
ATOM     51  C   UNL A   1      37.851  33.782  30.085  1.00  0.00     0.049 A 
ATOM     52  C   UNL A   1      43.636  33.093  30.899  1.00  0.00     0.074 A 
ATOM     53  C   UNL A   1      38.656  34.411  29.170  1.00  0.00     0.029 A 
ATOM     54  N   UNL A   1      38.475  33.758  31.312  1.00  0.00    -0.354 N 
ATOM     55  N   UNL A   1      43.047  33.025  32.055  1.00  0.00    -0.248 NA
ATOM     56  C   UNL A   1      43.325  34.255  30.060  1.00  0.00     0.031 C 
ATOM     57  C   UNL A   1      39.932  34.271  29.745  1.00  0.00     0.029 A 
ATOM     58  C   UNL A   1      39.817  33.902  31.091  1.00  0.00     0.049 A 
ATOM     59  H   UNL A   1      38.036  33.656  32.188  1.00  0.00     0.167 HD
ATOM     60  C   UNL A   1      42.033  33.937  31.901  1.00  0.00     0.074 A 
ATOM     61  C   UNL A   1      42.455  34.861  30.865  1.00  0.00     0.031 C 
ATOM     62  C   UNL A   1      40.756  33.519  32.119  1.00  0.00     0.037 A 
BRANCH  49  63
ATOM     63  C   UNL A   1      35.491  33.152  30.563  1.00  0.00     0.064 A 
ATOM     64  C   UNL A   1      34.718  34.197  30.003  1.00  0.00     0.173 A 
ATOM     65  C   UNL A   1      35.183  32.775  31.874  1.00  0.00     0.173 A 
ATOM     66  F   UNL A   1      34.921  34.598  28.737  1.00  0.00    -0.203 F 
ATOM     67  C   UNL A   1      33.808  34.923  30.763  1.00  0.00     0.198 A 
ATOM     68  C   UNL A   1      34.228  33.473  32.617  1.00  0.00     0.198 A 
ATOM     69  F   UNL A   1      35.869  31.815  32.505  1.00  0.00    -0.203 F 
ATOM     70  F   UNL A   1      33.223  36.011  30.243  1.00  0.00    -0.200 F 
ATOM     71  C   UNL A   1      33.577  34.571  32.078  1.00  0.00     0.200 A 
ATOM     72  F   UNL A   1      34.004  33.129  33.892  1.00  0.00    -0.200 F 
ATOM     73  F   UNL A   1      32.761  35.313  32.839  1.00  0.00    -0.200 F 
ENDBRANCH  49  63
BRANCH  50  74
ATOM     74  C   UNL A   1      45.980  32.416  30.295  1.00  0.00     0.064 A 
ATOM     75  C   UNL A   1      46.936  32.207  31.293  1.00  0.00     0.173 A 
ATOM     76  C   UNL A   1      46.525  32.899  29.064  1.00  0.00     0.173 A 
ATOM     77  F   UNL A   1      46.572  31.864  32.533  1.00  0.00    -0.203 F 
ATOM     78  C   UNL A   1      48.318  32.345  31.036  1.00  0.00     0.198 A 
ATOM     79  C   UNL A   1      47.887  32.960  28.787  1.00  0.00     0.198 A 
ATOM     80  F   UNL A   1      45.743  33.321  28.061  1.00  0.00    -0.203 F 
ATOM     81  F   UNL A   1      49.203  32.136  32.022  1.00  0.00    -0.200 F 
ATOM     82  C   UNL A   1      48.792  32.667  29.774  1.00  0.00     0.200 A 
ATOM     83  F   UNL A   1      48.299  33.278  27.551  1.00  0.00    -0.200 F 
ATOM     84  F   UNL A   1      50.105  32.706  29.512  1.00  0.00    -0.200 F 
ENDBRANCH  50  74
BRANCH  62  85
ATOM     85  C   UNL A   1      40.622  32.396  33.138  1.00  0.00     0.064 A 
ATOM     86  C   UNL A   1      41.140  32.570  34.437  1.00  0.00     0.173 A 
ATOM     87  C   UNL A   1      40.108  31.120  32.860  1.00  0.00     0.173 A 
ATOM     88  F   UNL A   1      41.604  33.770  34.817  1.00  0.00    -0.203 F 
ATOM     89  C   UNL A   1      41.186  31.526  35.367  1.00  0.00     0.198 A 
ATOM     90  C   UNL A   1      40.156  30.070  33.786  1.00  0.00     0.198 A 
ATOM     91  F   UNL A   1      39.527  30.861  31.688  1.00  0.00    -0.203 F 
ATOM     92  F   UNL A   1      41.695  31.742  36.588  1.00  0.00    -0.200 F 
ATOM     93  C   UNL A   1      40.704  30.272  35.038  1.00  0.00     0.200 A 
ATOM     94  F   UNL A   1      39.663  28.864  33.461  1.00  0.00    -0.200 F 
ATOM     95  F   UNL A   1      40.740  29.273  35.932  1.00  0.00    -0.200 F 
ENDBRANCH  62  85
ENDBRANCH  36  37
ENDBRANCH  29  31
ENDBRANCH  28  29
ENDBRANCH  27  28
ENDBRANCH  26  27
ENDBRANCH  25  26
ENDBRANCH  24  25
ENDBRANCH  23  24
ENDBRANCH   1  23
TORSDOF 22
ENDMDL
MODEL 2
REMARK VINA RESULT:     -10.1      4.864      9.834
REMARK SMILES CN(CC(N)=O)C(=O)Cn1cccc1C(=O)OCCOCCOCCOC(=O)c1ccc(-c2c3nc(c(-c4c(F)c(F)c(F)c(F)c4F)c4ccc([nH]4)c(-c4c(F)c(F)c(F)c(F)c4F)c4nc(c(-c5c(F)c(F)c(F)c(F)c5F)c5ccc2[nH]5)C=C4)C=C3)cc1
REMARK SMILES IDX 20 1 19 2 18 3 17 4 15 5 16 6 14 7 10 8 11 9 12 10 13 11
REMARK SMILES IDX 9 12 7 13 8 14 2 15 1 16 3 17 4 18 5 19 6 20 21 23 22 24
REMARK SMILES IDX 23 25 24 26 25 27 26 28 27 29 28 30 29 31 30 32 91 33 31 34
REMARK SMILES IDX 90 35 32 36 33 37 34 38 84 39 35 40 89 41 83 42 85 43 36 44
REMARK SMILES IDX 88 45 82 46 81 47 37 49 69 50 49 51 68 52 50 53 53 54 67 55
REMARK SMILES IDX 86 56 51 57 52 58 66 60 87 61 54 62 38 63 39 64 47 65 40 66
REMARK SMILES IDX 41 67 45 68 48 69 42 70 43 71 46 72 44 73 70 74 71 75 79 76
REMARK SMILES IDX 72 77 73 78 77 79 80 80 74 81 75 82 78 83 76 84 55 85 56 86
REMARK SMILES IDX 64 87 57 88 58 89 62 90 65 91 59 92 60 93 63 94 61 95
REMARK H PARENT 5 21 5 22 85 48 53 59
REMARK Flexibility Score: inf
ROOT
ATOM      1  O   UNL A   1      31.711  27.010  23.902  1.00  0.00    -0.376 OA
ENDROOT
BRANCH   1   2
ATOM      2  C   UNL A   1      31.179  25.731  23.570  1.00  0.00     0.202 C 
BRANCH   2   3
ATOM      3  C   UNL A   1      31.552  24.578  24.506  1.00  0.00     0.261 C 
BRANCH   3   4
ATOM      4  O   UNL A   1      32.930  24.680  24.921  1.00  0.00    -0.459 OA
BRANCH   4   5
ATOM      5  C   UNL A   1      33.308  23.873  25.955  1.00  0.00     0.355 C 
ATOM      6  O   UNL A   1      32.609  23.625  26.925  1.00  0.00    -0.244 OA
BRANCH   5   7
ATOM      7  C   UNL A   1      34.612  23.303  25.674  1.00  0.00     0.128 A 
ATOM      8  N   UNL A   1      34.984  22.006  25.331  1.00  0.00    -0.333 N 
ATOM      9  C   UNL A   1      36.348  22.003  25.059  1.00  0.00     0.087 A 
ATOM     10  C   UNL A   1      36.853  23.263  25.234  1.00  0.00     0.020 A 
ATOM     11  C   UNL A   1      35.776  24.070  25.637  1.00  0.00     0.035 A 
BRANCH   8  12
ATOM     12  C   UNL A   1      34.305  20.703  25.385  1.00  0.00     0.222 C 
BRANCH  12  13
ATOM     13  C   UNL A   1      33.346  20.268  24.306  1.00  0.00     0.242 C 
ATOM     14  O   UNL A   1      32.635  21.116  23.758  1.00  0.00    -0.273 OA
BRANCH  13  15
ATOM     15  N   UNL A   1      33.386  18.948  23.864  1.00  0.00    -0.335 N 
ATOM     16  C   UNL A   1      32.284  18.448  23.054  1.00  0.00     0.147 C 
BRANCH  15  17
ATOM     17  C   UNL A   1      34.313  17.946  24.379  1.00  0.00     0.218 C 
BRANCH  17  18
ATOM     18  C   UNL A   1      33.835  16.615  24.955  1.00  0.00     0.237 C 
ATOM     19  N   UNL A   1      33.225  16.714  26.179  1.00  0.00    -0.368 N 
ATOM     20  O   UNL A   1      33.983  15.535  24.398  1.00  0.00    -0.273 OA
ATOM     21  H   UNL A   1      33.119  17.596  26.605  1.00  0.00     0.159 HD
ATOM     22  H   UNL A   1      32.895  15.905  26.631  1.00  0.00     0.159 HD
ENDBRANCH  17  18
ENDBRANCH  15  17
ENDBRANCH  13  15
ENDBRANCH  12  13
ENDBRANCH   8  12
ENDBRANCH   5   7
ENDBRANCH   4   5
ENDBRANCH   3   4
ENDBRANCH   2   3
ENDBRANCH   1   2
BRANCH   1  23
ATOM     23  C   UNL A   1      30.956  27.837  24.772  1.00  0.00     0.188 C 
BRANCH  23  24
ATOM     24  C   UNL A   1      31.677  28.913  25.597  1.00  0.00     0.188 C 
BRANCH  24  25
ATOM     25  O   UNL A   1      33.008  28.728  26.060  1.00  0.00    -0.376 OA
BRANCH  25  26
ATOM     26  C   UNL A   1      33.853  29.831  26.383  1.00  0.00     0.202 C 
BRANCH  26  27
ATOM     27  C   UNL A   1      34.785  29.653  27.565  1.00  0.00     0.261 C 
BRANCH  27  28
ATOM     28  O   UNL A   1      35.940  30.433  27.342  1.00  0.00    -0.460 OA
BRANCH  28  29
ATOM     29  C   UNL A   1      36.721  30.547  28.436  1.00  0.00     0.338 C 
ATOM     30  O   UNL A   1      36.685  31.381  29.308  1.00  0.00    -0.246 OA
BRANCH  29  31
ATOM     31  C   UNL A   1      37.679  29.444  28.402  1.00  0.00     0.060 A 
ATOM     32  C   UNL A   1      37.683  28.598  29.512  1.00  0.00     0.016 A 
ATOM     33  C   UNL A   1      38.694  29.457  27.438  1.00  0.00     0.016 A 
ATOM     34  C   UNL A   1      38.840  27.920  29.791  1.00  0.00     0.010 A 
ATOM     35  C   UNL A   1      39.874  28.845  27.753  1.00  0.00     0.010 A 
ATOM     36  C   UNL A   1      39.939  28.131  28.953  1.00  0.00    -0.014 A 
BRANCH  36  37
ATOM     37  C   UNL A   1      41.175  27.449  29.281  1.00  0.00     0.031 A 
ATOM     38  C   UNL A   1      41.235  26.139  28.491  1.00  0.00     0.074 A 
ATOM     39  C   UNL A   1      41.952  28.096  30.206  1.00  0.00     0.049 A 
ATOM     40  N   UNL A   1      41.859  25.049  28.785  1.00  0.00    -0.248 NA
ATOM     41  C   UNL A   1      40.426  25.957  27.243  1.00  0.00     0.031 C 
ATOM     42  C   UNL A   1      41.632  29.406  30.834  1.00  0.00     0.029 A 
ATOM     43  N   UNL A   1      43.150  27.802  30.820  1.00  0.00    -0.354 N 
ATOM     44  C   UNL A   1      41.748  24.189  27.677  1.00  0.00     0.074 A 
ATOM     45  C   UNL A   1      40.720  24.719  26.843  1.00  0.00     0.031 C 
ATOM     46  C   UNL A   1      42.540  29.731  31.783  1.00  0.00     0.029 A 
ATOM     47  C   UNL A   1      43.564  28.707  31.842  1.00  0.00     0.049 A 
ATOM     48  H   UNL A   1      43.686  27.016  30.569  1.00  0.00     0.167 HD
ATOM     49  C   UNL A   1      42.678  23.226  27.427  1.00  0.00     0.037 A 
ATOM     50  C   UNL A   1      44.644  28.603  32.681  1.00  0.00     0.037 A 
ATOM     51  C   UNL A   1      43.661  23.251  28.459  1.00  0.00     0.049 A 
ATOM     52  C   UNL A   1      45.437  27.512  32.105  1.00  0.00     0.074 A 
ATOM     53  C   UNL A   1      43.559  22.965  29.796  1.00  0.00     0.029 A 
ATOM     54  N   UNL A   1      44.746  24.070  28.242  1.00  0.00    -0.354 N 
ATOM     55  N   UNL A   1      46.113  27.607  31.000  1.00  0.00    -0.248 NA
ATOM     56  C   UNL A   1      45.406  26.198  32.756  1.00  0.00     0.031 C 
ATOM     57  C   UNL A   1      44.258  24.034  30.387  1.00  0.00     0.029 A 
ATOM     58  C   UNL A   1      45.028  24.698  29.423  1.00  0.00     0.049 A 
ATOM     59  H   UNL A   1      45.231  24.183  27.392  1.00  0.00     0.167 HD
ATOM     60  C   UNL A   1      46.263  26.288  30.654  1.00  0.00     0.074 A 
ATOM     61  C   UNL A   1      46.140  25.518  31.877  1.00  0.00     0.031 C 
ATOM     62  C   UNL A   1      45.834  25.895  29.423  1.00  0.00     0.037 A 
BRANCH  49  63
ATOM     63  C   UNL A   1      43.011  22.448  26.194  1.00  0.00     0.064 A 
ATOM     64  C   UNL A   1      43.022  21.037  26.308  1.00  0.00     0.173 A 
ATOM     65  C   UNL A   1      43.677  22.996  25.093  1.00  0.00     0.173 A 
ATOM     66  F   UNL A   1      42.377  20.426  27.314  1.00  0.00    -0.203 F 
ATOM     67  C   UNL A   1      43.787  20.241  25.464  1.00  0.00     0.198 A 
ATOM     68  C   UNL A   1      44.400  22.186  24.215  1.00  0.00     0.198 A 
ATOM     69  F   UNL A   1      43.747  24.319  24.905  1.00  0.00    -0.203 F 
ATOM     70  F   UNL A   1      43.905  18.929  25.710  1.00  0.00    -0.200 F 
ATOM     71  C   UNL A   1      44.492  20.819  24.427  1.00  0.00     0.200 A 
ATOM     72  F   UNL A   1      45.082  22.748  23.208  1.00  0.00    -0.200 F 
ATOM     73  F   UNL A   1      45.292  20.069  23.657  1.00  0.00    -0.200 F 
ENDBRANCH  49  63
BRANCH  50  74
ATOM     74  C   UNL A   1      45.212  29.200  33.953  1.00  0.00     0.064 A 
ATOM     75  C   UNL A   1      46.205  30.179  34.044  1.00  0.00     0.173 A 
ATOM     76  C   UNL A   1      44.612  28.868  35.208  1.00  0.00     0.173 A 
ATOM     77  F   UNL A   1      46.936  30.517  32.976  1.00  0.00    -0.203 F 
ATOM     78  C   UNL A   1      46.475  30.852  35.256  1.00  0.00     0.198 A 
ATOM     79  C   UNL A   1      44.821  29.582  36.384  1.00  0.00     0.198 A 
ATOM     80  F   UNL A   1      43.772  27.832  35.340  1.00  0.00    -0.203 F 
ATOM     81  F   UNL A   1      47.437  31.785  35.300  1.00  0.00    -0.200 F 
ATOM     82  C   UNL A   1      45.748  30.590  36.407  1.00  0.00     0.200 A 
ATOM     83  F   UNL A   1      44.095  29.293  37.474  1.00  0.00    -0.200 F 
ATOM     84  F   UNL A   1      45.944  31.295  37.530  1.00  0.00    -0.200 F 
ENDBRANCH  50  74
BRANCH  62  85
ATOM     85  C   UNL A   1      45.904  26.976  28.353  1.00  0.00     0.064 A 
ATOM     86  C   UNL A   1      47.133  27.610  28.084  1.00  0.00     0.173 A 
ATOM     87  C   UNL A   1      44.796  27.491  27.662  1.00  0.00     0.173 A 
ATOM     88  F   UNL A   1      48.259  27.155  28.654  1.00  0.00    -0.203 F 
ATOM     89  C   UNL A   1      47.232  28.711  27.227  1.00  0.00     0.198 A 
ATOM     90  C   UNL A   1      44.889  28.596  26.807  1.00  0.00     0.198 A 
ATOM     91  F   UNL A   1      43.596  26.924  27.783  1.00  0.00    -0.203 F 
ATOM     92  F   UNL A   1      48.425  29.283  27.010  1.00  0.00    -0.200 F 
ATOM     93  C   UNL A   1      46.108  29.212  26.596  1.00  0.00     0.200 A 
ATOM     94  F   UNL A   1      43.792  29.057  26.182  1.00  0.00    -0.200 F 
ATOM     95  F   UNL A   1      46.203  30.262  25.768  1.00  0.00    -0.200 F 
ENDBRANCH  62  85
ENDBRANCH  36  37
ENDBRANCH  29  31
ENDBRANCH  28  29
ENDBRANCH  27  28
ENDBRANCH  26  27
ENDBRANCH  25  26
ENDBRANCH  24  25
ENDBRANCH  23  24
ENDBRANCH   1  23
TORSDOF 22
ENDMDL
MODEL 3
REMARK VINA RESULT:     -10.0      3.353      8.062
REMARK SMILES CN(CC(N)=O)C(=O)Cn1cccc1C(=O)OCCOCCOCCOC(=O)c1ccc(-c2c3nc(c(-c4c(F)c(F)c(F)c(F)c4F)c4ccc([nH]4)c(-c4c(F)c(F)c(F)c(F)c4F)c4nc(c(-c5c(F)c(F)c(F)c(F)c5F)c5ccc2[nH]5)C=C4)C=C3)cc1
REMARK SMILES IDX 20 1 19 2 18 3 17 4 15 5 16 6 14 7 10 8 11 9 12 10 13 11
REMARK SMILES IDX 9 12 7 13 8 14 2 15 1 16 3 17 4 18 5 19 6 20 21 23 22 24
REMARK SMILES IDX 23 25 24 26 25 27 26 28 27 29 28 30 29 31 30 32 91 33 31 34
REMARK SMILES IDX 90 35 32 36 33 37 34 38 84 39 35 40 89 41 83 42 85 43 36 44
REMARK SMILES IDX 88 45 82 46 81 47 37 49 69 50 49 51 68 52 50 53 53 54 67 55
REMARK SMILES IDX 86 56 51 57 52 58 66 60 87 61 54 62 38 63 39 64 47 65 40 66
REMARK SMILES IDX 41 67 45 68 48 69 42 70 43 71 46 72 44 73 70 74 71 75 79 76
REMARK SMILES IDX 72 77 73 78 77 79 80 80 74 81 75 82 78 83 76 84 55 85 56 86
REMARK SMILES IDX 64 87 57 88 58 89 62 90 65 91 59 92 60 93 63 94 61 95
REMARK H PARENT 5 21 5 22 85 48 53 59
REMARK Flexibility Score: inf
ROOT
ATOM      1  O   UNL A   1      34.179  28.192  26.758  1.00  0.00    -0.376 OA
ENDROOT
BRANCH   1   2
ATOM      2  C   UNL A   1      33.683  27.147  25.926  1.00  0.00     0.202 C 
BRANCH   2   3
ATOM      3  C   UNL A   1      32.446  26.405  26.436  1.00  0.00     0.261 C 
BRANCH   3   4
ATOM      4  O   UNL A   1      32.771  25.042  26.783  1.00  0.00    -0.459 OA
BRANCH   4   5
ATOM      5  C   UNL A   1      31.855  24.095  26.426  1.00  0.00     0.355 C 
ATOM      6  O   UNL A   1      30.880  23.795  27.098  1.00  0.00    -0.244 OA
BRANCH   5   7
ATOM      7  C   UNL A   1      32.177  23.582  25.109  1.00  0.00     0.128 A 
ATOM      8  N   UNL A   1      31.595  23.828  23.868  1.00  0.00    -0.333 N 
ATOM      9  C   UNL A   1      32.345  23.172  22.899  1.00  0.00     0.087 A 
ATOM     10  C   UNL A   1      33.380  22.504  23.494  1.00  0.00     0.020 A 
ATOM     11  C   UNL A   1      33.265  22.741  24.874  1.00  0.00     0.035 A 
BRANCH   8  12
ATOM     12  C   UNL A   1      30.328  24.442  23.440  1.00  0.00     0.222 C 
BRANCH  12  13
ATOM     13  C   UNL A   1      29.927  25.821  23.895  1.00  0.00     0.242 C 
ATOM     14  O   UNL A   1      29.446  25.965  25.023  1.00  0.00    -0.273 OA
BRANCH  13  15
ATOM     15  N   UNL A   1      30.235  26.912  23.085  1.00  0.00    -0.335 N 
ATOM     16  C   UNL A   1      31.591  27.041  22.573  1.00  0.00     0.147 C 
BRANCH  15  17
ATOM     17  C   UNL A   1      29.376  28.082  22.934  1.00  0.00     0.218 C 
BRANCH  17  18
ATOM     18  C   UNL A   1      29.937  29.472  22.646  1.00  0.00     0.237 C 
ATOM     19  N   UNL A   1      30.302  30.177  23.764  1.00  0.00    -0.368 N 
ATOM     20  O   UNL A   1      30.051  29.946  21.524  1.00  0.00    -0.273 OA
ATOM     21  H   UNL A   1      30.201  29.772  24.656  1.00  0.00     0.159 HD
ATOM     22  H   UNL A   1      30.665  31.088  23.675  1.00  0.00     0.159 HD
ENDBRANCH  17  18
ENDBRANCH  15  17
ENDBRANCH  13  15
ENDBRANCH  12  13
ENDBRANCH   8  12
ENDBRANCH   5   7
ENDBRANCH   4   5
ENDBRANCH   3   4
ENDBRANCH   2   3
ENDBRANCH   1   2
BRANCH   1  23
ATOM     23  C   UNL A   1      33.916  29.530  26.371  1.00  0.00     0.188 C 
BRANCH  23  24
ATOM     24  C   UNL A   1      32.875  30.346  27.150  1.00  0.00     0.188 C 
BRANCH  24  25
ATOM     25  O   UNL A   1      31.757  30.940  26.501  1.00  0.00    -0.376 OA
BRANCH  25  26
ATOM     26  C   UNL A   1      31.394  32.301  26.722  1.00  0.00     0.202 C 
BRANCH  26  27
ATOM     27  C   UNL A   1      32.525  33.270  27.009  1.00  0.00     0.261 C 
BRANCH  27  28
ATOM     28  O   UNL A   1      32.180  34.031  28.148  1.00  0.00    -0.460 OA
BRANCH  28  29
ATOM     29  C   UNL A   1      33.194  34.800  28.596  1.00  0.00     0.338 C 
ATOM     30  O   UNL A   1      33.222  35.996  28.756  1.00  0.00    -0.246 OA
BRANCH  29  31
ATOM     31  C   UNL A   1      34.322  33.913  28.871  1.00  0.00     0.060 A 
ATOM     32  C   UNL A   1      34.073  32.856  29.747  1.00  0.00     0.016 A 
ATOM     33  C   UNL A   1      35.608  34.314  28.492  1.00  0.00     0.016 A 
ATOM     34  C   UNL A   1      35.135  32.342  30.442  1.00  0.00     0.010 A 
ATOM     35  C   UNL A   1      36.659  33.859  29.237  1.00  0.00     0.010 A 
ATOM     36  C   UNL A   1      36.392  32.919  30.236  1.00  0.00    -0.014 A 
BRANCH  36  37
ATOM     37  C   UNL A   1      37.504  32.403  31.009  1.00  0.00     0.031 A 
ATOM     38  C   UNL A   1      38.074  31.178  30.290  1.00  0.00     0.074 A 
ATOM     39  C   UNL A   1      37.753  33.088  32.171  1.00  0.00     0.049 A 
ATOM     40  N   UNL A   1      38.708  30.173  30.790  1.00  0.00    -0.248 NA
ATOM     41  C   UNL A   1      37.843  30.972  28.824  1.00  0.00     0.031 C 
ATOM     42  C   UNL A   1      37.008  34.287  32.640  1.00  0.00     0.029 A 
ATOM     43  N   UNL A   1      38.657  32.928  33.198  1.00  0.00    -0.354 N 
ATOM     44  C   UNL A   1      39.170  29.391  29.716  1.00  0.00     0.074 A 
ATOM     45  C   UNL A   1      38.466  29.824  28.555  1.00  0.00     0.031 C 
ATOM     46  C   UNL A   1      37.418  34.670  33.870  1.00  0.00     0.029 A 
ATOM     47  C   UNL A   1      38.497  33.806  34.310  1.00  0.00     0.049 A 
ATOM     48  H   UNL A   1      39.369  32.251  33.165  1.00  0.00     0.167 HD
ATOM     49  C   UNL A   1      40.270  28.595  29.835  1.00  0.00     0.037 A 
ATOM     50  C   UNL A   1      39.177  33.800  35.501  1.00  0.00     0.037 A 
ATOM     51  C   UNL A   1      40.768  28.688  31.168  1.00  0.00     0.049 A 
ATOM     52  C   UNL A   1      40.296  32.884  35.265  1.00  0.00     0.074 A 
ATOM     53  C   UNL A   1      40.213  28.292  32.358  1.00  0.00     0.029 A 
ATOM     54  N   UNL A   1      41.704  29.672  31.398  1.00  0.00    -0.354 N 
ATOM     55  N   UNL A   1      41.317  33.159  34.510  1.00  0.00    -0.248 NA
ATOM     56  C   UNL A   1      40.236  31.535  35.838  1.00  0.00     0.031 C 
ATOM     57  C   UNL A   1      40.449  29.406  33.185  1.00  0.00     0.029 A 
ATOM     58  C   UNL A   1      41.407  30.246  32.603  1.00  0.00     0.049 A 
ATOM     59  H   UNL A   1      42.450  29.918  30.803  1.00  0.00     0.167 HD
ATOM     60  C   UNL A   1      41.802  31.905  34.234  1.00  0.00     0.074 A 
ATOM     61  C   UNL A   1      41.350  31.037  35.305  1.00  0.00     0.031 C 
ATOM     62  C   UNL A   1      41.944  31.545  32.929  1.00  0.00     0.037 A 
BRANCH  49  63
ATOM     63  C   UNL A   1      41.170  27.968  28.820  1.00  0.00     0.064 A 
ATOM     64  C   UNL A   1      41.933  28.843  28.010  1.00  0.00     0.173 A 
ATOM     65  C   UNL A   1      41.016  26.657  28.357  1.00  0.00     0.173 A 
ATOM     66  F   UNL A   1      42.162  30.109  28.395  1.00  0.00    -0.203 F 
ATOM     67  C   UNL A   1      42.374  28.473  26.745  1.00  0.00     0.198 A 
ATOM     68  C   UNL A   1      41.509  26.273  27.108  1.00  0.00     0.198 A 
ATOM     69  F   UNL A   1      40.293  25.758  29.034  1.00  0.00    -0.203 F 
ATOM     70  F   UNL A   1      42.944  29.383  25.944  1.00  0.00    -0.200 F 
ATOM     71  C   UNL A   1      42.145  27.190  26.287  1.00  0.00     0.200 A 
ATOM     72  F   UNL A   1      41.287  25.028  26.666  1.00  0.00    -0.200 F 
ATOM     73  F   UNL A   1      42.498  26.849  25.040  1.00  0.00    -0.200 F 
ENDBRANCH  49  63
BRANCH  50  74
ATOM     74  C   UNL A   1      39.111  34.379  36.900  1.00  0.00     0.064 A 
ATOM     75  C   UNL A   1      38.436  33.835  37.997  1.00  0.00     0.173 A 
ATOM     76  C   UNL A   1      39.915  35.517  37.223  1.00  0.00     0.173 A 
ATOM     77  F   UNL A   1      37.558  32.839  37.839  1.00  0.00    -0.203 F 
ATOM     78  C   UNL A   1      38.652  34.309  39.310  1.00  0.00     0.198 A 
ATOM     79  C   UNL A   1      40.189  35.933  38.522  1.00  0.00     0.198 A 
ATOM     80  F   UNL A   1      40.489  36.270  36.275  1.00  0.00    -0.203 F 
ATOM     81  F   UNL A   1      37.984  33.760  40.334  1.00  0.00    -0.200 F 
ATOM     82  C   UNL A   1      39.566  35.318  39.575  1.00  0.00     0.200 A 
ATOM     83  F   UNL A   1      41.079  36.915  38.731  1.00  0.00    -0.200 F 
ATOM     84  F   UNL A   1      39.836  35.700  40.831  1.00  0.00    -0.200 F 
ENDBRANCH  50  74
BRANCH  62  85
ATOM     85  C   UNL A   1      42.238  32.700  31.982  1.00  0.00     0.064 A 
ATOM     86  C   UNL A   1      43.339  33.544  32.233  1.00  0.00     0.173 A 
ATOM     87  C   UNL A   1      41.421  33.080  30.905  1.00  0.00     0.173 A 
ATOM     88  F   UNL A   1      44.209  33.235  33.206  1.00  0.00    -0.203 F 
ATOM     89  C   UNL A   1      43.570  34.708  31.493  1.00  0.00     0.198 A 
ATOM     90  C   UNL A   1      41.647  34.247  30.164  1.00  0.00     0.198 A 
ATOM     91  F   UNL A   1      40.394  32.319  30.530  1.00  0.00    -0.203 F 
ATOM     92  F   UNL A   1      44.629  35.480  31.776  1.00  0.00    -0.200 F 
ATOM     93  C   UNL A   1      42.718  35.066  30.464  1.00  0.00     0.200 A 
ATOM     94  F   UNL A   1      40.824  34.570  29.152  1.00  0.00    -0.200 F 
ATOM     95  F   UNL A   1      42.944  36.177  29.748  1.00  0.00    -0.200 F 
ENDBRANCH  62  85
ENDBRANCH  36  37
ENDBRANCH  29  31
ENDBRANCH  28  29
ENDBRANCH  27  28
ENDBRANCH  26  27
ENDBRANCH  25  26
ENDBRANCH  24  25
ENDBRANCH  23  24
ENDBRANCH   1  23
TORSDOF 22
ENDMDL
