MODEL 1
REMARK VINA RESULT:     -10.8      0.000      0.000
REMARK SMILES O=C(Nc1ccc2c(c1)[C@@H]1C=CC[C@@H]1[C@H](C(=O)OCCOCCOCCOC(=O)c1ccc(-c3c4nc(c(-c5c(F)c(F)c(F)c(F)c5F)c5ccc([nH]5)c(-c5c(F)c(F)c(F)c(F)c5F)c5nc(c(-c6c(F)c(F)c(F)c(F)c6F)c6ccc3[nH]6)C=C5)C=C4)cc1)N2)c1ccccc1
REMARK SMILES IDX 22 1 21 2 20 3 19 4 18 5 16 6 17 7 15 8 4 9 5 10 9 11 6 12
REMARK SMILES IDX 8 13 7 14 10 15 93 16 11 17 14 18 12 20 13 21 3 22 1 23 2 24
REMARK SMILES IDX 94 26 95 27 99 28 96 29 98 30 97 31 23 32 24 33 25 34 26 35
REMARK SMILES IDX 27 36 28 37 29 38 30 39 31 40 92 41 32 42 91 43 33 44 34 45
REMARK SMILES IDX 35 46 85 47 36 48 90 49 84 50 86 51 37 52 89 53 83 54 82 55
REMARK SMILES IDX 38 57 70 58 50 59 69 60 51 61 54 62 68 63 87 64 52 65 53 66
REMARK SMILES IDX 67 68 88 69 55 70 39 71 40 72 48 73 41 74 42 75 46 76 49 77
REMARK SMILES IDX 43 78 44 79 47 80 45 81 71 82 72 83 80 84 73 85 74 86 78 87
REMARK SMILES IDX 81 88 75 89 76 90 79 91 77 92 56 93 57 94 65 95 58 96 59 97
REMARK SMILES IDX 63 98 66 99 60 100 61 101 64 102 62 103
REMARK H PARENT 93 19 3 25 86 56 54 67
REMARK Flexibility Score: inf
ROOT
ATOM      1  C   UNL A   1      32.854  35.198  31.626  1.00  0.00     0.188 C 
ENDROOT
BRANCH   1   2
ATOM      2  O   UNL A   1      32.485  35.329  30.259  1.00  0.00    -0.376 OA
BRANCH   2   3
ATOM      3  C   UNL A   1      33.167  36.323  29.497  1.00  0.00     0.202 C 
BRANCH   3   4
ATOM      4  C   UNL A   1      34.296  35.834  28.576  1.00  0.00     0.261 C 
BRANCH   4   5
ATOM      5  O   UNL A   1      34.225  34.431  28.249  1.00  0.00    -0.462 OA
BRANCH   5   6
ATOM      6  C   UNL A   1      35.410  33.773  28.293  1.00  0.00     0.328 C 
ATOM      7  O   UNL A   1      36.429  34.213  28.826  1.00  0.00    -0.250 OA
BRANCH   6   8
ATOM      8  C   UNL A   1      35.396  32.354  27.689  1.00  0.00     0.194 C 
ATOM      9  C   UNL A   1      32.635  28.096  26.902  1.00  0.00     0.041 A 
ATOM     10  C   UNL A   1      31.777  29.179  26.756  1.00  0.00     0.028 A 
ATOM     11  C   UNL A   1      34.003  28.320  27.106  1.00  0.00     0.032 A 
ATOM     12  C   UNL A   1      32.260  30.465  26.970  1.00  0.00     0.028 A 
ATOM     13  C   UNL A   1      34.497  29.615  27.337  1.00  0.00    -0.015 A 
ATOM     14  C   UNL A   1      33.605  30.691  27.281  1.00  0.00     0.039 A 
ATOM     15  C   UNL A   1      35.964  29.861  27.640  1.00  0.00     0.050 C 
ATOM     16  N   UNL A   1      33.995  31.965  27.603  1.00  0.00    -0.372 N 
ATOM     17  C   UNL A   1      36.517  28.951  28.708  1.00  0.00    -0.023 C 
ATOM     18  C   UNL A   1      36.271  31.250  28.273  1.00  0.00     0.038 C 
ATOM     19  H   UNL A   1      33.303  32.643  27.779  1.00  0.00     0.161 HD
ATOM     20  C   UNL A   1      36.654  29.580  29.881  1.00  0.00    -0.030 C 
ATOM     21  C   UNL A   1      36.227  31.013  29.788  1.00  0.00     0.034 C 
BRANCH   9  22
ATOM     22  N   UNL A   1      32.054  26.818  26.892  1.00  0.00    -0.322 N 
ATOM     23  O   UNL A   1      31.037  25.003  26.005  1.00  0.00    -0.269 OA
ATOM     24  C   UNL A   1      31.712  26.015  25.825  1.00  0.00     0.255 C 
ATOM     25  H   UNL A   1      31.861  26.439  27.780  1.00  0.00     0.170 HD
BRANCH  24  26
ATOM     26  C   UNL A   1      32.226  26.303  24.463  1.00  0.00     0.040 A 
ATOM     27  C   UNL A   1      31.526  27.132  23.575  1.00  0.00     0.014 A 
ATOM     28  C   UNL A   1      33.441  25.731  24.075  1.00  0.00     0.014 A 
ATOM     29  C   UNL A   1      31.999  27.313  22.275  1.00  0.00     0.001 A 
ATOM     30  C   UNL A   1      33.915  25.926  22.778  1.00  0.00     0.001 A 
ATOM     31  C   UNL A   1      33.186  26.703  21.875  1.00  0.00     0.000 A 
ENDBRANCH  24  26
ENDBRANCH   9  22
ENDBRANCH   6   8
ENDBRANCH   5   6
ENDBRANCH   4   5
ENDBRANCH   3   4
ENDBRANCH   2   3
ENDBRANCH   1   2
BRANCH   1  32
ATOM     32  C   UNL A   1      34.326  35.424  31.969  1.00  0.00     0.188 C 
BRANCH  32  33
ATOM     33  O   UNL A   1      35.195  34.323  31.739  1.00  0.00    -0.376 OA
BRANCH  33  34
ATOM     34  C   UNL A   1      35.055  33.214  32.635  1.00  0.00     0.202 C 
BRANCH  34  35
ATOM     35  C   UNL A   1      35.811  33.308  33.980  1.00  0.00     0.261 C 
BRANCH  35  36
ATOM     36  O   UNL A   1      37.251  33.230  33.886  1.00  0.00    -0.460 OA
BRANCH  36  37
ATOM     37  C   UNL A   1      37.852  32.134  34.406  1.00  0.00     0.338 C 
ATOM     38  O   UNL A   1      37.576  31.593  35.463  1.00  0.00    -0.246 OA
BRANCH  37  39
ATOM     39  C   UNL A   1      38.725  31.520  33.366  1.00  0.00     0.060 A 
ATOM     40  C   UNL A   1      39.529  30.435  33.746  1.00  0.00     0.016 A 
ATOM     41  C   UNL A   1      38.723  31.941  32.031  1.00  0.00     0.016 A 
ATOM     42  C   UNL A   1      40.380  29.823  32.822  1.00  0.00     0.010 A 
ATOM     43  C   UNL A   1      39.583  31.333  31.104  1.00  0.00     0.010 A 
ATOM     44  C   UNL A   1      40.454  30.305  31.508  1.00  0.00    -0.014 A 
BRANCH  44  45
ATOM     45  C   UNL A   1      41.611  29.903  30.659  1.00  0.00     0.031 A 
ATOM     46  C   UNL A   1      41.489  28.632  29.857  1.00  0.00     0.074 A 
ATOM     47  C   UNL A   1      42.714  30.663  30.531  1.00  0.00     0.049 A 
ATOM     48  N   UNL A   1      42.325  28.098  29.002  1.00  0.00    -0.248 NA
ATOM     49  C   UNL A   1      40.249  27.862  30.044  1.00  0.00     0.031 C 
ATOM     50  C   UNL A   1      42.957  31.931  31.214  1.00  0.00     0.029 A 
ATOM     51  N   UNL A   1      43.839  30.472  29.763  1.00  0.00    -0.354 N 
ATOM     52  C   UNL A   1      41.713  26.934  28.554  1.00  0.00     0.074 A 
ATOM     53  C   UNL A   1      40.456  26.817  29.260  1.00  0.00     0.031 C 
ATOM     54  C   UNL A   1      44.157  32.408  30.831  1.00  0.00     0.029 A 
ATOM     55  C   UNL A   1      44.775  31.470  29.891  1.00  0.00     0.049 A 
ATOM     56  H   UNL A   1      43.963  29.692  29.176  1.00  0.00     0.167 HD
ATOM     57  C   UNL A   1      42.147  26.046  27.628  1.00  0.00     0.037 A 
ATOM     58  C   UNL A   1      45.988  31.607  29.321  1.00  0.00     0.037 A 
ATOM     59  C   UNL A   1      43.394  26.149  26.918  1.00  0.00     0.049 A 
ATOM     60  C   UNL A   1      46.479  30.568  28.339  1.00  0.00     0.074 A 
ATOM     61  C   UNL A   1      43.907  25.305  25.950  1.00  0.00     0.029 A 
ATOM     62  N   UNL A   1      44.330  27.154  27.109  1.00  0.00    -0.354 N 
ATOM     63  N   UNL A   1      45.876  29.493  27.892  1.00  0.00    -0.248 NA
ATOM     64  C   UNL A   1      47.821  30.774  27.773  1.00  0.00     0.031 C 
ATOM     65  C   UNL A   1      45.180  25.766  25.596  1.00  0.00     0.029 A 
ATOM     66  C   UNL A   1      45.429  26.936  26.293  1.00  0.00     0.049 A 
ATOM     67  H   UNL A   1      44.228  27.911  27.731  1.00  0.00     0.167 HD
ATOM     68  C   UNL A   1      46.742  28.924  26.964  1.00  0.00     0.074 A 
ATOM     69  C   UNL A   1      47.908  29.777  26.905  1.00  0.00     0.031 C 
ATOM     70  C   UNL A   1      46.582  27.798  26.225  1.00  0.00     0.037 A 
BRANCH  57  71
ATOM     71  C   UNL A   1      41.269  24.858  27.352  1.00  0.00     0.064 A 
ATOM     72  C   UNL A   1      41.521  23.602  27.925  1.00  0.00     0.173 A 
ATOM     73  C   UNL A   1      40.150  24.986  26.516  1.00  0.00     0.173 A 
ATOM     74  F   UNL A   1      42.589  23.422  28.716  1.00  0.00    -0.203 F 
ATOM     75  C   UNL A   1      40.702  22.511  27.644  1.00  0.00     0.198 A 
ATOM     76  C   UNL A   1      39.315  23.902  26.265  1.00  0.00     0.198 A 
ATOM     77  F   UNL A   1      39.864  26.166  25.945  1.00  0.00    -0.203 F 
ATOM     78  F   UNL A   1      40.995  21.307  28.155  1.00  0.00    -0.200 F 
ATOM     79  C   UNL A   1      39.596  22.663  26.821  1.00  0.00     0.200 A 
ATOM     80  F   UNL A   1      38.239  24.055  25.480  1.00  0.00    -0.200 F 
ATOM     81  F   UNL A   1      38.806  21.614  26.556  1.00  0.00    -0.200 F 
ENDBRANCH  57  71
BRANCH  58  82
ATOM     82  C   UNL A   1      46.844  32.782  29.645  1.00  0.00     0.064 A 
ATOM     83  C   UNL A   1      47.712  32.767  30.746  1.00  0.00     0.173 A 
ATOM     84  C   UNL A   1      46.768  33.965  28.894  1.00  0.00     0.173 A 
ATOM     85  F   UNL A   1      47.795  31.672  31.517  1.00  0.00    -0.203 F 
ATOM     86  C   UNL A   1      48.451  33.895  31.099  1.00  0.00     0.198 A 
ATOM     87  C   UNL A   1      47.531  35.082  29.229  1.00  0.00     0.198 A 
ATOM     88  F   UNL A   1      45.946  34.037  27.837  1.00  0.00    -0.203 F 
ATOM     89  F   UNL A   1      49.225  33.871  32.193  1.00  0.00    -0.200 F 
ATOM     90  C   UNL A   1      48.364  35.050  30.337  1.00  0.00     0.200 A 
ATOM     91  F   UNL A   1      47.448  36.194  28.487  1.00  0.00    -0.200 F 
ATOM     92  F   UNL A   1      49.071  36.136  30.680  1.00  0.00    -0.200 F 
ENDBRANCH  58  82
BRANCH  70  93
ATOM     93  C   UNL A   1      47.663  27.454  25.235  1.00  0.00     0.064 A 
ATOM     94  C   UNL A   1      48.841  26.794  25.616  1.00  0.00     0.173 A 
ATOM     95  C   UNL A   1      47.505  27.775  23.877  1.00  0.00     0.173 A 
ATOM     96  F   UNL A   1      49.048  26.470  26.901  1.00  0.00    -0.203 F 
ATOM     97  C   UNL A   1      49.838  26.510  24.684  1.00  0.00     0.198 A 
ATOM     98  C   UNL A   1      48.487  27.456  22.942  1.00  0.00     0.198 A 
ATOM     99  F   UNL A   1      46.394  28.394  23.453  1.00  0.00    -0.203 F 
ATOM    100  F   UNL A   1      50.982  25.939  25.084  1.00  0.00    -0.200 F 
ATOM    101  C   UNL A   1      49.659  26.836  23.348  1.00  0.00     0.200 A 
ATOM    102  F   UNL A   1      48.303  27.756  21.649  1.00  0.00    -0.200 F 
ATOM    103  F   UNL A   1      50.618  26.563  22.454  1.00  0.00    -0.200 F 
ENDBRANCH  70  93
ENDBRANCH  44  45
ENDBRANCH  37  39
ENDBRANCH  36  37
ENDBRANCH  35  36
ENDBRANCH  34  35
ENDBRANCH  33  34
ENDBRANCH  32  33
ENDBRANCH   1  32
TORSDOF 19
ENDMDL
MODEL 2
REMARK VINA RESULT:     -10.8      5.711     11.498
REMARK SMILES O=C(Nc1ccc2c(c1)[C@@H]1C=CC[C@@H]1[C@H](C(=O)OCCOCCOCCOC(=O)c1ccc(-c3c4nc(c(-c5c(F)c(F)c(F)c(F)c5F)c5ccc([nH]5)c(-c5c(F)c(F)c(F)c(F)c5F)c5nc(c(-c6c(F)c(F)c(F)c(F)c6F)c6ccc3[nH]6)C=C5)C=C4)cc1)N2)c1ccccc1
REMARK SMILES IDX 22 1 21 2 20 3 19 4 18 5 16 6 17 7 15 8 4 9 5 10 9 11 6 12
REMARK SMILES IDX 8 13 7 14 10 15 93 16 11 17 14 18 12 20 13 21 3 22 1 23 2 24
REMARK SMILES IDX 94 26 95 27 99 28 96 29 98 30 97 31 23 32 24 33 25 34 26 35
REMARK SMILES IDX 27 36 28 37 29 38 30 39 31 40 92 41 32 42 91 43 33 44 34 45
REMARK SMILES IDX 35 46 85 47 36 48 90 49 84 50 86 51 37 52 89 53 83 54 82 55
REMARK SMILES IDX 38 57 70 58 50 59 69 60 51 61 54 62 68 63 87 64 52 65 53 66
REMARK SMILES IDX 67 68 88 69 55 70 39 71 40 72 48 73 41 74 42 75 46 76 49 77
REMARK SMILES IDX 43 78 44 79 47 80 45 81 71 82 72 83 80 84 73 85 74 86 78 87
REMARK SMILES IDX 81 88 75 89 76 90 79 91 77 92 56 93 57 94 65 95 58 96 59 97
REMARK SMILES IDX 63 98 66 99 60 100 61 101 64 102 62 103
REMARK H PARENT 93 19 3 25 86 56 54 67
REMARK Flexibility Score: inf
ROOT
ATOM      1  C   UNL A   1      40.190  21.635  26.912  1.00  0.00     0.188 C 
ENDROOT
BRANCH   1   2
ATOM      2  O   UNL A   1      39.135  22.292  26.221  1.00  0.00    -0.376 OA
BRANCH   2   3
ATOM      3  C   UNL A   1      38.210  21.466  25.516  1.00  0.00     0.202 C 
BRANCH   3   4
ATOM      4  C   UNL A   1      36.728  21.866  25.592  1.00  0.00     0.261 C 
BRANCH   4   5
ATOM      5  O   UNL A   1      35.971  21.558  24.404  1.00  0.00    -0.462 OA
BRANCH   5   6
ATOM      6  C   UNL A   1      34.807  20.898  24.623  1.00  0.00     0.328 C 
ATOM      7  O   UNL A   1      34.725  19.799  25.173  1.00  0.00    -0.250 OA
BRANCH   6   8
ATOM      8  C   UNL A   1      33.532  21.660  24.206  1.00  0.00     0.194 C 
ATOM      9  C   UNL A   1      31.627  26.000  22.229  1.00  0.00     0.041 A 
ATOM     10  C   UNL A   1      32.808  25.719  21.552  1.00  0.00     0.028 A 
ATOM     11  C   UNL A   1      31.135  25.086  23.170  1.00  0.00     0.032 A 
ATOM     12  C   UNL A   1      33.563  24.614  21.928  1.00  0.00     0.028 A 
ATOM     13  C   UNL A   1      31.899  23.973  23.566  1.00  0.00    -0.015 A 
ATOM     14  C   UNL A   1      33.131  23.753  22.943  1.00  0.00     0.039 A 
ATOM     15  C   UNL A   1      31.411  23.021  24.642  1.00  0.00     0.050 C 
ATOM     16  N   UNL A   1      33.975  22.753  23.353  1.00  0.00    -0.372 N 
ATOM     17  C   UNL A   1      30.922  23.720  25.885  1.00  0.00    -0.023 C 
ATOM     18  C   UNL A   1      32.518  22.112  25.252  1.00  0.00     0.038 C 
ATOM     19  H   UNL A   1      34.914  22.775  23.059  1.00  0.00     0.161 HD
ATOM     20  C   UNL A   1      31.810  23.648  26.883  1.00  0.00    -0.030 C 
ATOM     21  C   UNL A   1      33.031  22.880  26.477  1.00  0.00     0.034 C 
BRANCH   9  22
ATOM     22  N   UNL A   1      31.021  27.237  21.963  1.00  0.00    -0.322 N 
ATOM     23  O   UNL A   1      30.139  29.266  22.436  1.00  0.00    -0.269 OA
ATOM     24  C   UNL A   1      30.867  28.335  22.781  1.00  0.00     0.255 C 
ATOM     25  H   UNL A   1      30.650  27.335  21.055  1.00  0.00     0.170 HD
BRANCH  24  26
ATOM     26  C   UNL A   1      31.641  28.459  24.041  1.00  0.00     0.040 A 
ATOM     27  C   UNL A   1      32.956  28.944  24.049  1.00  0.00     0.014 A 
ATOM     28  C   UNL A   1      31.027  28.083  25.239  1.00  0.00     0.014 A 
ATOM     29  C   UNL A   1      33.680  28.968  25.241  1.00  0.00     0.001 A 
ATOM     30  C   UNL A   1      31.751  28.121  26.430  1.00  0.00     0.001 A 
ATOM     31  C   UNL A   1      33.081  28.548  26.428  1.00  0.00     0.000 A 
ENDBRANCH  24  26
ENDBRANCH   9  22
ENDBRANCH   6   8
ENDBRANCH   5   6
ENDBRANCH   4   5
ENDBRANCH   3   4
ENDBRANCH   2   3
ENDBRANCH   1   2
BRANCH   1  32
ATOM     32  C   UNL A   1      40.942  20.545  26.149  1.00  0.00     0.188 C 
BRANCH  32  33
ATOM     33  O   UNL A   1      42.201  20.164  26.686  1.00  0.00    -0.376 OA
BRANCH  33  34
ATOM     34  C   UNL A   1      43.289  20.104  25.756  1.00  0.00     0.202 C 
BRANCH  34  35
ATOM     35  C   UNL A   1      43.806  21.452  25.203  1.00  0.00     0.261 C 
BRANCH  35  36
ATOM     36  O   UNL A   1      43.985  22.495  26.187  1.00  0.00    -0.460 OA
BRANCH  36  37
ATOM     37  C   UNL A   1      43.829  23.774  25.775  1.00  0.00     0.338 C 
ATOM     38  O   UNL A   1      43.678  24.149  24.625  1.00  0.00    -0.246 OA
BRANCH  37  39
ATOM     39  C   UNL A   1      43.596  24.642  26.964  1.00  0.00     0.060 A 
ATOM     40  C   UNL A   1      42.793  24.133  27.997  1.00  0.00     0.016 A 
ATOM     41  C   UNL A   1      44.192  25.900  27.112  1.00  0.00     0.016 A 
ATOM     42  C   UNL A   1      42.525  24.901  29.132  1.00  0.00     0.010 A 
ATOM     43  C   UNL A   1      43.917  26.675  28.248  1.00  0.00     0.010 A 
ATOM     44  C   UNL A   1      43.040  26.200  29.241  1.00  0.00    -0.014 A 
BRANCH  44  45
ATOM     45  C   UNL A   1      42.450  27.125  30.249  1.00  0.00     0.031 A 
ATOM     46  C   UNL A   1      43.113  27.208  31.601  1.00  0.00     0.074 A 
ATOM     47  C   UNL A   1      41.408  27.929  29.974  1.00  0.00     0.049 A 
ATOM     48  N   UNL A   1      42.833  27.973  32.626  1.00  0.00    -0.248 NA
ATOM     49  C   UNL A   1      44.254  26.304  31.823  1.00  0.00     0.031 C 
ATOM     50  C   UNL A   1      40.690  27.985  28.703  1.00  0.00     0.029 A 
ATOM     51  N   UNL A   1      40.778  28.866  30.759  1.00  0.00    -0.354 N 
ATOM     52  C   UNL A   1      43.757  27.641  33.608  1.00  0.00     0.074 A 
ATOM     53  C   UNL A   1      44.581  26.579  33.075  1.00  0.00     0.031 C 
ATOM     54  C   UNL A   1      39.719  28.913  28.793  1.00  0.00     0.029 A 
ATOM     55  C   UNL A   1      39.733  29.503  30.133  1.00  0.00     0.049 A 
ATOM     56  H   UNL A   1      41.050  29.063  31.684  1.00  0.00     0.167 HD
ATOM     57  C   UNL A   1      43.921  28.179  34.841  1.00  0.00     0.037 A 
ATOM     58  C   UNL A   1      38.885  30.446  30.591  1.00  0.00     0.037 A 
ATOM     59  C   UNL A   1      43.111  29.236  35.385  1.00  0.00     0.049 A 
ATOM     60  C   UNL A   1      39.047  30.984  31.994  1.00  0.00     0.074 A 
ATOM     61  C   UNL A   1      43.215  29.854  36.618  1.00  0.00     0.029 A 
ATOM     62  N   UNL A   1      42.037  29.823  34.733  1.00  0.00    -0.354 N 
ATOM     63  N   UNL A   1      39.949  30.693  32.900  1.00  0.00    -0.248 NA
ATOM     64  C   UNL A   1      38.073  31.996  32.431  1.00  0.00     0.031 C 
ATOM     65  C   UNL A   1      42.169  30.775  36.737  1.00  0.00     0.029 A 
ATOM     66  C   UNL A   1      41.455  30.780  35.549  1.00  0.00     0.049 A 
ATOM     67  H   UNL A   1      41.734  29.594  33.825  1.00  0.00     0.167 HD
ATOM     68  C   UNL A   1      39.680  31.515  33.989  1.00  0.00     0.074 A 
ATOM     69  C   UNL A   1      38.536  32.323  33.629  1.00  0.00     0.031 C 
ATOM     70  C   UNL A   1      40.326  31.595  35.180  1.00  0.00     0.037 A 
BRANCH  57  71
ATOM     71  C   UNL A   1      45.010  27.604  35.702  1.00  0.00     0.064 A 
ATOM     72  C   UNL A   1      46.309  28.133  35.704  1.00  0.00     0.173 A 
ATOM     73  C   UNL A   1      44.742  26.519  36.549  1.00  0.00     0.173 A 
ATOM     74  F   UNL A   1      46.624  29.159  34.898  1.00  0.00    -0.203 F 
ATOM     75  C   UNL A   1      47.307  27.576  36.500  1.00  0.00     0.198 A 
ATOM     76  C   UNL A   1      45.732  25.986  37.367  1.00  0.00     0.198 A 
ATOM     77  F   UNL A   1      43.514  25.978  36.585  1.00  0.00    -0.203 F 
ATOM     78  F   UNL A   1      48.556  28.060  36.443  1.00  0.00    -0.200 F 
ATOM     79  C   UNL A   1      47.016  26.508  37.336  1.00  0.00     0.200 A 
ATOM     80  F   UNL A   1      45.445  24.963  38.185  1.00  0.00    -0.200 F 
ATOM     81  F   UNL A   1      47.976  25.976  38.105  1.00  0.00    -0.200 F 
ENDBRANCH  57  71
BRANCH  58  82
ATOM     82  C   UNL A   1      37.797  30.967  29.719  1.00  0.00     0.064 A 
ATOM     83  C   UNL A   1      37.849  32.264  29.189  1.00  0.00     0.173 A 
ATOM     84  C   UNL A   1      36.657  30.198  29.443  1.00  0.00     0.173 A 
ATOM     85  F   UNL A   1      38.903  33.052  29.451  1.00  0.00    -0.203 F 
ATOM     86  C   UNL A   1      36.793  32.781  28.440  1.00  0.00     0.198 A 
ATOM     87  C   UNL A   1      35.615  30.705  28.669  1.00  0.00     0.198 A 
ATOM     88  F   UNL A   1      36.551  28.955  29.934  1.00  0.00    -0.203 F 
ATOM     89  F   UNL A   1      36.843  34.046  28.000  1.00  0.00    -0.200 F 
ATOM     90  C   UNL A   1      35.679  31.999  28.176  1.00  0.00     0.200 A 
ATOM     91  F   UNL A   1      34.542  29.944  28.412  1.00  0.00    -0.200 F 
ATOM     92  F   UNL A   1      34.661  32.499  27.462  1.00  0.00    -0.200 F 
ENDBRANCH  58  82
BRANCH  70  93
ATOM     93  C   UNL A   1      39.856  32.637  36.160  1.00  0.00     0.064 A 
ATOM     94  C   UNL A   1      40.463  33.898  36.257  1.00  0.00     0.173 A 
ATOM     95  C   UNL A   1      38.765  32.371  37.004  1.00  0.00     0.173 A 
ATOM     96  F   UNL A   1      41.513  34.203  35.482  1.00  0.00    -0.203 F 
ATOM     97  C   UNL A   1      40.025  34.835  37.191  1.00  0.00     0.198 A 
ATOM     98  C   UNL A   1      38.306  33.323  37.910  1.00  0.00     0.198 A 
ATOM     99  F   UNL A   1      38.137  31.187  36.945  1.00  0.00    -0.203 F 
ATOM    100  F   UNL A   1      40.663  36.007  37.311  1.00  0.00    -0.200 F 
ATOM    101  C   UNL A   1      38.945  34.550  38.013  1.00  0.00     0.200 A 
ATOM    102  F   UNL A   1      37.251  33.052  38.689  1.00  0.00    -0.200 F 
ATOM    103  F   UNL A   1      38.525  35.451  38.910  1.00  0.00    -0.200 F 
ENDBRANCH  70  93
ENDBRANCH  44  45
ENDBRANCH  37  39
ENDBRANCH  36  37
ENDBRANCH  35  36
ENDBRANCH  34  35
ENDBRANCH  33  34
ENDBRANCH  32  33
ENDBRANCH   1  32
TORSDOF 19
ENDMDL
MODEL 3
REMARK VINA RESULT:     -10.8      5.673     10.996
REMARK SMILES O=C(Nc1ccc2c(c1)[C@@H]1C=CC[C@@H]1[C@H](C(=O)OCCOCCOCCOC(=O)c1ccc(-c3c4nc(c(-c5c(F)c(F)c(F)c(F)c5F)c5ccc([nH]5)c(-c5c(F)c(F)c(F)c(F)c5F)c5nc(c(-c6c(F)c(F)c(F)c(F)c6F)c6ccc3[nH]6)C=C5)C=C4)cc1)N2)c1ccccc1
REMARK SMILES IDX 22 1 21 2 20 3 19 4 18 5 16 6 17 7 15 8 4 9 5 10 9 11 6 12
REMARK SMILES IDX 8 13 7 14 10 15 93 16 11 17 14 18 12 20 13 21 3 22 1 23 2 24
REMARK SMILES IDX 94 26 95 27 99 28 96 29 98 30 97 31 23 32 24 33 25 34 26 35
REMARK SMILES IDX 27 36 28 37 29 38 30 39 31 40 92 41 32 42 91 43 33 44 34 45
REMARK SMILES IDX 35 46 85 47 36 48 90 49 84 50 86 51 37 52 89 53 83 54 82 55
REMARK SMILES IDX 38 57 70 58 50 59 69 60 51 61 54 62 68 63 87 64 52 65 53 66
REMARK SMILES IDX 67 68 88 69 55 70 39 71 40 72 48 73 41 74 42 75 46 76 49 77
REMARK SMILES IDX 43 78 44 79 47 80 45 81 71 82 72 83 80 84 73 85 74 86 78 87
REMARK SMILES IDX 81 88 75 89 76 90 79 91 77 92 56 93 57 94 65 95 58 96 59 97
REMARK SMILES IDX 63 98 66 99 60 100 61 101 64 102 62 103
REMARK H PARENT 93 19 3 25 86 56 54 67
REMARK Flexibility Score: inf
ROOT
ATOM      1  C   UNL A   1      40.385  20.398  26.118  1.00  0.00     0.188 C 
ENDROOT
BRANCH   1   2
ATOM      2  O   UNL A   1      39.713  19.205  25.734  1.00  0.00    -0.376 OA
BRANCH   2   3
ATOM      3  C   UNL A   1      38.434  19.352  25.119  1.00  0.00     0.202 C 
BRANCH   3   4
ATOM      4  C   UNL A   1      37.843  20.770  25.085  1.00  0.00     0.261 C 
BRANCH   4   5
ATOM      5  O   UNL A   1      36.423  20.813  24.839  1.00  0.00    -0.462 OA
BRANCH   5   6
ATOM      6  C   UNL A   1      35.805  21.948  25.251  1.00  0.00     0.328 C 
ATOM      7  O   UNL A   1      36.248  22.704  26.117  1.00  0.00    -0.250 OA
BRANCH   6   8
ATOM      8  C   UNL A   1      34.509  22.302  24.494  1.00  0.00     0.194 C 
ATOM      9  C   UNL A   1      31.712  26.052  22.375  1.00  0.00     0.041 A 
ATOM     10  C   UNL A   1      33.048  26.336  22.118  1.00  0.00     0.028 A 
ATOM     11  C   UNL A   1      31.370  24.850  23.007  1.00  0.00     0.032 A 
ATOM     12  C   UNL A   1      34.033  25.499  22.630  1.00  0.00     0.028 A 
ATOM     13  C   UNL A   1      32.359  24.005  23.540  1.00  0.00    -0.015 A 
ATOM     14  C   UNL A   1      33.702  24.351  23.358  1.00  0.00     0.039 A 
ATOM     15  C   UNL A   1      31.997  22.741  24.299  1.00  0.00     0.050 C 
ATOM     16  N   UNL A   1      34.714  23.634  23.942  1.00  0.00    -0.372 N 
ATOM     17  C   UNL A   1      30.945  22.957  25.357  1.00  0.00    -0.023 C 
ATOM     18  C   UNL A   1      33.149  22.154  25.167  1.00  0.00     0.038 C 
ATOM     19  H   UNL A   1      35.613  24.034  23.988  1.00  0.00     0.161 HD
ATOM     20  C   UNL A   1      31.469  22.983  26.587  1.00  0.00    -0.030 C 
ATOM     21  C   UNL A   1      32.954  22.777  26.556  1.00  0.00     0.034 C 
BRANCH   9  22
ATOM     22  N   UNL A   1      30.774  27.037  22.027  1.00  0.00    -0.322 N 
ATOM     23  O   UNL A   1      29.233  28.655  22.375  1.00  0.00    -0.269 OA
ATOM     24  C   UNL A   1      30.175  27.997  22.813  1.00  0.00     0.255 C 
ATOM     25  H   UNL A   1      30.506  27.043  21.080  1.00  0.00     0.170 HD
BRANCH  24  26
ATOM     26  C   UNL A   1      30.708  28.316  24.161  1.00  0.00     0.040 A 
ATOM     27  C   UNL A   1      31.149  29.607  24.489  1.00  0.00     0.014 A 
ATOM     28  C   UNL A   1      30.758  27.297  25.116  1.00  0.00     0.014 A 
ATOM     29  C   UNL A   1      31.719  29.849  25.738  1.00  0.00     0.001 A 
ATOM     30  C   UNL A   1      31.318  27.549  26.368  1.00  0.00     0.001 A 
ATOM     31  C   UNL A   1      31.813  28.819  26.672  1.00  0.00     0.000 A 
ENDBRANCH  24  26
ENDBRANCH   9  22
ENDBRANCH   6   8
ENDBRANCH   5   6
ENDBRANCH   4   5
ENDBRANCH   3   4
ENDBRANCH   2   3
ENDBRANCH   1   2
BRANCH   1  32
ATOM     32  C   UNL A   1      41.864  20.271  26.481  1.00  0.00     0.188 C 
BRANCH  32  33
ATOM     33  O   UNL A   1      42.782  20.374  25.401  1.00  0.00    -0.376 OA
BRANCH  33  34
ATOM     34  C   UNL A   1      43.656  21.510  25.425  1.00  0.00     0.202 C 
BRANCH  34  35
ATOM     35  C   UNL A   1      43.045  22.865  25.002  1.00  0.00     0.261 C 
BRANCH  35  36
ATOM     36  O   UNL A   1      43.965  23.979  24.985  1.00  0.00    -0.460 OA
BRANCH  36  37
ATOM     37  C   UNL A   1      44.717  24.185  26.092  1.00  0.00     0.338 C 
ATOM     38  O   UNL A   1      45.895  23.901  26.227  1.00  0.00    -0.246 OA
BRANCH  37  39
ATOM     39  C   UNL A   1      43.963  25.059  27.034  1.00  0.00     0.060 A 
ATOM     40  C   UNL A   1      44.241  26.434  27.013  1.00  0.00     0.016 A 
ATOM     41  C   UNL A   1      42.961  24.572  27.881  1.00  0.00     0.016 A 
ATOM     42  C   UNL A   1      43.579  27.306  27.881  1.00  0.00     0.010 A 
ATOM     43  C   UNL A   1      42.301  25.445  28.759  1.00  0.00     0.010 A 
ATOM     44  C   UNL A   1      42.644  26.809  28.800  1.00  0.00    -0.014 A 
BRANCH  44  45
ATOM     45  C   UNL A   1      42.238  27.668  29.947  1.00  0.00     0.031 A 
ATOM     46  C   UNL A   1      40.976  28.481  29.807  1.00  0.00     0.074 A 
ATOM     47  C   UNL A   1      42.910  27.686  31.112  1.00  0.00     0.049 A 
ATOM     48  N   UNL A   1      40.378  29.257  30.676  1.00  0.00    -0.248 NA
ATOM     49  C   UNL A   1      40.292  28.401  28.506  1.00  0.00     0.031 C 
ATOM     50  C   UNL A   1      44.123  26.927  31.407  1.00  0.00     0.029 A 
ATOM     51  N   UNL A   1      42.650  28.371  32.276  1.00  0.00    -0.354 N 
ATOM     52  C   UNL A   1      39.256  29.755  30.027  1.00  0.00     0.074 A 
ATOM     53  C   UNL A   1      39.275  29.228  28.680  1.00  0.00     0.031 C 
ATOM     54  C   UNL A   1      44.501  27.186  32.673  1.00  0.00     0.029 A 
ATOM     55  C   UNL A   1      43.569  28.143  33.272  1.00  0.00     0.049 A 
ATOM     56  H   UNL A   1      41.877  28.971  32.386  1.00  0.00     0.167 HD
ATOM     57  C   UNL A   1      38.283  30.567  30.508  1.00  0.00     0.037 A 
ATOM     58  C   UNL A   1      43.650  28.650  34.519  1.00  0.00     0.037 A 
ATOM     59  C   UNL A   1      38.250  31.098  31.844  1.00  0.00     0.049 A 
ATOM     60  C   UNL A   1      42.588  29.607  35.010  1.00  0.00     0.074 A 
ATOM     61  C   UNL A   1      37.296  31.915  32.424  1.00  0.00     0.029 A 
ATOM     62  N   UNL A   1      39.223  30.875  32.807  1.00  0.00    -0.354 N 
ATOM     63  N   UNL A   1      41.510  30.039  34.404  1.00  0.00    -0.248 NA
ATOM     64  C   UNL A   1      42.753  30.135  36.374  1.00  0.00     0.031 C 
ATOM     65  C   UNL A   1      37.719  32.234  33.718  1.00  0.00     0.029 A 
ATOM     66  C   UNL A   1      38.903  31.559  33.969  1.00  0.00     0.049 A 
ATOM     67  H   UNL A   1      40.021  30.312  32.684  1.00  0.00     0.167 HD
ATOM     68  C   UNL A   1      40.849  30.849  35.322  1.00  0.00     0.074 A 
ATOM     69  C   UNL A   1      41.643  30.840  36.531  1.00  0.00     0.031 C 
ATOM     70  C   UNL A   1      39.687  31.534  35.177  1.00  0.00     0.037 A 
BRANCH  57  71
ATOM     71  C   UNL A   1      37.184  30.957  29.561  1.00  0.00     0.064 A 
ATOM     72  C   UNL A   1      37.128  32.230  28.976  1.00  0.00     0.173 A 
ATOM     73  C   UNL A   1      36.183  30.034  29.223  1.00  0.00     0.173 A 
ATOM     74  F   UNL A   1      38.050  33.156  29.280  1.00  0.00    -0.203 F 
ATOM     75  C   UNL A   1      36.091  32.575  28.112  1.00  0.00     0.198 A 
ATOM     76  C   UNL A   1      35.168  30.371  28.333  1.00  0.00     0.198 A 
ATOM     77  F   UNL A   1      36.192  28.802  29.754  1.00  0.00    -0.203 F 
ATOM     78  F   UNL A   1      36.025  33.816  27.609  1.00  0.00    -0.200 F 
ATOM     79  C   UNL A   1      35.117  31.643  27.785  1.00  0.00     0.200 A 
ATOM     80  F   UNL A   1      34.235  29.464  28.010  1.00  0.00    -0.200 F 
ATOM     81  F   UNL A   1      34.123  31.975  26.950  1.00  0.00    -0.200 F 
ENDBRANCH  57  71
BRANCH  58  82
ATOM     82  C   UNL A   1      44.774  28.266  35.416  1.00  0.00     0.064 A 
ATOM     83  C   UNL A   1      44.686  27.142  36.249  1.00  0.00     0.173 A 
ATOM     84  C   UNL A   1      45.936  29.047  35.499  1.00  0.00     0.173 A 
ATOM     85  F   UNL A   1      43.581  26.381  36.233  1.00  0.00    -0.203 F 
ATOM     86  C   UNL A   1      45.704  26.828  37.149  1.00  0.00     0.198 A 
ATOM     87  C   UNL A   1      46.967  28.716  36.376  1.00  0.00     0.198 A 
ATOM     88  F   UNL A   1      46.068  30.139  34.732  1.00  0.00    -0.203 F 
ATOM     89  F   UNL A   1      45.566  25.784  37.978  1.00  0.00    -0.200 F 
ATOM     90  C   UNL A   1      46.846  27.613  37.208  1.00  0.00     0.200 A 
ATOM     91  F   UNL A   1      48.071  29.473  36.427  1.00  0.00    -0.200 F 
ATOM     92  F   UNL A   1      47.822  27.315  38.077  1.00  0.00    -0.200 F 
ENDBRANCH  58  82
BRANCH  70  93
ATOM     93  C   UNL A   1      39.164  32.281  36.375  1.00  0.00     0.064 A 
ATOM     94  C   UNL A   1      39.574  33.587  36.679  1.00  0.00     0.173 A 
ATOM     95  C   UNL A   1      38.218  31.680  37.223  1.00  0.00     0.173 A 
ATOM     96  F   UNL A   1      40.480  34.206  35.908  1.00  0.00    -0.203 F 
ATOM     97  C   UNL A   1      39.093  34.246  37.809  1.00  0.00     0.198 A 
ATOM     98  C   UNL A   1      37.711  32.356  38.331  1.00  0.00     0.198 A 
ATOM     99  F   UNL A   1      37.779  30.437  36.975  1.00  0.00    -0.203 F 
ATOM    100  F   UNL A   1      39.551  35.468  38.114  1.00  0.00    -0.200 F 
ATOM    101  C   UNL A   1      38.159  33.633  38.630  1.00  0.00     0.200 A 
ATOM    102  F   UNL A   1      36.796  31.768  39.112  1.00  0.00    -0.200 F 
ATOM    103  F   UNL A   1      37.699  34.268  39.716  1.00  0.00    -0.200 F 
ENDBRANCH  70  93
ENDBRANCH  44  45
ENDBRANCH  37  39
ENDBRANCH  36  37
ENDBRANCH  35  36
ENDBRANCH  34  35
ENDBRANCH  33  34
ENDBRANCH  32  33
ENDBRANCH   1  32
TORSDOF 19
ENDMDL
