MODEL 1
REMARK VINA RESULT:     -10.7      0.000      0.000
REMARK SMILES C[C@@H]1CN(c2ccc(N)cc2C(=O)OCCOCCOCCOC(=O)c2ccc(-c3c4nc(c(-c5c(F)c(F)c(F)c(F)c5F)c5ccc([nH]5)c(-c5c(F)c(F)c(F)c(F)c5F)c5nc(c(-c6c(F)c(F)c(F)c(F)c6F)c6ccc3[nH]6)C=C5)C=C4)cc2)C[C@H]1C
REMARK SMILES IDX 19 1 18 2 17 3 16 4 15 5 14 6 12 7 13 8 11 9 5 10 6 11 7 12
REMARK SMILES IDX 10 13 8 14 4 15 1 16 2 17 3 18 90 19 89 20 91 21 9 22 20 25
REMARK SMILES IDX 21 26 22 27 23 28 24 29 25 30 26 31 27 32 88 33 28 34 87 35
REMARK SMILES IDX 29 36 30 37 31 38 81 39 32 40 86 41 80 42 82 43 33 44 85 45
REMARK SMILES IDX 79 46 78 47 34 49 66 50 46 51 65 52 47 53 50 54 64 55 83 56
REMARK SMILES IDX 48 57 49 58 63 60 84 61 51 62 35 63 36 64 44 65 37 66 38 67
REMARK SMILES IDX 42 68 45 69 39 70 40 71 43 72 41 73 67 74 68 75 76 76 69 77
REMARK SMILES IDX 70 78 74 79 77 80 71 81 72 82 75 83 73 84 52 85 53 86 61 87
REMARK SMILES IDX 54 88 55 89 59 90 62 91 56 92 57 93 60 94 58 95
REMARK H PARENT 9 23 9 24 82 48 50 59
REMARK Flexibility Score: inf
ROOT
ATOM      1  C   UNL A   1      34.638  21.669  24.737  1.00  0.00     0.188 C 
ENDROOT
BRANCH   1   2
ATOM      2  C   UNL A   1      35.065  23.153  24.681  1.00  0.00     0.188 C 
BRANCH   2   3
ATOM      3  O   UNL A   1      34.139  24.166  25.048  1.00  0.00    -0.376 OA
BRANCH   3   4
ATOM      4  C   UNL A   1      33.535  24.108  26.337  1.00  0.00     0.202 C 
BRANCH   4   5
ATOM      5  C   UNL A   1      32.036  24.393  26.490  1.00  0.00     0.261 C 
BRANCH   5   6
ATOM      6  O   UNL A   1      31.322  24.336  25.246  1.00  0.00    -0.460 OA
BRANCH   6   7
ATOM      7  C   UNL A   1      30.847  25.512  24.765  1.00  0.00     0.340 C 
ATOM      8  O   UNL A   1      29.864  26.111  25.176  1.00  0.00    -0.246 OA
BRANCH   7   9
ATOM      9  C   UNL A   1      31.798  26.114  23.800  1.00  0.00     0.085 A 
ATOM     10  C   UNL A   1      32.645  27.212  24.056  1.00  0.00     0.051 A 
ATOM     11  C   UNL A   1      33.415  27.659  22.961  1.00  0.00     0.029 A 
ATOM     12  C   UNL A   1      33.331  27.087  21.685  1.00  0.00     0.027 A 
ATOM     13  C   UNL A   1      31.713  25.548  22.504  1.00  0.00     0.043 A 
ATOM     14  C   UNL A   1      32.482  26.018  21.444  1.00  0.00     0.032 A 
BRANCH  10  15
ATOM     15  N   UNL A   1      32.761  27.904  25.242  1.00  0.00    -0.370 N 
ATOM     16  C   UNL A   1      35.238  29.325  27.605  1.00  0.00     0.010 C 
ATOM     17  C   UNL A   1      33.877  28.863  27.107  1.00  0.00     0.010 C 
ATOM     18  C   UNL A   1      33.977  27.745  26.057  1.00  0.00     0.120 C 
ATOM     19  C   UNL A   1      33.084  29.940  26.355  1.00  0.00     0.010 C 
ATOM     20  C   UNL A   1      32.020  29.094  25.642  1.00  0.00     0.120 C 
ATOM     21  C   UNL A   1      32.482  31.018  27.237  1.00  0.00     0.010 C 
ENDBRANCH  10  15
BRANCH  14  22
ATOM     22  N   UNL A   1      32.289  25.541  20.158  1.00  0.00    -0.399 N 
ATOM     23  H   UNL A   1      31.416  25.168  19.899  1.00  0.00     0.156 HD
ATOM     24  H   UNL A   1      33.024  25.576  19.504  1.00  0.00     0.156 HD
ENDBRANCH  14  22
ENDBRANCH   7   9
ENDBRANCH   6   7
ENDBRANCH   5   6
ENDBRANCH   4   5
ENDBRANCH   3   4
ENDBRANCH   2   3
ENDBRANCH   1   2
BRANCH   1  25
ATOM     25  O   UNL A   1      35.400  20.817  25.557  1.00  0.00    -0.376 OA
BRANCH  25  26
ATOM     26  C   UNL A   1      36.279  19.859  24.993  1.00  0.00     0.202 C 
BRANCH  26  27
ATOM     27  C   UNL A   1      37.820  19.914  25.003  1.00  0.00     0.261 C 
BRANCH  27  28
ATOM     28  O   UNL A   1      38.459  21.138  25.365  1.00  0.00    -0.460 OA
BRANCH  28  29
ATOM     29  C   UNL A   1      39.543  21.020  26.171  1.00  0.00     0.338 C 
ATOM     30  O   UNL A   1      40.228  20.032  26.357  1.00  0.00    -0.246 OA
BRANCH  29  31
ATOM     31  C   UNL A   1      39.889  22.360  26.681  1.00  0.00     0.060 A 
ATOM     32  C   UNL A   1      39.213  23.474  26.166  1.00  0.00     0.016 A 
ATOM     33  C   UNL A   1      40.882  22.512  27.649  1.00  0.00     0.016 A 
ATOM     34  C   UNL A   1      39.547  24.754  26.606  1.00  0.00     0.010 A 
ATOM     35  C   UNL A   1      41.230  23.798  28.071  1.00  0.00     0.010 A 
ATOM     36  C   UNL A   1      40.584  24.925  27.531  1.00  0.00    -0.014 A 
BRANCH  36  37
ATOM     37  C   UNL A   1      41.122  26.280  27.802  1.00  0.00     0.031 A 
ATOM     38  C   UNL A   1      42.546  26.575  27.421  1.00  0.00     0.074 A 
ATOM     39  C   UNL A   1      40.364  27.234  28.369  1.00  0.00     0.049 A 
ATOM     40  N   UNL A   1      43.253  27.659  27.608  1.00  0.00    -0.248 NA
ATOM     41  C   UNL A   1      43.269  25.493  26.736  1.00  0.00     0.031 C 
ATOM     42  C   UNL A   1      38.959  27.087  28.739  1.00  0.00     0.029 A 
ATOM     43  N   UNL A   1      40.682  28.516  28.739  1.00  0.00    -0.354 N 
ATOM     44  C   UNL A   1      44.504  27.389  27.069  1.00  0.00     0.074 A 
ATOM     45  C   UNL A   1      44.471  26.025  26.586  1.00  0.00     0.031 C 
ATOM     46  C   UNL A   1      38.534  28.239  29.289  1.00  0.00     0.029 A 
ATOM     47  C   UNL A   1      39.647  29.186  29.342  1.00  0.00     0.049 A 
ATOM     48  H   UNL A   1      41.568  28.918  28.585  1.00  0.00     0.167 HD
ATOM     49  C   UNL A   1      45.580  28.207  26.975  1.00  0.00     0.037 A 
ATOM     50  C   UNL A   1      39.614  30.417  29.891  1.00  0.00     0.037 A 
ATOM     51  C   UNL A   1      45.616  29.555  27.475  1.00  0.00     0.049 A 
ATOM     52  C   UNL A   1      40.860  31.269  29.876  1.00  0.00     0.074 A 
ATOM     53  C   UNL A   1      46.655  30.468  27.428  1.00  0.00     0.029 A 
ATOM     54  N   UNL A   1      44.565  30.182  28.132  1.00  0.00    -0.354 N 
ATOM     55  N   UNL A   1      42.032  31.019  29.344  1.00  0.00    -0.248 NA
ATOM     56  C   UNL A   1      40.771  32.577  30.541  1.00  0.00     0.031 C 
ATOM     57  C   UNL A   1      46.255  31.623  28.109  1.00  0.00     0.029 A 
ATOM     58  C   UNL A   1      44.943  31.457  28.522  1.00  0.00     0.049 A 
ATOM     59  H   UNL A   1      43.683  29.779  28.295  1.00  0.00     0.167 HD
ATOM     60  C   UNL A   1      42.807  32.150  29.577  1.00  0.00     0.074 A 
ATOM     61  C   UNL A   1      41.967  33.090  30.290  1.00  0.00     0.031 C 
ATOM     62  C   UNL A   1      44.095  32.389  29.225  1.00  0.00     0.037 A 
BRANCH  49  63
ATOM     63  C   UNL A   1      46.815  27.639  26.335  1.00  0.00     0.064 A 
ATOM     64  C   UNL A   1      47.008  27.665  24.945  1.00  0.00     0.173 A 
ATOM     65  C   UNL A   1      47.818  27.053  27.123  1.00  0.00     0.173 A 
ATOM     66  F   UNL A   1      46.074  28.201  24.144  1.00  0.00    -0.203 F 
ATOM     67  C   UNL A   1      48.133  27.085  24.365  1.00  0.00     0.198 A 
ATOM     68  C   UNL A   1      48.959  26.505  26.542  1.00  0.00     0.198 A 
ATOM     69  F   UNL A   1      47.691  27.005  28.457  1.00  0.00    -0.203 F 
ATOM     70  F   UNL A   1      48.259  27.059  23.030  1.00  0.00    -0.200 F 
ATOM     71  C   UNL A   1      49.109  26.509  25.163  1.00  0.00     0.200 A 
ATOM     72  F   UNL A   1      49.909  25.964  27.317  1.00  0.00    -0.200 F 
ATOM     73  F   UNL A   1      50.190  25.948  24.604  1.00  0.00    -0.200 F 
ENDBRANCH  49  63
BRANCH  50  74
ATOM     74  C   UNL A   1      38.356  30.928  30.495  1.00  0.00     0.064 A 
ATOM     75  C   UNL A   1      37.360  31.505  29.694  1.00  0.00     0.173 A 
ATOM     76  C   UNL A   1      38.128  30.870  31.877  1.00  0.00     0.173 A 
ATOM     77  F   UNL A   1      37.545  31.610  28.369  1.00  0.00    -0.203 F 
ATOM     78  C   UNL A   1      36.191  32.016  30.254  1.00  0.00     0.198 A 
ATOM     79  C   UNL A   1      36.946  31.354  32.434  1.00  0.00     0.198 A 
ATOM     80  F   UNL A   1      39.052  30.335  32.688  1.00  0.00    -0.203 F 
ATOM     81  F   UNL A   1      35.276  32.602  29.469  1.00  0.00    -0.200 F 
ATOM     82  C   UNL A   1      35.982  31.934  31.622  1.00  0.00     0.200 A 
ATOM     83  F   UNL A   1      36.743  31.267  33.754  1.00  0.00    -0.200 F 
ATOM     84  F   UNL A   1      34.855  32.421  32.159  1.00  0.00    -0.200 F 
ENDBRANCH  50  74
BRANCH  62  85
ATOM     85  C   UNL A   1      44.668  33.739  29.561  1.00  0.00     0.064 A 
ATOM     86  C   UNL A   1      44.538  34.836  28.696  1.00  0.00     0.173 A 
ATOM     87  C   UNL A   1      45.321  33.947  30.786  1.00  0.00     0.173 A 
ATOM     88  F   UNL A   1      43.934  34.691  27.507  1.00  0.00    -0.203 F 
ATOM     89  C   UNL A   1      45.066  36.081  29.033  1.00  0.00     0.198 A 
ATOM     90  C   UNL A   1      45.816  35.200  31.135  1.00  0.00     0.198 A 
ATOM     91  F   UNL A   1      45.466  32.934  31.655  1.00  0.00    -0.203 F 
ATOM     92  F   UNL A   1      44.976  37.101  28.168  1.00  0.00    -0.200 F 
ATOM     93  C   UNL A   1      45.696  36.264  30.255  1.00  0.00     0.200 A 
ATOM     94  F   UNL A   1      46.410  35.377  32.323  1.00  0.00    -0.200 F 
ATOM     95  F   UNL A   1      46.195  37.464  30.581  1.00  0.00    -0.200 F 
ENDBRANCH  62  85
ENDBRANCH  36  37
ENDBRANCH  29  31
ENDBRANCH  28  29
ENDBRANCH  27  28
ENDBRANCH  26  27
ENDBRANCH  25  26
ENDBRANCH   1  25
TORSDOF 19
ENDMDL
MODEL 2
REMARK VINA RESULT:     -10.6      1.339      7.626
REMARK SMILES C[C@@H]1CN(c2ccc(N)cc2C(=O)OCCOCCOCCOC(=O)c2ccc(-c3c4nc(c(-c5c(F)c(F)c(F)c(F)c5F)c5ccc([nH]5)c(-c5c(F)c(F)c(F)c(F)c5F)c5nc(c(-c6c(F)c(F)c(F)c(F)c6F)c6ccc3[nH]6)C=C5)C=C4)cc2)C[C@H]1C
REMARK SMILES IDX 19 1 18 2 17 3 16 4 15 5 14 6 12 7 13 8 11 9 5 10 6 11 7 12
REMARK SMILES IDX 10 13 8 14 4 15 1 16 2 17 3 18 90 19 89 20 91 21 9 22 20 25
REMARK SMILES IDX 21 26 22 27 23 28 24 29 25 30 26 31 27 32 88 33 28 34 87 35
REMARK SMILES IDX 29 36 30 37 31 38 81 39 32 40 86 41 80 42 82 43 33 44 85 45
REMARK SMILES IDX 79 46 78 47 34 49 66 50 46 51 65 52 47 53 50 54 64 55 83 56
REMARK SMILES IDX 48 57 49 58 63 60 84 61 51 62 35 63 36 64 44 65 37 66 38 67
REMARK SMILES IDX 42 68 45 69 39 70 40 71 43 72 41 73 67 74 68 75 76 76 69 77
REMARK SMILES IDX 70 78 74 79 77 80 71 81 72 82 75 83 73 84 52 85 53 86 61 87
REMARK SMILES IDX 54 88 55 89 59 90 62 91 56 92 57 93 60 94 58 95
REMARK H PARENT 9 23 9 24 82 48 50 59
REMARK Flexibility Score: inf
ROOT
ATOM      1  C   UNL A   1      34.368  22.040  23.732  1.00  0.00     0.188 C 
ENDROOT
BRANCH   1   2
ATOM      2  C   UNL A   1      34.584  23.503  23.286  1.00  0.00     0.188 C 
BRANCH   2   3
ATOM      3  O   UNL A   1      33.666  24.108  22.386  1.00  0.00    -0.376 OA
BRANCH   3   4
ATOM      4  C   UNL A   1      33.524  25.525  22.402  1.00  0.00     0.202 C 
BRANCH   4   5
ATOM      5  C   UNL A   1      32.156  26.157  22.116  1.00  0.00     0.261 C 
BRANCH   5   6
ATOM      6  O   UNL A   1      32.031  27.489  22.636  1.00  0.00    -0.460 OA
BRANCH   6   7
ATOM      7  C   UNL A   1      30.943  27.739  23.407  1.00  0.00     0.340 C 
ATOM      8  O   UNL A   1      29.781  27.506  23.107  1.00  0.00    -0.246 OA
BRANCH   7   9
ATOM      9  C   UNL A   1      31.344  28.141  24.777  1.00  0.00     0.085 A 
ATOM     10  C   UNL A   1      31.588  27.264  25.853  1.00  0.00     0.051 A 
ATOM     11  C   UNL A   1      31.887  27.878  27.088  1.00  0.00     0.029 A 
ATOM     12  C   UNL A   1      31.910  29.268  27.263  1.00  0.00     0.027 A 
ATOM     13  C   UNL A   1      31.359  29.545  24.965  1.00  0.00     0.043 A 
ATOM     14  C   UNL A   1      31.652  30.119  26.199  1.00  0.00     0.032 A 
BRANCH  10  15
ATOM     15  N   UNL A   1      31.523  25.887  25.825  1.00  0.00    -0.370 N 
ATOM     16  C   UNL A   1      33.090  22.826  27.207  1.00  0.00     0.010 C 
ATOM     17  C   UNL A   1      32.215  23.662  26.287  1.00  0.00     0.010 C 
ATOM     18  C   UNL A   1      32.732  25.100  26.119  1.00  0.00     0.120 C 
ATOM     19  C   UNL A   1      30.791  23.892  26.810  1.00  0.00     0.010 C 
ATOM     20  C   UNL A   1      30.327  25.060  25.930  1.00  0.00     0.120 C 
ATOM     21  C   UNL A   1      29.876  22.685  26.713  1.00  0.00     0.010 C 
ENDBRANCH  10  15
BRANCH  14  22
ATOM     22  N   UNL A   1      31.533  31.484  26.395  1.00  0.00    -0.399 N 
ATOM     23  H   UNL A   1      30.949  32.016  25.807  1.00  0.00     0.156 HD
ATOM     24  H   UNL A   1      32.030  31.923  27.123  1.00  0.00     0.156 HD
ENDBRANCH  14  22
ENDBRANCH   7   9
ENDBRANCH   6   7
ENDBRANCH   5   6
ENDBRANCH   4   5
ENDBRANCH   3   4
ENDBRANCH   2   3
ENDBRANCH   1   2
BRANCH   1  25
ATOM     25  O   UNL A   1      35.068  21.611  24.875  1.00  0.00    -0.376 OA
BRANCH  25  26
ATOM     26  C   UNL A   1      35.861  20.438  24.845  1.00  0.00     0.202 C 
BRANCH  26  27
ATOM     27  C   UNL A   1      37.386  20.358  25.058  1.00  0.00     0.261 C 
BRANCH  27  28
ATOM     28  O   UNL A   1      38.056  21.477  25.639  1.00  0.00    -0.460 OA
BRANCH  28  29
ATOM     29  C   UNL A   1      39.268  21.218  26.189  1.00  0.00     0.338 C 
ATOM     30  O   UNL A   1      39.884  20.169  26.172  1.00  0.00    -0.246 OA
BRANCH  29  31
ATOM     31  C   UNL A   1      39.832  22.487  26.685  1.00  0.00     0.060 A 
ATOM     32  C   UNL A   1      39.304  23.694  26.208  1.00  0.00     0.016 A 
ATOM     33  C   UNL A   1      40.883  22.482  27.602  1.00  0.00     0.016 A 
ATOM     34  C   UNL A   1      39.844  24.907  26.634  1.00  0.00     0.010 A 
ATOM     35  C   UNL A   1      41.438  23.697  28.011  1.00  0.00     0.010 A 
ATOM     36  C   UNL A   1      40.939  24.913  27.507  1.00  0.00    -0.014 A 
BRANCH  36  37
ATOM     37  C   UNL A   1      41.683  26.171  27.755  1.00  0.00     0.031 A 
ATOM     38  C   UNL A   1      41.006  27.262  28.536  1.00  0.00     0.074 A 
ATOM     39  C   UNL A   1      42.936  26.344  27.302  1.00  0.00     0.049 A 
ATOM     40  N   UNL A   1      41.427  28.465  28.829  1.00  0.00    -0.248 NA
ATOM     41  C   UNL A   1      39.665  26.949  29.054  1.00  0.00     0.031 C 
ATOM     42  C   UNL A   1      43.718  25.347  26.576  1.00  0.00     0.029 A 
ATOM     43  N   UNL A   1      43.767  27.434  27.385  1.00  0.00    -0.354 N 
ATOM     44  C   UNL A   1      40.404  29.053  29.561  1.00  0.00     0.074 A 
ATOM     45  C   UNL A   1      39.326  28.090  29.631  1.00  0.00     0.031 C 
ATOM     46  C   UNL A   1      44.918  25.873  26.275  1.00  0.00     0.029 A 
ATOM     47  C   UNL A   1      44.972  27.254  26.754  1.00  0.00     0.049 A 
ATOM     48  H   UNL A   1      43.521  28.265  27.853  1.00  0.00     0.167 HD
ATOM     49  C   UNL A   1      40.370  30.281  30.134  1.00  0.00     0.037 A 
ATOM     50  C   UNL A   1      45.991  28.117  26.570  1.00  0.00     0.037 A 
ATOM     51  C   UNL A   1      41.435  31.244  30.044  1.00  0.00     0.049 A 
ATOM     52  C   UNL A   1      45.884  29.519  27.119  1.00  0.00     0.074 A 
ATOM     53  C   UNL A   1      41.500  32.514  30.589  1.00  0.00     0.029 A 
ATOM     54  N   UNL A   1      42.620  31.047  29.347  1.00  0.00    -0.354 N 
ATOM     55  N   UNL A   1      44.927  30.062  27.831  1.00  0.00    -0.248 NA
ATOM     56  C   UNL A   1      47.006  30.426  26.835  1.00  0.00     0.031 C 
ATOM     57  C   UNL A   1      42.697  33.108  30.172  1.00  0.00     0.029 A 
ATOM     58  C   UNL A   1      43.409  32.185  29.423  1.00  0.00     0.049 A 
ATOM     59  H   UNL A   1      42.864  30.222  28.871  1.00  0.00     0.167 HD
ATOM     60  C   UNL A   1      45.345  31.358  28.111  1.00  0.00     0.074 A 
ATOM     61  C   UNL A   1      46.649  31.516  27.499  1.00  0.00     0.031 C 
ATOM     62  C   UNL A   1      44.710  32.327  28.816  1.00  0.00     0.037 A 
BRANCH  49  63
ATOM     63  C   UNL A   1      39.117  30.654  30.875  1.00  0.00     0.064 A 
ATOM     64  C   UNL A   1      38.040  31.287  30.235  1.00  0.00     0.173 A 
ATOM     65  C   UNL A   1      38.995  30.383  32.246  1.00  0.00     0.173 A 
ATOM     66  F   UNL A   1      38.110  31.582  28.928  1.00  0.00    -0.203 F 
ATOM     67  C   UNL A   1      36.909  31.675  30.948  1.00  0.00     0.198 A 
ATOM     68  C   UNL A   1      37.848  30.741  32.949  1.00  0.00     0.198 A 
ATOM     69  F   UNL A   1      39.991  29.775  32.908  1.00  0.00    -0.203 F 
ATOM     70  F   UNL A   1      35.924  32.343  30.329  1.00  0.00    -0.200 F 
ATOM     71  C   UNL A   1      36.812  31.399  32.303  1.00  0.00     0.200 A 
ATOM     72  F   UNL A   1      37.749  30.458  34.256  1.00  0.00    -0.200 F 
ATOM     73  F   UNL A   1      35.725  31.776  32.990  1.00  0.00    -0.200 F 
ENDBRANCH  49  63
BRANCH  50  74
ATOM     74  C   UNL A   1      47.211  27.682  25.842  1.00  0.00     0.064 A 
ATOM     75  C   UNL A   1      48.343  27.239  26.541  1.00  0.00     0.173 A 
ATOM     76  C   UNL A   1      47.282  27.716  24.442  1.00  0.00     0.173 A 
ATOM     77  F   UNL A   1      48.334  27.217  27.882  1.00  0.00    -0.203 F 
ATOM     78  C   UNL A   1      49.503  26.859  25.868  1.00  0.00     0.198 A 
ATOM     79  C   UNL A   1      48.432  27.308  23.768  1.00  0.00     0.198 A 
ATOM     80  F   UNL A   1      46.230  28.139  23.726  1.00  0.00    -0.203 F 
ATOM     81  F   UNL A   1      50.585  26.483  26.564  1.00  0.00    -0.200 F 
ATOM     82  C   UNL A   1      49.544  26.888  24.482  1.00  0.00     0.200 A 
ATOM     83  F   UNL A   1      48.466  27.329  22.429  1.00  0.00    -0.200 F 
ATOM     84  F   UNL A   1      50.658  26.518  23.836  1.00  0.00    -0.200 F 
ENDBRANCH  50  74
BRANCH  62  85
ATOM     85  C   UNL A   1      45.433  33.632  29.011  1.00  0.00     0.064 A 
ATOM     86  C   UNL A   1      45.270  34.710  28.128  1.00  0.00     0.173 A 
ATOM     87  C   UNL A   1      46.270  33.819  30.123  1.00  0.00     0.173 A 
ATOM     88  F   UNL A   1      44.492  34.582  27.042  1.00  0.00    -0.203 F 
ATOM     89  C   UNL A   1      45.941  35.914  28.335  1.00  0.00     0.198 A 
ATOM     90  C   UNL A   1      46.910  35.035  30.346  1.00  0.00     0.198 A 
ATOM     91  F   UNL A   1      46.456  32.824  31.004  1.00  0.00    -0.203 F 
ATOM     92  F   UNL A   1      45.811  36.912  27.449  1.00  0.00    -0.200 F 
ATOM     93  C   UNL A   1      46.752  36.079  29.447  1.00  0.00     0.200 A 
ATOM     94  F   UNL A   1      47.681  35.195  31.430  1.00  0.00    -0.200 F 
ATOM     95  F   UNL A   1      47.389  37.240  29.650  1.00  0.00    -0.200 F 
ENDBRANCH  62  85
ENDBRANCH  36  37
ENDBRANCH  29  31
ENDBRANCH  28  29
ENDBRANCH  27  28
ENDBRANCH  26  27
ENDBRANCH  25  26
ENDBRANCH   1  25
TORSDOF 19
ENDMDL
MODEL 3
REMARK VINA RESULT:     -10.6      4.307      7.326
REMARK SMILES C[C@@H]1CN(c2ccc(N)cc2C(=O)OCCOCCOCCOC(=O)c2ccc(-c3c4nc(c(-c5c(F)c(F)c(F)c(F)c5F)c5ccc([nH]5)c(-c5c(F)c(F)c(F)c(F)c5F)c5nc(c(-c6c(F)c(F)c(F)c(F)c6F)c6ccc3[nH]6)C=C5)C=C4)cc2)C[C@H]1C
REMARK SMILES IDX 19 1 18 2 17 3 16 4 15 5 14 6 12 7 13 8 11 9 5 10 6 11 7 12
REMARK SMILES IDX 10 13 8 14 4 15 1 16 2 17 3 18 90 19 89 20 91 21 9 22 20 25
REMARK SMILES IDX 21 26 22 27 23 28 24 29 25 30 26 31 27 32 88 33 28 34 87 35
REMARK SMILES IDX 29 36 30 37 31 38 81 39 32 40 86 41 80 42 82 43 33 44 85 45
REMARK SMILES IDX 79 46 78 47 34 49 66 50 46 51 65 52 47 53 50 54 64 55 83 56
REMARK SMILES IDX 48 57 49 58 63 60 84 61 51 62 35 63 36 64 44 65 37 66 38 67
REMARK SMILES IDX 42 68 45 69 39 70 40 71 43 72 41 73 67 74 68 75 76 76 69 77
REMARK SMILES IDX 70 78 74 79 77 80 71 81 72 82 75 83 73 84 52 85 53 86 61 87
REMARK SMILES IDX 54 88 55 89 59 90 62 91 56 92 57 93 60 94 58 95
REMARK H PARENT 9 23 9 24 82 48 50 59
REMARK Flexibility Score: inf
ROOT
ATOM      1  C   UNL A   1      33.243  27.625  24.911  1.00  0.00     0.188 C 
ENDROOT
BRANCH   1   2
ATOM      2  C   UNL A   1      33.918  26.694  25.943  1.00  0.00     0.188 C 
BRANCH   2   3
ATOM      3  O   UNL A   1      33.580  25.314  25.974  1.00  0.00    -0.376 OA
BRANCH   3   4
ATOM      4  C   UNL A   1      34.624  24.351  25.877  1.00  0.00     0.202 C 
BRANCH   4   5
ATOM      5  C   UNL A   1      34.679  23.184  26.870  1.00  0.00     0.261 C 
BRANCH   5   6
ATOM      6  O   UNL A   1      34.023  22.002  26.389  1.00  0.00    -0.460 OA
BRANCH   6   7
ATOM      7  C   UNL A   1      34.744  21.200  25.566  1.00  0.00     0.340 C 
ATOM      8  O   UNL A   1      35.930  20.929  25.687  1.00  0.00    -0.246 OA
BRANCH   7   9
ATOM      9  C   UNL A   1      33.865  20.501  24.598  1.00  0.00     0.085 A 
ATOM     10  C   UNL A   1      32.912  21.117  23.761  1.00  0.00     0.051 A 
ATOM     11  C   UNL A   1      32.136  20.242  22.970  1.00  0.00     0.029 A 
ATOM     12  C   UNL A   1      32.263  18.848  23.026  1.00  0.00     0.027 A 
ATOM     13  C   UNL A   1      33.980  19.090  24.655  1.00  0.00     0.043 A 
ATOM     14  C   UNL A   1      33.194  18.256  23.866  1.00  0.00     0.032 A 
BRANCH  10  15
ATOM     15  N   UNL A   1      32.642  22.466  23.672  1.00  0.00    -0.370 N 
ATOM     16  C   UNL A   1      32.528  25.306  21.293  1.00  0.00     0.010 C 
ATOM     17  C   UNL A   1      32.531  24.604  22.642  1.00  0.00     0.010 C 
ATOM     18  C   UNL A   1      33.283  23.263  22.613  1.00  0.00     0.120 C 
ATOM     19  C   UNL A   1      31.140  24.181  23.135  1.00  0.00     0.010 C 
ATOM     20  C   UNL A   1      31.498  23.173  24.235  1.00  0.00     0.120 C 
ATOM     21  C   UNL A   1      30.273  25.318  23.641  1.00  0.00     0.010 C 
ENDBRANCH  10  15
BRANCH  14  22
ATOM     22  N   UNL A   1      33.227  16.881  24.031  1.00  0.00    -0.399 N 
ATOM     23  H   UNL A   1      34.089  16.405  24.012  1.00  0.00     0.156 HD
ATOM     24  H   UNL A   1      32.391  16.381  24.168  1.00  0.00     0.156 HD
ENDBRANCH  14  22
ENDBRANCH   7   9
ENDBRANCH   6   7
ENDBRANCH   5   6
ENDBRANCH   4   5
ENDBRANCH   3   4
ENDBRANCH   2   3
ENDBRANCH   1   2
BRANCH   1  25
ATOM     25  O   UNL A   1      31.917  28.015  25.175  1.00  0.00    -0.376 OA
BRANCH  25  26
ATOM     26  C   UNL A   1      31.478  29.333  24.901  1.00  0.00     0.202 C 
BRANCH  26  27
ATOM     27  C   UNL A   1      31.594  30.551  25.840  1.00  0.00     0.261 C 
BRANCH  27  28
ATOM     28  O   UNL A   1      32.480  30.472  26.957  1.00  0.00    -0.460 OA
BRANCH  28  29
ATOM     29  C   UNL A   1      33.159  31.608  27.251  1.00  0.00     0.338 C 
ATOM     30  O   UNL A   1      32.754  32.754  27.193  1.00  0.00    -0.246 OA
BRANCH  29  31
ATOM     31  C   UNL A   1      34.459  31.231  27.839  1.00  0.00     0.060 A 
ATOM     32  C   UNL A   1      34.691  29.887  28.160  1.00  0.00     0.016 A 
ATOM     33  C   UNL A   1      35.431  32.202  28.083  1.00  0.00     0.016 A 
ATOM     34  C   UNL A   1      35.897  29.512  28.750  1.00  0.00     0.010 A 
ATOM     35  C   UNL A   1      36.629  31.827  28.695  1.00  0.00     0.010 A 
ATOM     36  C   UNL A   1      36.856  30.486  29.056  1.00  0.00    -0.014 A 
BRANCH  36  37
ATOM     37  C   UNL A   1      38.015  30.142  29.914  1.00  0.00     0.031 A 
ATOM     38  C   UNL A   1      39.039  29.177  29.383  1.00  0.00     0.074 A 
ATOM     39  C   UNL A   1      38.163  30.675  31.139  1.00  0.00     0.049 A 
ATOM     40  N   UNL A   1      40.100  28.681  29.965  1.00  0.00    -0.248 NA
ATOM     41  C   UNL A   1      38.830  28.708  28.005  1.00  0.00     0.031 C 
ATOM     42  C   UNL A   1      37.268  31.657  31.746  1.00  0.00     0.029 A 
ATOM     43  N   UNL A   1      39.125  30.455  32.092  1.00  0.00    -0.354 N 
ATOM     44  C   UNL A   1      40.683  27.839  29.027  1.00  0.00     0.074 A 
ATOM     45  C   UNL A   1      39.834  27.860  27.855  1.00  0.00     0.031 C 
ATOM     46  C   UNL A   1      37.721  31.953  32.977  1.00  0.00     0.029 A 
ATOM     47  C   UNL A   1      38.916  31.155  33.254  1.00  0.00     0.049 A 
ATOM     48  H   UNL A   1      39.892  29.853  31.956  1.00  0.00     0.167 HD
ATOM     49  C   UNL A   1      41.828  27.123  29.129  1.00  0.00     0.037 A 
ATOM     50  C   UNL A   1      39.602  31.133  34.414  1.00  0.00     0.037 A 
ATOM     51  C   UNL A   1      42.658  27.088  30.304  1.00  0.00     0.049 A 
ATOM     52  C   UNL A   1      40.811  30.240  34.544  1.00  0.00     0.074 A 
ATOM     53  C   UNL A   1      43.839  26.396  30.509  1.00  0.00     0.029 A 
ATOM     54  N   UNL A   1      42.384  27.766  31.484  1.00  0.00    -0.354 N 
ATOM     55  N   UNL A   1      41.372  29.465  33.648  1.00  0.00    -0.248 NA
ATOM     56  C   UNL A   1      41.480  30.221  35.853  1.00  0.00     0.031 C 
ATOM     57  C   UNL A   1      44.246  26.607  31.831  1.00  0.00     0.029 A 
ATOM     58  C   UNL A   1      43.357  27.484  32.430  1.00  0.00     0.049 A 
ATOM     59  H   UNL A   1      41.613  28.360  31.627  1.00  0.00     0.167 HD
ATOM     60  C   UNL A   1      42.478  28.897  34.271  1.00  0.00     0.074 A 
ATOM     61  C   UNL A   1      42.513  29.425  35.619  1.00  0.00     0.031 C 
ATOM     62  C   UNL A   1      43.386  28.023  33.768  1.00  0.00     0.037 A 
BRANCH  49  63
ATOM     63  C   UNL A   1      42.220  26.290  27.941  1.00  0.00     0.064 A 
ATOM     64  C   UNL A   1      43.183  26.725  27.017  1.00  0.00     0.173 A 
ATOM     65  C   UNL A   1      41.619  25.041  27.719  1.00  0.00     0.173 A 
ATOM     66  F   UNL A   1      43.779  27.917  27.174  1.00  0.00    -0.203 F 
ATOM     67  C   UNL A   1      43.494  25.965  25.893  1.00  0.00     0.198 A 
ATOM     68  C   UNL A   1      41.959  24.268  26.612  1.00  0.00     0.198 A 
ATOM     69  F   UNL A   1      40.697  24.571  28.573  1.00  0.00    -0.203 F 
ATOM     70  F   UNL A   1      44.364  26.436  24.988  1.00  0.00    -0.200 F 
ATOM     71  C   UNL A   1      42.885  24.736  25.693  1.00  0.00     0.200 A 
ATOM     72  F   UNL A   1      41.381  23.072  26.430  1.00  0.00    -0.200 F 
ATOM     73  F   UNL A   1      43.183  24.007  24.609  1.00  0.00    -0.200 F 
ENDBRANCH  49  63
BRANCH  50  74
ATOM     74  C   UNL A   1      39.172  31.993  35.548  1.00  0.00     0.064 A 
ATOM     75  C   UNL A   1      39.648  33.306  35.671  1.00  0.00     0.173 A 
ATOM     76  C   UNL A   1      38.297  31.521  36.537  1.00  0.00     0.173 A 
ATOM     77  F   UNL A   1      40.510  33.792  34.766  1.00  0.00    -0.203 F 
ATOM     78  C   UNL A   1      39.277  34.109  36.748  1.00  0.00     0.198 A 
ATOM     79  C   UNL A   1      37.903  32.335  37.598  1.00  0.00     0.198 A 
ATOM     80  F   UNL A   1      37.820  30.270  36.471  1.00  0.00    -0.203 F 
ATOM     81  F   UNL A   1      39.782  35.345  36.864  1.00  0.00    -0.200 F 
ATOM     82  C   UNL A   1      38.399  33.625  37.706  1.00  0.00     0.200 A 
ATOM     83  F   UNL A   1      37.050  31.867  38.518  1.00  0.00    -0.200 F 
ATOM     84  F   UNL A   1      38.039  34.400  38.738  1.00  0.00    -0.200 F 
ENDBRANCH  50  74
BRANCH  62  85
ATOM     85  C   UNL A   1      44.526  27.616  34.661  1.00  0.00     0.064 A 
ATOM     86  C   UNL A   1      45.715  28.357  34.731  1.00  0.00     0.173 A 
ATOM     87  C   UNL A   1      44.409  26.488  35.489  1.00  0.00     0.173 A 
ATOM     88  F   UNL A   1      45.885  29.436  33.952  1.00  0.00    -0.203 F 
ATOM     89  C   UNL A   1      46.754  27.968  35.575  1.00  0.00     0.198 A 
ATOM     90  C   UNL A   1      45.435  26.123  36.357  1.00  0.00     0.198 A 
ATOM     91  F   UNL A   1      43.291  25.747  35.469  1.00  0.00    -0.203 F 
ATOM     92  F   UNL A   1      47.901  28.661  35.585  1.00  0.00    -0.200 F 
ATOM     93  C   UNL A   1      46.610  26.857  36.392  1.00  0.00     0.200 A 
ATOM     94  F   UNL A   1      45.286  25.058  37.157  1.00  0.00    -0.200 F 
ATOM     95  F   UNL A   1      47.606  26.489  37.209  1.00  0.00    -0.200 F 
ENDBRANCH  62  85
ENDBRANCH  36  37
ENDBRANCH  29  31
ENDBRANCH  28  29
ENDBRANCH  27  28
ENDBRANCH  26  27
ENDBRANCH  25  26
ENDBRANCH   1  25
TORSDOF 19
ENDMDL
