MODEL 1
REMARK VINA RESULT:     -11.4      0.000      0.000
REMARK SMILES O=C(COc1ccc(Br)cc1/C=C1\C(=O)Nc2ccc(Br)cc21)OCCOCCOCCOC(=O)c1ccc(-c2c3nc(c(-c4c(F)c(F)c(F)c(F)c4F)c4ccc([nH]4)c(-c4c(F)c(F)c(F)c(F)c4F)c4nc(c(-c5c(F)c(F)c(F)c(F)c5F)c5ccc2[nH]5)C=C4)C=C3)cc1
REMARK SMILES IDX 28 1 27 2 26 3 25 4 24 5 2 6 1 7 3 8 4 9 5 10 6 11 11 12
REMARK SMILES IDX 7 13 10 14 8 15 9 16 12 17 13 18 14 19 23 20 15 21 16 22
REMARK SMILES IDX 17 23 22 24 18 26 20 27 19 28 21 29 29 30 30 31 31 32 32 33
REMARK SMILES IDX 33 34 34 35 35 36 36 37 37 38 98 39 38 40 97 41 39 42 40 43
REMARK SMILES IDX 41 44 91 45 42 46 96 47 90 48 92 49 43 50 95 51 89 52 88 53
REMARK SMILES IDX 44 55 76 56 56 57 75 58 57 59 60 60 74 61 93 62 58 63 59 64
REMARK SMILES IDX 73 66 94 67 61 68 45 69 46 70 54 71 47 72 48 73 52 74 55 75
REMARK SMILES IDX 49 76 50 77 53 78 51 79 77 80 78 81 86 82 79 83 80 84 84 85
REMARK SMILES IDX 87 86 81 87 82 88 85 89 83 90 62 91 63 92 71 93 64 94 65 95
REMARK SMILES IDX 69 96 72 97 66 98 67 99 70 100 68 101
REMARK H PARENT 16 25 92 54 60 65
REMARK Flexibility Score: inf
ROOT
ATOM      1  C   UNL A   1      34.424  31.650  28.458  1.00  0.00     0.188 C 
ENDROOT
BRANCH   1   2
ATOM      2  O   UNL A   1      35.598  31.008  27.967  1.00  0.00    -0.376 OA
BRANCH   2   3
ATOM      3  C   UNL A   1      35.453  29.644  27.611  1.00  0.00     0.202 C 
BRANCH   3   4
ATOM      4  C   UNL A   1      34.088  29.384  26.984  1.00  0.00     0.261 C 
BRANCH   4   5
ATOM      5  O   UNL A   1      33.740  27.981  26.906  1.00  0.00    -0.461 OA
BRANCH   5   6
ATOM      6  C   UNL A   1      33.794  27.205  25.802  1.00  0.00     0.344 C 
ATOM      7  O   UNL A   1      33.958  25.991  25.917  1.00  0.00    -0.248 OA
BRANCH   6   8
ATOM      8  C   UNL A   1      33.690  27.853  24.425  1.00  0.00     0.351 C 
BRANCH   8   9
ATOM      9  O   UNL A   1      33.105  27.106  23.361  1.00  0.00    -0.481 OA
BRANCH   9  10
ATOM     10  C   UNL A   1      31.815  27.525  23.116  1.00  0.00     0.127 A 
ATOM     11  C   UNL A   1      31.594  28.863  22.733  1.00  0.00     0.048 A 
ATOM     12  C   UNL A   1      30.746  26.619  23.291  1.00  0.00     0.018 A 
ATOM     13  C   UNL A   1      30.310  29.381  22.684  1.00  0.00     0.019 A 
ATOM     14  C   UNL A   1      29.465  27.176  23.189  1.00  0.00     0.027 A 
ATOM     15  C   UNL A   1      29.249  28.537  22.945  1.00  0.00     0.018 A 
ATOM     16  Br  UNL A   1      27.491  29.232  22.987  1.00  0.00    -0.051 Br
BRANCH  12  17
ATOM     17  C   UNL A   1      31.006  25.180  23.615  1.00  0.00     0.026 C 
ATOM     18  C   UNL A   1      30.963  24.515  24.790  1.00  0.00     0.050 C 
ATOM     19  C   UNL A   1      30.625  25.044  26.162  1.00  0.00     0.256 C 
ATOM     20  C   UNL A   1      31.676  23.243  25.043  1.00  0.00     0.012 A 
ATOM     21  O   UNL A   1      29.699  25.744  26.520  1.00  0.00    -0.269 OA
ATOM     22  N   UNL A   1      31.513  24.418  27.009  1.00  0.00    -0.321 N 
ATOM     23  C   UNL A   1      32.098  23.330  26.378  1.00  0.00     0.049 A 
ATOM     24  C   UNL A   1      31.909  22.079  24.332  1.00  0.00     0.026 A 
ATOM     25  H   UNL A   1      31.706  24.702  27.931  1.00  0.00     0.170 HD
ATOM     26  C   UNL A   1      32.864  22.372  27.000  1.00  0.00     0.028 A 
ATOM     27  C   UNL A   1      32.643  21.064  24.971  1.00  0.00     0.018 A 
ATOM     28  C   UNL A   1      33.158  21.226  26.272  1.00  0.00     0.018 A 
ATOM     29  Br  UNL A   1      32.890  19.396  24.109  1.00  0.00    -0.051 Br
ENDBRANCH  12  17
ENDBRANCH   9  10
ENDBRANCH   8   9
ENDBRANCH   6   8
ENDBRANCH   5   6
ENDBRANCH   4   5
ENDBRANCH   3   4
ENDBRANCH   2   3
ENDBRANCH   1   2
BRANCH   1  30
ATOM     30  C   UNL A   1      34.507  33.180  28.340  1.00  0.00     0.188 C 
BRANCH  30  31
ATOM     31  O   UNL A   1      33.326  33.957  28.533  1.00  0.00    -0.376 OA
BRANCH  31  32
ATOM     32  C   UNL A   1      33.389  35.372  28.409  1.00  0.00     0.202 C 
BRANCH  32  33
ATOM     33  C   UNL A   1      33.035  36.167  29.668  1.00  0.00     0.261 C 
BRANCH  33  34
ATOM     34  O   UNL A   1      32.342  35.377  30.654  1.00  0.00    -0.460 OA
BRANCH  34  35
ATOM     35  C   UNL A   1      32.521  35.746  31.945  1.00  0.00     0.338 C 
ATOM     36  O   UNL A   1      31.787  36.451  32.616  1.00  0.00    -0.246 OA
BRANCH  35  37
ATOM     37  C   UNL A   1      33.690  35.033  32.520  1.00  0.00     0.060 A 
ATOM     38  C   UNL A   1      33.577  33.772  33.111  1.00  0.00     0.016 A 
ATOM     39  C   UNL A   1      34.947  35.646  32.424  1.00  0.00     0.016 A 
ATOM     40  C   UNL A   1      34.730  33.108  33.559  1.00  0.00     0.010 A 
ATOM     41  C   UNL A   1      36.094  34.989  32.884  1.00  0.00     0.010 A 
ATOM     42  C   UNL A   1      36.001  33.701  33.429  1.00  0.00    -0.014 A 
BRANCH  42  43
ATOM     43  C   UNL A   1      37.234  32.910  33.689  1.00  0.00     0.031 A 
ATOM     44  C   UNL A   1      37.728  31.852  32.746  1.00  0.00     0.074 A 
ATOM     45  C   UNL A   1      37.924  33.152  34.823  1.00  0.00     0.049 A 
ATOM     46  N   UNL A   1      38.804  31.107  32.846  1.00  0.00    -0.248 NA
ATOM     47  C   UNL A   1      36.932  31.592  31.538  1.00  0.00     0.031 C 
ATOM     48  C   UNL A   1      37.552  34.137  35.837  1.00  0.00     0.029 A 
ATOM     49  N   UNL A   1      39.081  32.591  35.309  1.00  0.00    -0.354 N 
ATOM     50  C   UNL A   1      38.830  30.314  31.710  1.00  0.00     0.074 A 
ATOM     51  C   UNL A   1      37.646  30.642  30.941  1.00  0.00     0.031 C 
ATOM     52  C   UNL A   1      38.469  34.125  36.818  1.00  0.00     0.029 A 
ATOM     53  C   UNL A   1      39.486  33.120  36.511  1.00  0.00     0.049 A 
ATOM     54  H   UNL A   1      39.574  31.880  34.841  1.00  0.00     0.167 HD
ATOM     55  C   UNL A   1      39.768  29.413  31.341  1.00  0.00     0.037 A 
ATOM     56  C   UNL A   1      40.555  32.840  37.281  1.00  0.00     0.037 A 
ATOM     57  C   UNL A   1      40.950  29.067  32.091  1.00  0.00     0.049 A 
ATOM     58  C   UNL A   1      41.558  31.810  36.840  1.00  0.00     0.074 A 
ATOM     59  C   UNL A   1      41.925  28.134  31.767  1.00  0.00     0.029 A 
ATOM     60  N   UNL A   1      41.333  29.638  33.290  1.00  0.00    -0.354 N 
ATOM     61  N   UNL A   1      41.589  31.104  35.739  1.00  0.00    -0.248 NA
ATOM     62  C   UNL A   1      42.689  31.550  37.747  1.00  0.00     0.031 C 
ATOM     63  C   UNL A   1      42.901  28.145  32.763  1.00  0.00     0.029 A 
ATOM     64  C   UNL A   1      42.537  29.089  33.705  1.00  0.00     0.049 A 
ATOM     65  H   UNL A   1      40.827  30.330  33.775  1.00  0.00     0.167 HD
ATOM     66  C   UNL A   1      42.757  30.356  35.803  1.00  0.00     0.074 A 
ATOM     67  C   UNL A   1      43.415  30.695  37.042  1.00  0.00     0.031 C 
ATOM     68  C   UNL A   1      43.231  29.462  34.905  1.00  0.00     0.037 A 
BRANCH  55  69
ATOM     69  C   UNL A   1      39.644  28.727  30.018  1.00  0.00     0.064 A 
ATOM     70  C   UNL A   1      40.299  29.277  28.908  1.00  0.00     0.173 A 
ATOM     71  C   UNL A   1      39.186  27.404  29.942  1.00  0.00     0.173 A 
ATOM     72  F   UNL A   1      40.757  30.536  28.947  1.00  0.00    -0.203 F 
ATOM     73  C   UNL A   1      40.559  28.499  27.786  1.00  0.00     0.198 A 
ATOM     74  C   UNL A   1      39.437  26.634  28.811  1.00  0.00     0.198 A 
ATOM     75  F   UNL A   1      38.579  26.838  30.995  1.00  0.00    -0.203 F 
ATOM     76  F   UNL A   1      41.252  29.014  26.761  1.00  0.00    -0.200 F 
ATOM     77  C   UNL A   1      40.142  27.175  27.745  1.00  0.00     0.200 A 
ATOM     78  F   UNL A   1      39.051  25.352  28.771  1.00  0.00    -0.200 F 
ATOM     79  F   UNL A   1      40.430  26.418  26.677  1.00  0.00    -0.200 F 
ENDBRANCH  55  69
BRANCH  56  80
ATOM     80  C   UNL A   1      40.767  33.578  38.550  1.00  0.00     0.064 A 
ATOM     81  C   UNL A   1      41.701  34.622  38.621  1.00  0.00     0.173 A 
ATOM     82  C   UNL A   1      40.079  33.231  39.720  1.00  0.00     0.173 A 
ATOM     83  F   UNL A   1      42.401  34.967  37.529  1.00  0.00    -0.203 F 
ATOM     84  C   UNL A   1      41.958  35.274  39.823  1.00  0.00     0.198 A 
ATOM     85  C   UNL A   1      40.318  33.903  40.916  1.00  0.00     0.198 A 
ATOM     86  F   UNL A   1      39.179  32.238  39.700  1.00  0.00    -0.203 F 
ATOM     87  F   UNL A   1      42.896  36.229  39.876  1.00  0.00    -0.200 F 
ATOM     88  C   UNL A   1      41.264  34.917  40.968  1.00  0.00     0.200 A 
ATOM     89  F   UNL A   1      39.640  33.561  42.020  1.00  0.00    -0.200 F 
ATOM     90  F   UNL A   1      41.516  35.539  42.127  1.00  0.00    -0.200 F 
ENDBRANCH  56  80
BRANCH  68  91
ATOM     91  C   UNL A   1      44.555  28.814  35.178  1.00  0.00     0.064 A 
ATOM     92  C   UNL A   1      45.757  29.389  34.744  1.00  0.00     0.173 A 
ATOM     93  C   UNL A   1      44.627  27.642  35.946  1.00  0.00     0.173 A 
ATOM     94  F   UNL A   1      45.741  30.509  34.004  1.00  0.00    -0.203 F 
ATOM     95  C   UNL A   1      46.983  28.802  35.048  1.00  0.00     0.198 A 
ATOM     96  C   UNL A   1      45.855  27.070  36.270  1.00  0.00     0.198 A 
ATOM     97  F   UNL A   1      43.506  27.061  36.401  1.00  0.00    -0.203 F 
ATOM     98  F   UNL A   1      48.117  29.351  34.593  1.00  0.00    -0.200 F 
ATOM     99  C   UNL A   1      47.031  27.648  35.816  1.00  0.00     0.200 A 
ATOM    100  F   UNL A   1      45.900  25.964  37.026  1.00  0.00    -0.200 F 
ATOM    101  F   UNL A   1      48.212  27.091  36.117  1.00  0.00    -0.200 F 
ENDBRANCH  68  91
ENDBRANCH  42  43
ENDBRANCH  35  37
ENDBRANCH  34  35
ENDBRANCH  33  34
ENDBRANCH  32  33
ENDBRANCH  31  32
ENDBRANCH  30  31
ENDBRANCH   1  30
TORSDOF 20
ENDMDL
MODEL 2
REMARK VINA RESULT:     -10.9      6.430     11.597
REMARK SMILES O=C(COc1ccc(Br)cc1/C=C1\C(=O)Nc2ccc(Br)cc21)OCCOCCOCCOC(=O)c1ccc(-c2c3nc(c(-c4c(F)c(F)c(F)c(F)c4F)c4ccc([nH]4)c(-c4c(F)c(F)c(F)c(F)c4F)c4nc(c(-c5c(F)c(F)c(F)c(F)c5F)c5ccc2[nH]5)C=C4)C=C3)cc1
REMARK SMILES IDX 28 1 27 2 26 3 25 4 24 5 2 6 1 7 3 8 4 9 5 10 6 11 11 12
REMARK SMILES IDX 7 13 10 14 8 15 9 16 12 17 13 18 14 19 23 20 15 21 16 22
REMARK SMILES IDX 17 23 22 24 18 26 20 27 19 28 21 29 29 30 30 31 31 32 32 33
REMARK SMILES IDX 33 34 34 35 35 36 36 37 37 38 98 39 38 40 97 41 39 42 40 43
REMARK SMILES IDX 41 44 91 45 42 46 96 47 90 48 92 49 43 50 95 51 89 52 88 53
REMARK SMILES IDX 44 55 76 56 56 57 75 58 57 59 60 60 74 61 93 62 58 63 59 64
REMARK SMILES IDX 73 66 94 67 61 68 45 69 46 70 54 71 47 72 48 73 52 74 55 75
REMARK SMILES IDX 49 76 50 77 53 78 51 79 77 80 78 81 86 82 79 83 80 84 84 85
REMARK SMILES IDX 87 86 81 87 82 88 85 89 83 90 62 91 63 92 71 93 64 94 65 95
REMARK SMILES IDX 69 96 72 97 66 98 67 99 70 100 68 101
REMARK H PARENT 16 25 92 54 60 65
REMARK Flexibility Score: inf
ROOT
ATOM      1  C   UNL A   1      40.074  22.257  26.598  1.00  0.00     0.188 C 
ENDROOT
BRANCH   1   2
ATOM      2  O   UNL A   1      38.688  22.556  26.460  1.00  0.00    -0.376 OA
BRANCH   2   3
ATOM      3  C   UNL A   1      37.996  21.830  25.459  1.00  0.00     0.202 C 
BRANCH   3   4
ATOM      4  C   UNL A   1      37.183  22.764  24.568  1.00  0.00     0.261 C 
BRANCH   4   5
ATOM      5  O   UNL A   1      35.767  22.768  24.864  1.00  0.00    -0.461 OA
BRANCH   5   6
ATOM      6  C   UNL A   1      35.123  23.631  25.679  1.00  0.00     0.344 C 
ATOM      7  O   UNL A   1      34.913  23.326  26.851  1.00  0.00    -0.248 OA
BRANCH   6   8
ATOM      8  C   UNL A   1      34.630  24.962  25.118  1.00  0.00     0.351 C 
BRANCH   8   9
ATOM      9  O   UNL A   1      34.508  25.106  23.705  1.00  0.00    -0.481 OA
BRANCH   9  10
ATOM     10  C   UNL A   1      33.387  25.839  23.379  1.00  0.00     0.127 A 
ATOM     11  C   UNL A   1      33.490  27.242  23.300  1.00  0.00     0.048 A 
ATOM     12  C   UNL A   1      32.160  25.174  23.170  1.00  0.00     0.018 A 
ATOM     13  C   UNL A   1      32.355  28.028  23.187  1.00  0.00     0.019 A 
ATOM     14  C   UNL A   1      31.044  26.007  23.015  1.00  0.00     0.027 A 
ATOM     15  C   UNL A   1      31.129  27.403  23.077  1.00  0.00     0.018 A 
ATOM     16  Br  UNL A   1      29.551  28.442  23.023  1.00  0.00    -0.051 Br
BRANCH  12  17
ATOM     17  C   UNL A   1      32.088  23.678  23.173  1.00  0.00     0.026 C 
ATOM     18  C   UNL A   1      31.774  22.808  24.158  1.00  0.00     0.050 C 
ATOM     19  C   UNL A   1      31.385  23.101  25.587  1.00  0.00     0.256 C 
ATOM     20  C   UNL A   1      32.184  21.386  24.164  1.00  0.00     0.012 A 
ATOM     21  O   UNL A   1      30.580  23.896  26.027  1.00  0.00    -0.269 OA
ATOM     22  N   UNL A   1      32.023  22.131  26.330  1.00  0.00    -0.321 N 
ATOM     23  C   UNL A   1      32.452  21.098  25.511  1.00  0.00     0.049 A 
ATOM     24  C   UNL A   1      32.266  20.374  23.224  1.00  0.00     0.026 A 
ATOM     25  H   UNL A   1      32.157  22.168  27.304  1.00  0.00     0.170 HD
ATOM     26  C   UNL A   1      32.933  19.886  25.951  1.00  0.00     0.028 A 
ATOM     27  C   UNL A   1      32.701  19.112  23.666  1.00  0.00     0.018 A 
ATOM     28  C   UNL A   1      33.078  18.882  25.003  1.00  0.00     0.018 A 
ATOM     29  Br  UNL A   1      32.714  17.648  22.464  1.00  0.00    -0.051 Br
ENDBRANCH  12  17
ENDBRANCH   9  10
ENDBRANCH   8   9
ENDBRANCH   6   8
ENDBRANCH   5   6
ENDBRANCH   4   5
ENDBRANCH   3   4
ENDBRANCH   2   3
ENDBRANCH   1   2
BRANCH   1  30
ATOM     30  C   UNL A   1      40.360  20.754  26.463  1.00  0.00     0.188 C 
BRANCH  30  31
ATOM     31  O   UNL A   1      41.122  20.097  27.475  1.00  0.00    -0.376 OA
BRANCH  31  32
ATOM     32  C   UNL A   1      42.297  19.383  27.117  1.00  0.00     0.202 C 
BRANCH  32  33
ATOM     33  C   UNL A   1      42.589  19.292  25.616  1.00  0.00     0.261 C 
BRANCH  33  34
ATOM     34  O   UNL A   1      43.941  18.880  25.332  1.00  0.00    -0.460 OA
BRANCH  34  35
ATOM     35  C   UNL A   1      44.527  19.464  24.259  1.00  0.00     0.338 C 
ATOM     36  O   UNL A   1      44.649  18.992  23.141  1.00  0.00    -0.246 OA
BRANCH  35  37
ATOM     37  C   UNL A   1      44.880  20.871  24.577  1.00  0.00     0.060 A 
ATOM     38  C   UNL A   1      44.624  21.922  23.692  1.00  0.00     0.016 A 
ATOM     39  C   UNL A   1      45.457  21.138  25.826  1.00  0.00     0.016 A 
ATOM     40  C   UNL A   1      44.901  23.242  24.082  1.00  0.00     0.010 A 
ATOM     41  C   UNL A   1      45.744  22.453  26.208  1.00  0.00     0.010 A 
ATOM     42  C   UNL A   1      45.442  23.521  25.352  1.00  0.00    -0.014 A 
BRANCH  42  43
ATOM     43  C   UNL A   1      45.519  24.921  25.850  1.00  0.00     0.031 A 
ATOM     44  C   UNL A   1      44.317  25.664  26.360  1.00  0.00     0.074 A 
ATOM     45  C   UNL A   1      46.715  25.544  25.830  1.00  0.00     0.049 A 
ATOM     46  N   UNL A   1      44.255  26.881  26.845  1.00  0.00    -0.248 NA
ATOM     47  C   UNL A   1      43.025  24.964  26.334  1.00  0.00     0.031 C 
ATOM     48  C   UNL A   1      47.962  24.953  25.346  1.00  0.00     0.029 A 
ATOM     49  N   UNL A   1      47.078  26.809  26.229  1.00  0.00    -0.354 N 
ATOM     50  C   UNL A   1      42.933  27.086  27.205  1.00  0.00     0.074 A 
ATOM     51  C   UNL A   1      42.212  25.877  26.858  1.00  0.00     0.031 C 
ATOM     52  C   UNL A   1      48.955  25.844  25.490  1.00  0.00     0.029 A 
ATOM     53  C   UNL A   1      48.415  27.077  26.061  1.00  0.00     0.049 A 
ATOM     54  H   UNL A   1      46.441  27.461  26.601  1.00  0.00     0.167 HD
ATOM     55  C   UNL A   1      42.385  28.175  27.789  1.00  0.00     0.037 A 
ATOM     56  C   UNL A   1      49.133  28.182  26.338  1.00  0.00     0.037 A 
ATOM     57  C   UNL A   1      43.081  29.388  28.138  1.00  0.00     0.049 A 
ATOM     58  C   UNL A   1      48.473  29.379  26.964  1.00  0.00     0.074 A 
ATOM     59  C   UNL A   1      42.558  30.538  28.714  1.00  0.00     0.029 A 
ATOM     60  N   UNL A   1      44.434  29.611  27.970  1.00  0.00    -0.354 N 
ATOM     61  N   UNL A   1      47.229  29.535  27.341  1.00  0.00    -0.248 NA
ATOM     62  C   UNL A   1      49.325  30.553  27.219  1.00  0.00     0.031 C 
ATOM     63  C   UNL A   1      43.593  31.453  28.901  1.00  0.00     0.029 A 
ATOM     64  C   UNL A   1      44.763  30.871  28.448  1.00  0.00     0.049 A 
ATOM     65  H   UNL A   1      45.069  28.972  27.573  1.00  0.00     0.167 HD
ATOM     66  C   UNL A   1      47.163  30.798  27.913  1.00  0.00     0.074 A 
ATOM     67  C   UNL A   1      48.488  31.368  27.845  1.00  0.00     0.031 C 
ATOM     68  C   UNL A   1      46.087  31.424  28.441  1.00  0.00     0.037 A 
BRANCH  55  69
ATOM     69  C   UNL A   1      40.941  28.148  28.178  1.00  0.00     0.064 A 
ATOM     70  C   UNL A   1      40.600  27.758  29.480  1.00  0.00     0.173 A 
ATOM     71  C   UNL A   1      39.981  28.812  27.401  1.00  0.00     0.173 A 
ATOM     72  F   UNL A   1      41.495  27.127  30.255  1.00  0.00    -0.203 F 
ATOM     73  C   UNL A   1      39.363  28.095  30.015  1.00  0.00     0.198 A 
ATOM     74  C   UNL A   1      38.739  29.135  27.938  1.00  0.00     0.198 A 
ATOM     75  F   UNL A   1      40.283  29.223  26.161  1.00  0.00    -0.203 F 
ATOM     76  F   UNL A   1      39.076  27.782  31.286  1.00  0.00    -0.200 F 
ATOM     77  C   UNL A   1      38.441  28.796  29.250  1.00  0.00     0.200 A 
ATOM     78  F   UNL A   1      37.851  29.824  27.210  1.00  0.00    -0.200 F 
ATOM     79  F   UNL A   1      37.264  29.153  29.784  1.00  0.00    -0.200 F 
ENDBRANCH  55  69
BRANCH  56  80
ATOM     80  C   UNL A   1      50.591  28.206  26.063  1.00  0.00     0.064 A 
ATOM     81  C   UNL A   1      51.068  28.345  24.752  1.00  0.00     0.173 A 
ATOM     82  C   UNL A   1      51.529  28.048  27.092  1.00  0.00     0.173 A 
ATOM     83  F   UNL A   1      50.202  28.471  23.735  1.00  0.00    -0.203 F 
ATOM     84  C   UNL A   1      52.432  28.298  24.477  1.00  0.00     0.198 A 
ATOM     85  C   UNL A   1      52.894  28.029  26.817  1.00  0.00     0.198 A 
ATOM     86  F   UNL A   1      51.118  27.910  28.360  1.00  0.00    -0.203 F 
ATOM     87  F   UNL A   1      52.859  28.376  23.209  1.00  0.00    -0.200 F 
ATOM     88  C   UNL A   1      53.343  28.144  25.510  1.00  0.00     0.200 A 
ATOM     89  F   UNL A   1      53.774  27.888  27.819  1.00  0.00    -0.200 F 
ATOM     90  F   UNL A   1      54.655  28.092  25.244  1.00  0.00    -0.200 F 
ENDBRANCH  56  80
BRANCH  68  91
ATOM     91  C   UNL A   1      46.283  32.779  29.052  1.00  0.00     0.064 A 
ATOM     92  C   UNL A   1      46.640  32.933  30.399  1.00  0.00     0.173 A 
ATOM     93  C   UNL A   1      46.183  33.935  28.263  1.00  0.00     0.173 A 
ATOM     94  F   UNL A   1      46.746  31.858  31.196  1.00  0.00    -0.203 F 
ATOM     95  C   UNL A   1      46.867  34.196  30.939  1.00  0.00     0.198 A 
ATOM     96  C   UNL A   1      46.435  35.195  28.799  1.00  0.00     0.198 A 
ATOM     97  F   UNL A   1      45.861  33.841  26.964  1.00  0.00    -0.203 F 
ATOM     98  F   UNL A   1      47.174  34.322  32.238  1.00  0.00    -0.200 F 
ATOM     99  C   UNL A   1      46.771  35.325  30.139  1.00  0.00     0.200 A 
ATOM    100  F   UNL A   1      46.357  36.283  28.020  1.00  0.00    -0.200 F 
ATOM    101  F   UNL A   1      47.001  36.538  30.658  1.00  0.00    -0.200 F 
ENDBRANCH  68  91
ENDBRANCH  42  43
ENDBRANCH  35  37
ENDBRANCH  34  35
ENDBRANCH  33  34
ENDBRANCH  32  33
ENDBRANCH  31  32
ENDBRANCH  30  31
ENDBRANCH   1  30
TORSDOF 20
ENDMDL
MODEL 3
REMARK VINA RESULT:     -10.7      5.161      9.667
REMARK SMILES O=C(COc1ccc(Br)cc1/C=C1\C(=O)Nc2ccc(Br)cc21)OCCOCCOCCOC(=O)c1ccc(-c2c3nc(c(-c4c(F)c(F)c(F)c(F)c4F)c4ccc([nH]4)c(-c4c(F)c(F)c(F)c(F)c4F)c4nc(c(-c5c(F)c(F)c(F)c(F)c5F)c5ccc2[nH]5)C=C4)C=C3)cc1
REMARK SMILES IDX 28 1 27 2 26 3 25 4 24 5 2 6 1 7 3 8 4 9 5 10 6 11 11 12
REMARK SMILES IDX 7 13 10 14 8 15 9 16 12 17 13 18 14 19 23 20 15 21 16 22
REMARK SMILES IDX 17 23 22 24 18 26 20 27 19 28 21 29 29 30 30 31 31 32 32 33
REMARK SMILES IDX 33 34 34 35 35 36 36 37 37 38 98 39 38 40 97 41 39 42 40 43
REMARK SMILES IDX 41 44 91 45 42 46 96 47 90 48 92 49 43 50 95 51 89 52 88 53
REMARK SMILES IDX 44 55 76 56 56 57 75 58 57 59 60 60 74 61 93 62 58 63 59 64
REMARK SMILES IDX 73 66 94 67 61 68 45 69 46 70 54 71 47 72 48 73 52 74 55 75
REMARK SMILES IDX 49 76 50 77 53 78 51 79 77 80 78 81 86 82 79 83 80 84 84 85
REMARK SMILES IDX 87 86 81 87 82 88 85 89 83 90 62 91 63 92 71 93 64 94 65 95
REMARK SMILES IDX 69 96 72 97 66 98 67 99 70 100 68 101
REMARK H PARENT 16 25 92 54 60 65
REMARK Flexibility Score: inf
ROOT
ATOM      1  C   UNL A   1      33.876  35.364  30.819  1.00  0.00     0.188 C 
ENDROOT
BRANCH   1   2
ATOM      2  O   UNL A   1      33.077  34.866  31.890  1.00  0.00    -0.376 OA
BRANCH   2   3
ATOM      3  C   UNL A   1      33.773  34.167  32.907  1.00  0.00     0.202 C 
BRANCH   3   4
ATOM      4  C   UNL A   1      34.528  32.973  32.332  1.00  0.00     0.261 C 
BRANCH   4   5
ATOM      5  O   UNL A   1      35.965  33.067  32.476  1.00  0.00    -0.461 OA
BRANCH   5   6
ATOM      6  C   UNL A   1      36.884  32.776  31.530  1.00  0.00     0.344 C 
ATOM      7  O   UNL A   1      36.597  32.902  30.340  1.00  0.00    -0.248 OA
BRANCH   6   8
ATOM      8  C   UNL A   1      38.255  32.258  31.952  1.00  0.00     0.351 C 
BRANCH   8   9
ATOM      9  O   UNL A   1      38.491  31.996  33.334  1.00  0.00    -0.481 OA
BRANCH   9  10
ATOM     10  C   UNL A   1      39.351  32.929  33.873  1.00  0.00     0.127 A 
ATOM     11  C   UNL A   1      38.845  34.195  34.229  1.00  0.00     0.048 A 
ATOM     12  C   UNL A   1      40.718  32.609  34.019  1.00  0.00     0.018 A 
ATOM     13  C   UNL A   1      39.704  35.226  34.572  1.00  0.00     0.019 A 
ATOM     14  C   UNL A   1      41.544  33.671  34.410  1.00  0.00     0.027 A 
ATOM     15  C   UNL A   1      41.058  34.965  34.630  1.00  0.00     0.018 A 
ATOM     16  Br  UNL A   1      42.266  36.372  34.995  1.00  0.00    -0.051 Br
BRANCH  12  17
ATOM     17  C   UNL A   1      41.220  31.231  33.715  1.00  0.00     0.026 C 
ATOM     18  C   UNL A   1      41.060  30.064  34.376  1.00  0.00     0.050 C 
ATOM     19  C   UNL A   1      40.298  29.799  35.651  1.00  0.00     0.256 C 
ATOM     20  C   UNL A   1      41.969  28.905  34.233  1.00  0.00     0.012 A 
ATOM     21  O   UNL A   1      39.179  30.140  35.975  1.00  0.00    -0.269 OA
ATOM     22  N   UNL A   1      41.085  28.910  36.352  1.00  0.00    -0.321 N 
ATOM     23  C   UNL A   1      42.036  28.344  35.517  1.00  0.00     0.049 A 
ATOM     24  C   UNL A   1      42.624  28.282  33.185  1.00  0.00     0.026 A 
ATOM     25  H   UNL A   1      40.987  28.707  37.310  1.00  0.00     0.170 HD
ATOM     26  C   UNL A   1      42.837  27.273  35.841  1.00  0.00     0.028 A 
ATOM     27  C   UNL A   1      43.403  27.151  33.487  1.00  0.00     0.018 A 
ATOM     28  C   UNL A   1      43.548  26.680  34.806  1.00  0.00     0.018 A 
ATOM     29  Br  UNL A   1      44.223  26.173  32.088  1.00  0.00    -0.051 Br
ENDBRANCH  12  17
ENDBRANCH   9  10
ENDBRANCH   8   9
ENDBRANCH   6   8
ENDBRANCH   5   6
ENDBRANCH   4   5
ENDBRANCH   3   4
ENDBRANCH   2   3
ENDBRANCH   1   2
BRANCH   1  30
ATOM     30  C   UNL A   1      33.339  34.932  29.446  1.00  0.00     0.188 C 
BRANCH  30  31
ATOM     31  O   UNL A   1      33.868  33.758  28.830  1.00  0.00    -0.376 OA
BRANCH  31  32
ATOM     32  C   UNL A   1      33.179  33.170  27.735  1.00  0.00     0.202 C 
BRANCH  32  33
ATOM     33  C   UNL A   1      33.419  31.672  27.524  1.00  0.00     0.261 C 
BRANCH  33  34
ATOM     34  O   UNL A   1      34.462  31.148  28.370  1.00  0.00    -0.460 OA
BRANCH  34  35
ATOM     35  C   UNL A   1      34.872  29.886  28.096  1.00  0.00     0.338 C 
ATOM     36  O   UNL A   1      34.225  29.004  27.556  1.00  0.00    -0.246 OA
BRANCH  35  37
ATOM     37  C   UNL A   1      36.318  29.744  28.403  1.00  0.00     0.060 A 
ATOM     38  C   UNL A   1      36.776  29.329  29.656  1.00  0.00     0.016 A 
ATOM     39  C   UNL A   1      37.237  30.005  27.378  1.00  0.00     0.016 A 
ATOM     40  C   UNL A   1      38.150  29.129  29.863  1.00  0.00     0.010 A 
ATOM     41  C   UNL A   1      38.608  29.819  27.589  1.00  0.00     0.010 A 
ATOM     42  C   UNL A   1      39.076  29.350  28.825  1.00  0.00    -0.014 A 
BRANCH  42  43
ATOM     43  C   UNL A   1      40.493  28.922  28.971  1.00  0.00     0.031 A 
ATOM     44  C   UNL A   1      40.985  27.584  28.499  1.00  0.00     0.074 A 
ATOM     45  C   UNL A   1      41.362  29.769  29.561  1.00  0.00     0.049 A 
ATOM     46  N   UNL A   1      42.202  27.098  28.547  1.00  0.00    -0.248 NA
ATOM     47  C   UNL A   1      40.002  26.674  27.893  1.00  0.00     0.031 C 
ATOM     48  C   UNL A   1      41.021  31.091  30.083  1.00  0.00     0.029 A 
ATOM     49  N   UNL A   1      42.707  29.644  29.817  1.00  0.00    -0.354 N 
ATOM     50  C   UNL A   1      42.142  25.846  27.957  1.00  0.00     0.074 A 
ATOM     51  C   UNL A   1      40.759  25.626  27.581  1.00  0.00     0.031 C 
ATOM     52  C   UNL A   1      42.128  31.664  30.583  1.00  0.00     0.029 A 
ATOM     53  C   UNL A   1      43.254  30.744  30.432  1.00  0.00     0.049 A 
ATOM     54  H   UNL A   1      43.229  28.844  29.581  1.00  0.00     0.167 HD
ATOM     55  C   UNL A   1      43.152  24.976  27.735  1.00  0.00     0.037 A 
ATOM     56  C   UNL A   1      44.517  30.995  30.827  1.00  0.00     0.037 A 
ATOM     57  C   UNL A   1      44.533  25.172  28.104  1.00  0.00     0.049 A 
ATOM     58  C   UNL A   1      45.604  29.985  30.580  1.00  0.00     0.074 A 
ATOM     59  C   UNL A   1      45.597  24.301  27.920  1.00  0.00     0.029 A 
ATOM     60  N   UNL A   1      45.048  26.304  28.704  1.00  0.00    -0.354 N 
ATOM     61  N   UNL A   1      45.534  28.825  29.978  1.00  0.00    -0.248 NA
ATOM     62  C   UNL A   1      46.954  30.329  31.058  1.00  0.00     0.031 C 
ATOM     63  C   UNL A   1      46.757  24.907  28.402  1.00  0.00     0.029 A 
ATOM     64  C   UNL A   1      46.416  26.159  28.880  1.00  0.00     0.049 A 
ATOM     65  H   UNL A   1      44.523  27.095  28.967  1.00  0.00     0.167 HD
ATOM     66  C   UNL A   1      46.829  28.327  29.966  1.00  0.00     0.074 A 
ATOM     67  C   UNL A   1      47.671  29.307  30.611  1.00  0.00     0.031 C 
ATOM     68  C   UNL A   1      47.272  27.151  29.465  1.00  0.00     0.037 A 
BRANCH  55  69
ATOM     69  C   UNL A   1      42.877  23.707  26.994  1.00  0.00     0.064 A 
ATOM     70  C   UNL A   1      43.347  23.575  25.680  1.00  0.00     0.173 A 
ATOM     71  C   UNL A   1      42.471  22.554  27.682  1.00  0.00     0.173 A 
ATOM     72  F   UNL A   1      43.750  24.655  24.995  1.00  0.00    -0.203 F 
ATOM     73  C   UNL A   1      43.483  22.319  25.103  1.00  0.00     0.198 A 
ATOM     74  C   UNL A   1      42.597  21.300  27.094  1.00  0.00     0.198 A 
ATOM     75  F   UNL A   1      42.041  22.641  28.950  1.00  0.00    -0.203 F 
ATOM     76  F   UNL A   1      44.004  22.200  23.874  1.00  0.00    -0.200 F 
ATOM     77  C   UNL A   1      43.123  21.183  25.816  1.00  0.00     0.200 A 
ATOM     78  F   UNL A   1      42.266  20.199  27.781  1.00  0.00    -0.200 F 
ATOM     79  F   UNL A   1      43.294  19.971  25.269  1.00  0.00    -0.200 F 
ENDBRANCH  55  69
BRANCH  56  80
ATOM     80  C   UNL A   1      44.849  32.290  31.469  1.00  0.00     0.064 A 
ATOM     81  C   UNL A   1      44.790  32.432  32.863  1.00  0.00     0.173 A 
ATOM     82  C   UNL A   1      45.188  33.417  30.707  1.00  0.00     0.173 A 
ATOM     83  F   UNL A   1      44.443  31.384  33.627  1.00  0.00    -0.203 F 
ATOM     84  C   UNL A   1      45.032  33.661  33.470  1.00  0.00     0.198 A 
ATOM     85  C   UNL A   1      45.456  34.639  31.319  1.00  0.00     0.198 A 
ATOM     86  F   UNL A   1      45.254  33.329  29.371  1.00  0.00    -0.203 F 
ATOM     87  F   UNL A   1      44.912  33.782  34.798  1.00  0.00    -0.200 F 
ATOM     88  C   UNL A   1      45.367  34.762  32.698  1.00  0.00     0.200 A 
ATOM     89  F   UNL A   1      45.787  35.700  30.570  1.00  0.00    -0.200 F 
ATOM     90  F   UNL A   1      45.593  35.946  33.281  1.00  0.00    -0.200 F 
ENDBRANCH  56  80
BRANCH  68  91
ATOM     91  C   UNL A   1      48.741  26.861  29.527  1.00  0.00     0.064 A 
ATOM     92  C   UNL A   1      49.302  26.127  30.582  1.00  0.00     0.173 A 
ATOM     93  C   UNL A   1      49.588  27.259  28.481  1.00  0.00     0.173 A 
ATOM     94  F   UNL A   1      48.534  25.727  31.607  1.00  0.00    -0.203 F 
ATOM     95  C   UNL A   1      50.660  25.823  30.599  1.00  0.00     0.198 A 
ATOM     96  C   UNL A   1      50.942  26.932  28.489  1.00  0.00     0.198 A 
ATOM     97  F   UNL A   1      49.098  27.949  27.439  1.00  0.00    -0.203 F 
ATOM     98  F   UNL A   1      51.180  25.150  31.635  1.00  0.00    -0.200 F 
ATOM     99  C   UNL A   1      51.477  26.219  29.551  1.00  0.00     0.200 A 
ATOM    100  F   UNL A   1      51.726  27.302  27.467  1.00  0.00    -0.200 F 
ATOM    101  F   UNL A   1      52.782  25.915  29.564  1.00  0.00    -0.200 F 
ENDBRANCH  68  91
ENDBRANCH  42  43
ENDBRANCH  35  37
ENDBRANCH  34  35
ENDBRANCH  33  34
ENDBRANCH  32  33
ENDBRANCH  31  32
ENDBRANCH  30  31
ENDBRANCH   1  30
TORSDOF 20
ENDMDL
