MODEL 1
REMARK VINA RESULT:     -11.3      0.000      0.000
REMARK SMILES O=C(OCCOCCOCCOC(=O)c1ccc(F)c(S(=O)(=O)N2CCOc3ccccc32)c1)c1ccc(-c2c3nc(c(-c4c(F)c(F)c(F)c(F)c4F)c4ccc([nH]4)c(-c4c(F)c(F)c(F)c(F)c4F)c4nc(c(-c5c(F)c(F)c(F)c(F)c5F)c5ccc2[nH]5)C=C4)C=C3)cc1
REMARK SMILES IDX 7 1 6 2 5 3 4 4 3 5 2 6 1 7 35 8 36 9 97 10 37 11 96 12
REMARK SMILES IDX 38 13 39 14 40 15 90 16 41 17 95 18 89 19 91 20 42 21 94 22
REMARK SMILES IDX 88 23 87 24 43 26 75 27 55 28 74 29 56 30 59 31 73 32 92 33
REMARK SMILES IDX 57 34 58 35 72 37 93 38 60 39 44 40 45 41 53 42 46 43 47 44
REMARK SMILES IDX 51 45 54 46 48 47 49 48 52 49 50 50 76 51 77 52 85 53 78 54
REMARK SMILES IDX 79 55 83 56 86 57 80 58 81 59 84 60 82 61 61 62 62 63 70 64
REMARK SMILES IDX 63 65 64 66 68 67 71 68 65 69 66 70 69 71 67 72 8 73 9 74
REMARK SMILES IDX 10 75 11 76 12 77 13 78 14 79 15 80 16 81 34 82 17 83 20 84
REMARK SMILES IDX 18 85 19 86 21 87 22 88 23 89 24 90 25 91 33 92 26 93 28 94
REMARK SMILES IDX 32 95 27 96 29 97 31 98 30 99
REMARK H PARENT 91 25 59 36
REMARK Flexibility Score: inf
ROOT
ATOM      1  C   UNL A   1      34.717  30.836  27.550  1.00  0.00     0.188 C 
ENDROOT
BRANCH   1   2
ATOM      2  O   UNL A   1      33.357  30.993  27.967  1.00  0.00    -0.376 OA
BRANCH   2   3
ATOM      3  C   UNL A   1      32.489  31.404  26.906  1.00  0.00     0.202 C 
BRANCH   3   4
ATOM      4  C   UNL A   1      31.846  32.780  27.141  1.00  0.00     0.261 C 
BRANCH   4   5
ATOM      5  O   UNL A   1      32.808  33.835  27.310  1.00  0.00    -0.460 OA
BRANCH   5   6
ATOM      6  C   UNL A   1      33.201  34.481  28.434  1.00  0.00     0.338 C 
ATOM      7  O   UNL A   1      32.514  35.433  28.808  1.00  0.00    -0.246 OA
BRANCH   6   8
ATOM      8  C   UNL A   1      34.397  34.120  29.271  1.00  0.00     0.060 A 
ATOM      9  C   UNL A   1      35.741  34.257  28.911  1.00  0.00     0.016 A 
ATOM     10  C   UNL A   1      34.127  33.602  30.551  1.00  0.00     0.016 A 
ATOM     11  C   UNL A   1      36.774  33.851  29.751  1.00  0.00     0.010 A 
ATOM     12  C   UNL A   1      35.156  33.186  31.401  1.00  0.00     0.010 A 
ATOM     13  C   UNL A   1      36.486  33.286  30.989  1.00  0.00    -0.014 A 
BRANCH  13  14
ATOM     14  C   UNL A   1      37.574  32.615  31.720  1.00  0.00     0.031 A 
ATOM     15  C   UNL A   1      38.221  31.433  31.067  1.00  0.00     0.074 A 
ATOM     16  C   UNL A   1      38.071  33.135  32.854  1.00  0.00     0.049 A 
ATOM     17  N   UNL A   1      39.210  30.692  31.486  1.00  0.00    -0.248 NA
ATOM     18  C   UNL A   1      37.707  31.060  29.737  1.00  0.00     0.031 C 
ATOM     19  C   UNL A   1      37.614  34.376  33.476  1.00  0.00     0.029 A 
ATOM     20  N   UNL A   1      39.088  32.707  33.667  1.00  0.00    -0.354 N 
ATOM     21  C   UNL A   1      39.442  29.778  30.471  1.00  0.00     0.074 A 
ATOM     22  C   UNL A   1      38.474  30.030  29.428  1.00  0.00     0.031 C 
ATOM     23  C   UNL A   1      38.347  34.603  34.579  1.00  0.00     0.029 A 
ATOM     24  C   UNL A   1      39.281  33.501  34.769  1.00  0.00     0.049 A 
ATOM     25  H   UNL A   1      39.629  31.906  33.477  1.00  0.00     0.167 HD
ATOM     26  C   UNL A   1      40.394  28.821  30.412  1.00  0.00     0.037 A 
ATOM     27  C   UNL A   1      40.102  33.340  35.824  1.00  0.00     0.037 A 
ATOM     28  C   UNL A   1      41.335  28.575  31.468  1.00  0.00     0.049 A 
ATOM     29  C   UNL A   1      41.041  32.166  35.819  1.00  0.00     0.074 A 
ATOM     30  C   UNL A   1      42.297  27.587  31.554  1.00  0.00     0.029 A 
ATOM     31  N   UNL A   1      41.423  29.331  32.630  1.00  0.00    -0.354 N 
ATOM     32  N   UNL A   1      41.224  31.266  34.883  1.00  0.00    -0.248 NA
ATOM     33  C   UNL A   1      41.892  31.983  37.002  1.00  0.00     0.031 C 
ATOM     34  C   UNL A   1      42.935  27.717  32.791  1.00  0.00     0.029 A 
ATOM     35  C   UNL A   1      42.407  28.816  33.452  1.00  0.00     0.049 A 
ATOM     36  H   UNL A   1      40.867  30.117  32.836  1.00  0.00     0.167 HD
ATOM     37  C   UNL A   1      42.226  30.428  35.344  1.00  0.00     0.074 A 
ATOM     38  C   UNL A   1      42.614  30.927  36.649  1.00  0.00     0.031 C 
ATOM     39  C   UNL A   1      42.779  29.347  34.740  1.00  0.00     0.037 A 
BRANCH  26  40
ATOM     40  C   UNL A   1      40.410  27.953  29.192  1.00  0.00     0.064 A 
ATOM     41  C   UNL A   1      39.642  26.781  29.150  1.00  0.00     0.173 A 
ATOM     42  C   UNL A   1      41.158  28.292  28.054  1.00  0.00     0.173 A 
ATOM     43  F   UNL A   1      38.900  26.422  30.209  1.00  0.00    -0.203 F 
ATOM     44  C   UNL A   1      39.623  25.979  28.015  1.00  0.00     0.198 A 
ATOM     45  C   UNL A   1      41.116  27.499  26.911  1.00  0.00     0.198 A 
ATOM     46  F   UNL A   1      41.882  29.421  28.034  1.00  0.00    -0.203 F 
ATOM     47  F   UNL A   1      38.886  24.859  28.000  1.00  0.00    -0.200 F 
ATOM     48  C   UNL A   1      40.353  26.342  26.893  1.00  0.00     0.200 A 
ATOM     49  F   UNL A   1      41.795  27.869  25.815  1.00  0.00    -0.200 F 
ATOM     50  F   UNL A   1      40.310  25.581  25.790  1.00  0.00    -0.200 F 
ENDBRANCH  26  40
BRANCH  27  51
ATOM     51  C   UNL A   1      40.046  34.298  36.959  1.00  0.00     0.064 A 
ATOM     52  C   UNL A   1      40.894  35.418  36.999  1.00  0.00     0.173 A 
ATOM     53  C   UNL A   1      39.179  34.105  38.041  1.00  0.00     0.173 A 
ATOM     54  F   UNL A   1      41.749  35.651  35.991  1.00  0.00    -0.203 F 
ATOM     55  C   UNL A   1      40.894  36.288  38.087  1.00  0.00     0.198 A 
ATOM     56  C   UNL A   1      39.161  34.991  39.119  1.00  0.00     0.198 A 
ATOM     57  F   UNL A   1      38.337  33.062  38.046  1.00  0.00    -0.203 F 
ATOM     58  F   UNL A   1      41.749  37.319  38.118  1.00  0.00    -0.200 F 
ATOM     59  C   UNL A   1      40.025  36.076  39.145  1.00  0.00     0.200 A 
ATOM     60  F   UNL A   1      38.310  34.792  40.133  1.00  0.00    -0.200 F 
ATOM     61  F   UNL A   1      40.024  36.913  40.191  1.00  0.00    -0.200 F 
ENDBRANCH  27  51
BRANCH  39  62
ATOM     62  C   UNL A   1      43.887  28.644  35.461  1.00  0.00     0.064 A 
ATOM     63  C   UNL A   1      43.591  27.671  36.427  1.00  0.00     0.173 A 
ATOM     64  C   UNL A   1      45.226  29.012  35.277  1.00  0.00     0.173 A 
ATOM     65  F   UNL A   1      42.321  27.294  36.640  1.00  0.00    -0.203 F 
ATOM     66  C   UNL A   1      44.597  27.109  37.204  1.00  0.00     0.198 A 
ATOM     67  C   UNL A   1      46.233  28.429  36.040  1.00  0.00     0.198 A 
ATOM     68  F   UNL A   1      45.554  29.930  34.356  1.00  0.00    -0.203 F 
ATOM     69  F   UNL A   1      44.289  26.214  38.153  1.00  0.00    -0.200 F 
ATOM     70  C   UNL A   1      45.917  27.489  37.011  1.00  0.00     0.200 A 
ATOM     71  F   UNL A   1      47.511  28.781  35.839  1.00  0.00    -0.200 F 
ATOM     72  F   UNL A   1      46.886  26.949  37.762  1.00  0.00    -0.200 F 
ENDBRANCH  39  62
ENDBRANCH  13  14
ENDBRANCH   6   8
ENDBRANCH   5   6
ENDBRANCH   4   5
ENDBRANCH   3   4
ENDBRANCH   2   3
ENDBRANCH   1   2
BRANCH   1  73
ATOM     73  C   UNL A   1      35.075  29.407  27.141  1.00  0.00     0.188 C 
BRANCH  73  74
ATOM     74  O   UNL A   1      34.008  28.497  27.388  1.00  0.00    -0.376 OA
BRANCH  74  75
ATOM     75  C   UNL A   1      33.741  27.629  26.284  1.00  0.00     0.202 C 
BRANCH  75  76
ATOM     76  C   UNL A   1      33.620  28.349  24.931  1.00  0.00     0.261 C 
BRANCH  76  77
ATOM     77  O   UNL A   1      33.804  27.518  23.763  1.00  0.00    -0.460 OA
BRANCH  77  78
ATOM     78  C   UNL A   1      32.678  27.090  23.152  1.00  0.00     0.338 C 
ATOM     79  O   UNL A   1      31.727  27.765  22.797  1.00  0.00    -0.246 OA
BRANCH  78  80
ATOM     80  C   UNL A   1      32.663  25.616  23.175  1.00  0.00     0.061 A 
ATOM     81  C   UNL A   1      32.955  24.982  21.963  1.00  0.00     0.019 A 
ATOM     82  C   UNL A   1      32.415  24.862  24.332  1.00  0.00     0.041 A 
ATOM     83  C   UNL A   1      32.968  23.595  21.898  1.00  0.00     0.041 A 
ATOM     84  C   UNL A   1      32.442  23.454  24.253  1.00  0.00     0.124 A 
ATOM     85  C   UNL A   1      32.687  22.837  23.032  1.00  0.00     0.143 A 
ATOM     86  F   UNL A   1      32.647  21.511  22.868  1.00  0.00    -0.205 F 
BRANCH  84  87
ATOM     87  S   UNL A   1      32.185  22.511  25.743  1.00  0.00     0.267 S 
ATOM     88  O   UNL A   1      32.150  23.502  26.813  1.00  0.00    -0.201 OA
ATOM     89  O   UNL A   1      31.034  21.689  25.478  1.00  0.00    -0.201 OA
BRANCH  87  90
ATOM     90  N   UNL A   1      33.583  21.584  25.969  1.00  0.00    -0.259 N 
ATOM     91  C   UNL A   1      33.449  20.106  25.891  1.00  0.00     0.177 C 
ATOM     92  C   UNL A   1      34.918  22.084  25.713  1.00  0.00     0.094 A 
ATOM     93  C   UNL A   1      34.280  19.595  24.725  1.00  0.00     0.252 C 
ATOM     94  C   UNL A   1      35.908  21.192  25.244  1.00  0.00     0.143 A 
ATOM     95  C   UNL A   1      35.320  23.374  26.067  1.00  0.00     0.031 A 
ATOM     96  O   UNL A   1      35.670  19.877  24.918  1.00  0.00    -0.489 OA
ATOM     97  C   UNL A   1      37.242  21.595  25.119  1.00  0.00     0.049 A 
ATOM     98  C   UNL A   1      36.648  23.789  25.905  1.00  0.00     0.002 A 
ATOM     99  C   UNL A   1      37.609  22.899  25.435  1.00  0.00     0.004 A 
ENDBRANCH  87  90
ENDBRANCH  84  87
ENDBRANCH  78  80
ENDBRANCH  77  78
ENDBRANCH  76  77
ENDBRANCH  75  76
ENDBRANCH  74  75
ENDBRANCH  73  74
ENDBRANCH   1  73
TORSDOF 19
ENDMDL
MODEL 2
REMARK VINA RESULT:     -11.2      1.978      7.480
REMARK SMILES O=C(OCCOCCOCCOC(=O)c1ccc(F)c(S(=O)(=O)N2CCOc3ccccc32)c1)c1ccc(-c2c3nc(c(-c4c(F)c(F)c(F)c(F)c4F)c4ccc([nH]4)c(-c4c(F)c(F)c(F)c(F)c4F)c4nc(c(-c5c(F)c(F)c(F)c(F)c5F)c5ccc2[nH]5)C=C4)C=C3)cc1
REMARK SMILES IDX 7 1 6 2 5 3 4 4 3 5 2 6 1 7 35 8 36 9 97 10 37 11 96 12
REMARK SMILES IDX 38 13 39 14 40 15 90 16 41 17 95 18 89 19 91 20 42 21 94 22
REMARK SMILES IDX 88 23 87 24 43 26 75 27 55 28 74 29 56 30 59 31 73 32 92 33
REMARK SMILES IDX 57 34 58 35 72 37 93 38 60 39 44 40 45 41 53 42 46 43 47 44
REMARK SMILES IDX 51 45 54 46 48 47 49 48 52 49 50 50 76 51 77 52 85 53 78 54
REMARK SMILES IDX 79 55 83 56 86 57 80 58 81 59 84 60 82 61 61 62 62 63 70 64
REMARK SMILES IDX 63 65 64 66 68 67 71 68 65 69 66 70 69 71 67 72 8 73 9 74
REMARK SMILES IDX 10 75 11 76 12 77 13 78 14 79 15 80 16 81 34 82 17 83 20 84
REMARK SMILES IDX 18 85 19 86 21 87 22 88 23 89 24 90 25 91 33 92 26 93 28 94
REMARK SMILES IDX 32 95 27 96 29 97 31 98 30 99
REMARK H PARENT 91 25 59 36
REMARK Flexibility Score: inf
ROOT
ATOM      1  C   UNL A   1      33.399  28.479  26.157  1.00  0.00     0.188 C 
ENDROOT
BRANCH   1   2
ATOM      2  O   UNL A   1      32.019  28.856  26.206  1.00  0.00    -0.376 OA
BRANCH   2   3
ATOM      3  C   UNL A   1      31.792  30.208  25.795  1.00  0.00     0.202 C 
BRANCH   3   4
ATOM      4  C   UNL A   1      31.722  31.199  26.968  1.00  0.00     0.261 C 
BRANCH   4   5
ATOM      5  O   UNL A   1      32.617  32.315  26.823  1.00  0.00    -0.460 OA
BRANCH   5   6
ATOM      6  C   UNL A   1      33.533  32.813  27.690  1.00  0.00     0.338 C 
ATOM      7  O   UNL A   1      33.311  33.926  28.168  1.00  0.00    -0.246 OA
BRANCH   6   8
ATOM      8  C   UNL A   1      34.789  32.110  28.126  1.00  0.00     0.060 A 
ATOM      9  C   UNL A   1      34.929  30.748  28.411  1.00  0.00     0.016 A 
ATOM     10  C   UNL A   1      35.939  32.911  28.249  1.00  0.00     0.016 A 
ATOM     11  C   UNL A   1      36.134  30.208  28.849  1.00  0.00     0.010 A 
ATOM     12  C   UNL A   1      37.153  32.380  28.693  1.00  0.00     0.010 A 
ATOM     13  C   UNL A   1      37.245  31.026  29.020  1.00  0.00    -0.014 A 
BRANCH  13  14
ATOM     14  C   UNL A   1      38.406  30.485  29.747  1.00  0.00     0.031 A 
ATOM     15  C   UNL A   1      38.604  30.928  31.164  1.00  0.00     0.074 A 
ATOM     16  C   UNL A   1      39.166  29.514  29.214  1.00  0.00     0.049 A 
ATOM     17  N   UNL A   1      39.524  30.579  32.021  1.00  0.00    -0.248 NA
ATOM     18  C   UNL A   1      37.601  31.864  31.701  1.00  0.00     0.031 C 
ATOM     19  C   UNL A   1      38.947  28.902  27.906  1.00  0.00     0.029 A 
ATOM     20  N   UNL A   1      40.254  28.849  29.718  1.00  0.00    -0.354 N 
ATOM     21  C   UNL A   1      39.204  31.241  33.196  1.00  0.00     0.074 A 
ATOM     22  C   UNL A   1      38.028  32.039  32.939  1.00  0.00     0.031 C 
ATOM     23  C   UNL A   1      39.878  27.955  27.709  1.00  0.00     0.029 A 
ATOM     24  C   UNL A   1      40.787  27.932  28.848  1.00  0.00     0.049 A 
ATOM     25  H   UNL A   1      40.617  29.014  30.619  1.00  0.00     0.167 HD
ATOM     26  C   UNL A   1      39.834  31.173  34.389  1.00  0.00     0.037 A 
ATOM     27  C   UNL A   1      41.899  27.181  28.950  1.00  0.00     0.037 A 
ATOM     28  C   UNL A   1      41.014  30.389  34.618  1.00  0.00     0.049 A 
ATOM     29  C   UNL A   1      42.686  27.248  30.229  1.00  0.00     0.074 A 
ATOM     30  C   UNL A   1      41.783  30.299  35.762  1.00  0.00     0.029 A 
ATOM     31  N   UNL A   1      41.597  29.559  33.669  1.00  0.00    -0.354 N 
ATOM     32  N   UNL A   1      42.415  27.918  31.324  1.00  0.00    -0.248 NA
ATOM     33  C   UNL A   1      43.921  26.457  30.300  1.00  0.00     0.031 C 
ATOM     34  C   UNL A   1      42.859  29.450  35.490  1.00  0.00     0.029 A 
ATOM     35  C   UNL A   1      42.733  28.970  34.194  1.00  0.00     0.049 A 
ATOM     36  H   UNL A   1      41.253  29.411  32.759  1.00  0.00     0.167 HD
ATOM     37  C   UNL A   1      43.424  27.612  32.223  1.00  0.00     0.074 A 
ATOM     38  C   UNL A   1      44.316  26.692  31.545  1.00  0.00     0.031 C 
ATOM     39  C   UNL A   1      43.592  28.047  33.496  1.00  0.00     0.037 A 
BRANCH  26  40
ATOM     40  C   UNL A   1      39.280  32.014  35.498  1.00  0.00     0.064 A 
ATOM     41  C   UNL A   1      38.431  31.446  36.457  1.00  0.00     0.173 A 
ATOM     42  C   UNL A   1      39.612  33.371  35.631  1.00  0.00     0.173 A 
ATOM     43  F   UNL A   1      38.095  30.149  36.379  1.00  0.00    -0.203 F 
ATOM     44  C   UNL A   1      37.931  32.207  37.509  1.00  0.00     0.198 A 
ATOM     45  C   UNL A   1      39.130  34.122  36.700  1.00  0.00     0.198 A 
ATOM     46  F   UNL A   1      40.448  33.951  34.757  1.00  0.00    -0.203 F 
ATOM     47  F   UNL A   1      37.114  31.644  38.411  1.00  0.00    -0.200 F 
ATOM     48  C   UNL A   1      38.287  33.541  37.635  1.00  0.00     0.200 A 
ATOM     49  F   UNL A   1      39.502  35.402  36.839  1.00  0.00    -0.200 F 
ATOM     50  F   UNL A   1      37.826  34.264  38.665  1.00  0.00    -0.200 F 
ENDBRANCH  26  40
BRANCH  27  51
ATOM     51  C   UNL A   1      42.328  26.332  27.807  1.00  0.00     0.064 A 
ATOM     52  C   UNL A   1      43.273  26.799  26.878  1.00  0.00     0.173 A 
ATOM     53  C   UNL A   1      41.784  25.060  27.593  1.00  0.00     0.173 A 
ATOM     54  F   UNL A   1      43.825  28.012  27.031  1.00  0.00    -0.203 F 
ATOM     55  C   UNL A   1      43.635  26.037  25.769  1.00  0.00     0.198 A 
ATOM     56  C   UNL A   1      42.166  24.287  26.495  1.00  0.00     0.198 A 
ATOM     57  F   UNL A   1      40.889  24.560  28.457  1.00  0.00    -0.203 F 
ATOM     58  F   UNL A   1      44.504  26.530  24.875  1.00  0.00    -0.200 F 
ATOM     59  C   UNL A   1      43.084  24.780  25.580  1.00  0.00     0.200 A 
ATOM     60  F   UNL A   1      41.643  23.067  26.323  1.00  0.00    -0.200 F 
ATOM     61  F   UNL A   1      43.433  24.048  24.514  1.00  0.00    -0.200 F 
ENDBRANCH  27  51
BRANCH  39  62
ATOM     62  C   UNL A   1      44.765  27.514  34.259  1.00  0.00     0.064 A 
ATOM     63  C   UNL A   1      46.014  28.143  34.158  1.00  0.00     0.173 A 
ATOM     64  C   UNL A   1      44.677  26.324  34.994  1.00  0.00     0.173 A 
ATOM     65  F   UNL A   1      46.143  29.280  33.458  1.00  0.00    -0.203 F 
ATOM     66  C   UNL A   1      47.143  27.584  34.745  1.00  0.00     0.198 A 
ATOM     67  C   UNL A   1      45.805  25.781  35.601  1.00  0.00     0.198 A 
ATOM     68  F   UNL A   1      43.499  25.696  35.126  1.00  0.00    -0.203 F 
ATOM     69  F   UNL A   1      48.336  28.177  34.599  1.00  0.00    -0.200 F 
ATOM     70  C   UNL A   1      47.038  26.403  35.466  1.00  0.00     0.200 A 
ATOM     71  F   UNL A   1      45.700  24.651  36.315  1.00  0.00    -0.200 F 
ATOM     72  F   UNL A   1      48.127  25.863  36.029  1.00  0.00    -0.200 F 
ENDBRANCH  39  62
ENDBRANCH  13  14
ENDBRANCH   6   8
ENDBRANCH   5   6
ENDBRANCH   4   5
ENDBRANCH   3   4
ENDBRANCH   2   3
ENDBRANCH   1   2
BRANCH   1  73
ATOM     73  C   UNL A   1      33.631  27.062  25.629  1.00  0.00     0.188 C 
BRANCH  73  74
ATOM     74  O   UNL A   1      34.290  27.063  24.367  1.00  0.00    -0.376 OA
BRANCH  74  75
ATOM     75  C   UNL A   1      33.955  28.194  23.558  1.00  0.00     0.202 C 
BRANCH  75  76
ATOM     76  C   UNL A   1      33.595  27.848  22.105  1.00  0.00     0.261 C 
BRANCH  76  77
ATOM     77  O   UNL A   1      33.438  26.440  21.819  1.00  0.00    -0.460 OA
BRANCH  77  78
ATOM     78  C   UNL A   1      32.182  26.022  21.553  1.00  0.00     0.338 C 
ATOM     79  O   UNL A   1      31.630  25.983  20.466  1.00  0.00    -0.246 OA
BRANCH  78  80
ATOM     80  C   UNL A   1      31.472  25.821  22.829  1.00  0.00     0.061 A 
ATOM     81  C   UNL A   1      30.403  26.687  23.078  1.00  0.00     0.019 A 
ATOM     82  C   UNL A   1      31.795  24.805  23.743  1.00  0.00     0.041 A 
ATOM     83  C   UNL A   1      29.677  26.562  24.255  1.00  0.00     0.041 A 
ATOM     84  C   UNL A   1      31.041  24.684  24.929  1.00  0.00     0.124 A 
ATOM     85  C   UNL A   1      30.012  25.582  25.186  1.00  0.00     0.143 A 
ATOM     86  F   UNL A   1      29.312  25.575  26.325  1.00  0.00    -0.205 F 
BRANCH  84  87
ATOM     87  S   UNL A   1      31.424  23.353  26.050  1.00  0.00     0.267 S 
ATOM     88  O   UNL A   1      31.617  23.995  27.344  1.00  0.00    -0.201 OA
ATOM     89  O   UNL A   1      30.370  22.390  25.868  1.00  0.00    -0.201 OA
BRANCH  87  90
ATOM     90  N   UNL A   1      32.927  22.740  25.569  1.00  0.00    -0.259 N 
ATOM     91  C   UNL A   1      34.144  23.397  26.112  1.00  0.00     0.177 C 
ATOM     92  C   UNL A   1      33.124  21.376  25.127  1.00  0.00     0.094 A 
ATOM     93  C   UNL A   1      34.916  22.393  26.951  1.00  0.00     0.252 C 
ATOM     94  C   UNL A   1      34.351  20.733  25.403  1.00  0.00     0.143 A 
ATOM     95  C   UNL A   1      32.218  20.716  24.291  1.00  0.00     0.031 A 
ATOM     96  O   UNL A   1      35.360  21.288  26.157  1.00  0.00    -0.489 OA
ATOM     97  C   UNL A   1      34.640  19.471  24.874  1.00  0.00     0.049 A 
ATOM     98  C   UNL A   1      32.492  19.436  23.794  1.00  0.00     0.002 A 
ATOM     99  C   UNL A   1      33.703  18.815  24.082  1.00  0.00     0.004 A 
ENDBRANCH  87  90
ENDBRANCH  84  87
ENDBRANCH  78  80
ENDBRANCH  77  78
ENDBRANCH  76  77
ENDBRANCH  75  76
ENDBRANCH  74  75
ENDBRANCH  73  74
ENDBRANCH   1  73
TORSDOF 19
ENDMDL
MODEL 3
REMARK VINA RESULT:     -11.2      0.896      7.049
REMARK SMILES O=C(OCCOCCOCCOC(=O)c1ccc(F)c(S(=O)(=O)N2CCOc3ccccc32)c1)c1ccc(-c2c3nc(c(-c4c(F)c(F)c(F)c(F)c4F)c4ccc([nH]4)c(-c4c(F)c(F)c(F)c(F)c4F)c4nc(c(-c5c(F)c(F)c(F)c(F)c5F)c5ccc2[nH]5)C=C4)C=C3)cc1
REMARK SMILES IDX 7 1 6 2 5 3 4 4 3 5 2 6 1 7 35 8 36 9 97 10 37 11 96 12
REMARK SMILES IDX 38 13 39 14 40 15 90 16 41 17 95 18 89 19 91 20 42 21 94 22
REMARK SMILES IDX 88 23 87 24 43 26 75 27 55 28 74 29 56 30 59 31 73 32 92 33
REMARK SMILES IDX 57 34 58 35 72 37 93 38 60 39 44 40 45 41 53 42 46 43 47 44
REMARK SMILES IDX 51 45 54 46 48 47 49 48 52 49 50 50 76 51 77 52 85 53 78 54
REMARK SMILES IDX 79 55 83 56 86 57 80 58 81 59 84 60 82 61 61 62 62 63 70 64
REMARK SMILES IDX 63 65 64 66 68 67 71 68 65 69 66 70 69 71 67 72 8 73 9 74
REMARK SMILES IDX 10 75 11 76 12 77 13 78 14 79 15 80 16 81 34 82 17 83 20 84
REMARK SMILES IDX 18 85 19 86 21 87 22 88 23 89 24 90 25 91 33 92 26 93 28 94
REMARK SMILES IDX 32 95 27 96 29 97 31 98 30 99
REMARK H PARENT 91 25 59 36
REMARK Flexibility Score: inf
ROOT
ATOM      1  C   UNL A   1      34.331  30.468  27.543  1.00  0.00     0.188 C 
ENDROOT
BRANCH   1   2
ATOM      2  O   UNL A   1      32.903  30.527  27.627  1.00  0.00    -0.376 OA
BRANCH   2   3
ATOM      3  C   UNL A   1      32.317  31.370  26.630  1.00  0.00     0.202 C 
BRANCH   3   4
ATOM      4  C   UNL A   1      31.654  32.630  27.208  1.00  0.00     0.261 C 
BRANCH   4   5
ATOM      5  O   UNL A   1      32.536  33.765  27.256  1.00  0.00    -0.460 OA
BRANCH   5   6
ATOM      6  C   UNL A   1      33.088  34.391  28.323  1.00  0.00     0.338 C 
ATOM      7  O   UNL A   1      32.528  35.409  28.732  1.00  0.00    -0.246 OA
BRANCH   6   8
ATOM      8  C   UNL A   1      34.320  33.936  29.056  1.00  0.00     0.060 A 
ATOM      9  C   UNL A   1      35.640  34.305  28.782  1.00  0.00     0.016 A 
ATOM     10  C   UNL A   1      34.111  33.056  30.134  1.00  0.00     0.016 A 
ATOM     11  C   UNL A   1      36.713  33.788  29.503  1.00  0.00     0.010 A 
ATOM     12  C   UNL A   1      35.182  32.527  30.861  1.00  0.00     0.010 A 
ATOM     13  C   UNL A   1      36.492  32.875  30.527  1.00  0.00    -0.014 A 
BRANCH  13  14
ATOM     14  C   UNL A   1      37.648  32.141  31.070  1.00  0.00     0.031 A 
ATOM     15  C   UNL A   1      38.057  32.440  32.479  1.00  0.00     0.074 A 
ATOM     16  C   UNL A   1      38.214  31.134  30.386  1.00  0.00     0.049 A 
ATOM     17  N   UNL A   1      39.015  31.916  33.193  1.00  0.00    -0.248 NA
ATOM     18  C   UNL A   1      37.248  33.443  33.195  1.00  0.00     0.031 C 
ATOM     19  C   UNL A   1      37.773  30.661  29.075  1.00  0.00     0.029 A 
ATOM     20  N   UNL A   1      39.257  30.305  30.708  1.00  0.00    -0.354 N 
ATOM     21  C   UNL A   1      38.915  32.513  34.440  1.00  0.00     0.074 A 
ATOM     22  C   UNL A   1      37.829  33.464  34.382  1.00  0.00     0.031 C 
ATOM     23  C   UNL A   1      38.548  29.629  28.704  1.00  0.00     0.029 A 
ATOM     24  C   UNL A   1      39.568  29.406  29.720  1.00  0.00     0.049 A 
ATOM     25  H   UNL A   1      39.736  30.351  31.567  1.00  0.00     0.167 HD
ATOM     26  C   UNL A   1      39.660  32.274  35.541  1.00  0.00     0.037 A 
ATOM     27  C   UNL A   1      40.580  28.521  29.637  1.00  0.00     0.037 A 
ATOM     28  C   UNL A   1      40.748  31.338  35.573  1.00  0.00     0.049 A 
ATOM     29  C   UNL A   1      41.506  28.390  30.814  1.00  0.00     0.074 A 
ATOM     30  C   UNL A   1      41.622  31.064  36.607  1.00  0.00     0.029 A 
ATOM     31  N   UNL A   1      41.112  30.525  34.507  1.00  0.00    -0.354 N 
ATOM     32  N   UNL A   1      41.447  28.996  31.975  1.00  0.00    -0.248 NA
ATOM     33  C   UNL A   1      42.631  27.455  30.681  1.00  0.00     0.031 C 
ATOM     34  C   UNL A   1      42.545  30.118  36.151  1.00  0.00     0.029 A 
ATOM     35  C   UNL A   1      42.214  29.765  34.851  1.00  0.00     0.049 A 
ATOM     36  H   UNL A   1      40.653  30.494  33.637  1.00  0.00     0.167 HD
ATOM     37  C   UNL A   1      42.502  28.499  32.723  1.00  0.00     0.074 A 
ATOM     38  C   UNL A   1      43.188  27.538  31.882  1.00  0.00     0.031 C 
ATOM     39  C   UNL A   1      42.865  28.806  33.993  1.00  0.00     0.037 A 
BRANCH  26  40
ATOM     40  C   UNL A   1      39.346  33.081  36.763  1.00  0.00     0.064 A 
ATOM     41  C   UNL A   1      38.436  32.597  37.713  1.00  0.00     0.173 A 
ATOM     42  C   UNL A   1      39.963  34.316  37.010  1.00  0.00     0.173 A 
ATOM     43  F   UNL A   1      37.830  31.415  37.527  1.00  0.00    -0.203 F 
ATOM     44  C   UNL A   1      38.155  33.321  38.867  1.00  0.00     0.198 A 
ATOM     45  C   UNL A   1      39.698  35.026  38.178  1.00  0.00     0.198 A 
ATOM     46  F   UNL A   1      40.866  34.806  36.147  1.00  0.00    -0.203 F 
ATOM     47  F   UNL A   1      37.276  32.842  39.759  1.00  0.00    -0.200 F 
ATOM     48  C   UNL A   1      38.791  34.531  39.103  1.00  0.00     0.200 A 
ATOM     49  F   UNL A   1      40.339  36.178  38.421  1.00  0.00    -0.200 F 
ATOM     50  F   UNL A   1      38.539  35.213  40.229  1.00  0.00    -0.200 F 
ENDBRANCH  26  40
BRANCH  27  51
ATOM     51  C   UNL A   1      40.766  27.724  28.396  1.00  0.00     0.064 A 
ATOM     52  C   UNL A   1      40.190  26.450  28.265  1.00  0.00     0.173 A 
ATOM     53  C   UNL A   1      41.547  28.193  27.333  1.00  0.00     0.173 A 
ATOM     54  F   UNL A   1      39.435  25.948  29.254  1.00  0.00    -0.203 F 
ATOM     55  C   UNL A   1      40.410  25.669  27.132  1.00  0.00     0.198 A 
ATOM     56  C   UNL A   1      41.746  27.421  26.188  1.00  0.00     0.198 A 
ATOM     57  F   UNL A   1      42.108  29.409  27.399  1.00  0.00    -0.203 F 
ATOM     58  F   UNL A   1      39.886  24.437  27.058  1.00  0.00    -0.200 F 
ATOM     59  C   UNL A   1      41.185  26.156  26.092  1.00  0.00     0.200 A 
ATOM     60  F   UNL A   1      42.484  27.900  25.178  1.00  0.00    -0.200 F 
ATOM     61  F   UNL A   1      41.396  25.405  25.003  1.00  0.00    -0.200 F 
ENDBRANCH  27  51
BRANCH  39  62
ATOM     62  C   UNL A   1      44.038  28.076  34.571  1.00  0.00     0.064 A 
ATOM     63  C   UNL A   1      43.842  26.885  35.284  1.00  0.00     0.173 A 
ATOM     64  C   UNL A   1      45.331  28.613  34.516  1.00  0.00     0.173 A 
ATOM     65  F   UNL A   1      42.619  26.340  35.368  1.00  0.00    -0.203 F 
ATOM     66  C   UNL A   1      44.898  26.268  35.946  1.00  0.00     0.198 A 
ATOM     67  C   UNL A   1      46.390  27.980  35.159  1.00  0.00     0.198 A 
ATOM     68  F   UNL A   1      45.564  29.745  33.834  1.00  0.00    -0.203 F 
ATOM     69  F   UNL A   1      44.682  25.155  36.660  1.00  0.00    -0.200 F 
ATOM     70  C   UNL A   1      46.171  26.817  35.884  1.00  0.00     0.200 A 
ATOM     71  F   UNL A   1      47.624  28.498  35.081  1.00  0.00    -0.200 F 
ATOM     72  F   UNL A   1      47.187  26.224  36.524  1.00  0.00    -0.200 F 
ENDBRANCH  39  62
ENDBRANCH  13  14
ENDBRANCH   6   8
ENDBRANCH   5   6
ENDBRANCH   4   5
ENDBRANCH   3   4
ENDBRANCH   2   3
ENDBRANCH   1   2
BRANCH   1  73
ATOM     73  C   UNL A   1      34.871  29.077  27.207  1.00  0.00     0.188 C 
BRANCH  73  74
ATOM     74  O   UNL A   1      33.832  28.174  26.842  1.00  0.00    -0.376 OA
BRANCH  74  75
ATOM     75  C   UNL A   1      34.011  27.608  25.541  1.00  0.00     0.202 C 
BRANCH  75  76
ATOM     76  C   UNL A   1      33.197  28.298  24.435  1.00  0.00     0.261 C 
BRANCH  76  77
ATOM     77  O   UNL A   1      33.231  27.655  23.141  1.00  0.00    -0.460 OA
BRANCH  77  78
ATOM     78  C   UNL A   1      32.089  27.053  22.745  1.00  0.00     0.338 C 
ATOM     79  O   UNL A   1      31.020  27.585  22.496  1.00  0.00    -0.246 OA
BRANCH  78  80
ATOM     80  C   UNL A   1      32.258  25.594  22.872  1.00  0.00     0.061 A 
ATOM     81  C   UNL A   1      32.721  24.930  21.732  1.00  0.00     0.019 A 
ATOM     82  C   UNL A   1      32.019  24.888  24.061  1.00  0.00     0.041 A 
ATOM     83  C   UNL A   1      32.913  23.555  21.768  1.00  0.00     0.041 A 
ATOM     84  C   UNL A   1      32.229  23.493  24.085  1.00  0.00     0.124 A 
ATOM     85  C   UNL A   1      32.644  22.839  22.931  1.00  0.00     0.143 A 
ATOM     86  F   UNL A   1      32.784  21.512  22.861  1.00  0.00    -0.205 F 
BRANCH  84  87
ATOM     87  S   UNL A   1      31.980  22.621  25.618  1.00  0.00     0.267 S 
ATOM     88  O   UNL A   1      31.882  23.664  26.633  1.00  0.00    -0.201 OA
ATOM     89  O   UNL A   1      30.868  21.740  25.376  1.00  0.00    -0.201 OA
BRANCH  87  90
ATOM     90  N   UNL A   1      33.408  21.764  25.919  1.00  0.00    -0.259 N 
ATOM     91  C   UNL A   1      33.331  20.280  25.933  1.00  0.00     0.177 C 
ATOM     92  C   UNL A   1      34.726  22.298  25.647  1.00  0.00     0.094 A 
ATOM     93  C   UNL A   1      34.197  19.729  24.812  1.00  0.00     0.252 C 
ATOM     94  C   UNL A   1      35.756  21.417  25.248  1.00  0.00     0.143 A 
ATOM     95  C   UNL A   1      35.074  23.622  25.924  1.00  0.00     0.031 A 
ATOM     96  O   UNL A   1      35.573  20.076  25.003  1.00  0.00    -0.489 OA
ATOM     97  C   UNL A   1      37.075  21.863  25.113  1.00  0.00     0.049 A 
ATOM     98  C   UNL A   1      36.388  24.077  25.751  1.00  0.00     0.002 A 
ATOM     99  C   UNL A   1      37.388  23.198  25.350  1.00  0.00     0.004 A 
ENDBRANCH  87  90
ENDBRANCH  84  87
ENDBRANCH  78  80
ENDBRANCH  77  78
ENDBRANCH  76  77
ENDBRANCH  75  76
ENDBRANCH  74  75
ENDBRANCH  73  74
ENDBRANCH   1  73
TORSDOF 19
ENDMDL
