MODEL 1
REMARK VINA RESULT:     -11.3      0.000      0.000
REMARK SMILES COC(=O)c1ccc2oc(=O)c([C@H]3N=c4ccc(C(=O)OCCOCCOCCOC(=O)c5ccc(-c6c7nc(c(-c8c(F)c(F)c(F)c(F)c8F)c8ccc([nH]8)c(-c8c(F)c(F)c(F)c(F)c8F)c8nc(c(-c9c(F)c(F)c(F)c(F)c9F)c9ccc6[nH]9)C=C8)C=C7)cc5)cc4=N3)cc2c1
REMARK SMILES IDX 25 1 24 2 23 3 22 4 21 5 19 6 20 7 18 8 13 9 14 10 98 11
REMARK SMILES IDX 15 12 97 13 16 14 96 15 17 16 12 17 5 18 6 19 101 20 7 21
REMARK SMILES IDX 100 22 8 23 99 24 9 25 10 26 11 27 3 28 4 29 2 30 1 31 26 32
REMARK SMILES IDX 27 33 28 34 29 35 30 36 31 37 32 38 33 39 34 40 95 41 35 42
REMARK SMILES IDX 94 43 36 44 37 45 38 46 88 47 39 48 93 49 87 50 89 51 40 52
REMARK SMILES IDX 92 53 86 54 85 55 41 57 73 58 53 59 72 60 54 61 57 62 71 63
REMARK SMILES IDX 90 64 55 65 56 66 70 68 91 69 58 70 42 71 43 72 51 73 44 74
REMARK SMILES IDX 45 75 49 76 52 77 46 78 47 79 50 80 48 81 74 82 75 83 83 84
REMARK SMILES IDX 76 85 77 86 81 87 84 88 78 89 79 90 82 91 80 92 59 93 60 94
REMARK SMILES IDX 68 95 61 96 62 97 66 98 69 99 63 100 64 101 67 102 65 103
REMARK H PARENT 89 56 57 67
REMARK Flexibility Score: inf
ROOT
ATOM      1  C   UNL A   1      32.949  28.889  24.675  1.00  0.00     0.188 C 
ENDROOT
BRANCH   1   2
ATOM      2  O   UNL A   1      31.931  29.113  23.718  1.00  0.00    -0.376 OA
BRANCH   2   3
ATOM      3  C   UNL A   1      30.830  28.225  23.616  1.00  0.00     0.202 C 
BRANCH   3   4
ATOM      4  C   UNL A   1      30.820  26.859  24.323  1.00  0.00     0.261 C 
BRANCH   4   5
ATOM      5  O   UNL A   1      30.504  25.730  23.495  1.00  0.00    -0.460 OA
BRANCH   5   6
ATOM      6  C   UNL A   1      31.511  25.279  22.702  1.00  0.00     0.338 C 
ATOM      7  O   UNL A   1      31.782  25.680  21.580  1.00  0.00    -0.246 OA
BRANCH   6   8
ATOM      8  C   UNL A   1      32.371  24.318  23.453  1.00  0.00     0.062 A 
ATOM      9  C   UNL A   1      35.982  21.770  24.265  1.00  0.00     0.260 C 
ATOM     10  N   UNL A   1      34.813  21.508  25.148  1.00  0.00    -0.251 NA
ATOM     11  N   UNL A   1      35.741  22.952  23.392  1.00  0.00    -0.251 NA
ATOM     12  C   UNL A   1      33.970  22.397  24.754  1.00  0.00     0.086 A 
ATOM     13  C   UNL A   1      34.512  23.235  23.663  1.00  0.00     0.087 A 
ATOM     14  C   UNL A   1      32.611  22.650  25.245  1.00  0.00     0.031 A 
ATOM     15  C   UNL A   1      33.638  24.215  23.009  1.00  0.00     0.046 A 
ATOM     16  C   UNL A   1      31.879  23.575  24.605  1.00  0.00     0.018 A 
BRANCH   9  17
ATOM     17  C   UNL A   1      37.251  21.853  25.061  1.00  0.00     0.085 A 
ATOM     18  C   UNL A   1      41.415  19.922  26.691  1.00  0.00     0.060 A 
ATOM     19  C   UNL A   1      41.569  21.006  27.568  1.00  0.00     0.019 A 
ATOM     20  C   UNL A   1      40.313  19.878  25.820  1.00  0.00     0.027 A 
ATOM     21  C   UNL A   1      40.622  22.033  27.583  1.00  0.00     0.049 A 
ATOM     22  C   UNL A   1      39.360  20.901  25.841  1.00  0.00     0.019 A 
ATOM     23  C   UNL A   1      39.527  21.962  26.721  1.00  0.00     0.138 A 
ATOM     24  C   UNL A   1      38.178  20.879  24.998  1.00  0.00     0.027 A 
ATOM     25  O   UNL A   1      38.580  23.003  26.772  1.00  0.00    -0.422 OA
ATOM     26  C   UNL A   1      37.434  23.011  25.971  1.00  0.00     0.343 A 
ATOM     27  O   UNL A   1      36.638  23.945  26.035  1.00  0.00    -0.246 OA
BRANCH  18  28
ATOM     28  C   UNL A   1      42.390  18.801  26.647  1.00  0.00     0.337 C 
ATOM     29  O   UNL A   1      42.700  18.143  27.626  1.00  0.00    -0.246 OA
BRANCH  28  30
ATOM     30  O   UNL A   1      42.907  18.679  25.400  1.00  0.00    -0.465 OA
ATOM     31  C   UNL A   1      44.332  18.576  25.360  1.00  0.00     0.282 C 
ENDBRANCH  28  30
ENDBRANCH  18  28
ENDBRANCH   9  17
ENDBRANCH   6   8
ENDBRANCH   5   6
ENDBRANCH   4   5
ENDBRANCH   3   4
ENDBRANCH   2   3
ENDBRANCH   1   2
BRANCH   1  32
ATOM     32  C   UNL A   1      33.023  29.733  25.965  1.00  0.00     0.188 C 
BRANCH  32  33
ATOM     33  O   UNL A   1      31.808  30.208  26.489  1.00  0.00    -0.376 OA
BRANCH  33  34
ATOM     34  C   UNL A   1      31.366  31.524  26.207  1.00  0.00     0.202 C 
BRANCH  34  35
ATOM     35  C   UNL A   1      31.864  32.821  26.878  1.00  0.00     0.261 C 
BRANCH  35  36
ATOM     36  O   UNL A   1      32.891  32.726  27.867  1.00  0.00    -0.460 OA
BRANCH  36  37
ATOM     37  C   UNL A   1      33.968  33.536  27.686  1.00  0.00     0.338 C 
ATOM     38  O   UNL A   1      33.979  34.666  27.246  1.00  0.00    -0.246 OA
BRANCH  37  39
ATOM     39  C   UNL A   1      35.138  32.869  28.297  1.00  0.00     0.060 A 
ATOM     40  C   UNL A   1      36.356  33.542  28.389  1.00  0.00     0.016 A 
ATOM     41  C   UNL A   1      35.017  31.547  28.749  1.00  0.00     0.016 A 
ATOM     42  C   UNL A   1      37.457  32.891  28.950  1.00  0.00     0.010 A 
ATOM     43  C   UNL A   1      36.124  30.893  29.297  1.00  0.00     0.010 A 
ATOM     44  C   UNL A   1      37.348  31.567  29.420  1.00  0.00    -0.014 A 
BRANCH  44  45
ATOM     45  C   UNL A   1      38.475  30.969  30.179  1.00  0.00     0.031 A 
ATOM     46  C   UNL A   1      38.685  31.232  31.639  1.00  0.00     0.074 A 
ATOM     47  C   UNL A   1      39.314  30.149  29.518  1.00  0.00     0.049 A 
ATOM     48  N   UNL A   1      39.545  30.673  32.457  1.00  0.00    -0.248 NA
ATOM     49  C   UNL A   1      37.834  32.252  32.263  1.00  0.00     0.031 C 
ATOM     50  C   UNL A   1      39.230  29.850  28.088  1.00  0.00     0.029 A 
ATOM     51  N   UNL A   1      40.379  29.404  29.955  1.00  0.00    -0.354 N 
ATOM     52  C   UNL A   1      39.319  31.250  33.699  1.00  0.00     0.074 A 
ATOM     53  C   UNL A   1      38.280  32.244  33.515  1.00  0.00     0.031 C 
ATOM     54  C   UNL A   1      40.175  28.952  27.774  1.00  0.00     0.029 A 
ATOM     55  C   UNL A   1      40.946  28.633  28.971  1.00  0.00     0.049 A 
ATOM     56  H   UNL A   1      40.706  29.421  30.884  1.00  0.00     0.167 HD
ATOM     57  C   UNL A   1      39.909  30.954  34.883  1.00  0.00     0.037 A 
ATOM     58  C   UNL A   1      41.967  27.755  29.027  1.00  0.00     0.037 A 
ATOM     59  C   UNL A   1      40.960  29.979  35.053  1.00  0.00     0.049 A 
ATOM     60  C   UNL A   1      42.638  27.487  30.344  1.00  0.00     0.074 A 
ATOM     61  C   UNL A   1      41.592  29.589  36.221  1.00  0.00     0.029 A 
ATOM     62  N   UNL A   1      41.546  29.255  34.025  1.00  0.00    -0.354 N 
ATOM     63  N   UNL A   1      42.354  27.966  31.530  1.00  0.00    -0.248 NA
ATOM     64  C   UNL A   1      43.770  26.548  30.332  1.00  0.00     0.031 C 
ATOM     65  C   UNL A   1      42.600  28.677  35.895  1.00  0.00     0.029 A 
ATOM     66  C   UNL A   1      42.557  28.447  34.529  1.00  0.00     0.049 A 
ATOM     67  H   UNL A   1      41.286  29.306  33.077  1.00  0.00     0.167 HD
ATOM     68  C   UNL A   1      43.253  27.375  32.406  1.00  0.00     0.074 A 
ATOM     69  C   UNL A   1      44.080  26.484  31.620  1.00  0.00     0.031 C 
ATOM     70  C   UNL A   1      43.380  27.561  33.744  1.00  0.00     0.037 A 
BRANCH  57  71
ATOM     71  C   UNL A   1      39.428  31.678  36.109  1.00  0.00     0.064 A 
ATOM     72  C   UNL A   1      40.018  32.884  36.520  1.00  0.00     0.173 A 
ATOM     73  C   UNL A   1      38.308  31.223  36.822  1.00  0.00     0.173 A 
ATOM     74  F   UNL A   1      41.088  33.367  35.871  1.00  0.00    -0.203 F 
ATOM     75  C   UNL A   1      39.517  33.595  37.607  1.00  0.00     0.198 A 
ATOM     76  C   UNL A   1      37.791  31.954  37.890  1.00  0.00     0.198 A 
ATOM     77  F   UNL A   1      37.693  30.087  36.463  1.00  0.00    -0.203 F 
ATOM     78  F   UNL A   1      40.115  34.730  37.996  1.00  0.00    -0.200 F 
ATOM     79  C   UNL A   1      38.398  33.135  38.285  1.00  0.00     0.200 A 
ATOM     80  F   UNL A   1      36.695  31.519  38.530  1.00  0.00    -0.200 F 
ATOM     81  F   UNL A   1      37.904  33.834  39.317  1.00  0.00    -0.200 F 
ENDBRANCH  57  71
BRANCH  58  82
ATOM     82  C   UNL A   1      42.373  27.032  27.794  1.00  0.00     0.064 A 
ATOM     83  C   UNL A   1      43.469  27.463  27.036  1.00  0.00     0.173 A 
ATOM     84  C   UNL A   1      41.697  25.878  27.368  1.00  0.00     0.173 A 
ATOM     85  F   UNL A   1      44.136  28.571  27.394  1.00  0.00    -0.203 F 
ATOM     86  C   UNL A   1      43.870  26.773  25.895  1.00  0.00     0.198 A 
ATOM     87  C   UNL A   1      42.118  25.171  26.245  1.00  0.00     0.198 A 
ATOM     88  F   UNL A   1      40.644  25.421  28.062  1.00  0.00    -0.203 F 
ATOM     89  F   UNL A   1      44.901  27.227  25.169  1.00  0.00    -0.200 F 
ATOM     90  C   UNL A   1      43.201  25.623  25.505  1.00  0.00     0.200 A 
ATOM     91  F   UNL A   1      41.480  24.051  25.883  1.00  0.00    -0.200 F 
ATOM     92  F   UNL A   1      43.597  24.951  24.417  1.00  0.00    -0.200 F 
ENDBRANCH  58  82
BRANCH  70  93
ATOM     93  C   UNL A   1      44.448  26.782  34.460  1.00  0.00     0.064 A 
ATOM     94  C   UNL A   1      45.718  27.328  34.699  1.00  0.00     0.173 A 
ATOM     95  C   UNL A   1      44.175  25.507  34.982  1.00  0.00     0.173 A 
ATOM     96  F   UNL A   1      46.037  28.535  34.210  1.00  0.00    -0.203 F 
ATOM     97  C   UNL A   1      46.678  26.622  35.422  1.00  0.00     0.198 A 
ATOM     98  C   UNL A   1      45.125  24.819  35.731  1.00  0.00     0.198 A 
ATOM     99  F   UNL A   1      42.976  24.940  34.787  1.00  0.00    -0.203 F 
ATOM    100  F   UNL A   1      47.896  27.150  35.606  1.00  0.00    -0.200 F 
ATOM    101  C   UNL A   1      46.377  25.375  35.948  1.00  0.00     0.200 A 
ATOM    102  F   UNL A   1      44.826  23.621  36.254  1.00  0.00    -0.200 F 
ATOM    103  F   UNL A   1      47.294  24.708  36.661  1.00  0.00    -0.200 F 
ENDBRANCH  70  93
ENDBRANCH  44  45
ENDBRANCH  37  39
ENDBRANCH  36  37
ENDBRANCH  35  36
ENDBRANCH  34  35
ENDBRANCH  33  34
ENDBRANCH  32  33
ENDBRANCH   1  32
TORSDOF 20
ENDMDL
MODEL 2
REMARK VINA RESULT:     -10.4      4.330     10.302
REMARK SMILES COC(=O)c1ccc2oc(=O)c([C@H]3N=c4ccc(C(=O)OCCOCCOCCOC(=O)c5ccc(-c6c7nc(c(-c8c(F)c(F)c(F)c(F)c8F)c8ccc([nH]8)c(-c8c(F)c(F)c(F)c(F)c8F)c8nc(c(-c9c(F)c(F)c(F)c(F)c9F)c9ccc6[nH]9)C=C8)C=C7)cc5)cc4=N3)cc2c1
REMARK SMILES IDX 25 1 24 2 23 3 22 4 21 5 19 6 20 7 18 8 13 9 14 10 98 11
REMARK SMILES IDX 15 12 97 13 16 14 96 15 17 16 12 17 5 18 6 19 101 20 7 21
REMARK SMILES IDX 100 22 8 23 99 24 9 25 10 26 11 27 3 28 4 29 2 30 1 31 26 32
REMARK SMILES IDX 27 33 28 34 29 35 30 36 31 37 32 38 33 39 34 40 95 41 35 42
REMARK SMILES IDX 94 43 36 44 37 45 38 46 88 47 39 48 93 49 87 50 89 51 40 52
REMARK SMILES IDX 92 53 86 54 85 55 41 57 73 58 53 59 72 60 54 61 57 62 71 63
REMARK SMILES IDX 90 64 55 65 56 66 70 68 91 69 58 70 42 71 43 72 51 73 44 74
REMARK SMILES IDX 45 75 49 76 52 77 46 78 47 79 50 80 48 81 74 82 75 83 83 84
REMARK SMILES IDX 76 85 77 86 81 87 84 88 78 89 79 90 82 91 80 92 59 93 60 94
REMARK SMILES IDX 68 95 61 96 62 97 66 98 69 99 63 100 64 101 67 102 65 103
REMARK H PARENT 89 56 57 67
REMARK Flexibility Score: inf
ROOT
ATOM      1  C   UNL A   1      42.652  19.518  26.339  1.00  0.00     0.188 C 
ENDROOT
BRANCH   1   2
ATOM      2  O   UNL A   1      41.542  20.251  25.855  1.00  0.00    -0.376 OA
BRANCH   2   3
ATOM      3  C   UNL A   1      41.294  21.570  26.313  1.00  0.00     0.202 C 
BRANCH   3   4
ATOM      4  C   UNL A   1      39.910  22.007  26.824  1.00  0.00     0.261 C 
BRANCH   4   5
ATOM      5  O   UNL A   1      39.056  22.630  25.854  1.00  0.00    -0.460 OA
BRANCH   5   6
ATOM      6  C   UNL A   1      38.112  21.828  25.295  1.00  0.00     0.338 C 
ATOM      7  O   UNL A   1      38.140  20.607  25.242  1.00  0.00    -0.246 OA
BRANCH   6   8
ATOM      8  C   UNL A   1      36.925  22.633  24.885  1.00  0.00     0.062 A 
ATOM      9  C   UNL A   1      33.152  25.009  25.444  1.00  0.00     0.260 C 
ATOM     10  N   UNL A   1      33.454  24.626  24.039  1.00  0.00    -0.251 NA
ATOM     11  N   UNL A   1      34.274  24.644  26.352  1.00  0.00    -0.251 NA
ATOM     12  C   UNL A   1      34.589  24.031  24.156  1.00  0.00     0.086 A 
ATOM     13  C   UNL A   1      35.060  24.000  25.558  1.00  0.00     0.087 A 
ATOM     14  C   UNL A   1      35.415  23.420  23.110  1.00  0.00     0.031 A 
ATOM     15  C   UNL A   1      36.275  23.250  25.890  1.00  0.00     0.046 A 
ATOM     16  C   UNL A   1      36.523  22.766  23.492  1.00  0.00     0.018 A 
BRANCH   9  17
ATOM     17  C   UNL A   1      32.742  26.449  25.534  1.00  0.00     0.085 A 
ATOM     18  C   UNL A   1      33.413  30.998  27.141  1.00  0.00     0.060 A 
ATOM     19  C   UNL A   1      32.138  31.347  26.671  1.00  0.00     0.019 A 
ATOM     20  C   UNL A   1      33.898  29.694  26.944  1.00  0.00     0.027 A 
ATOM     21  C   UNL A   1      31.348  30.396  26.020  1.00  0.00     0.049 A 
ATOM     22  C   UNL A   1      33.104  28.739  26.302  1.00  0.00     0.019 A 
ATOM     23  C   UNL A   1      31.842  29.103  25.850  1.00  0.00     0.138 A 
ATOM     24  C   UNL A   1      33.536  27.365  26.119  1.00  0.00     0.027 A 
ATOM     25  O   UNL A   1      31.015  28.160  25.208  1.00  0.00    -0.422 OA
ATOM     26  C   UNL A   1      31.405  26.831  25.014  1.00  0.00     0.343 A 
ATOM     27  O   UNL A   1      30.660  26.044  24.436  1.00  0.00    -0.246 OA
BRANCH  18  28
ATOM     28  C   UNL A   1      34.285  31.973  27.847  1.00  0.00     0.337 C 
ATOM     29  O   UNL A   1      35.427  32.227  27.499  1.00  0.00    -0.246 OA
BRANCH  28  30
ATOM     30  O   UNL A   1      33.648  32.466  28.937  1.00  0.00    -0.465 OA
ATOM     31  C   UNL A   1      34.503  33.145  29.861  1.00  0.00     0.282 C 
ENDBRANCH  28  30
ENDBRANCH  18  28
ENDBRANCH   9  17
ENDBRANCH   6   8
ENDBRANCH   5   6
ENDBRANCH   4   5
ENDBRANCH   3   4
ENDBRANCH   2   3
ENDBRANCH   1   2
BRANCH   1  32
ATOM     32  C   UNL A   1      43.387  18.507  25.434  1.00  0.00     0.188 C 
BRANCH  32  33
ATOM     33  O   UNL A   1      44.642  18.050  25.873  1.00  0.00    -0.376 OA
BRANCH  33  34
ATOM     34  C   UNL A   1      45.797  18.237  25.073  1.00  0.00     0.202 C 
BRANCH  34  35
ATOM     35  C   UNL A   1      46.724  19.470  25.077  1.00  0.00     0.261 C 
BRANCH  35  36
ATOM     36  O   UNL A   1      46.221  20.700  25.603  1.00  0.00    -0.460 OA
BRANCH  36  37
ATOM     37  C   UNL A   1      45.446  21.434  24.761  1.00  0.00     0.338 C 
ATOM     38  O   UNL A   1      44.888  21.059  23.751  1.00  0.00    -0.246 OA
BRANCH  37  39
ATOM     39  C   UNL A   1      45.238  22.759  25.384  1.00  0.00     0.060 A 
ATOM     40  C   UNL A   1      45.227  22.882  26.773  1.00  0.00     0.016 A 
ATOM     41  C   UNL A   1      45.019  23.876  24.566  1.00  0.00     0.016 A 
ATOM     42  C   UNL A   1      45.009  24.136  27.347  1.00  0.00     0.010 A 
ATOM     43  C   UNL A   1      44.786  25.128  25.144  1.00  0.00     0.010 A 
ATOM     44  C   UNL A   1      44.799  25.271  26.538  1.00  0.00    -0.014 A 
BRANCH  44  45
ATOM     45  C   UNL A   1      44.759  26.615  27.168  1.00  0.00     0.031 A 
ATOM     46  C   UNL A   1      43.477  27.261  27.597  1.00  0.00     0.074 A 
ATOM     47  C   UNL A   1      45.930  27.250  27.370  1.00  0.00     0.049 A 
ATOM     48  N   UNL A   1      43.305  28.368  28.279  1.00  0.00    -0.248 NA
ATOM     49  C   UNL A   1      42.230  26.591  27.210  1.00  0.00     0.031 C 
ATOM     50  C   UNL A   1      47.237  26.735  26.959  1.00  0.00     0.029 A 
ATOM     51  N   UNL A   1      46.215  28.442  27.985  1.00  0.00    -0.354 N 
ATOM     52  C   UNL A   1      41.933  28.512  28.430  1.00  0.00     0.074 A 
ATOM     53  C   UNL A   1      41.316  27.410  27.719  1.00  0.00     0.031 C 
ATOM     54  C   UNL A   1      48.188  27.585  27.370  1.00  0.00     0.029 A 
ATOM     55  C   UNL A   1      47.559  28.714  28.049  1.00  0.00     0.049 A 
ATOM     56  H   UNL A   1      45.525  29.044  28.344  1.00  0.00     0.167 HD
ATOM     57  C   UNL A   1      41.259  29.464  29.122  1.00  0.00     0.037 A 
ATOM     58  C   UNL A   1      48.217  29.751  28.604  1.00  0.00     0.037 A 
ATOM     59  C   UNL A   1      41.880  30.572  29.807  1.00  0.00     0.049 A 
ATOM     60  C   UNL A   1      47.439  30.821  29.318  1.00  0.00     0.074 A 
ATOM     61  C   UNL A   1      41.278  31.564  30.563  1.00  0.00     0.029 A 
ATOM     62  N   UNL A   1      43.240  30.846  29.807  1.00  0.00    -0.354 N 
ATOM     63  N   UNL A   1      46.149  30.898  29.538  1.00  0.00    -0.248 NA
ATOM     64  C   UNL A   1      48.209  31.945  29.868  1.00  0.00     0.031 C 
ATOM     65  C   UNL A   1      42.263  32.470  30.966  1.00  0.00     0.029 A 
ATOM     66  C   UNL A   1      43.491  32.011  30.519  1.00  0.00     0.049 A 
ATOM     67  H   UNL A   1      43.927  30.295  29.366  1.00  0.00     0.167 HD
ATOM     68  C   UNL A   1      45.955  32.063  30.267  1.00  0.00     0.074 A 
ATOM     69  C   UNL A   1      47.262  32.651  30.473  1.00  0.00     0.031 C 
ATOM     70  C   UNL A   1      44.794  32.595  30.721  1.00  0.00     0.037 A 
BRANCH  57  71
ATOM     71  C   UNL A   1      39.762  29.353  29.194  1.00  0.00     0.064 A 
ATOM     72  C   UNL A   1      39.106  29.141  30.418  1.00  0.00     0.173 A 
ATOM     73  C   UNL A   1      38.967  29.559  28.055  1.00  0.00     0.173 A 
ATOM     74  F   UNL A   1      39.817  28.944  31.538  1.00  0.00    -0.203 F 
ATOM     75  C   UNL A   1      37.716  29.122  30.494  1.00  0.00     0.198 A 
ATOM     76  C   UNL A   1      37.576  29.569  28.141  1.00  0.00     0.198 A 
ATOM     77  F   UNL A   1      39.539  29.784  26.863  1.00  0.00    -0.203 F 
ATOM     78  F   UNL A   1      37.114  28.891  31.670  1.00  0.00    -0.200 F 
ATOM     79  C   UNL A   1      36.953  29.346  29.359  1.00  0.00     0.200 A 
ATOM     80  F   UNL A   1      36.840  29.809  27.047  1.00  0.00    -0.200 F 
ATOM     81  F   UNL A   1      35.614  29.350  29.439  1.00  0.00    -0.200 F 
ENDBRANCH  57  71
BRANCH  58  82
ATOM     82  C   UNL A   1      49.700  29.789  28.544  1.00  0.00     0.064 A 
ATOM     83  C   UNL A   1      50.360  30.518  27.545  1.00  0.00     0.173 A 
ATOM     84  C   UNL A   1      50.488  29.129  29.500  1.00  0.00     0.173 A 
ATOM     85  F   UNL A   1      49.652  31.152  26.599  1.00  0.00    -0.203 F 
ATOM     86  C   UNL A   1      51.752  30.578  27.500  1.00  0.00     0.198 A 
ATOM     87  C   UNL A   1      51.877  29.215  29.471  1.00  0.00     0.198 A 
ATOM     88  F   UNL A   1      49.904  28.422  30.479  1.00  0.00    -0.203 F 
ATOM     89  F   UNL A   1      52.357  31.254  26.514  1.00  0.00    -0.200 F 
ATOM     90  C   UNL A   1      52.508  29.936  28.468  1.00  0.00     0.200 A 
ATOM     91  F   UNL A   1      52.603  28.608  30.419  1.00  0.00    -0.200 F 
ATOM     92  F   UNL A   1      53.845  30.008  28.433  1.00  0.00    -0.200 F 
ENDBRANCH  58  82
BRANCH  70  93
ATOM     93  C   UNL A   1      44.870  33.881  31.497  1.00  0.00     0.064 A 
ATOM     94  C   UNL A   1      44.825  35.128  30.856  1.00  0.00     0.173 A 
ATOM     95  C   UNL A   1      44.908  33.867  32.900  1.00  0.00     0.173 A 
ATOM     96  F   UNL A   1      44.802  35.199  29.517  1.00  0.00    -0.203 F 
ATOM     97  C   UNL A   1      44.829  36.312  31.591  1.00  0.00     0.198 A 
ATOM     98  C   UNL A   1      44.879  35.051  33.631  1.00  0.00     0.198 A 
ATOM     99  F   UNL A   1      44.947  32.702  33.564  1.00  0.00    -0.203 F 
ATOM    100  F   UNL A   1      44.822  37.492  30.955  1.00  0.00    -0.200 F 
ATOM    101  C   UNL A   1      44.843  36.273  32.976  1.00  0.00     0.200 A 
ATOM    102  F   UNL A   1      44.874  35.011  34.971  1.00  0.00    -0.200 F 
ATOM    103  F   UNL A   1      44.825  37.413  33.680  1.00  0.00    -0.200 F 
ENDBRANCH  70  93
ENDBRANCH  44  45
ENDBRANCH  37  39
ENDBRANCH  36  37
ENDBRANCH  35  36
ENDBRANCH  34  35
ENDBRANCH  33  34
ENDBRANCH  32  33
ENDBRANCH   1  32
TORSDOF 20
ENDMDL
MODEL 3
REMARK VINA RESULT:     -10.3      4.884      7.883
REMARK SMILES COC(=O)c1ccc2oc(=O)c([C@H]3N=c4ccc(C(=O)OCCOCCOCCOC(=O)c5ccc(-c6c7nc(c(-c8c(F)c(F)c(F)c(F)c8F)c8ccc([nH]8)c(-c8c(F)c(F)c(F)c(F)c8F)c8nc(c(-c9c(F)c(F)c(F)c(F)c9F)c9ccc6[nH]9)C=C8)C=C7)cc5)cc4=N3)cc2c1
REMARK SMILES IDX 25 1 24 2 23 3 22 4 21 5 19 6 20 7 18 8 13 9 14 10 98 11
REMARK SMILES IDX 15 12 97 13 16 14 96 15 17 16 12 17 5 18 6 19 101 20 7 21
REMARK SMILES IDX 100 22 8 23 99 24 9 25 10 26 11 27 3 28 4 29 2 30 1 31 26 32
REMARK SMILES IDX 27 33 28 34 29 35 30 36 31 37 32 38 33 39 34 40 95 41 35 42
REMARK SMILES IDX 94 43 36 44 37 45 38 46 88 47 39 48 93 49 87 50 89 51 40 52
REMARK SMILES IDX 92 53 86 54 85 55 41 57 73 58 53 59 72 60 54 61 57 62 71 63
REMARK SMILES IDX 90 64 55 65 56 66 70 68 91 69 58 70 42 71 43 72 51 73 44 74
REMARK SMILES IDX 45 75 49 76 52 77 46 78 47 79 50 80 48 81 74 82 75 83 83 84
REMARK SMILES IDX 76 85 77 86 81 87 84 88 78 89 79 90 82 91 80 92 59 93 60 94
REMARK SMILES IDX 68 95 61 96 62 97 66 98 69 99 63 100 64 101 67 102 65 103
REMARK H PARENT 89 56 57 67
REMARK Flexibility Score: inf
ROOT
ATOM      1  C   UNL A   1      33.916  34.755  29.533  1.00  0.00     0.188 C 
ENDROOT
BRANCH   1   2
ATOM      2  O   UNL A   1      34.686  33.619  29.184  1.00  0.00    -0.376 OA
BRANCH   2   3
ATOM      3  C   UNL A   1      34.215  32.699  28.214  1.00  0.00     0.202 C 
BRANCH   3   4
ATOM      4  C   UNL A   1      34.918  31.355  27.959  1.00  0.00     0.261 C 
BRANCH   4   5
ATOM      5  O   UNL A   1      36.234  31.224  28.518  1.00  0.00    -0.460 OA
BRANCH   5   6
ATOM      6  C   UNL A   1      36.490  30.056  29.162  1.00  0.00     0.338 C 
ATOM      7  O   UNL A   1      35.659  29.257  29.567  1.00  0.00    -0.246 OA
BRANCH   6   8
ATOM      8  C   UNL A   1      37.956  29.781  29.173  1.00  0.00     0.062 A 
ATOM      9  C   UNL A   1      41.691  27.296  29.444  1.00  0.00     0.260 C 
ATOM     10  N   UNL A   1      41.904  28.766  29.513  1.00  0.00    -0.251 NA
ATOM     11  N   UNL A   1      40.270  26.975  29.136  1.00  0.00    -0.251 NA
ATOM     12  C   UNL A   1      40.713  29.223  29.348  1.00  0.00     0.086 A 
ATOM     13  C   UNL A   1      39.721  28.141  29.168  1.00  0.00     0.087 A 
ATOM     14  C   UNL A   1      40.264  30.619  29.317  1.00  0.00     0.031 A 
ATOM     15  C   UNL A   1      38.296  28.480  29.093  1.00  0.00     0.046 A 
ATOM     16  C   UNL A   1      38.945  30.848  29.228  1.00  0.00     0.018 A 
BRANCH   9  17
ATOM     17  C   UNL A   1      42.674  26.651  28.511  1.00  0.00     0.085 A 
ATOM     18  C   UNL A   1      46.065  26.904  25.024  1.00  0.00     0.060 A 
ATOM     19  C   UNL A   1      46.014  25.509  24.880  1.00  0.00     0.019 A 
ATOM     20  C   UNL A   1      45.267  27.536  25.992  1.00  0.00     0.027 A 
ATOM     21  C   UNL A   1      45.162  24.753  25.690  1.00  0.00     0.049 A 
ATOM     22  C   UNL A   1      44.407  26.781  26.796  1.00  0.00     0.019 A 
ATOM     23  C   UNL A   1      44.366  25.403  26.633  1.00  0.00     0.138 A 
ATOM     24  C   UNL A   1      43.524  27.390  27.775  1.00  0.00     0.027 A 
ATOM     25  O   UNL A   1      43.503  24.617  27.422  1.00  0.00    -0.422 OA
ATOM     26  C   UNL A   1      42.644  25.173  28.374  1.00  0.00     0.343 A 
ATOM     27  O   UNL A   1      41.917  24.451  29.052  1.00  0.00    -0.246 OA
BRANCH  18  28
ATOM     28  C   UNL A   1      46.948  27.749  24.180  1.00  0.00     0.337 C 
ATOM     29  O   UNL A   1      46.805  28.955  24.057  1.00  0.00    -0.246 OA
BRANCH  28  30
ATOM     30  O   UNL A   1      47.864  26.979  23.543  1.00  0.00    -0.465 OA
ATOM     31  C   UNL A   1      49.163  27.568  23.448  1.00  0.00     0.282 C 
ENDBRANCH  28  30
ENDBRANCH  18  28
ENDBRANCH   9  17
ENDBRANCH   6   8
ENDBRANCH   5   6
ENDBRANCH   4   5
ENDBRANCH   3   4
ENDBRANCH   2   3
ENDBRANCH   1   2
BRANCH   1  32
ATOM     32  C   UNL A   1      33.848  35.247  30.994  1.00  0.00     0.188 C 
BRANCH  32  33
ATOM     33  O   UNL A   1      33.517  34.297  31.975  1.00  0.00    -0.376 OA
BRANCH  33  34
ATOM     34  C   UNL A   1      34.468  33.907  32.952  1.00  0.00     0.202 C 
BRANCH  34  35
ATOM     35  C   UNL A   1      35.299  34.849  33.847  1.00  0.00     0.261 C 
BRANCH  35  36
ATOM     36  O   UNL A   1      36.722  34.717  33.839  1.00  0.00    -0.460 OA
BRANCH  36  37
ATOM     37  C   UNL A   1      37.245  33.863  34.759  1.00  0.00     0.338 C 
ATOM     38  O   UNL A   1      36.748  33.509  35.808  1.00  0.00    -0.246 OA
BRANCH  37  39
ATOM     39  C   UNL A   1      38.472  33.275  34.179  1.00  0.00     0.060 A 
ATOM     40  C   UNL A   1      39.715  33.844  34.453  1.00  0.00     0.016 A 
ATOM     41  C   UNL A   1      38.366  32.165  33.328  1.00  0.00     0.016 A 
ATOM     42  C   UNL A   1      40.862  33.288  33.881  1.00  0.00     0.010 A 
ATOM     43  C   UNL A   1      39.514  31.621  32.745  1.00  0.00     0.010 A 
ATOM     44  C   UNL A   1      40.773  32.166  33.033  1.00  0.00    -0.014 A 
BRANCH  44  45
ATOM     45  C   UNL A   1      42.018  31.486  32.594  1.00  0.00     0.031 A 
ATOM     46  C   UNL A   1      42.617  30.344  33.355  1.00  0.00     0.074 A 
ATOM     47  C   UNL A   1      42.600  31.913  31.457  1.00  0.00     0.049 A 
ATOM     48  N   UNL A   1      43.622  29.571  33.018  1.00  0.00    -0.248 NA
ATOM     49  C   UNL A   1      42.026  30.029  34.661  1.00  0.00     0.031 C 
ATOM     50  C   UNL A   1      42.127  33.041  30.653  1.00  0.00     0.029 A 
ATOM     51  N   UNL A   1      43.691  31.445  30.771  1.00  0.00    -0.354 N 
ATOM     52  C   UNL A   1      43.765  28.658  34.053  1.00  0.00     0.074 A 
ATOM     53  C   UNL A   1      42.781  29.010  35.058  1.00  0.00     0.031 C 
ATOM     54  C   UNL A   1      42.898  33.151  29.561  1.00  0.00     0.029 A 
ATOM     55  C   UNL A   1      43.931  32.121  29.601  1.00  0.00     0.049 A 
ATOM     56  H   UNL A   1      44.249  30.698  31.087  1.00  0.00     0.167 HD
ATOM     57  C   UNL A   1      44.622  27.611  34.139  1.00  0.00     0.037 A 
ATOM     58  C   UNL A   1      44.872  31.927  28.655  1.00  0.00     0.037 A 
ATOM     59  C   UNL A   1      45.615  27.283  33.144  1.00  0.00     0.049 A 
ATOM     60  C   UNL A   1      45.844  30.791  28.803  1.00  0.00     0.074 A 
ATOM     61  C   UNL A   1      46.503  26.220  33.131  1.00  0.00     0.029 A 
ATOM     62  N   UNL A   1      45.865  28.021  31.996  1.00  0.00    -0.354 N 
ATOM     63  N   UNL A   1      45.909  29.876  29.739  1.00  0.00    -0.248 NA
ATOM     64  C   UNL A   1      46.869  30.656  27.759  1.00  0.00     0.031 C 
ATOM     65  C   UNL A   1      47.329  26.349  32.011  1.00  0.00     0.029 A 
ATOM     66  C   UNL A   1      46.917  27.456  31.288  1.00  0.00     0.049 A 
ATOM     67  H   UNL A   1      45.371  28.828  31.724  1.00  0.00     0.167 HD
ATOM     68  C   UNL A   1      46.966  29.047  29.388  1.00  0.00     0.074 A 
ATOM     69  C   UNL A   1      47.499  29.553  28.141  1.00  0.00     0.031 C 
ATOM     70  C   UNL A   1      47.448  27.964  30.046  1.00  0.00     0.037 A 
BRANCH  57  71
ATOM     71  C   UNL A   1      44.525  26.720  35.345  1.00  0.00     0.064 A 
ATOM     72  C   UNL A   1      43.808  25.514  35.302  1.00  0.00     0.173 A 
ATOM     73  C   UNL A   1      45.233  27.017  36.520  1.00  0.00     0.173 A 
ATOM     74  F   UNL A   1      43.117  25.178  34.202  1.00  0.00    -0.203 F 
ATOM     75  C   UNL A   1      43.789  24.650  36.393  1.00  0.00     0.198 A 
ATOM     76  C   UNL A   1      45.237  26.135  37.599  1.00  0.00     0.198 A 
ATOM     77  F   UNL A   1      45.951  28.146  36.610  1.00  0.00    -0.203 F 
ATOM     78  F   UNL A   1      43.074  23.517  36.338  1.00  0.00    -0.200 F 
ATOM     79  C   UNL A   1      44.511  24.956  37.537  1.00  0.00     0.200 A 
ATOM     80  F   UNL A   1      45.954  26.422  38.695  1.00  0.00    -0.200 F 
ATOM     81  F   UNL A   1      44.510  24.112  38.579  1.00  0.00    -0.200 F 
ENDBRANCH  57  71
BRANCH  58  82
ATOM     82  C   UNL A   1      44.895  32.809  27.460  1.00  0.00     0.064 A 
ATOM     83  C   UNL A   1      45.682  33.969  27.438  1.00  0.00     0.173 A 
ATOM     84  C   UNL A   1      44.160  32.495  26.306  1.00  0.00     0.173 A 
ATOM     85  F   UNL A   1      46.387  34.320  28.523  1.00  0.00    -0.203 F 
ATOM     86  C   UNL A   1      45.727  34.785  26.310  1.00  0.00     0.198 A 
ATOM     87  C   UNL A   1      44.231  33.295  25.168  1.00  0.00     0.198 A 
ATOM     88  F   UNL A   1      43.396  31.394  26.275  1.00  0.00    -0.203 F 
ATOM     89  F   UNL A   1      46.461  35.906  26.328  1.00  0.00    -0.200 F 
ATOM     90  C   UNL A   1      45.011  34.443  25.173  1.00  0.00     0.200 A 
ATOM     91  F   UNL A   1      43.552  32.951  24.067  1.00  0.00    -0.200 F 
ATOM     92  F   UNL A   1      45.068  35.220  24.083  1.00  0.00    -0.200 F 
ENDBRANCH  58  82
BRANCH  70  93
ATOM     93  C   UNL A   1      48.612  27.235  29.435  1.00  0.00     0.064 A 
ATOM     94  C   UNL A   1      48.424  26.184  28.525  1.00  0.00     0.173 A 
ATOM     95  C   UNL A   1      49.929  27.641  29.701  1.00  0.00     0.173 A 
ATOM     96  F   UNL A   1      47.187  25.746  28.246  1.00  0.00    -0.203 F 
ATOM     97  C   UNL A   1      49.510  25.560  27.915  1.00  0.00     0.198 A 
ATOM     98  C   UNL A   1      51.010  27.037  29.065  1.00  0.00     0.198 A 
ATOM     99  F   UNL A   1      50.167  28.644  30.560  1.00  0.00    -0.203 F 
ATOM    100  F   UNL A   1      49.306  24.535  27.076  1.00  0.00    -0.200 F 
ATOM    101  C   UNL A   1      50.800  25.995  28.175  1.00  0.00     0.200 A 
ATOM    102  F   UNL A   1      52.256  27.471  29.305  1.00  0.00    -0.200 F 
ATOM    103  F   UNL A   1      51.841  25.407  27.570  1.00  0.00    -0.200 F 
ENDBRANCH  70  93
ENDBRANCH  44  45
ENDBRANCH  37  39
ENDBRANCH  36  37
ENDBRANCH  35  36
ENDBRANCH  34  35
ENDBRANCH  33  34
ENDBRANCH  32  33
ENDBRANCH   1  32
TORSDOF 20
ENDMDL
