MODEL 1
REMARK VINA RESULT:     -14.3      0.000      0.000
REMARK SMILES Cc1ccc(NS(=O)(=O)c2cc(C(=O)Nc3ccccc3C(=O)OCCOCCOCCOC(=O)c3ccc(-c4c5nc(c(-c6c(F)c(F)c(F)c(F)c6F)c6ccc([nH]6)c(-c6c(F)c(F)c(F)c(F)c6F)c6nc(c(-c7c(F)c(F)c(F)c(F)c7F)c7ccc4[nH]7)C=C6)C=C5)cc3)ccc2Br)cc1
REMARK SMILES IDX 27 1 26 2 25 3 24 4 22 5 23 6 21 7 16 8 17 9 18 10 20 11
REMARK SMILES IDX 19 12 15 13 13 14 14 15 12 17 10 18 11 19 101 20 100 21
REMARK SMILES IDX 102 22 99 23 7 24 8 25 9 26 6 27 5 29 1 30 2 31 3 32 104 33
REMARK SMILES IDX 4 34 103 35 28 36 29 37 30 38 31 39 32 40 33 41 34 42 35 43
REMARK SMILES IDX 36 44 37 45 98 46 38 47 97 48 39 49 40 50 41 51 91 52 42 53
REMARK SMILES IDX 96 54 90 55 92 56 43 57 95 58 89 59 88 60 44 62 76 63 56 64
REMARK SMILES IDX 75 65 57 66 60 67 74 68 93 69 58 70 59 71 73 73 94 74 61 75
REMARK SMILES IDX 45 76 46 77 54 78 47 79 48 80 52 81 55 82 49 83 50 84 53 85
REMARK SMILES IDX 51 86 77 87 78 88 86 89 79 90 80 91 84 92 87 93 81 94 82 95
REMARK SMILES IDX 85 96 83 97 62 98 63 99 71 100 64 101 65 102 69 103 72 104
REMARK SMILES IDX 66 105 67 106 70 107 68 108
REMARK H PARENT 15 16 6 28 92 61 60 72
REMARK Flexibility Score: inf
ROOT
ATOM      1  O   UNL A   1      36.358  29.371  29.058  1.00  0.00    -0.376 OA
ENDROOT
BRANCH   1   2
ATOM      2  C   UNL A   1      37.304  28.969  28.061  1.00  0.00     0.202 C 
BRANCH   2   3
ATOM      3  C   UNL A   1      38.561  27.846  28.329  1.00  0.00     0.261 C 
BRANCH   3   4
ATOM      4  O   UNL A   1      38.824  26.061  28.064  1.00  0.00    -0.460 OA
BRANCH   4   5
ATOM      5  C   UNL A   1      39.305  24.949  27.128  1.00  0.00     0.340 C 
ATOM      6  O   UNL A   1      39.262  24.787  25.893  1.00  0.00    -0.246 OA
BRANCH   5   7
ATOM      7  C   UNL A   1      40.221  23.895  27.231  1.00  0.00     0.083 A 
ATOM      8  C   UNL A   1      40.444  22.135  26.655  1.00  0.00     0.056 A 
ATOM      9  C   UNL A   1      42.067  21.337  27.565  1.00  0.00     0.027 A 
ATOM     10  C   UNL A   1      43.078  22.236  28.735  1.00  0.00     0.002 A 
ATOM     11  C   UNL A   1      41.327  24.627  28.481  1.00  0.00     0.018 A 
ATOM     12  C   UNL A   1      42.672  23.820  29.160  1.00  0.00     0.001 A 
BRANCH   8  13
ATOM     13  N   UNL A   1      39.148  21.485  25.464  1.00  0.00    -0.321 N 
ATOM     14  C   UNL A   1      37.474  22.092  24.980  1.00  0.00     0.255 C 
ATOM     15  O   UNL A   1      37.227  22.141  23.763  1.00  0.00    -0.269 OA
ATOM     16  H   UNL A   1      39.415  20.655  25.007  1.00  0.00     0.170 HD
BRANCH  14  17
ATOM     17  C   UNL A   1      36.304  23.311  25.906  1.00  0.00     0.041 A 
ATOM     18  C   UNL A   1      34.120  25.068  24.945  1.00  0.00     0.102 A 
ATOM     19  C   UNL A   1      35.617  24.512  25.306  1.00  0.00     0.037 A 
ATOM     20  C   UNL A   1      33.311  24.824  25.969  1.00  0.00     0.038 A 
ATOM     21  C   UNL A   1      33.868  23.817  26.802  1.00  0.00     0.018 A 
ATOM     22  Br  UNL A   1      31.664  25.628  26.317  1.00  0.00    -0.049 Br
ATOM     23  C   UNL A   1      35.294  22.984  26.784  1.00  0.00     0.015 A 
BRANCH  18  24
ATOM     24  S   UNL A   1      33.106  25.060  22.963  1.00  0.00     0.263 S 
ATOM     25  O   UNL A   1      34.100  25.540  22.025  1.00  0.00    -0.201 OA
ATOM     26  O   UNL A   1      31.900  25.830  23.194  1.00  0.00    -0.201 OA
BRANCH  24  27
ATOM     27  N   UNL A   1      32.287  23.223  22.141  1.00  0.00    -0.280 N 
ATOM     28  H   UNL A   1      31.826  23.369  21.285  1.00  0.00     0.180 HD
BRANCH  27  29
ATOM     29  C   UNL A   1      32.251  21.457  22.667  1.00  0.00     0.049 A 
ATOM     30  C   UNL A   1      33.979  16.885  24.365  1.00  0.00     0.044 C 
ATOM     31  C   UNL A   1      33.452  18.192  23.836  1.00  0.00    -0.051 A 
ATOM     32  C   UNL A   1      33.761  19.709  24.738  1.00  0.00     0.005 A 
ATOM     33  C   UNL A   1      32.499  18.148  22.354  1.00  0.00     0.005 A 
ATOM     34  C   UNL A   1      33.162  21.315  24.214  1.00  0.00     0.027 A 
ATOM     35  C   UNL A   1      31.835  19.710  21.722  1.00  0.00     0.027 A 
ENDBRANCH  27  29
ENDBRANCH  24  27
ENDBRANCH  18  24
ENDBRANCH  14  17
ENDBRANCH   8  13
ENDBRANCH   5   7
ENDBRANCH   4   5
ENDBRANCH   3   4
ENDBRANCH   2   3
ENDBRANCH   1   2
BRANCH   1  36
ATOM     36  C   UNL A   1      36.207  30.767  29.448  1.00  0.00     0.188 C 
BRANCH  36  37
ATOM     37  C   UNL A   1      35.015  31.488  28.800  1.00  0.00     0.188 C 
BRANCH  37  38
ATOM     38  O   UNL A   1      34.627  32.782  29.263  1.00  0.00    -0.376 OA
BRANCH  38  39
ATOM     39  C   UNL A   1      35.579  33.854  28.879  1.00  0.00     0.202 C 
BRANCH  39  40
ATOM     40  C   UNL A   1      36.547  34.352  30.111  1.00  0.00     0.261 C 
BRANCH  40  41
ATOM     41  O   UNL A   1      36.253  34.364  31.775  1.00  0.00    -0.460 OA
BRANCH  41  42
ATOM     42  C   UNL A   1      36.436  34.049  33.156  1.00  0.00     0.338 C 
ATOM     43  O   UNL A   1      35.915  34.818  33.967  1.00  0.00    -0.246 OA
BRANCH  42  44
ATOM     44  C   UNL A   1      37.298  32.914  33.845  1.00  0.00     0.060 A 
ATOM     45  C   UNL A   1      38.202  33.177  34.805  1.00  0.00     0.016 A 
ATOM     46  C   UNL A   1      37.415  31.551  33.642  1.00  0.00     0.016 A 
ATOM     47  C   UNL A   1      39.428  32.335  34.848  1.00  0.00     0.010 A 
ATOM     48  C   UNL A   1      38.842  30.832  33.703  1.00  0.00     0.010 A 
ATOM     49  C   UNL A   1      40.158  31.146  33.919  1.00  0.00    -0.014 A 
BRANCH  49  50
ATOM     50  C   UNL A   1      41.993  30.727  33.129  1.00  0.00     0.031 A 
ATOM     51  C   UNL A   1      43.078  31.386  31.623  1.00  0.00     0.074 A 
ATOM     52  C   UNL A   1      43.131  29.959  33.663  1.00  0.00     0.049 A 
ATOM     53  N   UNL A   1      43.616  30.764  30.556  1.00  0.00    -0.248 NA
ATOM     54  C   UNL A   1      43.341  33.065  31.074  1.00  0.00     0.031 C 
ATOM     55  C   UNL A   1      44.583  30.112  33.256  1.00  0.00     0.029 A 
ATOM     56  N   UNL A   1      43.357  29.026  34.772  1.00  0.00    -0.354 N 
ATOM     57  C   UNL A   1      43.960  31.772  29.509  1.00  0.00     0.074 A 
ATOM     58  C   UNL A   1      43.384  33.004  29.778  1.00  0.00     0.031 C 
ATOM     59  C   UNL A   1      45.412  29.306  33.934  1.00  0.00     0.029 A 
ATOM     60  C   UNL A   1      44.620  28.365  34.654  1.00  0.00     0.049 A 
ATOM     61  H   UNL A   1      42.719  28.873  35.506  1.00  0.00     0.167 HD
ATOM     62  C   UNL A   1      45.061  31.912  28.703  1.00  0.00     0.037 A 
ATOM     63  C   UNL A   1      44.903  27.024  34.599  1.00  0.00     0.037 A 
ATOM     64  C   UNL A   1      45.987  30.931  29.147  1.00  0.00     0.049 A 
ATOM     65  C   UNL A   1      45.299  26.602  33.184  1.00  0.00     0.074 A 
ATOM     66  C   UNL A   1      47.002  30.951  30.083  1.00  0.00     0.029 A 
ATOM     67  N   UNL A   1      45.551  29.638  29.032  1.00  0.00    -0.354 N 
ATOM     68  N   UNL A   1      45.544  27.443  32.214  1.00  0.00    -0.248 NA
ATOM     69  C   UNL A   1      45.426  25.214  32.740  1.00  0.00     0.031 C 
ATOM     70  C   UNL A   1      47.113  29.621  30.585  1.00  0.00     0.029 A 
ATOM     71  C   UNL A   1      46.225  28.812  29.892  1.00  0.00     0.049 A 
ATOM     72  H   UNL A   1      44.845  29.341  28.414  1.00  0.00     0.167 HD
ATOM     73  C   UNL A   1      45.746  26.769  31.045  1.00  0.00     0.074 A 
ATOM     74  C   UNL A   1      45.714  25.378  31.437  1.00  0.00     0.031 C 
ATOM     75  C   UNL A   1      45.901  27.400  29.845  1.00  0.00     0.037 A 
BRANCH  62  76
ATOM     76  C   UNL A   1      45.382  33.211  27.861  1.00  0.00     0.064 A 
ATOM     77  C   UNL A   1      44.880  33.357  26.558  1.00  0.00     0.173 A 
ATOM     78  C   UNL A   1      46.188  34.325  28.268  1.00  0.00     0.173 A 
ATOM     79  F   UNL A   1      44.007  32.472  26.065  1.00  0.00    -0.203 F 
ATOM     80  C   UNL A   1      45.233  34.432  25.716  1.00  0.00     0.198 A 
ATOM     81  C   UNL A   1      46.642  35.326  27.390  1.00  0.00     0.198 A 
ATOM     82  F   UNL A   1      46.521  34.530  29.552  1.00  0.00    -0.203 F 
ATOM     83  F   UNL A   1      44.667  34.537  24.505  1.00  0.00    -0.200 F 
ATOM     84  C   UNL A   1      46.152  35.386  26.110  1.00  0.00     0.200 A 
ATOM     85  F   UNL A   1      47.534  36.242  27.807  1.00  0.00    -0.200 F 
ATOM     86  F   UNL A   1      46.514  36.381  25.287  1.00  0.00    -0.200 F 
ENDBRANCH  62  76
BRANCH  63  87
ATOM     87  C   UNL A   1      44.203  26.153  35.584  1.00  0.00     0.064 A 
ATOM     88  C   UNL A   1      43.052  25.465  35.140  1.00  0.00     0.173 A 
ATOM     89  C   UNL A   1      45.067  25.496  36.435  1.00  0.00     0.173 A 
ATOM     90  F   UNL A   1      42.090  26.116  34.467  1.00  0.00    -0.203 F 
ATOM     91  C   UNL A   1      42.999  24.079  35.208  1.00  0.00     0.198 A 
ATOM     92  C   UNL A   1      45.101  24.120  36.371  1.00  0.00     0.198 A 
ATOM     93  F   UNL A   1      46.097  26.144  36.995  1.00  0.00    -0.203 F 
ATOM     94  F   UNL A   1      41.982  23.406  34.646  1.00  0.00    -0.200 F 
ATOM     95  C   UNL A   1      44.098  23.402  35.706  1.00  0.00     0.200 A 
ATOM     96  F   UNL A   1      46.243  23.559  36.790  1.00  0.00    -0.200 F 
ATOM     97  F   UNL A   1      44.226  22.093  35.440  1.00  0.00    -0.200 F 
ENDBRANCH  63  87
BRANCH  75  98
ATOM     98  C   UNL A   1      45.803  26.726  28.488  1.00  0.00     0.064 A 
ATOM     99  C   UNL A   1      44.593  26.540  27.807  1.00  0.00     0.173 A 
ATOM    100  C   UNL A   1      46.964  26.344  27.761  1.00  0.00     0.173 A 
ATOM    101  F   UNL A   1      43.443  27.051  28.265  1.00  0.00    -0.203 F 
ATOM    102  C   UNL A   1      44.531  25.859  26.592  1.00  0.00     0.198 A 
ATOM    103  C   UNL A   1      46.905  25.793  26.487  1.00  0.00     0.198 A 
ATOM    104  F   UNL A   1      48.202  26.505  28.249  1.00  0.00    -0.203 F 
ATOM    105  F   UNL A   1      43.335  25.570  26.061  1.00  0.00    -0.200 F 
ATOM    106  C   UNL A   1      45.686  25.491  25.928  1.00  0.00     0.200 A 
ATOM    107  F   UNL A   1      48.039  25.555  25.812  1.00  0.00    -0.200 F 
ATOM    108  F   UNL A   1      45.622  24.860  24.751  1.00  0.00    -0.200 F 
ENDBRANCH  75  98
ENDBRANCH  49  50
ENDBRANCH  42  44
ENDBRANCH  41  42
ENDBRANCH  40  41
ENDBRANCH  39  40
ENDBRANCH  38  39
ENDBRANCH  37  38
ENDBRANCH  36  37
ENDBRANCH   1  36
TORSDOF 22
ENDMDL
MODEL 2
REMARK VINA RESULT:     -13.8      4.601     10.127
REMARK SMILES Cc1ccc(NS(=O)(=O)c2cc(C(=O)Nc3ccccc3C(=O)OCCOCCOCCOC(=O)c3ccc(-c4c5nc(c(-c6c(F)c(F)c(F)c(F)c6F)c6ccc([nH]6)c(-c6c(F)c(F)c(F)c(F)c6F)c6nc(c(-c7c(F)c(F)c(F)c(F)c7F)c7ccc4[nH]7)C=C6)C=C5)cc3)ccc2Br)cc1
REMARK SMILES IDX 27 1 26 2 25 3 24 4 22 5 23 6 21 7 16 8 17 9 18 10 20 11
REMARK SMILES IDX 19 12 15 13 13 14 14 15 12 17 10 18 11 19 101 20 100 21
REMARK SMILES IDX 102 22 99 23 7 24 8 25 9 26 6 27 5 29 1 30 2 31 3 32 104 33
REMARK SMILES IDX 4 34 103 35 28 36 29 37 30 38 31 39 32 40 33 41 34 42 35 43
REMARK SMILES IDX 36 44 37 45 98 46 38 47 97 48 39 49 40 50 41 51 91 52 42 53
REMARK SMILES IDX 96 54 90 55 92 56 43 57 95 58 89 59 88 60 44 62 76 63 56 64
REMARK SMILES IDX 75 65 57 66 60 67 74 68 93 69 58 70 59 71 73 73 94 74 61 75
REMARK SMILES IDX 45 76 46 77 54 78 47 79 48 80 52 81 55 82 49 83 50 84 53 85
REMARK SMILES IDX 51 86 77 87 78 88 86 89 79 90 80 91 84 92 87 93 81 94 82 95
REMARK SMILES IDX 85 96 83 97 62 98 63 99 71 100 64 101 65 102 69 103 72 104
REMARK SMILES IDX 66 105 67 106 70 107 68 108
REMARK H PARENT 15 16 6 28 92 61 60 72
REMARK Flexibility Score: inf
ROOT
ATOM      1  O   UNL A   1      33.760  26.021  24.869  1.00  0.00    -0.376 OA
ENDROOT
BRANCH   1   2
ATOM      2  C   UNL A   1      33.328  27.246  25.471  1.00  0.00     0.202 C 
BRANCH   2   3
ATOM      3  C   UNL A   1      34.367  28.545  25.854  1.00  0.00     0.261 C 
BRANCH   3   4
ATOM      4  O   UNL A   1      35.023  29.316  27.371  1.00  0.00    -0.460 OA
BRANCH   4   5
ATOM      5  C   UNL A   1      36.253  29.727  28.185  1.00  0.00     0.340 C 
ATOM      6  O   UNL A   1      36.923  30.776  28.260  1.00  0.00    -0.246 OA
BRANCH   5   7
ATOM      7  C   UNL A   1      36.880  29.248  29.341  1.00  0.00     0.083 A 
ATOM      8  C   UNL A   1      36.925  29.568  31.178  1.00  0.00     0.056 A 
ATOM      9  C   UNL A   1      38.392  28.447  32.013  1.00  0.00     0.027 A 
ATOM     10  C   UNL A   1      39.445  27.349  31.073  1.00  0.00     0.002 A 
ATOM     11  C   UNL A   1      38.081  28.130  28.548  1.00  0.00     0.018 A 
ATOM     12  C   UNL A   1      39.268  27.241  29.396  1.00  0.00     0.001 A 
BRANCH   8  13
ATOM     13  N   UNL A   1      35.711  30.842  31.826  1.00  0.00    -0.321 N 
ATOM     14  C   UNL A   1      35.517  32.653  31.528  1.00  0.00     0.255 C 
ATOM     15  O   UNL A   1      34.371  33.057  31.266  1.00  0.00    -0.269 OA
ATOM     16  H   UNL A   1      35.045  30.471  32.449  1.00  0.00     0.170 HD
BRANCH  14  17
ATOM     17  C   UNL A   1      36.798  33.922  30.848  1.00  0.00     0.041 A 
ATOM     18  C   UNL A   1      39.720  34.189  31.249  1.00  0.00     0.102 A 
ATOM     19  C   UNL A   1      38.106  34.299  31.496  1.00  0.00     0.037 A 
ATOM     20  C   UNL A   1      39.988  34.503  29.987  1.00  0.00     0.038 A 
ATOM     21  C   UNL A   1      38.810  34.395  29.199  1.00  0.00     0.018 A 
ATOM     22  Br  UNL A   1      41.638  35.002  29.277  1.00  0.00    -0.049 Br
ATOM     23  C   UNL A   1      37.234  34.042  29.548  1.00  0.00     0.015 A 
BRANCH  18  24
ATOM     24  S   UNL A   1      41.137  32.718  32.139  1.00  0.00     0.263 S 
ATOM     25  O   UNL A   1      40.351  31.524  32.368  1.00  0.00    -0.201 OA
ATOM     26  O   UNL A   1      41.709  33.433  33.263  1.00  0.00    -0.201 OA
BRANCH  24  27
ATOM     27  N   UNL A   1      42.926  32.111  31.065  1.00  0.00    -0.280 N 
ATOM     28  H   UNL A   1      43.625  32.802  31.082  1.00  0.00     0.180 HD
BRANCH  27  29
ATOM     29  C   UNL A   1      43.444  30.609  30.132  1.00  0.00     0.049 A 
ATOM     30  C   UNL A   1      44.852  27.660  26.120  1.00  0.00     0.044 C 
ATOM     31  C   UNL A   1      44.411  28.483  27.300  1.00  0.00    -0.051 A 
ATOM     32  C   UNL A   1      45.263  30.010  27.691  1.00  0.00     0.005 A 
ATOM     33  C   UNL A   1      43.085  27.860  28.281  1.00  0.00     0.005 A 
ATOM     34  C   UNL A   1      44.840  31.055  29.084  1.00  0.00     0.027 A 
ATOM     35  C   UNL A   1      42.564  28.827  29.721  1.00  0.00     0.027 A 
ENDBRANCH  27  29
ENDBRANCH  24  27
ENDBRANCH  18  24
ENDBRANCH  14  17
ENDBRANCH   8  13
ENDBRANCH   5   7
ENDBRANCH   4   5
ENDBRANCH   3   4
ENDBRANCH   2   3
ENDBRANCH   1   2
BRANCH   1  36
ATOM     36  C   UNL A   1      34.138  24.867  25.674  1.00  0.00     0.188 C 
BRANCH  36  37
ATOM     37  C   UNL A   1      35.356  24.090  25.150  1.00  0.00     0.188 C 
BRANCH  37  38
ATOM     38  O   UNL A   1      36.242  23.449  26.069  1.00  0.00    -0.376 OA
BRANCH  38  39
ATOM     39  C   UNL A   1      36.481  22.019  25.754  1.00  0.00     0.202 C 
BRANCH  39  40
ATOM     40  C   UNL A   1      38.010  21.699  25.243  1.00  0.00     0.261 C 
BRANCH  40  41
ATOM     41  O   UNL A   1      39.402  21.374  26.145  1.00  0.00    -0.460 OA
BRANCH  41  42
ATOM     42  C   UNL A   1      40.667  21.612  26.761  1.00  0.00     0.338 C 
ATOM     43  O   UNL A   1      40.692  21.578  27.994  1.00  0.00    -0.246 OA
BRANCH  42  44
ATOM     44  C   UNL A   1      42.057  22.025  26.127  1.00  0.00     0.060 A 
ATOM     45  C   UNL A   1      43.166  21.279  26.271  1.00  0.00     0.016 A 
ATOM     46  C   UNL A   1      42.490  23.131  25.419  1.00  0.00     0.016 A 
ATOM     47  C   UNL A   1      44.469  21.991  26.370  1.00  0.00     0.010 A 
ATOM     48  C   UNL A   1      43.930  23.771  25.696  1.00  0.00     0.010 A 
ATOM     49  C   UNL A   1      45.023  23.569  26.497  1.00  0.00    -0.014 A 
BRANCH  49  50
ATOM     50  C   UNL A   1      46.314  24.654  27.646  1.00  0.00     0.031 A 
ATOM     51  C   UNL A   1      48.152  25.337  27.462  1.00  0.00     0.074 A 
ATOM     52  C   UNL A   1      46.097  25.455  28.863  1.00  0.00     0.049 A 
ATOM     53  N   UNL A   1      49.262  25.157  28.205  1.00  0.00    -0.248 NA
ATOM     54  C   UNL A   1      48.936  26.097  26.049  1.00  0.00     0.031 C 
ATOM     55  C   UNL A   1      46.966  26.597  29.349  1.00  0.00     0.029 A 
ATOM     56  N   UNL A   1      45.026  25.616  29.853  1.00  0.00    -0.354 N 
ATOM     57  C   UNL A   1      50.466  25.526  27.404  1.00  0.00     0.074 A 
ATOM     58  C   UNL A   1      50.162  25.668  26.060  1.00  0.00     0.031 C 
ATOM     59  C   UNL A   1      46.510  27.171  30.472  1.00  0.00     0.029 A 
ATOM     60  C   UNL A   1      45.474  26.346  30.998  1.00  0.00     0.049 A 
ATOM     61  H   UNL A   1      44.113  25.264  29.743  1.00  0.00     0.167 HD
ATOM     62  C   UNL A   1      51.596  26.235  27.728  1.00  0.00     0.037 A 
ATOM     63  C   UNL A   1      45.471  25.985  32.322  1.00  0.00     0.037 A 
ATOM     64  C   UNL A   1      51.372  26.735  29.038  1.00  0.00     0.049 A 
ATOM     65  C   UNL A   1      46.883  25.655  32.805  1.00  0.00     0.074 A 
ATOM     66  C   UNL A   1      50.823  27.909  29.515  1.00  0.00     0.029 A 
ATOM     67  N   UNL A   1      51.198  25.773  29.997  1.00  0.00    -0.354 N 
ATOM     68  N   UNL A   1      47.966  25.895  32.114  1.00  0.00    -0.248 NA
ATOM     69  C   UNL A   1      47.191  25.011  34.082  1.00  0.00     0.031 C 
ATOM     70  C   UNL A   1      50.242  27.597  30.779  1.00  0.00     0.029 A 
ATOM     71  C   UNL A   1      50.518  26.271  31.076  1.00  0.00     0.049 A 
ATOM     72  H   UNL A   1      51.518  24.845  29.919  1.00  0.00     0.167 HD
ATOM     73  C   UNL A   1      49.056  25.377  32.749  1.00  0.00     0.074 A 
ATOM     74  C   UNL A   1      48.526  24.882  34.000  1.00  0.00     0.031 C 
ATOM     75  C   UNL A   1      50.303  25.374  32.195  1.00  0.00     0.037 A 
BRANCH  62  76
ATOM     76  C   UNL A   1      52.633  26.779  26.665  1.00  0.00     0.064 A 
ATOM     77  C   UNL A   1      53.636  25.940  26.155  1.00  0.00     0.173 A 
ATOM     78  C   UNL A   1      52.705  28.109  26.134  1.00  0.00     0.173 A 
ATOM     79  F   UNL A   1      53.640  24.635  26.445  1.00  0.00    -0.203 F 
ATOM     80  C   UNL A   1      54.661  26.401  25.303  1.00  0.00     0.198 A 
ATOM     81  C   UNL A   1      53.795  28.599  25.392  1.00  0.00     0.198 A 
ATOM     82  F   UNL A   1      51.690  28.980  26.257  1.00  0.00    -0.203 F 
ATOM     83  F   UNL A   1      55.550  25.530  24.806  1.00  0.00    -0.200 F 
ATOM     84  C   UNL A   1      54.772  27.736  24.963  1.00  0.00     0.200 A 
ATOM     85  F   UNL A   1      53.870  29.903  25.075  1.00  0.00    -0.200 F 
ATOM     86  F   UNL A   1      55.775  28.173  24.188  1.00  0.00    -0.200 F 
ENDBRANCH  62  76
BRANCH  63  87
ATOM     87  C   UNL A   1      44.224  25.356  32.839  1.00  0.00     0.064 A 
ATOM     88  C   UNL A   1      44.193  23.946  32.922  1.00  0.00     0.173 A 
ATOM     89  C   UNL A   1      43.633  26.081  33.853  1.00  0.00     0.173 A 
ATOM     90  F   UNL A   1      44.584  23.197  31.879  1.00  0.00    -0.203 F 
ATOM     91  C   UNL A   1      43.961  23.325  34.143  1.00  0.00     0.198 A 
ATOM     92  C   UNL A   1      43.555  25.493  35.096  1.00  0.00     0.198 A 
ATOM     93  F   UNL A   1      43.512  27.412  33.757  1.00  0.00    -0.203 F 
ATOM     94  F   UNL A   1      44.086  21.994  34.266  1.00  0.00    -0.200 F 
ATOM     95  C   UNL A   1      43.777  24.119  35.260  1.00  0.00     0.200 A 
ATOM     96  F   UNL A   1      43.470  26.346  36.125  1.00  0.00    -0.200 F 
ATOM     97  F   UNL A   1      43.926  23.569  36.476  1.00  0.00    -0.200 F 
ENDBRANCH  63  87
BRANCH  75  98
ATOM     98  C   UNL A   1      51.474  24.542  32.688  1.00  0.00     0.064 A 
ATOM     99  C   UNL A   1      52.722  25.087  33.014  1.00  0.00     0.173 A 
ATOM    100  C   UNL A   1      51.335  23.154  32.967  1.00  0.00     0.173 A 
ATOM    101  F   UNL A   1      52.932  26.410  33.018  1.00  0.00    -0.203 F 
ATOM    102  C   UNL A   1      53.795  24.286  33.402  1.00  0.00     0.198 A 
ATOM    103  C   UNL A   1      52.369  22.386  33.488  1.00  0.00     0.198 A 
ATOM    104  F   UNL A   1      50.188  22.491  32.761  1.00  0.00    -0.203 F 
ATOM    105  F   UNL A   1      55.007  24.838  33.550  1.00  0.00    -0.200 F 
ATOM    106  C   UNL A   1      53.619  22.937  33.646  1.00  0.00     0.200 A 
ATOM    107  F   UNL A   1      52.143  21.109  33.829  1.00  0.00    -0.200 F 
ATOM    108  F   UNL A   1      54.645  22.177  34.042  1.00  0.00    -0.200 F 
ENDBRANCH  75  98
ENDBRANCH  49  50
ENDBRANCH  42  44
ENDBRANCH  41  42
ENDBRANCH  40  41
ENDBRANCH  39  40
ENDBRANCH  38  39
ENDBRANCH  37  38
ENDBRANCH  36  37
ENDBRANCH   1  36
TORSDOF 22
ENDMDL
MODEL 3
REMARK VINA RESULT:     -13.6      5.231     10.086
REMARK SMILES Cc1ccc(NS(=O)(=O)c2cc(C(=O)Nc3ccccc3C(=O)OCCOCCOCCOC(=O)c3ccc(-c4c5nc(c(-c6c(F)c(F)c(F)c(F)c6F)c6ccc([nH]6)c(-c6c(F)c(F)c(F)c(F)c6F)c6nc(c(-c7c(F)c(F)c(F)c(F)c7F)c7ccc4[nH]7)C=C6)C=C5)cc3)ccc2Br)cc1
REMARK SMILES IDX 27 1 26 2 25 3 24 4 22 5 23 6 21 7 16 8 17 9 18 10 20 11
REMARK SMILES IDX 19 12 15 13 13 14 14 15 12 17 10 18 11 19 101 20 100 21
REMARK SMILES IDX 102 22 99 23 7 24 8 25 9 26 6 27 5 29 1 30 2 31 3 32 104 33
REMARK SMILES IDX 4 34 103 35 28 36 29 37 30 38 31 39 32 40 33 41 34 42 35 43
REMARK SMILES IDX 36 44 37 45 98 46 38 47 97 48 39 49 40 50 41 51 91 52 42 53
REMARK SMILES IDX 96 54 90 55 92 56 43 57 95 58 89 59 88 60 44 62 76 63 56 64
REMARK SMILES IDX 75 65 57 66 60 67 74 68 93 69 58 70 59 71 73 73 94 74 61 75
REMARK SMILES IDX 45 76 46 77 54 78 47 79 48 80 52 81 55 82 49 83 50 84 53 85
REMARK SMILES IDX 51 86 77 87 78 88 86 89 79 90 80 91 84 92 87 93 81 94 82 95
REMARK SMILES IDX 85 96 83 97 62 98 63 99 71 100 64 101 65 102 69 103 72 104
REMARK SMILES IDX 66 105 67 106 70 107 68 108
REMARK H PARENT 15 16 6 28 92 61 60 72
REMARK Flexibility Score: inf
ROOT
ATOM      1  O   UNL A   1      44.029  35.889  29.002  1.00  0.00    -0.376 OA
ENDROOT
BRANCH   1   2
ATOM      2  C   UNL A   1      42.714  35.818  29.566  1.00  0.00     0.202 C 
BRANCH   2   3
ATOM      3  C   UNL A   1      42.041  34.409  30.254  1.00  0.00     0.261 C 
BRANCH   3   4
ATOM      4  O   UNL A   1      40.369  33.726  30.509  1.00  0.00    -0.460 OA
BRANCH   4   5
ATOM      5  C   UNL A   1      39.376  32.595  30.224  1.00  0.00     0.340 C 
ATOM      6  O   UNL A   1      38.558  32.381  29.308  1.00  0.00    -0.246 OA
BRANCH   5   7
ATOM      7  C   UNL A   1      39.227  31.274  30.662  1.00  0.00     0.083 A 
ATOM      8  C   UNL A   1      39.821  29.556  30.244  1.00  0.00     0.056 A 
ATOM      9  C   UNL A   1      38.810  28.210  31.370  1.00  0.00     0.027 A 
ATOM     10  C   UNL A   1      37.551  28.669  32.555  1.00  0.00     0.002 A 
ATOM     11  C   UNL A   1      37.885  31.542  31.865  1.00  0.00     0.018 A 
ATOM     12  C   UNL A   1      37.125  30.292  32.748  1.00  0.00     0.001 A 
BRANCH   8  13
ATOM     13  N   UNL A   1      41.116  29.435  28.892  1.00  0.00    -0.321 N 
ATOM     14  C   UNL A   1      41.264  28.373  27.391  1.00  0.00     0.255 C 
ATOM     15  O   UNL A   1      41.548  28.947  26.325  1.00  0.00    -0.269 OA
ATOM     16  H   UNL A   1      41.866  30.063  29.008  1.00  0.00     0.170 HD
BRANCH  14  17
ATOM     17  C   UNL A   1      40.396  26.701  26.988  1.00  0.00     0.041 A 
ATOM     18  C   UNL A   1      41.467  24.066  26.160  1.00  0.00     0.102 A 
ATOM     19  C   UNL A   1      40.934  25.612  26.095  1.00  0.00     0.037 A 
ATOM     20  C   UNL A   1      40.642  23.356  26.920  1.00  0.00     0.038 A 
ATOM     21  C   UNL A   1      39.871  24.221  27.743  1.00  0.00     0.018 A 
ATOM     22  Br  UNL A   1      40.475  21.499  26.970  1.00  0.00    -0.049 Br
ATOM     23  C   UNL A   1      39.758  25.864  27.877  1.00  0.00     0.015 A 
BRANCH  18  24
ATOM     24  S   UNL A   1      43.577  23.353  26.199  1.00  0.00     0.263 S 
ATOM     25  O   UNL A   1      43.517  21.965  25.791  1.00  0.00    -0.201 OA
ATOM     26  O   UNL A   1      44.028  23.696  27.534  1.00  0.00    -0.201 OA
BRANCH  24  27
ATOM     27  N   UNL A   1      45.096  24.313  24.977  1.00  0.00    -0.280 N 
ATOM     28  H   UNL A   1      44.744  24.610  24.108  1.00  0.00     0.180 HD
BRANCH  27  29
ATOM     29  C   UNL A   1      46.885  24.703  25.182  1.00  0.00     0.049 A 
ATOM     30  C   UNL A   1      51.227  26.457  27.382  1.00  0.00     0.044 C 
ATOM     31  C   UNL A   1      49.977  25.969  26.701  1.00  0.00    -0.051 A 
ATOM     32  C   UNL A   1      48.893  24.818  27.543  1.00  0.00     0.005 A 
ATOM     33  C   UNL A   1      49.669  26.532  25.059  1.00  0.00     0.005 A 
ATOM     34  C   UNL A   1      47.394  24.154  26.820  1.00  0.00     0.027 A 
ATOM     35  C   UNL A   1      48.183  25.929  24.217  1.00  0.00     0.027 A 
ENDBRANCH  27  29
ENDBRANCH  24  27
ENDBRANCH  18  24
ENDBRANCH  14  17
ENDBRANCH   8  13
ENDBRANCH   5   7
ENDBRANCH   4   5
ENDBRANCH   3   4
ENDBRANCH   2   3
ENDBRANCH   1   2
BRANCH   1  36
ATOM     36  C   UNL A   1      44.280  36.559  27.733  1.00  0.00     0.188 C 
BRANCH  36  37
ATOM     37  C   UNL A   1      43.549  35.945  26.528  1.00  0.00     0.188 C 
BRANCH  37  38
ATOM     38  O   UNL A   1      43.371  34.531  26.448  1.00  0.00    -0.376 OA
BRANCH  38  39
ATOM     39  C   UNL A   1      44.640  33.771  26.559  1.00  0.00     0.202 C 
BRANCH  39  40
ATOM     40  C   UNL A   1      44.465  32.152  26.333  1.00  0.00     0.261 C 
BRANCH  40  41
ATOM     41  O   UNL A   1      45.582  30.904  26.562  1.00  0.00    -0.460 OA
BRANCH  41  42
ATOM     42  C   UNL A   1      46.293  29.697  26.293  1.00  0.00     0.338 C 
ATOM     43  O   UNL A   1      46.652  29.521  25.126  1.00  0.00    -0.246 OA
BRANCH  42  44
ATOM     44  C   UNL A   1      46.621  28.466  27.232  1.00  0.00     0.060 A 
ATOM     45  C   UNL A   1      45.909  27.326  27.204  1.00  0.00     0.016 A 
ATOM     46  C   UNL A   1      47.536  28.261  28.249  1.00  0.00     0.016 A 
ATOM     47  C   UNL A   1      45.721  26.597  28.488  1.00  0.00     0.010 A 
ATOM     48  C   UNL A   1      47.126  27.467  29.575  1.00  0.00     0.010 A 
ATOM     49  C   UNL A   1      46.036  26.837  30.117  1.00  0.00    -0.014 A 
BRANCH  49  50
ATOM     50  C   UNL A   1      45.058  26.712  31.904  1.00  0.00     0.031 A 
ATOM     51  C   UNL A   1      43.982  27.923  33.024  1.00  0.00     0.074 A 
ATOM     52  C   UNL A   1      44.683  25.552  32.729  1.00  0.00     0.049 A 
ATOM     53  N   UNL A   1      44.119  28.337  34.298  1.00  0.00    -0.248 NA
ATOM     54  C   UNL A   1      42.719  29.087  32.534  1.00  0.00     0.031 C 
ATOM     55  C   UNL A   1      43.559  25.503  33.746  1.00  0.00     0.029 A 
ATOM     56  N   UNL A   1      45.025  24.126  32.777  1.00  0.00    -0.354 N 
ATOM     57  C   UNL A   1      43.302  29.568  34.517  1.00  0.00     0.074 A 
ATOM     58  C   UNL A   1      42.868  30.111  33.318  1.00  0.00     0.031 C 
ATOM     59  C   UNL A   1      43.421  24.303  34.327  1.00  0.00     0.029 A 
ATOM     60  C   UNL A   1      44.557  23.513  33.982  1.00  0.00     0.049 A 
ATOM     61  H   UNL A   1      45.517  23.650  32.069  1.00  0.00     0.167 HD
ATOM     62  C   UNL A   1      42.488  29.951  35.552  1.00  0.00     0.037 A 
ATOM     63  C   UNL A   1      45.255  22.834  34.947  1.00  0.00     0.037 A 
ATOM     64  C   UNL A   1      42.420  28.830  36.422  1.00  0.00     0.049 A 
ATOM     65  C   UNL A   1      45.400  23.674  36.216  1.00  0.00     0.074 A 
ATOM     66  C   UNL A   1      41.563  27.750  36.500  1.00  0.00     0.029 A 
ATOM     67  N   UNL A   1      43.621  28.448  36.958  1.00  0.00    -0.354 N 
ATOM     68  N   UNL A   1      44.760  24.793  36.427  1.00  0.00    -0.248 NA
ATOM     69  C   UNL A   1      46.288  23.342  37.331  1.00  0.00     0.031 C 
ATOM     70  C   UNL A   1      42.321  26.672  37.044  1.00  0.00     0.029 A 
ATOM     71  C   UNL A   1      43.590  27.138  37.355  1.00  0.00     0.049 A 
ATOM     72  H   UNL A   1      44.404  29.039  37.047  1.00  0.00     0.167 HD
ATOM     73  C   UNL A   1      45.190  25.372  37.585  1.00  0.00     0.074 A 
ATOM     74  C   UNL A   1      46.107  24.401  38.139  1.00  0.00     0.031 C 
ATOM     75  C   UNL A   1      44.781  26.609  37.989  1.00  0.00     0.037 A 
BRANCH  62  76
ATOM     76  C   UNL A   1      41.470  31.159  35.476  1.00  0.00     0.064 A 
ATOM     77  C   UNL A   1      41.923  32.481  35.611  1.00  0.00     0.173 A 
ATOM     78  C   UNL A   1      40.049  31.079  35.299  1.00  0.00     0.173 A 
ATOM     79  F   UNL A   1      43.233  32.747  35.657  1.00  0.00    -0.203 F 
ATOM     80  C   UNL A   1      41.050  33.587  35.676  1.00  0.00     0.198 A 
ATOM     81  C   UNL A   1      39.173  32.163  35.493  1.00  0.00     0.198 A 
ATOM     82  F   UNL A   1      39.448  29.959  34.866  1.00  0.00    -0.203 F 
ATOM     83  F   UNL A   1      41.558  34.826  35.744  1.00  0.00    -0.200 F 
ATOM     84  C   UNL A   1      39.678  33.426  35.670  1.00  0.00     0.200 A 
ATOM     85  F   UNL A   1      37.842  31.972  35.477  1.00  0.00    -0.200 F 
ATOM     86  F   UNL A   1      38.856  34.480  35.776  1.00  0.00    -0.200 F 
ENDBRANCH  62  76
BRANCH  63  87
ATOM     87  C   UNL A   1      46.249  21.832  34.470  1.00  0.00     0.064 A 
ATOM     88  C   UNL A   1      47.609  22.212  34.472  1.00  0.00     0.173 A 
ATOM     89  C   UNL A   1      45.933  20.540  34.839  1.00  0.00     0.173 A 
ATOM     90  F   UNL A   1      47.985  23.388  33.946  1.00  0.00    -0.203 F 
ATOM     91  C   UNL A   1      48.537  21.477  35.199  1.00  0.00     0.198 A 
ATOM     92  C   UNL A   1      46.801  19.889  35.687  1.00  0.00     0.198 A 
ATOM     93  F   UNL A   1      44.678  20.085  34.723  1.00  0.00    -0.203 F 
ATOM     94  F   UNL A   1      49.798  21.917  35.338  1.00  0.00    -0.200 F 
ATOM     95  C   UNL A   1      48.091  20.384  35.920  1.00  0.00     0.200 A 
ATOM     96  F   UNL A   1      46.257  18.903  36.412  1.00  0.00    -0.200 F 
ATOM     97  F   UNL A   1      48.867  19.898  36.903  1.00  0.00    -0.200 F 
ENDBRANCH  63  87
BRANCH  75  98
ATOM     98  C   UNL A   1      45.451  27.437  39.072  1.00  0.00     0.064 A 
ATOM     99  C   UNL A   1      45.216  27.250  40.440  1.00  0.00     0.173 A 
ATOM    100  C   UNL A   1      46.463  28.387  38.762  1.00  0.00     0.173 A 
ATOM    101  F   UNL A   1      44.459  26.242  40.891  1.00  0.00    -0.203 F 
ATOM    102  C   UNL A   1      45.798  28.071  41.404  1.00  0.00     0.198 A 
ATOM    103  C   UNL A   1      47.143  29.105  39.739  1.00  0.00     0.198 A 
ATOM    104  F   UNL A   1      46.846  28.646  37.504  1.00  0.00    -0.203 F 
ATOM    105  F   UNL A   1      45.419  27.953  42.684  1.00  0.00    -0.200 F 
ATOM    106  C   UNL A   1      46.766  28.994  41.056  1.00  0.00     0.200 A 
ATOM    107  F   UNL A   1      48.160  29.906  39.389  1.00  0.00    -0.200 F 
ATOM    108  F   UNL A   1      47.340  29.763  41.988  1.00  0.00    -0.200 F 
ENDBRANCH  75  98
ENDBRANCH  49  50
ENDBRANCH  42  44
ENDBRANCH  41  42
ENDBRANCH  40  41
ENDBRANCH  39  40
ENDBRANCH  38  39
ENDBRANCH  37  38
ENDBRANCH  36  37
ENDBRANCH   1  36
TORSDOF 22
ENDMDL
