MODEL 1
REMARK VINA RESULT:     -12.6      0.000      0.000
REMARK SMILES COC(=O)c1sc(SCC(=O)OCCOCCOCCOC(=O)c2ccc(-c3c4nc(c(-c5c(F)c(F)c(F)c(F)c5F)c5ccc([nH]5)c(-c5c(F)c(F)c(F)c(F)c5F)c5nc(c(-c6c(F)c(F)c(F)c(F)c6F)c6ccc3[nH]6)C=C5)C=C4)cc2)c(NC(=O)c2ccccc2)c1O
REMARK SMILES IDX 16 1 15 2 14 3 13 4 12 5 10 6 11 7 9 8 8 9 7 10 5 11 6 12
REMARK SMILES IDX 97 13 87 14 3 15 4 16 2 17 1 18 98 19 88 21 89 22 90 24
REMARK SMILES IDX 91 25 92 26 96 27 93 28 95 29 94 30 17 31 18 32 19 33 20 34
REMARK SMILES IDX 21 35 22 36 23 37 24 38 25 39 86 40 26 41 85 42 27 43 28 44
REMARK SMILES IDX 29 45 79 46 30 47 84 48 78 49 80 50 31 51 83 52 77 53 76 54
REMARK SMILES IDX 32 56 64 57 44 58 63 59 45 60 48 61 62 62 81 63 46 64 47 65
REMARK SMILES IDX 61 67 82 68 49 69 33 70 34 71 42 72 35 73 36 74 40 75 43 76
REMARK SMILES IDX 37 77 38 78 41 79 39 80 65 81 66 82 74 83 67 84 68 85 72 86
REMARK SMILES IDX 75 87 69 88 70 89 73 90 71 91 50 92 51 93 59 94 52 95 53 96
REMARK SMILES IDX 57 97 60 98 54 99 55 100 58 101 56 102
REMARK H PARENT 98 20 88 23 80 55 48 66
REMARK Flexibility Score: inf
ROOT
ATOM      1  C   UNL A   1      32.248  29.572  25.912  1.00  0.00     0.188 C 
ENDROOT
BRANCH   1   2
ATOM      2  O   UNL A   1      33.129  28.677  25.254  1.00  0.00    -0.376 OA
BRANCH   2   3
ATOM      3  C   UNL A   1      32.904  28.436  23.861  1.00  0.00     0.202 C 
BRANCH   3   4
ATOM      4  C   UNL A   1      32.957  26.975  23.385  1.00  0.00     0.261 C 
BRANCH   4   5
ATOM      5  O   UNL A   1      31.695  26.469  22.872  1.00  0.00    -0.463 OA
BRANCH   5   6
ATOM      6  C   UNL A   1      30.749  26.145  23.819  1.00  0.00     0.316 C 
ATOM      7  O   UNL A   1      30.158  26.983  24.497  1.00  0.00    -0.251 OA
BRANCH   6   8
ATOM      8  C   UNL A   1      30.702  24.459  24.156  1.00  0.00     0.198 C 
BRANCH   8   9
ATOM      9  S   UNL A   1      31.640  22.448  22.831  1.00  0.00    -0.101 SA
BRANCH   9  10
ATOM     10  C   UNL A   1      32.116  20.906  23.734  1.00  0.00     0.089 A 
ATOM     11  C   UNL A   1      32.886  18.581  24.268  1.00  0.00     0.157 A 
ATOM     12  S   UNL A   1      32.563  19.489  22.842  1.00  0.00    -0.116 S 
ATOM     13  C   UNL A   1      32.808  19.397  25.374  1.00  0.00     0.166 A 
ATOM     14  C   UNL A   1      32.262  20.679  25.099  1.00  0.00     0.109 A 
BRANCH  11  15
ATOM     15  C   UNL A   1      33.160  17.155  24.198  1.00  0.00     0.352 C 
ATOM     16  O   UNL A   1      33.440  16.508  23.199  1.00  0.00    -0.245 OA
BRANCH  15  17
ATOM     17  O   UNL A   1      33.006  16.622  25.452  1.00  0.00    -0.465 OA
ATOM     18  C   UNL A   1      32.350  15.352  25.571  1.00  0.00     0.282 C 
ENDBRANCH  15  17
ENDBRANCH  11  15
BRANCH  13  19
ATOM     19  O   UNL A   1      33.086  18.992  26.634  1.00  0.00    -0.504 OA
ATOM     20  H   UNL A   1      33.763  18.361  26.785  1.00  0.00     0.293 HD
ENDBRANCH  13  19
BRANCH  14  21
ATOM     21  N   UNL A   1      31.888  21.492  26.157  1.00  0.00    -0.317 N 
ATOM     22  C   UNL A   1      32.627  22.507  26.681  1.00  0.00     0.255 C 
ATOM     23  H   UNL A   1      31.009  21.319  26.567  1.00  0.00     0.170 HD
ATOM     24  O   UNL A   1      32.242  23.202  27.611  1.00  0.00    -0.269 OA
BRANCH  22  25
ATOM     25  C   UNL A   1      33.933  22.728  26.056  1.00  0.00     0.040 A 
ATOM     26  C   UNL A   1      35.215  21.561  26.534  1.00  0.00     0.014 A 
ATOM     27  C   UNL A   1      34.166  23.775  24.565  1.00  0.00     0.014 A 
ATOM     28  C   UNL A   1      36.665  21.358  25.496  1.00  0.00     0.001 A 
ATOM     29  C   UNL A   1      35.617  23.546  23.527  1.00  0.00     0.001 A 
ATOM     30  C   UNL A   1      36.867  22.358  24.025  1.00  0.00     0.000 A 
ENDBRANCH  22  25
ENDBRANCH  14  21
ENDBRANCH   9  10
ENDBRANCH   8   9
ENDBRANCH   6   8
ENDBRANCH   5   6
ENDBRANCH   4   5
ENDBRANCH   3   4
ENDBRANCH   2   3
ENDBRANCH   1   2
BRANCH   1  31
ATOM     31  C   UNL A   1      32.714  30.137  27.251  1.00  0.00     0.188 C 
BRANCH  31  32
ATOM     32  O   UNL A   1      33.689  31.165  27.165  1.00  0.00    -0.376 OA
BRANCH  32  33
ATOM     33  C   UNL A   1      34.692  31.186  28.173  1.00  0.00     0.202 C 
BRANCH  33  34
ATOM     34  C   UNL A   1      35.609  29.955  28.102  1.00  0.00     0.261 C 
BRANCH  34  35
ATOM     35  O   UNL A   1      36.286  29.702  29.337  1.00  0.00    -0.460 OA
BRANCH  35  36
ATOM     36  C   UNL A   1      37.621  29.778  29.205  1.00  0.00     0.338 C 
ATOM     37  O   UNL A   1      38.406  30.453  29.853  1.00  0.00    -0.246 OA
BRANCH  36  38
ATOM     38  C   UNL A   1      38.074  28.878  28.145  1.00  0.00     0.060 A 
ATOM     39  C   UNL A   1      38.290  27.569  28.587  1.00  0.00     0.016 A 
ATOM     40  C   UNL A   1      38.899  29.502  27.217  1.00  0.00     0.016 A 
ATOM     41  C   UNL A   1      39.550  27.039  28.435  1.00  0.00     0.010 A 
ATOM     42  C   UNL A   1      40.145  28.952  27.033  1.00  0.00     0.010 A 
ATOM     43  C   UNL A   1      40.501  27.806  27.767  1.00  0.00    -0.014 A 
BRANCH  43  44
ATOM     44  C   UNL A   1      41.901  27.397  27.811  1.00  0.00     0.031 A 
ATOM     45  C   UNL A   1      42.643  27.762  29.050  1.00  0.00     0.074 A 
ATOM     46  C   UNL A   1      42.331  26.509  26.886  1.00  0.00     0.049 A 
ATOM     47  N   UNL A   1      43.921  27.885  29.233  1.00  0.00    -0.248 NA
ATOM     48  C   UNL A   1      41.834  28.049  30.255  1.00  0.00     0.031 C 
ATOM     49  C   UNL A   1      41.552  25.971  25.760  1.00  0.00     0.029 A 
ATOM     50  N   UNL A   1      43.448  25.719  26.893  1.00  0.00    -0.354 N 
ATOM     51  C   UNL A   1      44.077  28.072  30.602  1.00  0.00     0.074 A 
ATOM     52  C   UNL A   1      42.771  28.268  31.170  1.00  0.00     0.031 C 
ATOM     53  C   UNL A   1      42.065  24.775  25.407  1.00  0.00     0.029 A 
ATOM     54  C   UNL A   1      43.230  24.511  26.233  1.00  0.00     0.049 A 
ATOM     55  H   UNL A   1      44.301  25.973  27.312  1.00  0.00     0.167 HD
ATOM     56  C   UNL A   1      45.238  27.818  31.255  1.00  0.00     0.037 A 
ATOM     57  C   UNL A   1      43.845  23.327  26.469  1.00  0.00     0.037 A 
ATOM     58  C   UNL A   1      46.399  27.976  30.438  1.00  0.00     0.049 A 
ATOM     59  C   UNL A   1      45.066  23.588  27.266  1.00  0.00     0.074 A 
ATOM     60  C   UNL A   1      46.912  29.027  29.700  1.00  0.00     0.029 A 
ATOM     61  N   UNL A   1      47.119  26.876  30.057  1.00  0.00    -0.354 N 
ATOM     62  N   UNL A   1      46.146  24.164  26.819  1.00  0.00    -0.248 NA
ATOM     63  C   UNL A   1      44.960  23.496  28.716  1.00  0.00     0.031 C 
ATOM     64  C   UNL A   1      47.581  28.427  28.597  1.00  0.00     0.029 A 
ATOM     65  C   UNL A   1      47.419  27.050  28.729  1.00  0.00     0.049 A 
ATOM     66  H   UNL A   1      47.372  26.111  30.623  1.00  0.00     0.167 HD
ATOM     67  C   UNL A   1      46.654  24.849  27.911  1.00  0.00     0.074 A 
ATOM     68  C   UNL A   1      45.961  24.302  29.068  1.00  0.00     0.031 C 
ATOM     69  C   UNL A   1      47.379  25.992  27.751  1.00  0.00     0.037 A 
BRANCH  56  70
ATOM     70  C   UNL A   1      45.223  27.147  32.594  1.00  0.00     0.064 A 
ATOM     71  C   UNL A   1      44.693  25.861  32.750  1.00  0.00     0.173 A 
ATOM     72  C   UNL A   1      45.533  27.846  33.785  1.00  0.00     0.173 A 
ATOM     73  F   UNL A   1      44.301  25.153  31.681  1.00  0.00    -0.203 F 
ATOM     74  C   UNL A   1      44.499  25.303  34.018  1.00  0.00     0.198 A 
ATOM     75  C   UNL A   1      45.391  27.269  35.041  1.00  0.00     0.198 A 
ATOM     76  F   UNL A   1      45.901  29.137  33.762  1.00  0.00    -0.203 F 
ATOM     77  F   UNL A   1      43.919  24.102  34.134  1.00  0.00    -0.200 F 
ATOM     78  C   UNL A   1      44.860  26.002  35.160  1.00  0.00     0.200 A 
ATOM     79  F   UNL A   1      45.720  27.974  36.134  1.00  0.00    -0.200 F 
ATOM     80  F   UNL A   1      44.652  25.476  36.373  1.00  0.00    -0.200 F 
ENDBRANCH  56  70
BRANCH  57  81
ATOM     81  C   UNL A   1      43.296  21.957  26.296  1.00  0.00     0.064 A 
ATOM     82  C   UNL A   1      43.923  21.035  25.443  1.00  0.00     0.173 A 
ATOM     83  C   UNL A   1      42.273  21.442  27.119  1.00  0.00     0.173 A 
ATOM     84  F   UNL A   1      44.954  21.418  24.676  1.00  0.00    -0.203 F 
ATOM     85  C   UNL A   1      43.540  19.690  25.402  1.00  0.00     0.198 A 
ATOM     86  C   UNL A   1      41.871  20.107  27.057  1.00  0.00     0.198 A 
ATOM     87  F   UNL A   1      41.696  22.198  28.064  1.00  0.00    -0.203 F 
ATOM     88  F   UNL A   1      44.199  18.831  24.611  1.00  0.00    -0.200 F 
ATOM     89  C   UNL A   1      42.509  19.229  26.204  1.00  0.00     0.200 A 
ATOM     90  F   UNL A   1      40.897  19.669  27.868  1.00  0.00    -0.200 F 
ATOM     91  F   UNL A   1      42.161  17.935  26.187  1.00  0.00    -0.200 F 
ENDBRANCH  57  81
BRANCH  69  92
ATOM     92  C   UNL A   1      47.882  26.316  26.375  1.00  0.00     0.064 A 
ATOM     93  C   UNL A   1      47.131  27.033  25.427  1.00  0.00     0.173 A 
ATOM     94  C   UNL A   1      49.213  26.017  26.057  1.00  0.00     0.173 A 
ATOM     95  F   UNL A   1      45.892  27.454  25.708  1.00  0.00    -0.203 F 
ATOM     96  C   UNL A   1      47.675  27.382  24.193  1.00  0.00     0.198 A 
ATOM     97  C   UNL A   1      49.764  26.400  24.836  1.00  0.00     0.198 A 
ATOM     98  F   UNL A   1      49.995  25.393  26.952  1.00  0.00    -0.203 F 
ATOM     99  F   UNL A   1      46.933  28.056  23.301  1.00  0.00    -0.200 F 
ATOM    100  C   UNL A   1      48.992  27.070  23.901  1.00  0.00     0.200 A 
ATOM    101  F   UNL A   1      51.054  26.144  24.579  1.00  0.00    -0.200 F 
ATOM    102  F   UNL A   1      49.526  27.442  22.730  1.00  0.00    -0.200 F 
ENDBRANCH  69  92
ENDBRANCH  43  44
ENDBRANCH  36  38
ENDBRANCH  35  36
ENDBRANCH  34  35
ENDBRANCH  33  34
ENDBRANCH  32  33
ENDBRANCH  31  32
ENDBRANCH   1  31
TORSDOF 24
ENDMDL
MODEL 2
REMARK VINA RESULT:     -11.0      5.347      9.151
REMARK SMILES COC(=O)c1sc(SCC(=O)OCCOCCOCCOC(=O)c2ccc(-c3c4nc(c(-c5c(F)c(F)c(F)c(F)c5F)c5ccc([nH]5)c(-c5c(F)c(F)c(F)c(F)c5F)c5nc(c(-c6c(F)c(F)c(F)c(F)c6F)c6ccc3[nH]6)C=C5)C=C4)cc2)c(NC(=O)c2ccccc2)c1O
REMARK SMILES IDX 16 1 15 2 14 3 13 4 12 5 10 6 11 7 9 8 8 9 7 10 5 11 6 12
REMARK SMILES IDX 97 13 87 14 3 15 4 16 2 17 1 18 98 19 88 21 89 22 90 24
REMARK SMILES IDX 91 25 92 26 96 27 93 28 95 29 94 30 17 31 18 32 19 33 20 34
REMARK SMILES IDX 21 35 22 36 23 37 24 38 25 39 86 40 26 41 85 42 27 43 28 44
REMARK SMILES IDX 29 45 79 46 30 47 84 48 78 49 80 50 31 51 83 52 77 53 76 54
REMARK SMILES IDX 32 56 64 57 44 58 63 59 45 60 48 61 62 62 81 63 46 64 47 65
REMARK SMILES IDX 61 67 82 68 49 69 33 70 34 71 42 72 35 73 36 74 40 75 43 76
REMARK SMILES IDX 37 77 38 78 41 79 39 80 65 81 66 82 74 83 67 84 68 85 72 86
REMARK SMILES IDX 75 87 69 88 70 89 73 90 71 91 50 92 51 93 59 94 52 95 53 96
REMARK SMILES IDX 57 97 60 98 54 99 55 100 58 101 56 102
REMARK H PARENT 98 20 88 23 80 55 48 66
REMARK Flexibility Score: inf
ROOT
ATOM      1  C   UNL A   1      33.194  35.197  29.211  1.00  0.00     0.188 C 
ENDROOT
BRANCH   1   2
ATOM      2  O   UNL A   1      33.999  35.384  30.362  1.00  0.00    -0.376 OA
BRANCH   2   3
ATOM      3  C   UNL A   1      33.330  35.497  31.622  1.00  0.00     0.202 C 
BRANCH   3   4
ATOM      4  C   UNL A   1      33.805  34.570  32.753  1.00  0.00     0.261 C 
BRANCH   4   5
ATOM      5  O   UNL A   1      34.921  33.711  32.392  1.00  0.00    -0.463 OA
BRANCH   5   6
ATOM      6  C   UNL A   1      35.555  33.080  33.439  1.00  0.00     0.316 C 
ATOM      7  O   UNL A   1      35.332  33.343  34.619  1.00  0.00    -0.251 OA
BRANCH   6   8
ATOM      8  C   UNL A   1      36.882  32.115  32.924  1.00  0.00     0.198 C 
BRANCH   8   9
ATOM      9  S   UNL A   1      38.461  30.567  34.261  1.00  0.00    -0.101 SA
BRANCH   9  10
ATOM     10  C   UNL A   1      40.093  31.215  34.842  1.00  0.00     0.089 A 
ATOM     11  C   UNL A   1      42.416  31.374  35.770  1.00  0.00     0.157 A 
ATOM     12  S   UNL A   1      41.243  30.134  35.557  1.00  0.00    -0.116 S 
ATOM     13  C   UNL A   1      41.991  32.534  35.161  1.00  0.00     0.166 A 
ATOM     14  C   UNL A   1      40.637  32.490  34.736  1.00  0.00     0.109 A 
BRANCH  11  15
ATOM     15  C   UNL A   1      43.632  31.130  36.528  1.00  0.00     0.352 C 
ATOM     16  O   UNL A   1      44.782  31.219  36.122  1.00  0.00    -0.245 OA
BRANCH  15  17
ATOM     17  O   UNL A   1      43.283  30.725  37.790  1.00  0.00    -0.465 OA
ATOM     18  C   UNL A   1      43.321  31.692  38.848  1.00  0.00     0.282 C 
ENDBRANCH  15  17
ENDBRANCH  11  15
BRANCH  13  19
ATOM     19  O   UNL A   1      42.729  33.665  35.088  1.00  0.00    -0.504 OA
ATOM     20  H   UNL A   1      42.807  34.121  34.273  1.00  0.00     0.293 HD
ENDBRANCH  13  19
BRANCH  14  21
ATOM     21  N   UNL A   1      40.014  33.668  34.352  1.00  0.00    -0.317 N 
ATOM     22  C   UNL A   1      39.246  34.459  35.148  1.00  0.00     0.255 C 
ATOM     23  H   UNL A   1      40.139  33.957  33.419  1.00  0.00     0.170 HD
ATOM     24  O   UNL A   1      38.729  35.496  34.758  1.00  0.00    -0.269 OA
BRANCH  22  25
ATOM     25  C   UNL A   1      39.071  33.993  36.525  1.00  0.00     0.040 A 
ATOM     26  C   UNL A   1      40.107  34.812  37.746  1.00  0.00     0.014 A 
ATOM     27  C   UNL A   1      37.614  33.018  37.076  1.00  0.00     0.014 A 
ATOM     28  C   UNL A   1      39.655  34.753  39.481  1.00  0.00     0.001 A 
ATOM     29  C   UNL A   1      37.166  32.984  38.817  1.00  0.00     0.001 A 
ATOM     30  C   UNL A   1      38.214  33.830  40.005  1.00  0.00     0.000 A 
ENDBRANCH  22  25
ENDBRANCH  14  21
ENDBRANCH   9  10
ENDBRANCH   8   9
ENDBRANCH   6   8
ENDBRANCH   5   6
ENDBRANCH   4   5
ENDBRANCH   3   4
ENDBRANCH   2   3
ENDBRANCH   1   2
BRANCH   1  31
ATOM     31  C   UNL A   1      33.618  34.091  28.248  1.00  0.00     0.188 C 
BRANCH  31  32
ATOM     32  O   UNL A   1      34.765  33.354  28.642  1.00  0.00    -0.376 OA
BRANCH  32  33
ATOM     33  C   UNL A   1      34.590  31.961  28.866  1.00  0.00     0.202 C 
BRANCH  33  34
ATOM     34  C   UNL A   1      35.765  31.345  29.639  1.00  0.00     0.261 C 
BRANCH  34  35
ATOM     35  O   UNL A   1      36.810  30.884  28.776  1.00  0.00    -0.460 OA
BRANCH  35  36
ATOM     36  C   UNL A   1      37.523  29.892  29.335  1.00  0.00     0.338 C 
ATOM     37  O   UNL A   1      37.767  29.713  30.518  1.00  0.00    -0.246 OA
BRANCH  36  38
ATOM     38  C   UNL A   1      37.986  28.962  28.305  1.00  0.00     0.060 A 
ATOM     39  C   UNL A   1      38.203  27.668  28.788  1.00  0.00     0.016 A 
ATOM     40  C   UNL A   1      38.814  29.562  27.364  1.00  0.00     0.016 A 
ATOM     41  C   UNL A   1      39.467  27.138  28.659  1.00  0.00     0.010 A 
ATOM     42  C   UNL A   1      40.063  29.011  27.203  1.00  0.00     0.010 A 
ATOM     43  C   UNL A   1      40.418  27.888  27.974  1.00  0.00    -0.014 A 
BRANCH  43  44
ATOM     44  C   UNL A   1      41.820  27.486  28.038  1.00  0.00     0.031 A 
ATOM     45  C   UNL A   1      42.532  27.824  29.302  1.00  0.00     0.074 A 
ATOM     46  C   UNL A   1      42.275  26.624  27.100  1.00  0.00     0.049 A 
ATOM     47  N   UNL A   1      43.805  27.949  29.516  1.00  0.00    -0.248 NA
ATOM     48  C   UNL A   1      41.696  28.075  30.496  1.00  0.00     0.031 C 
ATOM     49  C   UNL A   1      41.525  26.112  25.944  1.00  0.00     0.029 A 
ATOM     50  N   UNL A   1      43.396  25.841  27.112  1.00  0.00    -0.354 N 
ATOM     51  C   UNL A   1      43.930  28.102  30.893  1.00  0.00     0.074 A 
ATOM     52  C   UNL A   1      42.611  28.275  31.436  1.00  0.00     0.031 C 
ATOM     53  C   UNL A   1      42.052  24.928  25.572  1.00  0.00     0.029 A 
ATOM     54  C   UNL A   1      43.200  24.650  26.417  1.00  0.00     0.049 A 
ATOM     55  H   UNL A   1      44.239  26.089  27.556  1.00  0.00     0.167 HD
ATOM     56  C   UNL A   1      45.078  27.837  31.565  1.00  0.00     0.037 A 
ATOM     57  C   UNL A   1      43.818  23.463  26.635  1.00  0.00     0.037 A 
ATOM     58  C   UNL A   1      46.255  28.023  30.778  1.00  0.00     0.049 A 
ATOM     59  C   UNL A   1      45.020  23.710  27.466  1.00  0.00     0.074 A 
ATOM     60  C   UNL A   1      46.778  29.095  30.079  1.00  0.00     0.029 A 
ATOM     61  N   UNL A   1      46.990  26.936  30.385  1.00  0.00    -0.354 N 
ATOM     62  N   UNL A   1      46.105  24.304  27.058  1.00  0.00    -0.248 NA
ATOM     63  C   UNL A   1      44.882  23.580  28.910  1.00  0.00     0.031 C 
ATOM     64  C   UNL A   1      47.474  28.527  28.975  1.00  0.00     0.029 A 
ATOM     65  C   UNL A   1      47.318  27.147  29.069  1.00  0.00     0.049 A 
ATOM     66  H   UNL A   1      47.235  26.159  30.937  1.00  0.00     0.167 HD
ATOM     67  C   UNL A   1      46.585  24.963  28.177  1.00  0.00     0.074 A 
ATOM     68  C   UNL A   1      45.870  24.383  29.305  1.00  0.00     0.031 C 
ATOM     69  C   UNL A   1      47.306  26.114  28.063  1.00  0.00     0.037 A 
BRANCH  56  70
ATOM     70  C   UNL A   1      45.038  27.131  32.885  1.00  0.00     0.064 A 
ATOM     71  C   UNL A   1      44.510  25.840  32.997  1.00  0.00     0.173 A 
ATOM     72  C   UNL A   1      45.320  27.801  34.100  1.00  0.00     0.173 A 
ATOM     73  F   UNL A   1      44.144  25.158  31.902  1.00  0.00    -0.203 F 
ATOM     74  C   UNL A   1      44.292  25.249  34.245  1.00  0.00     0.198 A 
ATOM     75  C   UNL A   1      45.154  27.191  35.338  1.00  0.00     0.198 A 
ATOM     76  F   UNL A   1      45.682  29.093  34.118  1.00  0.00    -0.203 F 
ATOM     77  F   UNL A   1      43.714  24.043  34.318  1.00  0.00    -0.200 F 
ATOM     78  C   UNL A   1      44.626  25.919  35.413  1.00  0.00     0.200 A 
ATOM     79  F   UNL A   1      45.456  27.868  36.455  1.00  0.00    -0.200 F 
ATOM     80  F   UNL A   1      44.395  25.361  36.608  1.00  0.00    -0.200 F 
ENDBRANCH  56  70
BRANCH  57  81
ATOM     81  C   UNL A   1      43.281  22.095  26.416  1.00  0.00     0.064 A 
ATOM     82  C   UNL A   1      43.876  21.233  25.481  1.00  0.00     0.173 A 
ATOM     83  C   UNL A   1      42.311  21.518  27.260  1.00  0.00     0.173 A 
ATOM     84  F   UNL A   1      44.859  21.675  24.684  1.00  0.00    -0.203 F 
ATOM     85  C   UNL A   1      43.511  19.885  25.385  1.00  0.00     0.198 A 
ATOM     86  C   UNL A   1      41.926  20.181  27.146  1.00  0.00     0.198 A 
ATOM     87  F   UNL A   1      41.773  22.210  28.274  1.00  0.00    -0.203 F 
ATOM     88  F   UNL A   1      44.140  19.083  24.515  1.00  0.00    -0.200 F 
ATOM     89  C   UNL A   1      42.531  19.362  26.213  1.00  0.00     0.200 A 
ATOM     90  F   UNL A   1      41.002  19.681  27.980  1.00  0.00    -0.200 F 
ATOM     91  F   UNL A   1      42.202  18.065  26.142  1.00  0.00    -0.200 F 
ENDBRANCH  57  81
BRANCH  69  92
ATOM     92  C   UNL A   1      47.837  26.476  26.707  1.00  0.00     0.064 A 
ATOM     93  C   UNL A   1      49.090  26.053  26.230  1.00  0.00     0.173 A 
ATOM     94  C   UNL A   1      46.996  27.148  25.812  1.00  0.00     0.173 A 
ATOM     95  F   UNL A   1      49.899  25.305  26.991  1.00  0.00    -0.203 F 
ATOM     96  C   UNL A   1      49.502  26.344  24.932  1.00  0.00     0.198 A 
ATOM     97  C   UNL A   1      47.396  27.406  24.503  1.00  0.00     0.198 A 
ATOM     98  F   UNL A   1      45.762  27.515  26.194  1.00  0.00    -0.203 F 
ATOM     99  F   UNL A   1      50.707  25.940  24.505  1.00  0.00    -0.200 F 
ATOM    100  C   UNL A   1      48.653  27.016  24.068  1.00  0.00     0.200 A 
ATOM    101  F   UNL A   1      46.552  28.007  23.654  1.00  0.00    -0.200 F 
ATOM    102  F   UNL A   1      49.034  27.259  22.806  1.00  0.00    -0.200 F 
ENDBRANCH  69  92
ENDBRANCH  43  44
ENDBRANCH  36  38
ENDBRANCH  35  36
ENDBRANCH  34  35
ENDBRANCH  33  34
ENDBRANCH  32  33
ENDBRANCH  31  32
ENDBRANCH   1  31
TORSDOF 24
ENDMDL
MODEL 3
REMARK VINA RESULT:     -11.0      6.448     12.295
REMARK SMILES COC(=O)c1sc(SCC(=O)OCCOCCOCCOC(=O)c2ccc(-c3c4nc(c(-c5c(F)c(F)c(F)c(F)c5F)c5ccc([nH]5)c(-c5c(F)c(F)c(F)c(F)c5F)c5nc(c(-c6c(F)c(F)c(F)c(F)c6F)c6ccc3[nH]6)C=C5)C=C4)cc2)c(NC(=O)c2ccccc2)c1O
REMARK SMILES IDX 16 1 15 2 14 3 13 4 12 5 10 6 11 7 9 8 8 9 7 10 5 11 6 12
REMARK SMILES IDX 97 13 87 14 3 15 4 16 2 17 1 18 98 19 88 21 89 22 90 24
REMARK SMILES IDX 91 25 92 26 96 27 93 28 95 29 94 30 17 31 18 32 19 33 20 34
REMARK SMILES IDX 21 35 22 36 23 37 24 38 25 39 86 40 26 41 85 42 27 43 28 44
REMARK SMILES IDX 29 45 79 46 30 47 84 48 78 49 80 50 31 51 83 52 77 53 76 54
REMARK SMILES IDX 32 56 64 57 44 58 63 59 45 60 48 61 62 62 81 63 46 64 47 65
REMARK SMILES IDX 61 67 82 68 49 69 33 70 34 71 42 72 35 73 36 74 40 75 43 76
REMARK SMILES IDX 37 77 38 78 41 79 39 80 65 81 66 82 74 83 67 84 68 85 72 86
REMARK SMILES IDX 75 87 69 88 70 89 73 90 71 91 50 92 51 93 59 94 52 95 53 96
REMARK SMILES IDX 57 97 60 98 54 99 55 100 58 101 56 102
REMARK H PARENT 98 20 88 23 80 55 48 66
REMARK Flexibility Score: inf
ROOT
ATOM      1  C   UNL A   1      46.408  31.636  26.671  1.00  0.00     0.188 C 
ENDROOT
BRANCH   1   2
ATOM      2  O   UNL A   1      45.710  30.407  26.557  1.00  0.00    -0.376 OA
BRANCH   2   3
ATOM      3  C   UNL A   1      44.563  30.221  27.393  1.00  0.00     0.202 C 
BRANCH   3   4
ATOM      4  C   UNL A   1      43.225  29.931  26.692  1.00  0.00     0.261 C 
BRANCH   4   5
ATOM      5  O   UNL A   1      42.117  29.691  27.601  1.00  0.00    -0.463 OA
BRANCH   5   6
ATOM      6  C   UNL A   1      41.998  28.403  28.074  1.00  0.00     0.316 C 
ATOM      7  O   UNL A   1      42.459  28.036  29.153  1.00  0.00    -0.251 OA
BRANCH   6   8
ATOM      8  C   UNL A   1      41.410  27.312  26.882  1.00  0.00     0.198 C 
BRANCH   8   9
ATOM      9  S   UNL A   1      41.425  24.729  26.806  1.00  0.00    -0.101 SA
BRANCH   9  10
ATOM     10  C   UNL A   1      42.851  23.850  26.021  1.00  0.00     0.089 A 
ATOM     11  C   UNL A   1      44.466  22.078  25.291  1.00  0.00     0.157 A 
ATOM     12  S   UNL A   1      43.089  22.160  26.319  1.00  0.00    -0.116 S 
ATOM     13  C   UNL A   1      44.627  23.272  24.622  1.00  0.00     0.166 A 
ATOM     14  C   UNL A   1      43.795  24.314  25.111  1.00  0.00     0.109 A 
BRANCH  11  15
ATOM     15  C   UNL A   1      45.288  20.881  25.236  1.00  0.00     0.352 C 
ATOM     16  O   UNL A   1      46.505  20.828  25.133  1.00  0.00    -0.245 OA
BRANCH  15  17
ATOM     17  O   UNL A   1      44.463  19.786  25.269  1.00  0.00    -0.465 OA
ATOM     18  C   UNL A   1      45.063  18.484  25.240  1.00  0.00     0.282 C 
ENDBRANCH  15  17
ENDBRANCH  11  15
BRANCH  13  19
ATOM     19  O   UNL A   1      45.575  23.493  23.685  1.00  0.00    -0.504 OA
ATOM     20  H   UNL A   1      46.427  23.112  23.781  1.00  0.00     0.293 HD
ENDBRANCH  13  19
BRANCH  14  21
ATOM     21  N   UNL A   1      44.042  25.617  24.708  1.00  0.00    -0.317 N 
ATOM     22  C   UNL A   1      44.921  26.477  25.290  1.00  0.00     0.255 C 
ATOM     23  H   UNL A   1      43.536  25.950  23.932  1.00  0.00     0.170 HD
ATOM     24  O   UNL A   1      45.108  27.615  24.885  1.00  0.00    -0.269 OA
BRANCH  22  25
ATOM     25  C   UNL A   1      45.647  25.953  26.449  1.00  0.00     0.040 A 
ATOM     26  C   UNL A   1      47.336  25.430  26.119  1.00  0.00     0.014 A 
ATOM     27  C   UNL A   1      45.103  26.230  28.182  1.00  0.00     0.014 A 
ATOM     28  C   UNL A   1      48.502  25.278  27.474  1.00  0.00     0.001 A 
ATOM     29  C   UNL A   1      46.290  26.091  29.526  1.00  0.00     0.001 A 
ATOM     30  C   UNL A   1      47.973  25.585  29.156  1.00  0.00     0.000 A 
ENDBRANCH  22  25
ENDBRANCH  14  21
ENDBRANCH   9  10
ENDBRANCH   8   9
ENDBRANCH   6   8
ENDBRANCH   5   6
ENDBRANCH   4   5
ENDBRANCH   3   4
ENDBRANCH   2   3
ENDBRANCH   1   2
BRANCH   1  31
ATOM     31  C   UNL A   1      45.692  32.883  26.159  1.00  0.00     0.188 C 
BRANCH  31  32
ATOM     32  O   UNL A   1      44.896  32.689  25.000  1.00  0.00    -0.376 OA
BRANCH  32  33
ATOM     33  C   UNL A   1      43.757  33.528  24.855  1.00  0.00     0.202 C 
BRANCH  33  34
ATOM     34  C   UNL A   1      43.921  34.862  25.598  1.00  0.00     0.261 C 
BRANCH  34  35
ATOM     35  O   UNL A   1      43.107  34.941  26.772  1.00  0.00    -0.460 OA
BRANCH  35  36
ATOM     36  C   UNL A   1      43.459  35.971  27.560  1.00  0.00     0.338 C 
ATOM     37  O   UNL A   1      43.397  37.165  27.312  1.00  0.00    -0.246 OA
BRANCH  36  38
ATOM     38  C   UNL A   1      43.929  35.478  28.854  1.00  0.00     0.060 A 
ATOM     39  C   UNL A   1      43.901  34.083  28.956  1.00  0.00     0.016 A 
ATOM     40  C   UNL A   1      43.590  36.314  29.911  1.00  0.00     0.016 A 
ATOM     41  C   UNL A   1      43.137  33.527  29.956  1.00  0.00     0.010 A 
ATOM     42  C   UNL A   1      42.861  35.752  30.931  1.00  0.00     0.010 A 
ATOM     43  C   UNL A   1      42.519  34.390  30.856  1.00  0.00    -0.014 A 
BRANCH  43  44
ATOM     44  C   UNL A   1      41.504  33.862  31.762  1.00  0.00     0.031 A 
ATOM     45  C   UNL A   1      40.101  33.916  31.264  1.00  0.00     0.074 A 
ATOM     46  C   UNL A   1      41.919  33.135  32.825  1.00  0.00     0.049 A 
ATOM     47  N   UNL A   1      38.992  33.891  31.935  1.00  0.00    -0.248 NA
ATOM     48  C   UNL A   1      39.913  34.033  29.801  1.00  0.00     0.031 C 
ATOM     49  C   UNL A   1      43.313  32.895  33.230  1.00  0.00     0.029 A 
ATOM     50  N   UNL A   1      41.215  32.267  33.612  1.00  0.00    -0.354 N 
ATOM     51  C   UNL A   1      37.988  33.796  30.978  1.00  0.00     0.074 A 
ATOM     52  C   UNL A   1      38.591  33.989  29.689  1.00  0.00     0.031 C 
ATOM     53  C   UNL A   1      43.368  31.750  33.940  1.00  0.00     0.029 A 
ATOM     54  C   UNL A   1      42.019  31.232  34.086  1.00  0.00     0.049 A 
ATOM     55  H   UNL A   1      40.257  32.361  33.819  1.00  0.00     0.167 HD
ATOM     56  C   UNL A   1      36.747  33.321  31.253  1.00  0.00     0.037 A 
ATOM     57  C   UNL A   1      41.629  29.977  34.415  1.00  0.00     0.037 A 
ATOM     58  C   UNL A   1      36.341  33.535  32.605  1.00  0.00     0.049 A 
ATOM     59  C   UNL A   1      40.155  29.973  34.570  1.00  0.00     0.074 A 
ATOM     60  C   UNL A   1      36.210  34.661  33.398  1.00  0.00     0.029 A 
ATOM     61  N   UNL A   1      36.238  32.471  33.462  1.00  0.00    -0.354 N 
ATOM     62  N   UNL A   1      39.503  30.530  35.550  1.00  0.00    -0.248 NA
ATOM     63  C   UNL A   1      39.354  29.612  33.408  1.00  0.00     0.031 C 
ATOM     64  C   UNL A   1      36.500  34.230  34.722  1.00  0.00     0.029 A 
ATOM     65  C   UNL A   1      36.802  32.873  34.647  1.00  0.00     0.049 A 
ATOM     66  H   UNL A   1      35.840  31.593  33.266  1.00  0.00     0.167 HD
ATOM     67  C   UNL A   1      38.309  30.945  34.984  1.00  0.00     0.074 A 
ATOM     68  C   UNL A   1      38.221  30.246  33.710  1.00  0.00     0.031 C 
ATOM     69  C   UNL A   1      37.640  32.031  35.464  1.00  0.00     0.037 A 
BRANCH  56  70
ATOM     70  C   UNL A   1      36.054  32.408  30.289  1.00  0.00     0.064 A 
ATOM     71  C   UNL A   1      36.592  31.156  29.969  1.00  0.00     0.173 A 
ATOM     72  C   UNL A   1      34.962  32.842  29.500  1.00  0.00     0.173 A 
ATOM     73  F   UNL A   1      37.674  30.696  30.614  1.00  0.00    -0.203 F 
ATOM     74  C   UNL A   1      36.061  30.380  28.934  1.00  0.00     0.198 A 
ATOM     75  C   UNL A   1      34.402  32.046  28.509  1.00  0.00     0.198 A 
ATOM     76  F   UNL A   1      34.467  34.084  29.615  1.00  0.00    -0.203 F 
ATOM     77  F   UNL A   1      36.647  29.222  28.604  1.00  0.00    -0.200 F 
ATOM     78  C   UNL A   1      34.960  30.819  28.215  1.00  0.00     0.200 A 
ATOM     79  F   UNL A   1      33.355  32.502  27.806  1.00  0.00    -0.200 F 
ATOM     80  F   UNL A   1      34.467  30.085  27.210  1.00  0.00    -0.200 F 
ENDBRANCH  56  70
BRANCH  57  81
ATOM     81  C   UNL A   1      42.413  28.718  34.321  1.00  0.00     0.064 A 
ATOM     82  C   UNL A   1      42.483  27.834  35.409  1.00  0.00     0.173 A 
ATOM     83  C   UNL A   1      42.938  28.242  33.102  1.00  0.00     0.173 A 
ATOM     84  F   UNL A   1      41.945  28.173  36.590  1.00  0.00    -0.203 F 
ATOM     85  C   UNL A   1      43.056  26.563  35.291  1.00  0.00     0.198 A 
ATOM     86  C   UNL A   1      43.536  26.986  32.990  1.00  0.00     0.198 A 
ATOM     87  F   UNL A   1      42.808  28.945  31.968  1.00  0.00    -0.203 F 
ATOM     88  F   UNL A   1      43.056  25.729  36.340  1.00  0.00    -0.200 F 
ATOM     89  C   UNL A   1      43.588  26.143  34.083  1.00  0.00     0.200 A 
ATOM     90  F   UNL A   1      44.013  26.580  31.805  1.00  0.00    -0.200 F 
ATOM     91  F   UNL A   1      44.112  24.915  33.961  1.00  0.00    -0.200 F 
ENDBRANCH  57  81
BRANCH  69  92
ATOM     92  C   UNL A   1      38.050  32.570  36.802  1.00  0.00     0.064 A 
ATOM     93  C   UNL A   1      37.629  32.013  38.022  1.00  0.00     0.173 A 
ATOM     94  C   UNL A   1      39.009  33.589  36.853  1.00  0.00     0.173 A 
ATOM     95  F   UNL A   1      36.803  30.959  38.048  1.00  0.00    -0.203 F 
ATOM     96  C   UNL A   1      38.105  32.497  39.238  1.00  0.00     0.198 A 
ATOM     97  C   UNL A   1      39.511  34.046  38.069  1.00  0.00     0.198 A 
ATOM     98  F   UNL A   1      39.497  34.112  35.716  1.00  0.00    -0.203 F 
ATOM     99  F   UNL A   1      37.678  31.955  40.388  1.00  0.00    -0.200 F 
ATOM    100  C   UNL A   1      39.050  33.509  39.260  1.00  0.00     0.200 A 
ATOM    101  F   UNL A   1      40.464  34.988  38.085  1.00  0.00    -0.200 F 
ATOM    102  F   UNL A   1      39.538  33.946  40.430  1.00  0.00    -0.200 F 
ENDBRANCH  69  92
ENDBRANCH  43  44
ENDBRANCH  36  38
ENDBRANCH  35  36
ENDBRANCH  34  35
ENDBRANCH  33  34
ENDBRANCH  32  33
ENDBRANCH  31  32
ENDBRANCH   1  31
TORSDOF 24
ENDMDL
