MODEL 1
REMARK VINA RESULT:      -8.9      0.000      0.000
REMARK SMILES Cc1ccc(S(=O)(=O)Nc2ccc(C(=O)CCC(=O)OCCOCCOCCOC(=O)c3ccc(-c4c5nc(c(-c6c(F)c(F)c(F)c(F)c6F)c6ccc([nH]6)c(-c6c(F)c(F)c(F)c(F)c6F)c6nc(c(-c7c(F)c(F)c(F)c(F)c7F)c7ccc4[nH]7)C=C6)C=C5)cc3)cc2)c(C)c1
REMARK SMILES IDX 22 1 21 2 20 3 18 4 19 5 17 6 16 7 14 8 15 9 13 10 10 11
REMARK SMILES IDX 11 12 96 13 12 14 95 15 9 16 6 18 7 19 8 20 5 21 1 22 2 23
REMARK SMILES IDX 3 24 99 25 4 26 97 27 98 28 23 29 24 30 25 31 26 32 27 33
REMARK SMILES IDX 28 34 29 35 30 36 31 37 32 38 33 39 94 40 34 41 93 42 35 43
REMARK SMILES IDX 36 44 37 45 87 46 38 47 92 48 86 49 88 50 39 51 91 52 85 53
REMARK SMILES IDX 84 54 40 56 72 57 52 58 71 59 53 60 56 61 70 62 89 63 54 64
REMARK SMILES IDX 55 65 69 67 90 68 57 69 41 70 42 71 50 72 43 73 44 74 48 75
REMARK SMILES IDX 51 76 45 77 46 78 49 79 47 80 73 81 74 82 82 83 75 84 76 85
REMARK SMILES IDX 80 86 83 87 77 88 78 89 81 90 79 91 58 92 59 93 67 94 60 95
REMARK SMILES IDX 61 96 65 97 68 98 62 99 63 100 66 101 64 102
REMARK H PARENT 9 17 88 55 56 66
REMARK Flexibility Score: inf
ROOT
ATOM      1  C   UNL A   1      34.079  34.128  29.555  1.00  0.00     0.202 C 
ENDROOT
BRANCH   1   2
ATOM      2  C   UNL A   1      34.190  33.999  28.039  1.00  0.00     0.261 C 
BRANCH   2   3
ATOM      3  O   UNL A   1      34.959  32.867  27.625  1.00  0.00    -0.463 OA
BRANCH   3   4
ATOM      4  C   UNL A   1      34.488  31.638  27.927  1.00  0.00     0.306 C 
ATOM      5  O   UNL A   1      33.397  31.199  27.590  1.00  0.00    -0.252 OA
BRANCH   4   6
ATOM      6  C   UNL A   1      35.491  30.846  28.733  1.00  0.00     0.131 C 
BRANCH   6   7
ATOM      7  C   UNL A   1      36.780  30.447  28.005  1.00  0.00     0.093 C 
BRANCH   7   8
ATOM      8  C   UNL A   1      38.032  30.611  28.872  1.00  0.00     0.163 C 
ATOM      9  O   UNL A   1      38.336  31.722  29.309  1.00  0.00    -0.294 OA
BRANCH   8  10
ATOM     10  C   UNL A   1      38.968  29.463  29.121  1.00  0.00     0.018 A 
ATOM     11  C   UNL A   1      40.630  27.173  28.985  1.00  0.00     0.049 A 
ATOM     12  C   UNL A   1      41.157  28.456  28.797  1.00  0.00     0.027 A 
ATOM     13  C   UNL A   1      39.335  27.075  29.458  1.00  0.00     0.027 A 
ATOM     14  C   UNL A   1      40.331  29.594  28.853  1.00  0.00     0.014 A 
ATOM     15  C   UNL A   1      38.521  28.216  29.533  1.00  0.00     0.014 A 
BRANCH  11  16
ATOM     16  N   UNL A   1      41.465  26.056  28.698  1.00  0.00    -0.280 N 
ATOM     17  H   UNL A   1      41.609  25.419  29.435  1.00  0.00     0.180 HD
BRANCH  16  18
ATOM     18  S   UNL A   1      42.234  25.699  27.244  1.00  0.00     0.262 S 
ATOM     19  O   UNL A   1      43.532  26.344  27.251  1.00  0.00    -0.201 OA
ATOM     20  O   UNL A   1      41.256  26.011  26.223  1.00  0.00    -0.201 OA
BRANCH  18  21
ATOM     21  C   UNL A   1      42.535  23.932  27.117  1.00  0.00     0.090 A 
ATOM     22  C   UNL A   1      41.847  19.684  27.261  1.00  0.00     0.044 C 
ATOM     23  C   UNL A   1      42.255  21.129  27.162  1.00  0.00    -0.051 A 
ATOM     24  C   UNL A   1      42.170  21.832  25.955  1.00  0.00     0.005 A 
ATOM     25  C   UNL A   1      42.693  21.811  28.297  1.00  0.00     0.008 A 
ATOM     26  C   UNL A   1      42.281  23.235  25.933  1.00  0.00     0.023 A 
ATOM     27  C   UNL A   1      42.866  23.208  28.286  1.00  0.00    -0.030 A 
ATOM     28  C   UNL A   1      43.511  23.823  29.500  1.00  0.00     0.046 C 
ENDBRANCH  18  21
ENDBRANCH  16  18
ENDBRANCH  11  16
ENDBRANCH   8  10
ENDBRANCH   7   8
ENDBRANCH   6   7
ENDBRANCH   4   6
ENDBRANCH   3   4
ENDBRANCH   2   3
ENDBRANCH   1   2
BRANCH   1  29
ATOM     29  O   UNL A   1      32.875  34.768  29.954  1.00  0.00    -0.376 OA
BRANCH  29  30
ATOM     30  C   UNL A   1      33.080  35.929  30.744  1.00  0.00     0.188 C 
BRANCH  30  31
ATOM     31  C   UNL A   1      33.488  35.621  32.178  1.00  0.00     0.188 C 
BRANCH  31  32
ATOM     32  O   UNL A   1      33.040  34.416  32.778  1.00  0.00    -0.376 OA
BRANCH  32  33
ATOM     33  C   UNL A   1      34.069  33.455  33.055  1.00  0.00     0.202 C 
BRANCH  33  34
ATOM     34  C   UNL A   1      35.542  33.910  32.993  1.00  0.00     0.261 C 
BRANCH  34  35
ATOM     35  O   UNL A   1      36.465  32.812  32.954  1.00  0.00    -0.460 OA
BRANCH  35  36
ATOM     36  C   UNL A   1      37.092  32.538  34.133  1.00  0.00     0.338 C 
ATOM     37  O   UNL A   1      36.653  32.703  35.248  1.00  0.00    -0.246 OA
BRANCH  36  38
ATOM     38  C   UNL A   1      38.282  31.689  33.834  1.00  0.00     0.060 A 
ATOM     39  C   UNL A   1      39.423  31.874  34.638  1.00  0.00     0.016 A 
ATOM     40  C   UNL A   1      38.227  30.627  32.927  1.00  0.00     0.016 A 
ATOM     41  C   UNL A   1      40.518  31.024  34.516  1.00  0.00     0.010 A 
ATOM     42  C   UNL A   1      39.341  29.802  32.768  1.00  0.00     0.010 A 
ATOM     43  C   UNL A   1      40.504  30.039  33.523  1.00  0.00    -0.014 A 
BRANCH  43  44
ATOM     44  C   UNL A   1      41.804  29.575  32.997  1.00  0.00     0.031 A 
ATOM     45  C   UNL A   1      42.389  30.393  31.878  1.00  0.00     0.074 A 
ATOM     46  C   UNL A   1      42.451  28.512  33.495  1.00  0.00     0.049 A 
ATOM     47  N   UNL A   1      43.481  30.211  31.187  1.00  0.00    -0.248 NA
ATOM     48  C   UNL A   1      41.618  31.586  31.479  1.00  0.00     0.031 C 
ATOM     49  C   UNL A   1      41.996  27.681  34.605  1.00  0.00     0.029 A 
ATOM     50  N   UNL A   1      43.639  27.947  33.108  1.00  0.00    -0.354 N 
ATOM     51  C   UNL A   1      43.521  31.261  30.278  1.00  0.00     0.074 A 
ATOM     52  C   UNL A   1      42.327  32.048  30.467  1.00  0.00     0.031 C 
ATOM     53  C   UNL A   1      42.885  26.689  34.795  1.00  0.00     0.029 A 
ATOM     54  C   UNL A   1      43.952  26.805  33.801  1.00  0.00     0.049 A 
ATOM     55  H   UNL A   1      44.212  28.324  32.402  1.00  0.00     0.167 HD
ATOM     56  C   UNL A   1      44.480  31.555  29.371  1.00  0.00     0.037 A 
ATOM     57  C   UNL A   1      44.974  25.945  33.619  1.00  0.00     0.037 A 
ATOM     58  C   UNL A   1      45.647  30.746  29.172  1.00  0.00     0.049 A 
ATOM     59  C   UNL A   1      45.994  26.241  32.548  1.00  0.00     0.074 A 
ATOM     60  C   UNL A   1      46.682  30.927  28.274  1.00  0.00     0.029 A 
ATOM     61  N   UNL A   1      45.924  29.583  29.879  1.00  0.00    -0.354 N 
ATOM     62  N   UNL A   1      46.043  27.241  31.701  1.00  0.00    -0.248 NA
ATOM     63  C   UNL A   1      47.109  25.293  32.416  1.00  0.00     0.031 C 
ATOM     64  C   UNL A   1      47.554  29.840  28.398  1.00  0.00     0.029 A 
ATOM     65  C   UNL A   1      47.101  29.021  29.422  1.00  0.00     0.049 A 
ATOM     66  H   UNL A   1      45.362  29.213  30.600  1.00  0.00     0.167 HD
ATOM     67  C   UNL A   1      47.202  27.062  30.956  1.00  0.00     0.074 A 
ATOM     68  C   UNL A   1      47.834  25.860  31.462  1.00  0.00     0.031 C 
ATOM     69  C   UNL A   1      47.705  27.822  29.949  1.00  0.00     0.037 A 
BRANCH  56  70
ATOM     70  C   UNL A   1      44.255  32.766  28.513  1.00  0.00     0.064 A 
ATOM     71  C   UNL A   1      43.900  32.658  27.157  1.00  0.00     0.173 A 
ATOM     72  C   UNL A   1      44.446  34.052  29.038  1.00  0.00     0.173 A 
ATOM     73  F   UNL A   1      43.736  31.451  26.595  1.00  0.00    -0.203 F 
ATOM     74  C   UNL A   1      43.790  33.790  26.352  1.00  0.00     0.198 A 
ATOM     75  C   UNL A   1      44.297  35.183  28.239  1.00  0.00     0.198 A 
ATOM     76  F   UNL A   1      44.796  34.214  30.322  1.00  0.00    -0.203 F 
ATOM     77  F   UNL A   1      43.532  33.656  25.044  1.00  0.00    -0.200 F 
ATOM     78  C   UNL A   1      43.984  35.051  26.895  1.00  0.00     0.200 A 
ATOM     79  F   UNL A   1      44.477  36.401  28.767  1.00  0.00    -0.200 F 
ATOM     80  F   UNL A   1      43.884  36.138  26.118  1.00  0.00    -0.200 F 
ENDBRANCH  56  70
BRANCH  57  81
ATOM     81  C   UNL A   1      45.065  24.724  34.462  1.00  0.00     0.064 A 
ATOM     82  C   UNL A   1      44.575  23.489  34.015  1.00  0.00     0.173 A 
ATOM     83  C   UNL A   1      45.660  24.766  35.733  1.00  0.00     0.173 A 
ATOM     84  F   UNL A   1      43.975  23.400  32.820  1.00  0.00    -0.203 F 
ATOM     85  C   UNL A   1      44.668  22.346  34.809  1.00  0.00     0.198 A 
ATOM     86  C   UNL A   1      45.778  23.618  36.514  1.00  0.00     0.198 A 
ATOM     87  F   UNL A   1      46.140  25.923  36.210  1.00  0.00    -0.203 F 
ATOM     88  F   UNL A   1      44.158  21.186  34.373  1.00  0.00    -0.200 F 
ATOM     89  C   UNL A   1      45.278  22.410  36.053  1.00  0.00     0.200 A 
ATOM     90  F   UNL A   1      46.378  23.682  37.710  1.00  0.00    -0.200 F 
ATOM     91  F   UNL A   1      45.378  21.308  36.811  1.00  0.00    -0.200 F 
ENDBRANCH  57  81
BRANCH  69  92
ATOM     92  C   UNL A   1      49.021  27.400  29.358  1.00  0.00     0.064 A 
ATOM     93  C   UNL A   1      49.097  26.535  28.257  1.00  0.00     0.173 A 
ATOM     94  C   UNL A   1      50.221  27.913  29.873  1.00  0.00     0.173 A 
ATOM     95  F   UNL A   1      47.979  26.011  27.730  1.00  0.00    -0.203 F 
ATOM     96  C   UNL A   1      50.327  26.171  27.717  1.00  0.00     0.198 A 
ATOM     97  C   UNL A   1      51.447  27.578  29.308  1.00  0.00     0.198 A 
ATOM     98  F   UNL A   1      50.204  28.756  30.917  1.00  0.00    -0.203 F 
ATOM     99  F   UNL A   1      50.379  25.299  26.701  1.00  0.00    -0.200 F 
ATOM    100  C   UNL A   1      51.500  26.700  28.237  1.00  0.00     0.200 A 
ATOM    101  F   UNL A   1      52.577  28.106  29.798  1.00  0.00    -0.200 F 
ATOM    102  F   UNL A   1      52.683  26.354  27.710  1.00  0.00    -0.200 F 
ENDBRANCH  69  92
ENDBRANCH  43  44
ENDBRANCH  36  38
ENDBRANCH  35  36
ENDBRANCH  34  35
ENDBRANCH  33  34
ENDBRANCH  32  33
ENDBRANCH  31  32
ENDBRANCH  30  31
ENDBRANCH  29  30
ENDBRANCH   1  29
TORSDOF 23
ENDMDL
MODEL 2
REMARK VINA RESULT:      -7.8      7.692     12.462
REMARK SMILES Cc1ccc(S(=O)(=O)Nc2ccc(C(=O)CCC(=O)OCCOCCOCCOC(=O)c3ccc(-c4c5nc(c(-c6c(F)c(F)c(F)c(F)c6F)c6ccc([nH]6)c(-c6c(F)c(F)c(F)c(F)c6F)c6nc(c(-c7c(F)c(F)c(F)c(F)c7F)c7ccc4[nH]7)C=C6)C=C5)cc3)cc2)c(C)c1
REMARK SMILES IDX 22 1 21 2 20 3 18 4 19 5 17 6 16 7 14 8 15 9 13 10 10 11
REMARK SMILES IDX 11 12 96 13 12 14 95 15 9 16 6 18 7 19 8 20 5 21 1 22 2 23
REMARK SMILES IDX 3 24 99 25 4 26 97 27 98 28 23 29 24 30 25 31 26 32 27 33
REMARK SMILES IDX 28 34 29 35 30 36 31 37 32 38 33 39 94 40 34 41 93 42 35 43
REMARK SMILES IDX 36 44 37 45 87 46 38 47 92 48 86 49 88 50 39 51 91 52 85 53
REMARK SMILES IDX 84 54 40 56 72 57 52 58 71 59 53 60 56 61 70 62 89 63 54 64
REMARK SMILES IDX 55 65 69 67 90 68 57 69 41 70 42 71 50 72 43 73 44 74 48 75
REMARK SMILES IDX 51 76 45 77 46 78 49 79 47 80 73 81 74 82 82 83 75 84 76 85
REMARK SMILES IDX 80 86 83 87 77 88 78 89 81 90 79 91 58 92 59 93 67 94 60 95
REMARK SMILES IDX 61 96 65 97 68 98 62 99 63 100 66 101 64 102
REMARK H PARENT 9 17 88 55 56 66
REMARK Flexibility Score: inf
ROOT
ATOM      1  C   UNL A   1      39.683  33.630  30.781  1.00  0.00     0.202 C 
ENDROOT
BRANCH   1   2
ATOM      2  C   UNL A   1      38.469  33.926  29.906  1.00  0.00     0.261 C 
BRANCH   2   3
ATOM      3  O   UNL A   1      38.265  32.953  28.878  1.00  0.00    -0.463 OA
BRANCH   3   4
ATOM      4  C   UNL A   1      37.241  32.084  29.023  1.00  0.00     0.306 C 
ATOM      5  O   UNL A   1      37.270  30.902  28.710  1.00  0.00    -0.252 OA
BRANCH   4   6
ATOM      6  C   UNL A   1      36.035  32.752  29.642  1.00  0.00     0.131 C 
BRANCH   6   7
ATOM      7  C   UNL A   1      34.702  32.011  29.493  1.00  0.00     0.093 C 
BRANCH   7   8
ATOM      8  C   UNL A   1      34.136  32.077  28.071  1.00  0.00     0.163 C 
ATOM      9  O   UNL A   1      34.225  33.120  27.421  1.00  0.00    -0.294 OA
BRANCH   8  10
ATOM     10  C   UNL A   1      33.376  30.925  27.477  1.00  0.00     0.018 A 
ATOM     11  C   UNL A   1      32.316  28.851  25.866  1.00  0.00     0.049 A 
ATOM     12  C   UNL A   1      33.334  28.593  26.792  1.00  0.00     0.027 A 
ATOM     13  C   UNL A   1      31.695  30.084  25.922  1.00  0.00     0.027 A 
ATOM     14  C   UNL A   1      33.870  29.624  27.586  1.00  0.00     0.014 A 
ATOM     15  C   UNL A   1      32.220  31.103  26.732  1.00  0.00     0.014 A 
BRANCH  11  16
ATOM     16  N   UNL A   1      31.973  27.822  24.943  1.00  0.00    -0.280 N 
ATOM     17  H   UNL A   1      32.081  28.038  23.988  1.00  0.00     0.180 HD
BRANCH  16  18
ATOM     18  S   UNL A   1      31.404  26.277  25.296  1.00  0.00     0.262 S 
ATOM     19  O   UNL A   1      30.596  25.829  24.179  1.00  0.00    -0.201 OA
ATOM     20  O   UNL A   1      30.837  26.387  26.624  1.00  0.00    -0.201 OA
BRANCH  18  21
ATOM     21  C   UNL A   1      32.777  25.127  25.438  1.00  0.00     0.090 A 
ATOM     22  C   UNL A   1      35.909  22.398  24.305  1.00  0.00     0.044 C 
ATOM     23  C   UNL A   1      34.861  23.318  24.870  1.00  0.00    -0.051 A 
ATOM     24  C   UNL A   1      35.143  24.659  25.158  1.00  0.00     0.005 A 
ATOM     25  C   UNL A   1      33.564  22.853  25.083  1.00  0.00     0.008 A 
ATOM     26  C   UNL A   1      34.101  25.571  25.413  1.00  0.00     0.023 A 
ATOM     27  C   UNL A   1      32.514  23.738  25.395  1.00  0.00    -0.030 A 
ATOM     28  C   UNL A   1      31.196  23.121  25.780  1.00  0.00     0.046 C 
ENDBRANCH  18  21
ENDBRANCH  16  18
ENDBRANCH  11  16
ENDBRANCH   8  10
ENDBRANCH   7   8
ENDBRANCH   6   7
ENDBRANCH   4   6
ENDBRANCH   3   4
ENDBRANCH   2   3
ENDBRANCH   1   2
BRANCH   1  29
ATOM     29  O   UNL A   1      40.887  33.569  30.027  1.00  0.00    -0.376 OA
BRANCH  29  30
ATOM     30  C   UNL A   1      42.054  33.814  30.797  1.00  0.00     0.188 C 
BRANCH  30  31
ATOM     31  C   UNL A   1      42.678  35.177  30.533  1.00  0.00     0.188 C 
BRANCH  31  32
ATOM     32  O   UNL A   1      43.290  35.423  29.276  1.00  0.00    -0.376 OA
BRANCH  32  33
ATOM     33  C   UNL A   1      43.669  36.787  29.041  1.00  0.00     0.202 C 
BRANCH  33  34
ATOM     34  C   UNL A   1      45.145  37.190  29.240  1.00  0.00     0.261 C 
BRANCH  34  35
ATOM     35  O   UNL A   1      45.568  37.108  30.608  1.00  0.00    -0.460 OA
BRANCH  35  36
ATOM     36  C   UNL A   1      45.343  38.226  31.354  1.00  0.00     0.338 C 
ATOM     37  O   UNL A   1      45.453  39.377  30.996  1.00  0.00    -0.246 OA
BRANCH  36  38
ATOM     38  C   UNL A   1      44.616  37.815  32.591  1.00  0.00     0.060 A 
ATOM     39  C   UNL A   1      45.108  36.692  33.283  1.00  0.00     0.016 A 
ATOM     40  C   UNL A   1      43.609  38.602  33.156  1.00  0.00     0.016 A 
ATOM     41  C   UNL A   1      44.576  36.335  34.517  1.00  0.00     0.010 A 
ATOM     42  C   UNL A   1      43.039  38.219  34.371  1.00  0.00     0.010 A 
ATOM     43  C   UNL A   1      43.486  37.054  35.019  1.00  0.00    -0.014 A 
BRANCH  43  44
ATOM     44  C   UNL A   1      42.572  36.358  35.948  1.00  0.00     0.031 A 
ATOM     45  C   UNL A   1      42.796  36.626  37.411  1.00  0.00     0.074 A 
ATOM     46  C   UNL A   1      41.581  35.559  35.529  1.00  0.00     0.049 A 
ATOM     47  N   UNL A   1      42.192  36.130  38.457  1.00  0.00    -0.248 NA
ATOM     48  C   UNL A   1      43.865  37.589  37.736  1.00  0.00     0.031 C 
ATOM     49  C   UNL A   1      41.251  35.270  34.137  1.00  0.00     0.029 A 
ATOM     50  N   UNL A   1      40.673  34.832  36.255  1.00  0.00    -0.354 N 
ATOM     51  C   UNL A   1      42.810  36.720  39.553  1.00  0.00     0.074 A 
ATOM     52  C   UNL A   1      43.864  37.569  39.055  1.00  0.00     0.031 C 
ATOM     53  C   UNL A   1      40.225  34.400  34.109  1.00  0.00     0.029 A 
ATOM     54  C   UNL A   1      39.851  34.055  35.480  1.00  0.00     0.049 A 
ATOM     55  H   UNL A   1      40.617  34.865  37.237  1.00  0.00     0.167 HD
ATOM     56  C   UNL A   1      42.515  36.578  40.865  1.00  0.00     0.037 A 
ATOM     57  C   UNL A   1      38.925  33.149  35.853  1.00  0.00     0.037 A 
ATOM     58  C   UNL A   1      41.485  35.704  41.349  1.00  0.00     0.049 A 
ATOM     59  C   UNL A   1      38.661  32.940  37.324  1.00  0.00     0.074 A 
ATOM     60  C   UNL A   1      41.101  35.459  42.653  1.00  0.00     0.029 A 
ATOM     61  N   UNL A   1      40.682  34.916  40.535  1.00  0.00    -0.354 N 
ATOM     62  N   UNL A   1      39.232  33.508  38.360  1.00  0.00    -0.248 NA
ATOM     63  C   UNL A   1      37.616  31.969  37.677  1.00  0.00     0.031 C 
ATOM     64  C   UNL A   1      40.105  34.477  42.631  1.00  0.00     0.029 A 
ATOM     65  C   UNL A   1      39.818  34.164  41.310  1.00  0.00     0.049 A 
ATOM     66  H   UNL A   1      40.722  34.895  39.551  1.00  0.00     0.167 HD
ATOM     67  C   UNL A   1      38.599  32.990  39.484  1.00  0.00     0.074 A 
ATOM     68  C   UNL A   1      37.592  32.069  38.999  1.00  0.00     0.031 C 
ATOM     69  C   UNL A   1      38.824  33.254  40.796  1.00  0.00     0.037 A 
BRANCH  56  70
ATOM     70  C   UNL A   1      43.360  37.347  41.839  1.00  0.00     0.064 A 
ATOM     71  C   UNL A   1      44.531  36.803  42.395  1.00  0.00     0.173 A 
ATOM     72  C   UNL A   1      42.968  38.625  42.262  1.00  0.00     0.173 A 
ATOM     73  F   UNL A   1      44.935  35.571  42.050  1.00  0.00    -0.203 F 
ATOM     74  C   UNL A   1      45.250  37.493  43.370  1.00  0.00     0.198 A 
ATOM     75  C   UNL A   1      43.711  39.327  43.207  1.00  0.00     0.198 A 
ATOM     76  F   UNL A   1      41.854  39.188  41.772  1.00  0.00    -0.203 F 
ATOM     77  F   UNL A   1      46.315  36.919  43.944  1.00  0.00    -0.200 F 
ATOM     78  C   UNL A   1      44.842  38.756  43.771  1.00  0.00     0.200 A 
ATOM     79  F   UNL A   1      43.320  40.551  43.588  1.00  0.00    -0.200 F 
ATOM     80  F   UNL A   1      45.529  39.415  44.712  1.00  0.00    -0.200 F 
ENDBRANCH  56  70
BRANCH  57  81
ATOM     81  C   UNL A   1      38.198  32.371  34.816  1.00  0.00     0.064 A 
ATOM     82  C   UNL A   1      36.980  32.819  34.285  1.00  0.00     0.173 A 
ATOM     83  C   UNL A   1      38.717  31.163  34.323  1.00  0.00     0.173 A 
ATOM     84  F   UNL A   1      36.429  33.953  34.740  1.00  0.00    -0.203 F 
ATOM     85  C   UNL A   1      36.306  32.087  33.309  1.00  0.00     0.198 A 
ATOM     86  C   UNL A   1      38.057  30.446  33.327  1.00  0.00     0.198 A 
ATOM     87  F   UNL A   1      39.876  30.687  34.801  1.00  0.00    -0.203 F 
ATOM     88  F   UNL A   1      35.125  32.518  32.846  1.00  0.00    -0.200 F 
ATOM     89  C   UNL A   1      36.849  30.906  32.824  1.00  0.00     0.200 A 
ATOM     90  F   UNL A   1      38.592  29.313  32.854  1.00  0.00    -0.200 F 
ATOM     91  F   UNL A   1      36.207  30.209  31.876  1.00  0.00    -0.200 F 
ENDBRANCH  57  81
BRANCH  69  92
ATOM     92  C   UNL A   1      37.938  32.569  41.799  1.00  0.00     0.064 A 
ATOM     93  C   UNL A   1      36.697  33.099  42.177  1.00  0.00     0.173 A 
ATOM     94  C   UNL A   1      38.320  31.335  42.349  1.00  0.00     0.173 A 
ATOM     95  F   UNL A   1      36.287  34.279  41.686  1.00  0.00    -0.203 F 
ATOM     96  C   UNL A   1      35.887  32.437  43.096  1.00  0.00     0.198 A 
ATOM     97  C   UNL A   1      37.492  30.658  43.238  1.00  0.00     0.198 A 
ATOM     98  F   UNL A   1      39.492  30.776  42.009  1.00  0.00    -0.203 F 
ATOM     99  F   UNL A   1      34.730  32.990  43.486  1.00  0.00    -0.200 F 
ATOM    100  C   UNL A   1      36.281  31.214  43.618  1.00  0.00     0.200 A 
ATOM    101  F   UNL A   1      37.865  29.467  43.724  1.00  0.00    -0.200 F 
ATOM    102  F   UNL A   1      35.496  30.575  44.497  1.00  0.00    -0.200 F 
ENDBRANCH  69  92
ENDBRANCH  43  44
ENDBRANCH  36  38
ENDBRANCH  35  36
ENDBRANCH  34  35
ENDBRANCH  33  34
ENDBRANCH  32  33
ENDBRANCH  31  32
ENDBRANCH  30  31
ENDBRANCH  29  30
ENDBRANCH   1  29
TORSDOF 23
ENDMDL
MODEL 3
REMARK VINA RESULT:      -7.7      5.031      9.554
REMARK SMILES Cc1ccc(S(=O)(=O)Nc2ccc(C(=O)CCC(=O)OCCOCCOCCOC(=O)c3ccc(-c4c5nc(c(-c6c(F)c(F)c(F)c(F)c6F)c6ccc([nH]6)c(-c6c(F)c(F)c(F)c(F)c6F)c6nc(c(-c7c(F)c(F)c(F)c(F)c7F)c7ccc4[nH]7)C=C6)C=C5)cc3)cc2)c(C)c1
REMARK SMILES IDX 22 1 21 2 20 3 18 4 19 5 17 6 16 7 14 8 15 9 13 10 10 11
REMARK SMILES IDX 11 12 96 13 12 14 95 15 9 16 6 18 7 19 8 20 5 21 1 22 2 23
REMARK SMILES IDX 3 24 99 25 4 26 97 27 98 28 23 29 24 30 25 31 26 32 27 33
REMARK SMILES IDX 28 34 29 35 30 36 31 37 32 38 33 39 94 40 34 41 93 42 35 43
REMARK SMILES IDX 36 44 37 45 87 46 38 47 92 48 86 49 88 50 39 51 91 52 85 53
REMARK SMILES IDX 84 54 40 56 72 57 52 58 71 59 53 60 56 61 70 62 89 63 54 64
REMARK SMILES IDX 55 65 69 67 90 68 57 69 41 70 42 71 50 72 43 73 44 74 48 75
REMARK SMILES IDX 51 76 45 77 46 78 49 79 47 80 73 81 74 82 82 83 75 84 76 85
REMARK SMILES IDX 80 86 83 87 77 88 78 89 81 90 79 91 58 92 59 93 67 94 60 95
REMARK SMILES IDX 61 96 65 97 68 98 62 99 63 100 66 101 64 102
REMARK H PARENT 9 17 88 55 56 66
REMARK Flexibility Score: inf
ROOT
ATOM      1  C   UNL A   1      41.282  27.990  27.572  1.00  0.00     0.202 C 
ENDROOT
BRANCH   1   2
ATOM      2  C   UNL A   1      41.689  27.034  26.455  1.00  0.00     0.261 C 
BRANCH   2   3
ATOM      3  O   UNL A   1      41.841  25.683  26.899  1.00  0.00    -0.463 OA
BRANCH   3   4
ATOM      4  C   UNL A   1      43.090  25.238  27.153  1.00  0.00     0.306 C 
ATOM      5  O   UNL A   1      44.102  25.926  27.131  1.00  0.00    -0.252 OA
BRANCH   4   6
ATOM      6  C   UNL A   1      43.093  23.764  27.486  1.00  0.00     0.131 C 
BRANCH   6   7
ATOM      7  C   UNL A   1      41.954  23.273  28.388  1.00  0.00     0.093 C 
BRANCH   7   8
ATOM      8  C   UNL A   1      41.081  22.205  27.723  1.00  0.00     0.163 C 
ATOM      9  O   UNL A   1      41.400  21.017  27.796  1.00  0.00    -0.294 OA
BRANCH   8  10
ATOM     10  C   UNL A   1      39.891  22.577  26.886  1.00  0.00     0.018 A 
ATOM     11  C   UNL A   1      37.322  23.101  25.813  1.00  0.00     0.049 A 
ATOM     12  C   UNL A   1      38.057  24.111  26.444  1.00  0.00     0.027 A 
ATOM     13  C   UNL A   1      37.974  21.915  25.531  1.00  0.00     0.027 A 
ATOM     14  C   UNL A   1      39.329  23.851  26.988  1.00  0.00     0.014 A 
ATOM     15  C   UNL A   1      39.252  21.668  26.057  1.00  0.00     0.014 A 
BRANCH  11  16
ATOM     16  N   UNL A   1      35.962  23.366  25.484  1.00  0.00    -0.280 N 
ATOM     17  H   UNL A   1      35.401  23.727  26.208  1.00  0.00     0.180 HD
BRANCH  16  18
ATOM     18  S   UNL A   1      35.204  23.135  23.998  1.00  0.00     0.262 S 
ATOM     19  O   UNL A   1      34.412  21.924  24.081  1.00  0.00    -0.201 OA
ATOM     20  O   UNL A   1      36.264  23.263  23.020  1.00  0.00    -0.201 OA
BRANCH  18  21
ATOM     21  C   UNL A   1      34.061  24.481  23.668  1.00  0.00     0.090 A 
ATOM     22  C   UNL A   1      30.505  26.904  23.817  1.00  0.00     0.044 C 
ATOM     23  C   UNL A   1      31.811  26.177  23.648  1.00  0.00    -0.051 A 
ATOM     24  C   UNL A   1      32.930  26.490  24.428  1.00  0.00     0.005 A 
ATOM     25  C   UNL A   1      31.917  25.137  22.724  1.00  0.00     0.008 A 
ATOM     26  C   UNL A   1      34.044  25.630  24.463  1.00  0.00     0.023 A 
ATOM     27  C   UNL A   1      33.046  24.296  22.700  1.00  0.00    -0.030 A 
ATOM     28  C   UNL A   1      33.146  23.323  21.556  1.00  0.00     0.046 C 
ENDBRANCH  18  21
ENDBRANCH  16  18
ENDBRANCH  11  16
ENDBRANCH   8  10
ENDBRANCH   7   8
ENDBRANCH   6   7
ENDBRANCH   4   6
ENDBRANCH   3   4
ENDBRANCH   2   3
ENDBRANCH   1   2
BRANCH   1  29
ATOM     29  O   UNL A   1      40.693  29.183  27.073  1.00  0.00    -0.376 OA
BRANCH  29  30
ATOM     30  C   UNL A   1      39.274  29.179  27.114  1.00  0.00     0.188 C 
BRANCH  30  31
ATOM     31  C   UNL A   1      38.710  28.851  28.489  1.00  0.00     0.188 C 
BRANCH  31  32
ATOM     32  O   UNL A   1      37.334  29.085  28.744  1.00  0.00    -0.376 OA
BRANCH  32  33
ATOM     33  C   UNL A   1      36.642  29.815  27.720  1.00  0.00     0.202 C 
BRANCH  33  34
ATOM     34  C   UNL A   1      35.366  30.595  28.102  1.00  0.00     0.261 C 
BRANCH  34  35
ATOM     35  O   UNL A   1      35.634  31.951  28.486  1.00  0.00    -0.460 OA
BRANCH  35  36
ATOM     36  C   UNL A   1      35.410  32.238  29.799  1.00  0.00     0.338 C 
ATOM     37  O   UNL A   1      34.344  32.459  30.327  1.00  0.00    -0.246 OA
BRANCH  36  38
ATOM     38  C   UNL A   1      36.652  31.911  30.559  1.00  0.00     0.060 A 
ATOM     39  C   UNL A   1      36.552  30.931  31.565  1.00  0.00     0.016 A 
ATOM     40  C   UNL A   1      37.905  32.405  30.182  1.00  0.00     0.016 A 
ATOM     41  C   UNL A   1      37.692  30.469  32.216  1.00  0.00     0.010 A 
ATOM     42  C   UNL A   1      39.044  31.980  30.865  1.00  0.00     0.010 A 
ATOM     43  C   UNL A   1      38.927  31.055  31.919  1.00  0.00    -0.014 A 
BRANCH  43  44
ATOM     44  C   UNL A   1      39.969  31.028  32.964  1.00  0.00     0.031 A 
ATOM     45  C   UNL A   1      41.092  30.050  32.746  1.00  0.00     0.074 A 
ATOM     46  C   UNL A   1      39.949  31.838  34.032  1.00  0.00     0.049 A 
ATOM     47  N   UNL A   1      42.116  29.764  33.503  1.00  0.00    -0.248 NA
ATOM     48  C   UNL A   1      41.039  29.277  31.491  1.00  0.00     0.031 C 
ATOM     49  C   UNL A   1      38.936  32.850  34.315  1.00  0.00     0.029 A 
ATOM     50  N   UNL A   1      40.819  31.919  35.090  1.00  0.00    -0.354 N 
ATOM     51  C   UNL A   1      42.821  28.784  32.815  1.00  0.00     0.074 A 
ATOM     52  C   UNL A   1      42.088  28.485  31.609  1.00  0.00     0.031 C 
ATOM     53  C   UNL A   1      39.228  33.436  35.490  1.00  0.00     0.029 A 
ATOM     54  C   UNL A   1      40.430  32.819  36.049  1.00  0.00     0.049 A 
ATOM     55  H   UNL A   1      41.643  31.384  35.153  1.00  0.00     0.167 HD
ATOM     56  C   UNL A   1      43.988  28.191  33.153  1.00  0.00     0.037 A 
ATOM     57  C   UNL A   1      40.979  33.080  37.252  1.00  0.00     0.037 A 
ATOM     58  C   UNL A   1      44.689  28.474  34.372  1.00  0.00     0.049 A 
ATOM     59  C   UNL A   1      42.238  32.352  37.653  1.00  0.00     0.074 A 
ATOM     60  C   UNL A   1      45.871  27.929  34.836  1.00  0.00     0.029 A 
ATOM     61  N   UNL A   1      44.256  29.379  35.332  1.00  0.00    -0.354 N 
ATOM     62  N   UNL A   1      42.914  31.438  36.997  1.00  0.00    -0.248 NA
ATOM     63  C   UNL A   1      42.817  32.701  38.958  1.00  0.00     0.031 C 
ATOM     64  C   UNL A   1      46.120  28.460  36.106  1.00  0.00     0.029 A 
ATOM     65  C   UNL A   1      45.134  29.391  36.400  1.00  0.00     0.049 A 
ATOM     66  H   UNL A   1      43.442  29.930  35.262  1.00  0.00     0.167 HD
ATOM     67  C   UNL A   1      44.010  31.123  37.791  1.00  0.00     0.074 A 
ATOM     68  C   UNL A   1      43.913  31.955  38.974  1.00  0.00     0.031 C 
ATOM     69  C   UNL A   1      45.010  30.233  37.565  1.00  0.00     0.037 A 
BRANCH  56  70
ATOM     70  C   UNL A   1      44.521  27.153  32.208  1.00  0.00     0.064 A 
ATOM     71  C   UNL A   1      45.287  27.500  31.081  1.00  0.00     0.173 A 
ATOM     72  C   UNL A   1      44.220  25.797  32.401  1.00  0.00     0.173 A 
ATOM     73  F   UNL A   1      45.576  28.785  30.830  1.00  0.00    -0.203 F 
ATOM     74  C   UNL A   1      45.691  26.533  30.163  1.00  0.00     0.198 A 
ATOM     75  C   UNL A   1      44.660  24.829  31.502  1.00  0.00     0.198 A 
ATOM     76  F   UNL A   1      43.484  25.411  33.454  1.00  0.00    -0.203 F 
ATOM     77  F   UNL A   1      46.348  26.899  29.055  1.00  0.00    -0.200 F 
ATOM     78  C   UNL A   1      45.382  25.199  30.377  1.00  0.00     0.200 A 
ATOM     79  F   UNL A   1      44.367  23.539  31.715  1.00  0.00    -0.200 F 
ATOM     80  F   UNL A   1      45.765  24.271  29.491  1.00  0.00    -0.200 F 
ENDBRANCH  56  70
BRANCH  57  81
ATOM     81  C   UNL A   1      40.328  34.063  38.158  1.00  0.00     0.064 A 
ATOM     82  C   UNL A   1      40.659  35.425  38.118  1.00  0.00     0.173 A 
ATOM     83  C   UNL A   1      39.348  33.659  39.079  1.00  0.00     0.173 A 
ATOM     84  F   UNL A   1      41.607  35.859  37.275  1.00  0.00    -0.203 F 
ATOM     85  C   UNL A   1      40.041  36.342  38.967  1.00  0.00     0.198 A 
ATOM     86  C   UNL A   1      38.712  34.580  39.908  1.00  0.00     0.198 A 
ATOM     87  F   UNL A   1      38.999  32.367  39.162  1.00  0.00    -0.203 F 
ATOM     88  F   UNL A   1      40.403  37.632  38.935  1.00  0.00    -0.200 F 
ATOM     89  C   UNL A   1      39.062  35.920  39.855  1.00  0.00     0.200 A 
ATOM     90  F   UNL A   1      37.758  34.170  40.755  1.00  0.00    -0.200 F 
ATOM     91  F   UNL A   1      38.460  36.805  40.663  1.00  0.00    -0.200 F 
ENDBRANCH  57  81
BRANCH  69  92
ATOM     92  C   UNL A   1      46.099  30.142  38.595  1.00  0.00     0.064 A 
ATOM     93  C   UNL A   1      47.177  31.039  38.617  1.00  0.00     0.173 A 
ATOM     94  C   UNL A   1      46.032  29.172  39.608  1.00  0.00     0.173 A 
ATOM     95  F   UNL A   1      47.292  31.982  37.669  1.00  0.00    -0.203 F 
ATOM     96  C   UNL A   1      48.166  30.944  39.592  1.00  0.00     0.198 A 
ATOM     97  C   UNL A   1      47.002  29.104  40.603  1.00  0.00     0.198 A 
ATOM     98  F   UNL A   1      45.014  28.299  39.642  1.00  0.00    -0.203 F 
ATOM     99  F   UNL A   1      49.216  31.776  39.561  1.00  0.00    -0.200 F 
ATOM    100  C   UNL A   1      48.073  29.983  40.589  1.00  0.00     0.200 A 
ATOM    101  F   UNL A   1      46.899  28.189  41.575  1.00  0.00    -0.200 F 
ATOM    102  F   UNL A   1      49.022  29.899  41.531  1.00  0.00    -0.200 F 
ENDBRANCH  69  92
ENDBRANCH  43  44
ENDBRANCH  36  38
ENDBRANCH  35  36
ENDBRANCH  34  35
ENDBRANCH  33  34
ENDBRANCH  32  33
ENDBRANCH  31  32
ENDBRANCH  30  31
ENDBRANCH  29  30
ENDBRANCH   1  29
TORSDOF 23
ENDMDL
