MODEL 1
REMARK VINA RESULT:     -10.3      0.000      0.000
REMARK SMILES O=C(OCCOCCOCCOC(=O)c1cn(-c2ccccc2)c2c1N=C(O)C[C@@H]2c1cccs1)c1ccc(-c2c3nc(c(-c4c(F)c(F)c(F)c(F)c4F)c4ccc([nH]4)c(-c4c(F)c(F)c(F)c(F)c4F)c4nc(c(-c5c(F)c(F)c(F)c(F)c5F)c5ccc2[nH]5)C=C4)C=C3)cc1
REMARK SMILES IDX 7 1 6 2 5 3 4 4 3 5 2 6 1 7 36 8 37 9 98 10 38 11 97 12
REMARK SMILES IDX 39 13 40 14 41 15 91 16 42 17 96 18 90 19 92 20 43 21 95 22
REMARK SMILES IDX 89 23 88 24 44 26 76 27 56 28 75 29 57 30 60 31 74 32 93 33
REMARK SMILES IDX 58 34 59 35 73 37 94 38 61 39 45 40 46 41 54 42 47 43 48 44
REMARK SMILES IDX 52 45 55 46 49 47 50 48 53 49 51 50 77 51 78 52 86 53 79 54
REMARK SMILES IDX 80 55 84 56 87 57 81 58 82 59 85 60 83 61 62 62 63 63 71 64
REMARK SMILES IDX 64 65 65 66 69 67 72 68 66 69 67 70 70 71 68 72 8 73 9 74
REMARK SMILES IDX 10 75 11 76 12 77 13 78 14 79 15 80 16 81 25 82 17 83 24 84
REMARK SMILES IDX 26 85 30 86 27 87 29 88 18 89 19 90 23 91 20 92 22 93 21 94
REMARK SMILES IDX 31 95 32 96 35 97 33 98 34 99 28 100
REMARK H PARENT 92 25 60 36 28 101
REMARK Flexibility Score: inf
ROOT
ATOM      1  C   UNL A   1      32.378  36.076  31.160  1.00  0.00     0.188 C 
ENDROOT
BRANCH   1   2
ATOM      2  O   UNL A   1      32.517  35.472  29.898  1.00  0.00    -0.376 OA
BRANCH   2   3
ATOM      3  C   UNL A   1      33.758  35.025  29.397  1.00  0.00     0.202 C 
BRANCH   3   4
ATOM      4  C   UNL A   1      33.928  33.814  28.473  1.00  0.00     0.261 C 
BRANCH   4   5
ATOM      5  O   UNL A   1      34.546  32.655  29.025  1.00  0.00    -0.460 OA
BRANCH   5   6
ATOM      6  C   UNL A   1      35.260  31.670  28.449  1.00  0.00     0.338 C 
ATOM      7  O   UNL A   1      34.806  31.130  27.442  1.00  0.00    -0.246 OA
BRANCH   6   8
ATOM      8  C   UNL A   1      36.499  31.075  29.024  1.00  0.00     0.060 A 
ATOM      9  C   UNL A   1      37.738  31.699  29.150  1.00  0.00     0.016 A 
ATOM     10  C   UNL A   1      36.387  29.713  29.383  1.00  0.00     0.016 A 
ATOM     11  C   UNL A   1      38.867  30.930  29.402  1.00  0.00     0.010 A 
ATOM     12  C   UNL A   1      37.506  28.949  29.663  1.00  0.00     0.010 A 
ATOM     13  C   UNL A   1      38.753  29.545  29.565  1.00  0.00    -0.014 A 
BRANCH  13  14
ATOM     14  C   UNL A   1      39.979  28.765  29.643  1.00  0.00     0.031 A 
ATOM     15  C   UNL A   1      40.539  28.636  31.013  1.00  0.00     0.074 A 
ATOM     16  C   UNL A   1      40.555  28.194  28.565  1.00  0.00     0.049 A 
ATOM     17  N   UNL A   1      41.647  29.123  31.466  1.00  0.00    -0.248 NA
ATOM     18  C   UNL A   1      39.697  28.005  32.041  1.00  0.00     0.031 C 
ATOM     19  C   UNL A   1      40.014  28.030  27.212  1.00  0.00     0.029 A 
ATOM     20  N   UNL A   1      41.765  27.572  28.479  1.00  0.00    -0.354 N 
ATOM     21  C   UNL A   1      41.732  28.716  32.795  1.00  0.00     0.074 A 
ATOM     22  C   UNL A   1      40.452  28.146  33.130  1.00  0.00     0.031 C 
ATOM     23  C   UNL A   1      40.792  27.168  26.515  1.00  0.00     0.029 A 
ATOM     24  C   UNL A   1      41.962  26.843  27.312  1.00  0.00     0.049 A 
ATOM     25  H   UNL A   1      42.446  27.636  29.187  1.00  0.00     0.167 HD
ATOM     26  C   UNL A   1      42.925  28.696  33.448  1.00  0.00     0.037 A 
ATOM     27  C   UNL A   1      42.995  26.003  27.051  1.00  0.00     0.037 A 
ATOM     28  C   UNL A   1      43.883  29.562  32.811  1.00  0.00     0.049 A 
ATOM     29  C   UNL A   1      44.106  26.371  27.965  1.00  0.00     0.074 A 
ATOM     30  C   UNL A   1      43.941  30.921  32.571  1.00  0.00     0.029 A 
ATOM     31  N   UNL A   1      44.815  28.998  31.975  1.00  0.00    -0.354 N 
ATOM     32  N   UNL A   1      44.769  27.490  27.881  1.00  0.00    -0.248 NA
ATOM     33  C   UNL A   1      44.153  25.708  29.260  1.00  0.00     0.031 C 
ATOM     34  C   UNL A   1      44.514  31.039  31.270  1.00  0.00     0.029 A 
ATOM     35  C   UNL A   1      44.842  29.755  30.832  1.00  0.00     0.049 A 
ATOM     36  H   UNL A   1      45.362  28.202  32.162  1.00  0.00     0.167 HD
ATOM     37  C   UNL A   1      44.950  27.890  29.196  1.00  0.00     0.074 A 
ATOM     38  C   UNL A   1      44.606  26.721  30.003  1.00  0.00     0.031 C 
ATOM     39  C   UNL A   1      45.084  29.208  29.520  1.00  0.00     0.037 A 
BRANCH  26  40
ATOM     40  C   UNL A   1      43.328  27.629  34.433  1.00  0.00     0.064 A 
ATOM     41  C   UNL A   1      43.464  26.297  33.992  1.00  0.00     0.173 A 
ATOM     42  C   UNL A   1      43.276  27.804  35.833  1.00  0.00     0.173 A 
ATOM     43  F   UNL A   1      43.506  26.011  32.682  1.00  0.00    -0.203 F 
ATOM     44  C   UNL A   1      43.464  25.221  34.884  1.00  0.00     0.198 A 
ATOM     45  C   UNL A   1      43.325  26.731  36.721  1.00  0.00     0.198 A 
ATOM     46  F   UNL A   1      43.063  28.999  36.394  1.00  0.00    -0.203 F 
ATOM     47  F   UNL A   1      43.467  23.966  34.413  1.00  0.00    -0.200 F 
ATOM     48  C   UNL A   1      43.386  25.438  36.247  1.00  0.00     0.200 A 
ATOM     49  F   UNL A   1      43.229  26.963  38.038  1.00  0.00    -0.200 F 
ATOM     50  F   UNL A   1      43.319  24.408  37.099  1.00  0.00    -0.200 F 
ENDBRANCH  26  40
BRANCH  27  51
ATOM     51  C   UNL A   1      42.960  24.697  26.346  1.00  0.00     0.064 A 
ATOM     52  C   UNL A   1      43.769  24.451  25.222  1.00  0.00     0.173 A 
ATOM     53  C   UNL A   1      42.360  23.571  26.941  1.00  0.00     0.173 A 
ATOM     54  F   UNL A   1      44.419  25.462  24.627  1.00  0.00    -0.203 F 
ATOM     55  C   UNL A   1      43.981  23.154  24.740  1.00  0.00     0.198 A 
ATOM     56  C   UNL A   1      42.571  22.277  26.457  1.00  0.00     0.198 A 
ATOM     57  F   UNL A   1      41.639  23.691  28.065  1.00  0.00    -0.203 F 
ATOM     58  F   UNL A   1      44.810  22.953  23.704  1.00  0.00    -0.200 F 
ATOM     59  C   UNL A   1      43.392  22.068  25.365  1.00  0.00     0.200 A 
ATOM     60  F   UNL A   1      42.030  21.232  27.098  1.00  0.00    -0.200 F 
ATOM     61  F   UNL A   1      43.649  20.821  24.946  1.00  0.00    -0.200 F 
ENDBRANCH  27  51
BRANCH  39  62
ATOM     62  C   UNL A   1      45.272  30.194  28.403  1.00  0.00     0.064 A 
ATOM     63  C   UNL A   1      44.217  30.860  27.753  1.00  0.00     0.173 A 
ATOM     64  C   UNL A   1      46.577  30.604  28.101  1.00  0.00     0.173 A 
ATOM     65  F   UNL A   1      42.941  30.593  28.056  1.00  0.00    -0.203 F 
ATOM     66  C   UNL A   1      44.466  31.870  26.823  1.00  0.00     0.198 A 
ATOM     67  C   UNL A   1      46.821  31.636  27.200  1.00  0.00     0.198 A 
ATOM     68  F   UNL A   1      47.620  30.040  28.731  1.00  0.00    -0.203 F 
ATOM     69  F   UNL A   1      43.445  32.494  26.217  1.00  0.00    -0.200 F 
ATOM     70  C   UNL A   1      45.767  32.264  26.556  1.00  0.00     0.200 A 
ATOM     71  F   UNL A   1      48.078  32.047  26.984  1.00  0.00    -0.200 F 
ATOM     72  F   UNL A   1      46.005  33.269  25.702  1.00  0.00    -0.200 F 
ENDBRANCH  39  62
ENDBRANCH  13  14
ENDBRANCH   6   8
ENDBRANCH   5   6
ENDBRANCH   4   5
ENDBRANCH   3   4
ENDBRANCH   2   3
ENDBRANCH   1   2
BRANCH   1  73
ATOM     73  C   UNL A   1      33.365  37.227  31.484  1.00  0.00     0.188 C 
BRANCH  73  74
ATOM     74  O   UNL A   1      34.269  37.203  32.584  1.00  0.00    -0.376 OA
BRANCH  74  75
ATOM     75  C   UNL A   1      34.028  36.387  33.712  1.00  0.00     0.202 C 
BRANCH  75  76
ATOM     76  C   UNL A   1      34.804  35.069  33.793  1.00  0.00     0.261 C 
BRANCH  76  77
ATOM     77  O   UNL A   1      35.495  34.692  32.602  1.00  0.00    -0.460 OA
BRANCH  77  78
ATOM     78  C   UNL A   1      35.875  33.382  32.508  1.00  0.00     0.342 C 
ATOM     79  O   UNL A   1      35.135  32.440  32.308  1.00  0.00    -0.246 OA
BRANCH  78  80
ATOM     80  C   UNL A   1      37.316  33.249  32.630  1.00  0.00     0.104 A 
ATOM     81  C   UNL A   1      38.302  33.775  31.806  1.00  0.00     0.109 A 
ATOM     82  C   UNL A   1      37.996  32.555  33.633  1.00  0.00     0.103 A 
ATOM     83  N   UNL A   1      39.543  33.343  32.254  1.00  0.00    -0.317 N 
ATOM     84  C   UNL A   1      39.342  32.561  33.377  1.00  0.00     0.058 A 
ATOM     85  N   UNL A   1      37.394  31.953  34.728  1.00  0.00    -0.215 NA
ATOM     86  C   UNL A   1      40.352  31.892  34.243  1.00  0.00     0.088 C 
ATOM     87  C   UNL A   1      38.185  31.206  35.419  1.00  0.00     0.187 C 
ATOM     88  C   UNL A   1      39.618  30.840  35.109  1.00  0.00     0.112 C 
BRANCH  83  89
ATOM     89  C   UNL A   1      40.778  33.677  31.652  1.00  0.00     0.045 A 
ATOM     90  C   UNL A   1      41.572  34.678  32.220  1.00  0.00     0.026 A 
ATOM     91  C   UNL A   1      41.192  33.009  30.494  1.00  0.00     0.026 A 
ATOM     92  C   UNL A   1      42.785  35.015  31.620  1.00  0.00     0.002 A 
ATOM     93  C   UNL A   1      42.389  33.385  29.878  1.00  0.00     0.002 A 
ATOM     94  C   UNL A   1      43.187  34.382  30.443  1.00  0.00     0.000 A 
ENDBRANCH  83  89
BRANCH  86  95
ATOM     95  C   UNL A   1      41.206  32.795  35.119  1.00  0.00     0.014 A 
ATOM     96  C   UNL A   1      42.556  32.618  35.387  1.00  0.00     0.016 A 
ATOM     97  S   UNL A   1      40.610  34.186  35.928  1.00  0.00    -0.148 S 
ATOM     98  C   UNL A   1      43.088  33.615  36.249  1.00  0.00     0.012 A 
ATOM     99  C   UNL A   1      42.140  34.548  36.595  1.00  0.00     0.065 A 
ENDBRANCH  86  95
BRANCH  87 100
ATOM    100  O   UNL A   1      37.671  30.590  36.503  1.00  0.00    -0.496 OA
ATOM    101  H   UNL A   1      38.128  29.873  36.895  1.00  0.00     0.294 HD
ENDBRANCH  87 100
ENDBRANCH  78  80
ENDBRANCH  77  78
ENDBRANCH  76  77
ENDBRANCH  75  76
ENDBRANCH  74  75
ENDBRANCH  73  74
ENDBRANCH   1  73
TORSDOF 20
ENDMDL
MODEL 2
REMARK VINA RESULT:      -9.8      5.526     11.596
REMARK SMILES O=C(OCCOCCOCCOC(=O)c1cn(-c2ccccc2)c2c1N=C(O)C[C@@H]2c1cccs1)c1ccc(-c2c3nc(c(-c4c(F)c(F)c(F)c(F)c4F)c4ccc([nH]4)c(-c4c(F)c(F)c(F)c(F)c4F)c4nc(c(-c5c(F)c(F)c(F)c(F)c5F)c5ccc2[nH]5)C=C4)C=C3)cc1
REMARK SMILES IDX 7 1 6 2 5 3 4 4 3 5 2 6 1 7 36 8 37 9 98 10 38 11 97 12
REMARK SMILES IDX 39 13 40 14 41 15 91 16 42 17 96 18 90 19 92 20 43 21 95 22
REMARK SMILES IDX 89 23 88 24 44 26 76 27 56 28 75 29 57 30 60 31 74 32 93 33
REMARK SMILES IDX 58 34 59 35 73 37 94 38 61 39 45 40 46 41 54 42 47 43 48 44
REMARK SMILES IDX 52 45 55 46 49 47 50 48 53 49 51 50 77 51 78 52 86 53 79 54
REMARK SMILES IDX 80 55 84 56 87 57 81 58 82 59 85 60 83 61 62 62 63 63 71 64
REMARK SMILES IDX 64 65 65 66 69 67 72 68 66 69 67 70 70 71 68 72 8 73 9 74
REMARK SMILES IDX 10 75 11 76 12 77 13 78 14 79 15 80 16 81 25 82 17 83 24 84
REMARK SMILES IDX 26 85 30 86 27 87 29 88 18 89 19 90 23 91 20 92 22 93 21 94
REMARK SMILES IDX 31 95 32 96 35 97 33 98 34 99 28 100
REMARK H PARENT 92 25 60 36 28 101
REMARK Flexibility Score: inf
ROOT
ATOM      1  C   UNL A   1      41.071  20.231  26.755  1.00  0.00     0.188 C 
ENDROOT
BRANCH   1   2
ATOM      2  O   UNL A   1      41.428  19.209  25.857  1.00  0.00    -0.376 OA
BRANCH   2   3
ATOM      3  C   UNL A   1      42.634  18.484  25.964  1.00  0.00     0.202 C 
BRANCH   3   4
ATOM      4  C   UNL A   1      43.834  18.667  25.029  1.00  0.00     0.261 C 
BRANCH   4   5
ATOM      5  O   UNL A   1      44.078  19.981  24.532  1.00  0.00    -0.460 OA
BRANCH   5   6
ATOM      6  C   UNL A   1      45.170  20.765  24.595  1.00  0.00     0.338 C 
ATOM      7  O   UNL A   1      46.274  20.245  24.442  1.00  0.00    -0.246 OA
BRANCH   6   8
ATOM      8  C   UNL A   1      45.158  22.203  24.987  1.00  0.00     0.060 A 
ATOM      9  C   UNL A   1      46.052  22.835  25.849  1.00  0.00     0.016 A 
ATOM     10  C   UNL A   1      44.065  22.942  24.484  1.00  0.00     0.016 A 
ATOM     11  C   UNL A   1      45.733  24.083  26.368  1.00  0.00     0.010 A 
ATOM     12  C   UNL A   1      43.758  24.198  24.977  1.00  0.00     0.010 A 
ATOM     13  C   UNL A   1      44.541  24.715  25.997  1.00  0.00    -0.014 A 
BRANCH  13  14
ATOM     14  C   UNL A   1      44.166  25.930  26.705  1.00  0.00     0.031 A 
ATOM     15  C   UNL A   1      45.072  27.082  26.470  1.00  0.00     0.074 A 
ATOM     16  C   UNL A   1      43.077  26.010  27.499  1.00  0.00     0.049 A 
ATOM     17  N   UNL A   1      45.853  27.663  27.320  1.00  0.00    -0.248 NA
ATOM     18  C   UNL A   1      45.231  27.558  25.087  1.00  0.00     0.031 C 
ATOM     19  C   UNL A   1      41.973  25.056  27.645  1.00  0.00     0.029 A 
ATOM     20  N   UNL A   1      42.702  27.028  28.324  1.00  0.00    -0.354 N 
ATOM     21  C   UNL A   1      46.481  28.694  26.625  1.00  0.00     0.074 A 
ATOM     22  C   UNL A   1      46.161  28.502  25.234  1.00  0.00     0.031 C 
ATOM     23  C   UNL A   1      40.958  25.639  28.327  1.00  0.00     0.029 A 
ATOM     24  C   UNL A   1      41.398  26.941  28.798  1.00  0.00     0.049 A 
ATOM     25  H   UNL A   1      43.307  27.766  28.564  1.00  0.00     0.167 HD
ATOM     26  C   UNL A   1      47.043  29.743  27.284  1.00  0.00     0.037 A 
ATOM     27  C   UNL A   1      40.726  27.896  29.489  1.00  0.00     0.037 A 
ATOM     28  C   UNL A   1      47.333  29.405  28.652  1.00  0.00     0.049 A 
ATOM     29  C   UNL A   1      41.738  28.805  30.084  1.00  0.00     0.074 A 
ATOM     30  C   UNL A   1      48.153  28.475  29.261  1.00  0.00     0.029 A 
ATOM     31  N   UNL A   1      46.455  29.817  29.625  1.00  0.00    -0.354 N 
ATOM     32  N   UNL A   1      42.558  28.451  31.033  1.00  0.00    -0.248 NA
ATOM     33  C   UNL A   1      42.153  29.953  29.290  1.00  0.00     0.031 C 
ATOM     34  C   UNL A   1      47.408  28.010  30.384  1.00  0.00     0.029 A 
ATOM     35  C   UNL A   1      46.220  28.738  30.438  1.00  0.00     0.049 A 
ATOM     36  H   UNL A   1      46.069  30.717  29.721  1.00  0.00     0.167 HD
ATOM     37  C   UNL A   1      43.766  29.035  30.688  1.00  0.00     0.074 A 
ATOM     38  C   UNL A   1      43.441  30.001  29.640  1.00  0.00     0.031 C 
ATOM     39  C   UNL A   1      44.952  28.485  31.078  1.00  0.00     0.037 A 
BRANCH  26  40
ATOM     40  C   UNL A   1      46.993  31.168  26.794  1.00  0.00     0.064 A 
ATOM     41  C   UNL A   1      48.168  31.946  26.809  1.00  0.00     0.173 A 
ATOM     42  C   UNL A   1      45.791  31.885  26.612  1.00  0.00     0.173 A 
ATOM     43  F   UNL A   1      49.367  31.372  26.993  1.00  0.00    -0.203 F 
ATOM     44  C   UNL A   1      48.130  33.341  26.732  1.00  0.00     0.198 A 
ATOM     45  C   UNL A   1      45.762  33.273  26.487  1.00  0.00     0.198 A 
ATOM     46  F   UNL A   1      44.593  31.292  26.662  1.00  0.00    -0.203 F 
ATOM     47  F   UNL A   1      49.261  34.047  26.879  1.00  0.00    -0.200 F 
ATOM     48  C   UNL A   1      46.927  34.004  26.579  1.00  0.00     0.200 A 
ATOM     49  F   UNL A   1      44.582  33.896  26.359  1.00  0.00    -0.200 F 
ATOM     50  F   UNL A   1      46.881  35.341  26.572  1.00  0.00    -0.200 F 
ENDBRANCH  26  40
BRANCH  27  51
ATOM     51  C   UNL A   1      39.298  28.284  29.365  1.00  0.00     0.064 A 
ATOM     52  C   UNL A   1      38.474  28.408  30.498  1.00  0.00     0.173 A 
ATOM     53  C   UNL A   1      38.800  28.833  28.168  1.00  0.00     0.173 A 
ATOM     54  F   UNL A   1      38.895  27.960  31.689  1.00  0.00    -0.203 F 
ATOM     55  C   UNL A   1      37.238  29.063  30.438  1.00  0.00     0.198 A 
ATOM     56  C   UNL A   1      37.566  29.484  28.109  1.00  0.00     0.198 A 
ATOM     57  F   UNL A   1      39.546  28.840  27.054  1.00  0.00    -0.203 F 
ATOM     58  F   UNL A   1      36.508  29.217  31.553  1.00  0.00    -0.200 F 
ATOM     59  C   UNL A   1      36.791  29.610  29.247  1.00  0.00     0.200 A 
ATOM     60  F   UNL A   1      37.166  30.047  26.961  1.00  0.00    -0.200 F 
ATOM     61  F   UNL A   1      35.640  30.295  29.204  1.00  0.00    -0.200 F 
ENDBRANCH  27  51
BRANCH  39  62
ATOM     62  C   UNL A   1      44.917  27.372  32.086  1.00  0.00     0.064 A 
ATOM     63  C   UNL A   1      44.852  27.570  33.477  1.00  0.00     0.173 A 
ATOM     64  C   UNL A   1      44.770  26.062  31.613  1.00  0.00     0.173 A 
ATOM     65  F   UNL A   1      44.888  28.801  34.002  1.00  0.00    -0.203 F 
ATOM     66  C   UNL A   1      44.676  26.496  34.351  1.00  0.00     0.198 A 
ATOM     67  C   UNL A   1      44.559  24.997  32.484  1.00  0.00     0.198 A 
ATOM     68  F   UNL A   1      44.770  25.822  30.292  1.00  0.00    -0.203 F 
ATOM     69  F   UNL A   1      44.615  26.708  35.673  1.00  0.00    -0.200 F 
ATOM     70  C   UNL A   1      44.520  25.213  33.852  1.00  0.00     0.200 A 
ATOM     71  F   UNL A   1      44.357  23.767  31.993  1.00  0.00    -0.200 F 
ATOM     72  F   UNL A   1      44.299  24.188  34.687  1.00  0.00    -0.200 F 
ENDBRANCH  39  62
ENDBRANCH  13  14
ENDBRANCH   6   8
ENDBRANCH   5   6
ENDBRANCH   4   5
ENDBRANCH   3   4
ENDBRANCH   2   3
ENDBRANCH   1   2
BRANCH   1  73
ATOM     73  C   UNL A   1      40.060  21.282  26.233  1.00  0.00     0.188 C 
BRANCH  73  74
ATOM     74  O   UNL A   1      39.831  22.537  26.865  1.00  0.00    -0.376 OA
BRANCH  74  75
ATOM     75  C   UNL A   1      38.683  23.307  26.571  1.00  0.00     0.202 C 
BRANCH  75  76
ATOM     76  C   UNL A   1      37.745  22.766  25.488  1.00  0.00     0.261 C 
BRANCH  76  77
ATOM     77  O   UNL A   1      37.047  23.758  24.733  1.00  0.00    -0.460 OA
BRANCH  77  78
ATOM     78  C   UNL A   1      35.877  23.363  24.146  1.00  0.00     0.342 C 
ATOM     79  O   UNL A   1      35.730  22.387  23.438  1.00  0.00    -0.246 OA
BRANCH  78  80
ATOM     80  C   UNL A   1      34.786  24.247  24.517  1.00  0.00     0.104 A 
ATOM     81  C   UNL A   1      34.835  25.396  25.296  1.00  0.00     0.109 A 
ATOM     82  C   UNL A   1      33.448  24.106  24.143  1.00  0.00     0.103 A 
ATOM     83  N   UNL A   1      33.548  25.891  25.452  1.00  0.00    -0.317 N 
ATOM     84  C   UNL A   1      32.686  25.066  24.753  1.00  0.00     0.058 A 
ATOM     85  N   UNL A   1      32.966  23.136  23.275  1.00  0.00    -0.215 NA
ATOM     86  C   UNL A   1      31.212  25.185  24.582  1.00  0.00     0.088 C 
ATOM     87  C   UNL A   1      31.680  23.068  23.223  1.00  0.00     0.187 C 
ATOM     88  C   UNL A   1      30.679  23.829  24.060  1.00  0.00     0.112 C 
BRANCH  83  89
ATOM     89  C   UNL A   1      33.215  27.049  26.192  1.00  0.00     0.045 A 
ATOM     90  C   UNL A   1      34.088  28.140  26.192  1.00  0.00     0.026 A 
ATOM     91  C   UNL A   1      32.019  27.091  26.919  1.00  0.00     0.026 A 
ATOM     92  C   UNL A   1      33.765  29.279  26.931  1.00  0.00     0.002 A 
ATOM     93  C   UNL A   1      31.726  28.221  27.688  1.00  0.00     0.002 A 
ATOM     94  C   UNL A   1      32.595  29.315  27.690  1.00  0.00     0.000 A 
ENDBRANCH  83  89
BRANCH  86  95
ATOM     95  C   UNL A   1      30.715  26.321  23.701  1.00  0.00     0.014 A 
ATOM     96  C   UNL A   1      29.484  26.950  23.811  1.00  0.00     0.016 A 
ATOM     97  S   UNL A   1      31.622  26.997  22.410  1.00  0.00    -0.148 S 
ATOM     98  C   UNL A   1      29.291  27.972  22.843  1.00  0.00     0.012 A 
ATOM     99  C   UNL A   1      30.393  28.122  22.034  1.00  0.00     0.065 A 
ENDBRANCH  86  95
BRANCH  87 100
ATOM    100  O   UNL A   1      31.138  22.151  22.396  1.00  0.00    -0.496 OA
ATOM    101  H   UNL A   1      31.473  22.047  21.528  1.00  0.00     0.294 HD
ENDBRANCH  87 100
ENDBRANCH  78  80
ENDBRANCH  77  78
ENDBRANCH  76  77
ENDBRANCH  75  76
ENDBRANCH  74  75
ENDBRANCH  73  74
ENDBRANCH   1  73
TORSDOF 20
ENDMDL
MODEL 3
REMARK VINA RESULT:      -9.5      5.359     11.467
REMARK SMILES O=C(OCCOCCOCCOC(=O)c1cn(-c2ccccc2)c2c1N=C(O)C[C@@H]2c1cccs1)c1ccc(-c2c3nc(c(-c4c(F)c(F)c(F)c(F)c4F)c4ccc([nH]4)c(-c4c(F)c(F)c(F)c(F)c4F)c4nc(c(-c5c(F)c(F)c(F)c(F)c5F)c5ccc2[nH]5)C=C4)C=C3)cc1
REMARK SMILES IDX 7 1 6 2 5 3 4 4 3 5 2 6 1 7 36 8 37 9 98 10 38 11 97 12
REMARK SMILES IDX 39 13 40 14 41 15 91 16 42 17 96 18 90 19 92 20 43 21 95 22
REMARK SMILES IDX 89 23 88 24 44 26 76 27 56 28 75 29 57 30 60 31 74 32 93 33
REMARK SMILES IDX 58 34 59 35 73 37 94 38 61 39 45 40 46 41 54 42 47 43 48 44
REMARK SMILES IDX 52 45 55 46 49 47 50 48 53 49 51 50 77 51 78 52 86 53 79 54
REMARK SMILES IDX 80 55 84 56 87 57 81 58 82 59 85 60 83 61 62 62 63 63 71 64
REMARK SMILES IDX 64 65 65 66 69 67 72 68 66 69 67 70 70 71 68 72 8 73 9 74
REMARK SMILES IDX 10 75 11 76 12 77 13 78 14 79 15 80 16 81 25 82 17 83 24 84
REMARK SMILES IDX 26 85 30 86 27 87 29 88 18 89 19 90 23 91 20 92 22 93 21 94
REMARK SMILES IDX 31 95 32 96 35 97 33 98 34 99 28 100
REMARK H PARENT 92 25 60 36 28 101
REMARK Flexibility Score: inf
ROOT
ATOM      1  C   UNL A   1      39.992  22.595  27.454  1.00  0.00     0.188 C 
ENDROOT
BRANCH   1   2
ATOM      2  O   UNL A   1      41.168  21.931  27.846  1.00  0.00    -0.376 OA
BRANCH   2   3
ATOM      3  C   UNL A   1      41.902  21.098  26.976  1.00  0.00     0.202 C 
BRANCH   3   4
ATOM      4  C   UNL A   1      42.990  21.596  26.019  1.00  0.00     0.261 C 
BRANCH   4   5
ATOM      5  O   UNL A   1      42.674  22.722  25.204  1.00  0.00    -0.460 OA
BRANCH   5   6
ATOM      6  C   UNL A   1      43.059  24.009  25.281  1.00  0.00     0.338 C 
ATOM      7  O   UNL A   1      44.110  24.340  24.736  1.00  0.00    -0.246 OA
BRANCH   6   8
ATOM      8  C   UNL A   1      42.381  25.047  26.109  1.00  0.00     0.060 A 
ATOM      9  C   UNL A   1      41.304  25.841  25.724  1.00  0.00     0.016 A 
ATOM     10  C   UNL A   1      42.978  25.279  27.367  1.00  0.00     0.016 A 
ATOM     11  C   UNL A   1      40.988  26.971  26.468  1.00  0.00     0.010 A 
ATOM     12  C   UNL A   1      42.648  26.388  28.126  1.00  0.00     0.010 A 
ATOM     13  C   UNL A   1      41.725  27.286  27.615  1.00  0.00    -0.014 A 
BRANCH  13  14
ATOM     14  C   UNL A   1      41.477  28.570  28.252  1.00  0.00     0.031 A 
ATOM     15  C   UNL A   1      42.548  29.577  28.041  1.00  0.00     0.074 A 
ATOM     16  C   UNL A   1      40.360  28.833  28.963  1.00  0.00     0.049 A 
ATOM     17  N   UNL A   1      43.345  30.083  28.924  1.00  0.00    -0.248 NA
ATOM     18  C   UNL A   1      42.861  29.966  26.658  1.00  0.00     0.031 C 
ATOM     19  C   UNL A   1      39.127  28.046  29.064  1.00  0.00     0.029 A 
ATOM     20  N   UNL A   1      40.077  29.928  29.724  1.00  0.00    -0.354 N 
ATOM     21  C   UNL A   1      44.153  30.987  28.240  1.00  0.00     0.074 A 
ATOM     22  C   UNL A   1      43.902  30.780  26.837  1.00  0.00     0.031 C 
ATOM     23  C   UNL A   1      38.161  28.791  29.652  1.00  0.00     0.029 A 
ATOM     24  C   UNL A   1      38.746  30.041  30.108  1.00  0.00     0.049 A 
ATOM     25  H   UNL A   1      40.762  30.587  29.981  1.00  0.00     0.167 HD
ATOM     26  C   UNL A   1      44.812  31.978  28.900  1.00  0.00     0.037 A 
ATOM     27  C   UNL A   1      38.170  31.108  30.716  1.00  0.00     0.037 A 
ATOM     28  C   UNL A   1      44.963  31.664  30.297  1.00  0.00     0.049 A 
ATOM     29  C   UNL A   1      39.257  31.896  31.349  1.00  0.00     0.074 A 
ATOM     30  C   UNL A   1      45.604  30.659  30.993  1.00  0.00     0.029 A 
ATOM     31  N   UNL A   1      44.089  32.234  31.190  1.00  0.00    -0.354 N 
ATOM     32  N   UNL A   1      39.956  31.475  32.365  1.00  0.00    -0.248 NA
ATOM     33  C   UNL A   1      39.878  32.940  30.547  1.00  0.00     0.031 C 
ATOM     34  C   UNL A   1      44.730  30.349  32.077  1.00  0.00     0.029 A 
ATOM     35  C   UNL A   1      43.653  31.234  32.021  1.00  0.00     0.049 A 
ATOM     36  H   UNL A   1      43.826  33.182  31.227  1.00  0.00     0.167 HD
ATOM     37  C   UNL A   1      41.254  31.874  32.087  1.00  0.00     0.074 A 
ATOM     38  C   UNL A   1      41.135  32.828  30.986  1.00  0.00     0.031 C 
ATOM     39  C   UNL A   1      42.324  31.185  32.578  1.00  0.00     0.037 A 
BRANCH  26  40
ATOM     40  C   UNL A   1      44.993  33.374  28.359  1.00  0.00     0.064 A 
ATOM     41  C   UNL A   1      46.294  33.892  28.205  1.00  0.00     0.173 A 
ATOM     42  C   UNL A   1      43.948  34.320  28.288  1.00  0.00     0.173 A 
ATOM     43  F   UNL A   1      47.364  33.086  28.273  1.00  0.00    -0.203 F 
ATOM     44  C   UNL A   1      46.531  35.264  28.073  1.00  0.00     0.198 A 
ATOM     45  C   UNL A   1      44.186  35.681  28.107  1.00  0.00     0.198 A 
ATOM     46  F   UNL A   1      42.670  33.988  28.501  1.00  0.00    -0.203 F 
ATOM     47  F   UNL A   1      47.790  35.723  28.057  1.00  0.00    -0.200 F 
ATOM     48  C   UNL A   1      45.477  36.158  28.032  1.00  0.00     0.200 A 
ATOM     49  F   UNL A   1      43.151  36.533  28.090  1.00  0.00    -0.200 F 
ATOM     50  F   UNL A   1      45.703  37.475  27.973  1.00  0.00    -0.200 F 
ENDBRANCH  26  40
BRANCH  27  51
ATOM     51  C   UNL A   1      36.821  31.681  30.478  1.00  0.00     0.064 A 
ATOM     52  C   UNL A   1      35.935  31.930  31.542  1.00  0.00     0.173 A 
ATOM     53  C   UNL A   1      36.495  32.275  29.244  1.00  0.00     0.173 A 
ATOM     54  F   UNL A   1      36.198  31.446  32.764  1.00  0.00    -0.203 F 
ATOM     55  C   UNL A   1      34.806  32.742  31.382  1.00  0.00     0.198 A 
ATOM     56  C   UNL A   1      35.368  33.083  29.085  1.00  0.00     0.198 A 
ATOM     57  F   UNL A   1      37.320  32.167  28.192  1.00  0.00    -0.203 F 
ATOM     58  F   UNL A   1      34.018  33.008  32.435  1.00  0.00    -0.200 F 
ATOM     59  C   UNL A   1      34.530  33.328  30.157  1.00  0.00     0.200 A 
ATOM     60  F   UNL A   1      35.138  33.678  27.907  1.00  0.00    -0.200 F 
ATOM     61  F   UNL A   1      33.488  34.159  30.021  1.00  0.00    -0.200 F 
ENDBRANCH  27  51
BRANCH  39  62
ATOM     62  C   UNL A   1      42.068  30.132  33.619  1.00  0.00     0.064 A 
ATOM     63  C   UNL A   1      41.720  28.801  33.325  1.00  0.00     0.173 A 
ATOM     64  C   UNL A   1      42.357  30.444  34.954  1.00  0.00     0.173 A 
ATOM     65  F   UNL A   1      41.521  28.402  32.063  1.00  0.00    -0.203 F 
ATOM     66  C   UNL A   1      41.637  27.838  34.332  1.00  0.00     0.198 A 
ATOM     67  C   UNL A   1      42.309  29.474  35.950  1.00  0.00     0.198 A 
ATOM     68  F   UNL A   1      42.748  31.686  35.282  1.00  0.00    -0.203 F 
ATOM     69  F   UNL A   1      41.305  26.575  34.029  1.00  0.00    -0.200 F 
ATOM     70  C   UNL A   1      41.943  28.174  35.641  1.00  0.00     0.200 A 
ATOM     71  F   UNL A   1      42.656  29.792  37.205  1.00  0.00    -0.200 F 
ATOM     72  F   UNL A   1      41.915  27.238  36.600  1.00  0.00    -0.200 F 
ENDBRANCH  39  62
ENDBRANCH  13  14
ENDBRANCH   6   8
ENDBRANCH   5   6
ENDBRANCH   4   5
ENDBRANCH   3   4
ENDBRANCH   2   3
ENDBRANCH   1   2
BRANCH   1  73
ATOM     73  C   UNL A   1      39.321  22.091  26.151  1.00  0.00     0.188 C 
BRANCH  73  74
ATOM     74  O   UNL A   1      38.047  22.538  25.697  1.00  0.00    -0.376 OA
BRANCH  74  75
ATOM     75  C   UNL A   1      37.349  21.849  24.680  1.00  0.00     0.202 C 
BRANCH  75  76
ATOM     76  C   UNL A   1      36.508  22.695  23.721  1.00  0.00     0.261 C 
BRANCH  76  77
ATOM     77  O   UNL A   1      35.844  23.813  24.312  1.00  0.00    -0.460 OA
BRANCH  77  78
ATOM     78  C   UNL A   1      34.655  23.554  24.935  1.00  0.00     0.342 C 
ATOM     79  O   UNL A   1      34.290  22.472  25.350  1.00  0.00    -0.246 OA
BRANCH  78  80
ATOM     80  C   UNL A   1      33.875  24.769  25.092  1.00  0.00     0.104 A 
ATOM     81  C   UNL A   1      34.234  25.945  25.736  1.00  0.00     0.109 A 
ATOM     82  C   UNL A   1      32.586  24.988  24.601  1.00  0.00     0.103 A 
ATOM     83  N   UNL A   1      33.160  26.824  25.704  1.00  0.00    -0.317 N 
ATOM     84  C   UNL A   1      32.127  26.209  25.019  1.00  0.00     0.058 A 
ATOM     85  N   UNL A   1      31.879  24.099  23.805  1.00  0.00    -0.215 NA
ATOM     86  C   UNL A   1      30.778  26.744  24.687  1.00  0.00     0.088 C 
ATOM     87  C   UNL A   1      30.642  24.416  23.631  1.00  0.00     0.187 C 
ATOM     88  C   UNL A   1      29.880  25.554  24.271  1.00  0.00     0.112 C 
BRANCH  83  89
ATOM     89  C   UNL A   1      33.161  28.119  26.270  1.00  0.00     0.045 A 
ATOM     90  C   UNL A   1      34.374  28.790  26.450  1.00  0.00     0.026 A 
ATOM     91  C   UNL A   1      31.953  28.716  26.648  1.00  0.00     0.026 A 
ATOM     92  C   UNL A   1      34.377  30.064  27.019  1.00  0.00     0.002 A 
ATOM     93  C   UNL A   1      31.971  29.975  27.255  1.00  0.00     0.002 A 
ATOM     94  C   UNL A   1      33.181  30.650  27.435  1.00  0.00     0.000 A 
ENDBRANCH  83  89
BRANCH  86  95
ATOM     95  C   UNL A   1      30.717  27.843  23.637  1.00  0.00     0.014 A 
ATOM     96  C   UNL A   1      31.803  28.364  22.949  1.00  0.00     0.016 A 
ATOM     97  S   UNL A   1      29.267  28.618  23.147  1.00  0.00    -0.148 S 
ATOM     98  C   UNL A   1      31.443  29.390  22.034  1.00  0.00     0.012 A 
ATOM     99  C   UNL A   1      30.086  29.608  22.021  1.00  0.00     0.065 A 
ENDBRANCH  86  95
BRANCH  87 100
ATOM    100  O   UNL A   1      29.892  23.601  22.863  1.00  0.00    -0.496 OA
ATOM    101  H   UNL A   1      30.299  23.064  22.213  1.00  0.00     0.294 HD
ENDBRANCH  87 100
ENDBRANCH  78  80
ENDBRANCH  77  78
ENDBRANCH  76  77
ENDBRANCH  75  76
ENDBRANCH  74  75
ENDBRANCH  73  74
ENDBRANCH   1  73
TORSDOF 20
ENDMDL
