MODEL 1
REMARK VINA RESULT:     -11.7      0.000      0.000
REMARK SMILES O=C1NC(=O)/C(=C/c2ccc(OCc3cn(-c4ccc(C(=O)OCCOCCOCCOC(=O)c5ccc(-c6c7nc(c(-c8c(F)c(F)c(F)c(F)c8F)c8ccc([nH]8)c(-c8c(F)c(F)c(F)c(F)c8F)c8nc(c(-c9c(F)c(F)c(F)c(F)c9F)c9ccc6[nH]9)C=C8)C=C7)cc5)cc4)nn3)cc2)S1
REMARK SMILES IDX 26 1 25 2 24 3 23 4 21 5 22 6 20 7 17 8 18 9 99 10 19 11
REMARK SMILES IDX 98 12 16 13 14 14 15 15 101 16 100 17 13 18 12 19 11 20 8 21
REMARK SMILES IDX 9 22 103 23 10 24 102 25 7 26 1 27 2 28 3 29 104 30 4 31
REMARK SMILES IDX 6 33 5 34 27 35 28 36 29 37 30 38 31 39 32 40 33 41 34 42
REMARK SMILES IDX 35 43 36 44 97 45 37 46 96 47 38 48 39 49 40 50 90 51 41 52
REMARK SMILES IDX 95 53 89 54 91 55 42 56 94 57 88 58 87 59 43 61 75 62 55 63
REMARK SMILES IDX 74 64 56 65 59 66 73 67 92 68 57 69 58 70 72 72 93 73 60 74
REMARK SMILES IDX 44 75 45 76 53 77 46 78 47 79 51 80 54 81 48 82 49 83 52 84
REMARK SMILES IDX 50 85 76 86 77 87 85 88 78 89 79 90 83 91 86 92 80 93 81 94
REMARK SMILES IDX 84 95 82 96 61 97 62 98 70 99 63 100 64 101 68 102 71 103
REMARK SMILES IDX 65 104 66 105 69 106 67 107
REMARK H PARENT 3 32 91 60 59 71
REMARK Flexibility Score: inf
ROOT
ATOM      1  O   UNL A   1      43.109  19.503  25.012  1.00  0.00    -0.376 OA
ENDROOT
BRANCH   1   2
ATOM      2  C   UNL A   1      42.155  19.227  26.025  1.00  0.00     0.202 C 
BRANCH   2   3
ATOM      3  C   UNL A   1      41.188  20.271  26.628  1.00  0.00     0.261 C 
BRANCH   3   4
ATOM      4  O   UNL A   1      40.226  20.878  25.764  1.00  0.00    -0.460 OA
BRANCH   4   5
ATOM      5  C   UNL A   1      39.527  21.912  26.285  1.00  0.00     0.338 C 
ATOM      6  O   UNL A   1      39.963  22.818  26.975  1.00  0.00    -0.246 OA
BRANCH   5   7
ATOM      7  C   UNL A   1      38.158  21.902  25.730  1.00  0.00     0.060 A 
ATOM      8  C   UNL A   1      35.521  21.982  24.831  1.00  0.00     0.066 A 
ATOM      9  C   UNL A   1      36.200  23.177  25.115  1.00  0.00     0.029 A 
ATOM     10  C   UNL A   1      36.192  20.752  24.912  1.00  0.00     0.029 A 
ATOM     11  C   UNL A   1      37.503  23.132  25.602  1.00  0.00     0.018 A 
ATOM     12  C   UNL A   1      37.525  20.717  25.338  1.00  0.00     0.018 A 
BRANCH   8  13
ATOM     13  N   UNL A   1      34.132  22.046  24.577  1.00  0.00    -0.220 N 
ATOM     14  C   UNL A   1      32.174  22.658  23.833  1.00  0.00     0.120 A 
ATOM     15  C   UNL A   1      33.366  23.161  24.316  1.00  0.00     0.144 A 
ATOM     16  N   UNL A   1      32.221  21.292  23.894  1.00  0.00    -0.131 NA
ATOM     17  N   UNL A   1      33.405  20.930  24.349  1.00  0.00    -0.062 NA
BRANCH  14  18
ATOM     18  C   UNL A   1      31.014  23.349  23.193  1.00  0.00     0.289 C 
BRANCH  18  19
ATOM     19  O   UNL A   1      31.330  24.576  22.520  1.00  0.00    -0.487 OA
BRANCH  19  20
ATOM     20  C   UNL A   1      31.238  25.742  23.229  1.00  0.00     0.119 A 
ATOM     21  C   UNL A   1      31.432  28.181  24.609  1.00  0.00    -0.024 A 
ATOM     22  C   UNL A   1      31.967  28.057  23.326  1.00  0.00     0.012 A 
ATOM     23  C   UNL A   1      30.720  27.110  25.157  1.00  0.00     0.012 A 
ATOM     24  C   UNL A   1      31.871  26.840  22.642  1.00  0.00     0.047 A 
ATOM     25  C   UNL A   1      30.607  25.905  24.461  1.00  0.00     0.047 A 
BRANCH  21  26
ATOM     26  C   UNL A   1      31.608  29.416  25.377  1.00  0.00     0.029 C 
ATOM     27  O   UNL A   1      35.626  29.633  28.396  1.00  0.00    -0.261 OA
ATOM     28  C   UNL A   1      34.622  29.800  27.750  1.00  0.00     0.290 C 
ATOM     29  N   UNL A   1      33.799  30.886  27.815  1.00  0.00    -0.282 N 
ATOM     30  S   UNL A   1      33.985  28.664  26.575  1.00  0.00    -0.022 SA
ATOM     31  C   UNL A   1      32.696  30.910  27.020  1.00  0.00     0.265 C 
ATOM     32  H   UNL A   1      34.001  31.635  28.422  1.00  0.00     0.174 HD
ATOM     33  C   UNL A   1      32.622  29.661  26.218  1.00  0.00     0.083 C 
ATOM     34  O   UNL A   1      31.881  31.821  26.988  1.00  0.00    -0.268 OA
ENDBRANCH  21  26
ENDBRANCH  19  20
ENDBRANCH  18  19
ENDBRANCH  14  18
ENDBRANCH   8  13
ENDBRANCH   5   7
ENDBRANCH   4   5
ENDBRANCH   3   4
ENDBRANCH   2   3
ENDBRANCH   1   2
BRANCH   1  35
ATOM     35  C   UNL A   1      44.472  19.611  25.351  1.00  0.00     0.188 C 
BRANCH  35  36
ATOM     36  C   UNL A   1      45.269  20.565  24.438  1.00  0.00     0.188 C 
BRANCH  36  37
ATOM     37  O   UNL A   1      46.109  21.575  24.981  1.00  0.00    -0.376 OA
BRANCH  37  38
ATOM     38  C   UNL A   1      46.172  22.880  24.425  1.00  0.00     0.202 C 
BRANCH  38  39
ATOM     39  C   UNL A   1      45.546  24.103  25.093  1.00  0.00     0.261 C 
BRANCH  39  40
ATOM     40  O   UNL A   1      44.332  24.571  24.540  1.00  0.00    -0.460 OA
BRANCH  40  41
ATOM     41  C   UNL A   1      43.244  24.003  25.095  1.00  0.00     0.338 C 
ATOM     42  O   UNL A   1      42.780  22.899  24.869  1.00  0.00    -0.246 OA
BRANCH  41  43
ATOM     43  C   UNL A   1      42.583  24.989  25.947  1.00  0.00     0.060 A 
ATOM     44  C   UNL A   1      42.136  26.160  25.334  1.00  0.00     0.016 A 
ATOM     45  C   UNL A   1      42.684  24.861  27.340  1.00  0.00     0.016 A 
ATOM     46  C   UNL A   1      41.957  27.275  26.119  1.00  0.00     0.010 A 
ATOM     47  C   UNL A   1      42.521  25.980  28.120  1.00  0.00     0.010 A 
ATOM     48  C   UNL A   1      42.232  27.188  27.489  1.00  0.00    -0.014 A 
BRANCH  48  49
ATOM     49  C   UNL A   1      42.104  28.396  28.276  1.00  0.00     0.031 A 
ATOM     50  C   UNL A   1      43.244  29.316  28.091  1.00  0.00     0.074 A 
ATOM     51  C   UNL A   1      41.013  28.664  29.017  1.00  0.00     0.049 A 
ATOM     52  N   UNL A   1      44.106  29.679  28.979  1.00  0.00    -0.248 NA
ATOM     53  C   UNL A   1      43.559  29.761  26.723  1.00  0.00     0.031 C 
ATOM     54  C   UNL A   1      39.749  27.921  29.026  1.00  0.00     0.029 A 
ATOM     55  N   UNL A   1      40.757  29.722  29.836  1.00  0.00    -0.354 N 
ATOM     56  C   UNL A   1      44.949  30.571  28.329  1.00  0.00     0.074 A 
ATOM     57  C   UNL A   1      44.690  30.440  26.921  1.00  0.00     0.031 C 
ATOM     58  C   UNL A   1      38.798  28.674  29.622  1.00  0.00     0.029 A 
ATOM     59  C   UNL A   1      39.410  29.887  30.137  1.00  0.00     0.049 A 
ATOM     60  H   UNL A   1      41.462  30.315  30.185  1.00  0.00     0.167 HD
ATOM     61  C   UNL A   1      45.544  31.569  29.032  1.00  0.00     0.037 A 
ATOM     62  C   UNL A   1      38.838  30.979  30.699  1.00  0.00     0.037 A 
ATOM     63  C   UNL A   1      45.553  31.269  30.442  1.00  0.00     0.049 A 
ATOM     64  C   UNL A   1      39.906  31.741  31.387  1.00  0.00     0.074 A 
ATOM     65  C   UNL A   1      46.148  30.326  31.253  1.00  0.00     0.029 A 
ATOM     66  N   UNL A   1      44.517  31.812  31.153  1.00  0.00    -0.354 N 
ATOM     67  N   UNL A   1      40.508  31.338  32.470  1.00  0.00    -0.248 NA
ATOM     68  C   UNL A   1      40.566  32.833  30.680  1.00  0.00     0.031 C 
ATOM     69  C   UNL A   1      45.257  30.140  32.352  1.00  0.00     0.029 A 
ATOM     70  C   UNL A   1      44.170  31.001  32.196  1.00  0.00     0.049 A 
ATOM     71  H   UNL A   1      44.081  32.669  30.940  1.00  0.00     0.167 HD
ATOM     72  C   UNL A   1      41.808  31.783  32.323  1.00  0.00     0.074 A 
ATOM     73  C   UNL A   1      41.734  32.842  31.327  1.00  0.00     0.031 C 
ATOM     74  C   UNL A   1      42.848  31.024  32.782  1.00  0.00     0.037 A 
BRANCH  61  75
ATOM     75  C   UNL A   1      45.615  32.998  28.532  1.00  0.00     0.064 A 
ATOM     76  C   UNL A   1      44.423  33.627  28.120  1.00  0.00     0.173 A 
ATOM     77  C   UNL A   1      46.810  33.636  28.125  1.00  0.00     0.173 A 
ATOM     78  F   UNL A   1      43.231  33.091  28.418  1.00  0.00    -0.203 F 
ATOM     79  C   UNL A   1      44.433  34.759  27.300  1.00  0.00     0.198 A 
ATOM     80  C   UNL A   1      46.813  34.796  27.354  1.00  0.00     0.198 A 
ATOM     81  F   UNL A   1      48.018  33.106  28.342  1.00  0.00    -0.203 F 
ATOM     82  F   UNL A   1      43.278  35.243  26.820  1.00  0.00    -0.200 F 
ATOM     83  C   UNL A   1      45.627  35.340  26.915  1.00  0.00     0.200 A 
ATOM     84  F   UNL A   1      47.983  35.325  26.967  1.00  0.00    -0.200 F 
ATOM     85  F   UNL A   1      45.640  36.385  26.077  1.00  0.00    -0.200 F 
ENDBRANCH  61  75
BRANCH  62  86
ATOM     86  C   UNL A   1      37.486  31.549  30.483  1.00  0.00     0.064 A 
ATOM     87  C   UNL A   1      36.493  31.444  31.475  1.00  0.00     0.173 A 
ATOM     88  C   UNL A   1      37.224  32.451  29.435  1.00  0.00     0.173 A 
ATOM     89  F   UNL A   1      36.674  30.636  32.529  1.00  0.00    -0.203 F 
ATOM     90  C   UNL A   1      35.335  32.228  31.442  1.00  0.00     0.198 A 
ATOM     91  C   UNL A   1      36.062  33.224  29.397  1.00  0.00     0.198 A 
ATOM     92  F   UNL A   1      38.133  32.679  28.476  1.00  0.00    -0.203 F 
ATOM     93  F   UNL A   1      34.452  32.156  32.448  1.00  0.00    -0.200 F 
ATOM     94  C   UNL A   1      35.127  33.126  30.411  1.00  0.00     0.200 A 
ATOM     95  F   UNL A   1      35.888  34.113  28.409  1.00  0.00    -0.200 F 
ATOM     96  F   UNL A   1      34.053  33.928  30.414  1.00  0.00    -0.200 F 
ENDBRANCH  62  86
BRANCH  74  97
ATOM     97  C   UNL A   1      42.538  30.029  33.861  1.00  0.00     0.064 A 
ATOM     98  C   UNL A   1      42.057  28.727  33.642  1.00  0.00     0.173 A 
ATOM     99  C   UNL A   1      42.788  30.411  35.187  1.00  0.00     0.173 A 
ATOM    100  F   UNL A   1      41.885  28.251  32.401  1.00  0.00    -0.203 F 
ATOM    101  C   UNL A   1      41.774  27.877  34.710  1.00  0.00     0.198 A 
ATOM    102  C   UNL A   1      42.548  29.544  36.247  1.00  0.00     0.198 A 
ATOM    103  F   UNL A   1      43.291  31.627  35.455  1.00  0.00    -0.203 F 
ATOM    104  F   UNL A   1      41.272  26.655  34.480  1.00  0.00    -0.200 F 
ATOM    105  C   UNL A   1      42.023  28.285  36.010  1.00  0.00     0.200 A 
ATOM    106  F   UNL A   1      42.836  29.928  37.499  1.00  0.00    -0.200 F 
ATOM    107  F   UNL A   1      41.774  27.458  37.036  1.00  0.00    -0.200 F 
ENDBRANCH  74  97
ENDBRANCH  48  49
ENDBRANCH  41  43
ENDBRANCH  40  41
ENDBRANCH  39  40
ENDBRANCH  38  39
ENDBRANCH  37  38
ENDBRANCH  36  37
ENDBRANCH  35  36
ENDBRANCH   1  35
TORSDOF 22
ENDMDL
MODEL 2
REMARK VINA RESULT:     -10.5      4.069     10.160
REMARK SMILES O=C1NC(=O)/C(=C/c2ccc(OCc3cn(-c4ccc(C(=O)OCCOCCOCCOC(=O)c5ccc(-c6c7nc(c(-c8c(F)c(F)c(F)c(F)c8F)c8ccc([nH]8)c(-c8c(F)c(F)c(F)c(F)c8F)c8nc(c(-c9c(F)c(F)c(F)c(F)c9F)c9ccc6[nH]9)C=C8)C=C7)cc5)cc4)nn3)cc2)S1
REMARK SMILES IDX 26 1 25 2 24 3 23 4 21 5 22 6 20 7 17 8 18 9 99 10 19 11
REMARK SMILES IDX 98 12 16 13 14 14 15 15 101 16 100 17 13 18 12 19 11 20 8 21
REMARK SMILES IDX 9 22 103 23 10 24 102 25 7 26 1 27 2 28 3 29 104 30 4 31
REMARK SMILES IDX 6 33 5 34 27 35 28 36 29 37 30 38 31 39 32 40 33 41 34 42
REMARK SMILES IDX 35 43 36 44 97 45 37 46 96 47 38 48 39 49 40 50 90 51 41 52
REMARK SMILES IDX 95 53 89 54 91 55 42 56 94 57 88 58 87 59 43 61 75 62 55 63
REMARK SMILES IDX 74 64 56 65 59 66 73 67 92 68 57 69 58 70 72 72 93 73 60 74
REMARK SMILES IDX 44 75 45 76 53 77 46 78 47 79 51 80 54 81 48 82 49 83 52 84
REMARK SMILES IDX 50 85 76 86 77 87 85 88 78 89 79 90 83 91 86 92 80 93 81 94
REMARK SMILES IDX 84 95 82 96 61 97 62 98 70 99 63 100 64 101 68 102 71 103
REMARK SMILES IDX 65 104 66 105 69 106 67 107
REMARK H PARENT 3 32 91 60 59 71
REMARK Flexibility Score: inf
ROOT
ATOM      1  O   UNL A   1      37.181  32.105  35.641  1.00  0.00    -0.376 OA
ENDROOT
BRANCH   1   2
ATOM      2  C   UNL A   1      38.474  31.630  35.980  1.00  0.00     0.202 C 
BRANCH   2   3
ATOM      3  C   UNL A   1      39.433  30.921  34.998  1.00  0.00     0.261 C 
BRANCH   3   4
ATOM      4  O   UNL A   1      39.116  30.950  33.606  1.00  0.00    -0.460 OA
BRANCH   4   5
ATOM      5  C   UNL A   1      38.939  29.749  33.011  1.00  0.00     0.338 C 
ATOM      6  O   UNL A   1      39.391  28.677  33.375  1.00  0.00    -0.246 OA
BRANCH   5   7
ATOM      7  C   UNL A   1      37.934  29.882  31.936  1.00  0.00     0.060 A 
ATOM      8  C   UNL A   1      36.176  30.121  29.787  1.00  0.00     0.066 A 
ATOM      9  C   UNL A   1      37.041  29.019  29.863  1.00  0.00     0.029 A 
ATOM     10  C   UNL A   1      36.129  31.057  30.831  1.00  0.00     0.029 A 
ATOM     11  C   UNL A   1      37.945  28.923  30.917  1.00  0.00     0.018 A 
ATOM     12  C   UNL A   1      36.994  30.919  31.923  1.00  0.00     0.018 A 
BRANCH   8  13
ATOM     13  N   UNL A   1      35.449  30.319  28.590  1.00  0.00    -0.220 N 
ATOM     14  C   UNL A   1      34.139  30.015  26.872  1.00  0.00     0.120 A 
ATOM     15  C   UNL A   1      35.083  29.378  27.652  1.00  0.00     0.144 A 
ATOM     16  N   UNL A   1      34.027  31.312  27.294  1.00  0.00    -0.131 NA
ATOM     17  N   UNL A   1      34.826  31.489  28.329  1.00  0.00    -0.062 NA
BRANCH  14  18
ATOM     18  C   UNL A   1      33.224  29.480  25.820  1.00  0.00     0.289 C 
BRANCH  18  19
ATOM     19  O   UNL A   1      33.841  28.616  24.855  1.00  0.00    -0.487 OA
BRANCH  19  20
ATOM     20  C   UNL A   1      33.680  27.265  25.001  1.00  0.00     0.119 A 
ATOM     21  C   UNL A   1      33.105  24.516  24.994  1.00  0.00    -0.024 A 
ATOM     22  C   UNL A   1      33.456  25.162  23.807  1.00  0.00     0.012 A 
ATOM     23  C   UNL A   1      33.134  25.231  26.193  1.00  0.00     0.012 A 
ATOM     24  C   UNL A   1      33.739  26.533  23.814  1.00  0.00     0.047 A 
ATOM     25  C   UNL A   1      33.440  26.594  26.199  1.00  0.00     0.047 A 
BRANCH  21  26
ATOM     26  C   UNL A   1      32.712  23.105  24.988  1.00  0.00     0.029 C 
ATOM     27  O   UNL A   1      36.445  19.732  24.977  1.00  0.00    -0.261 OA
ATOM     28  C   UNL A   1      35.410  20.351  24.983  1.00  0.00     0.290 C 
ATOM     29  N   UNL A   1      34.157  19.816  24.908  1.00  0.00    -0.282 N 
ATOM     30  S   UNL A   1      35.287  22.097  25.084  1.00  0.00    -0.022 SA
ATOM     31  C   UNL A   1      33.092  20.662  24.918  1.00  0.00     0.265 C 
ATOM     32  H   UNL A   1      34.027  18.841  24.850  1.00  0.00     0.174 HD
ATOM     33  C   UNL A   1      33.562  22.069  24.999  1.00  0.00     0.083 C 
ATOM     34  O   UNL A   1      31.923  20.310  24.852  1.00  0.00    -0.268 OA
ENDBRANCH  21  26
ENDBRANCH  19  20
ENDBRANCH  18  19
ENDBRANCH  14  18
ENDBRANCH   8  13
ENDBRANCH   5   7
ENDBRANCH   4   5
ENDBRANCH   3   4
ENDBRANCH   2   3
ENDBRANCH   1   2
BRANCH   1  35
ATOM     35  C   UNL A   1      36.901  33.483  35.732  1.00  0.00     0.188 C 
BRANCH  35  36
ATOM     36  C   UNL A   1      37.034  34.236  34.392  1.00  0.00     0.188 C 
BRANCH  36  37
ATOM     37  O   UNL A   1      38.232  34.917  34.045  1.00  0.00    -0.376 OA
BRANCH  37  38
ATOM     38  C   UNL A   1      38.960  34.605  32.866  1.00  0.00     0.202 C 
BRANCH  38  39
ATOM     39  C   UNL A   1      40.383  34.051  32.884  1.00  0.00     0.261 C 
BRANCH  39  40
ATOM     40  O   UNL A   1      41.242  34.488  31.849  1.00  0.00    -0.460 OA
BRANCH  40  41
ATOM     41  C   UNL A   1      40.703  34.353  30.622  1.00  0.00     0.338 C 
ATOM     42  O   UNL A   1      39.853  35.053  30.099  1.00  0.00    -0.246 OA
BRANCH  41  43
ATOM     43  C   UNL A   1      41.199  33.117  30.023  1.00  0.00     0.060 A 
ATOM     44  C   UNL A   1      40.331  32.025  30.010  1.00  0.00     0.016 A 
ATOM     45  C   UNL A   1      42.572  32.989  29.764  1.00  0.00     0.016 A 
ATOM     46  C   UNL A   1      40.876  30.765  29.912  1.00  0.00     0.010 A 
ATOM     47  C   UNL A   1      43.115  31.730  29.683  1.00  0.00     0.010 A 
ATOM     48  C   UNL A   1      42.268  30.635  29.833  1.00  0.00    -0.014 A 
BRANCH  48  49
ATOM     49  C   UNL A   1      42.814  29.295  29.803  1.00  0.00     0.031 A 
ATOM     50  C   UNL A   1      43.473  28.924  31.071  1.00  0.00     0.074 A 
ATOM     51  C   UNL A   1      42.647  28.469  28.754  1.00  0.00     0.049 A 
ATOM     52  N   UNL A   1      44.722  28.664  31.255  1.00  0.00    -0.248 NA
ATOM     53  C   UNL A   1      42.683  29.007  32.311  1.00  0.00     0.031 C 
ATOM     54  C   UNL A   1      41.782  28.686  27.590  1.00  0.00     0.029 A 
ATOM     55  N   UNL A   1      43.127  27.209  28.554  1.00  0.00    -0.354 N 
ATOM     56  C   UNL A   1      44.836  28.339  32.600  1.00  0.00     0.074 A 
ATOM     57  C   UNL A   1      43.611  28.745  33.233  1.00  0.00     0.031 C 
ATOM     58  C   UNL A   1      41.620  27.514  26.937  1.00  0.00     0.029 A 
ATOM     59  C   UNL A   1      42.458  26.505  27.561  1.00  0.00     0.049 A 
ATOM     60  H   UNL A   1      43.879  26.833  29.066  1.00  0.00     0.167 HD
ATOM     61  C   UNL A   1      45.795  27.465  33.003  1.00  0.00     0.037 A 
ATOM     62  C   UNL A   1      42.537  25.172  27.326  1.00  0.00     0.037 A 
ATOM     63  C   UNL A   1      46.838  27.356  32.014  1.00  0.00     0.049 A 
ATOM     64  C   UNL A   1      43.791  24.681  27.944  1.00  0.00     0.074 A 
ATOM     65  C   UNL A   1      47.801  28.191  31.490  1.00  0.00     0.029 A 
ATOM     66  N   UNL A   1      46.696  26.310  31.141  1.00  0.00    -0.354 N 
ATOM     67  N   UNL A   1      44.982  24.962  27.498  1.00  0.00    -0.248 NA
ATOM     68  C   UNL A   1      43.748  24.128  29.292  1.00  0.00     0.031 C 
ATOM     69  C   UNL A   1      48.017  27.746  30.152  1.00  0.00     0.029 A 
ATOM     70  C   UNL A   1      47.209  26.633  29.917  1.00  0.00     0.049 A 
ATOM     71  H   UNL A   1      46.281  25.446  31.366  1.00  0.00     0.167 HD
ATOM     72  C   UNL A   1      45.758  25.064  28.637  1.00  0.00     0.074 A 
ATOM     73  C   UNL A   1      45.009  24.357  29.667  1.00  0.00     0.031 C 
ATOM     74  C   UNL A   1      46.764  25.986  28.702  1.00  0.00     0.037 A 
BRANCH  61  75
ATOM     75  C   UNL A   1      45.526  26.346  33.989  1.00  0.00     0.064 A 
ATOM     76  C   UNL A   1      44.481  25.441  33.712  1.00  0.00     0.173 A 
ATOM     77  C   UNL A   1      46.004  26.331  35.320  1.00  0.00     0.173 A 
ATOM     78  F   UNL A   1      43.926  25.394  32.492  1.00  0.00    -0.203 F 
ATOM     79  C   UNL A   1      43.912  24.644  34.709  1.00  0.00     0.198 A 
ATOM     80  C   UNL A   1      45.469  25.495  36.297  1.00  0.00     0.198 A 
ATOM     81  F   UNL A   1      46.914  27.203  35.767  1.00  0.00    -0.203 F 
ATOM     82  F   UNL A   1      42.832  23.900  34.431  1.00  0.00    -0.200 F 
ATOM     83  C   UNL A   1      44.404  24.674  36.001  1.00  0.00     0.200 A 
ATOM     84  F   UNL A   1      45.942  25.562  37.550  1.00  0.00    -0.200 F 
ATOM     85  F   UNL A   1      43.819  23.961  36.972  1.00  0.00    -0.200 F 
ENDBRANCH  61  75
BRANCH  62  86
ATOM     86  C   UNL A   1      41.496  24.242  26.824  1.00  0.00     0.064 A 
ATOM     87  C   UNL A   1      41.841  22.963  26.352  1.00  0.00     0.173 A 
ATOM     88  C   UNL A   1      40.127  24.470  27.061  1.00  0.00     0.173 A 
ATOM     89  F   UNL A   1      43.125  22.647  26.133  1.00  0.00    -0.203 F 
ATOM     90  C   UNL A   1      40.881  21.961  26.174  1.00  0.00     0.198 A 
ATOM     91  C   UNL A   1      39.169  23.473  26.872  1.00  0.00     0.198 A 
ATOM     92  F   UNL A   1      39.698  25.630  27.578  1.00  0.00    -0.203 F 
ATOM     93  F   UNL A   1      41.261  20.732  25.800  1.00  0.00    -0.200 F 
ATOM     94  C   UNL A   1      39.548  22.213  26.447  1.00  0.00     0.200 A 
ATOM     95  F   UNL A   1      37.885  23.721  27.170  1.00  0.00    -0.200 F 
ATOM     96  F   UNL A   1      38.637  21.235  26.345  1.00  0.00    -0.200 F 
ENDBRANCH  62  86
BRANCH  74  97
ATOM     97  C   UNL A   1      47.321  26.475  27.398  1.00  0.00     0.064 A 
ATOM     98  C   UNL A   1      46.781  27.525  26.634  1.00  0.00     0.173 A 
ATOM     99  C   UNL A   1      48.495  25.870  26.926  1.00  0.00     0.173 A 
ATOM    100  F   UNL A   1      45.717  28.219  27.063  1.00  0.00    -0.203 F 
ATOM    101  C   UNL A   1      47.354  27.897  25.419  1.00  0.00     0.198 A 
ATOM    102  C   UNL A   1      49.090  26.277  25.737  1.00  0.00     0.198 A 
ATOM    103  F   UNL A   1      49.083  24.895  27.636  1.00  0.00    -0.203 F 
ATOM    104  F   UNL A   1      46.795  28.870  24.684  1.00  0.00    -0.200 F 
ATOM    105  C   UNL A   1      48.509  27.276  24.975  1.00  0.00     0.200 A 
ATOM    106  F   UNL A   1      50.234  25.704  25.336  1.00  0.00    -0.200 F 
ATOM    107  F   UNL A   1      49.074  27.651  23.818  1.00  0.00    -0.200 F 
ENDBRANCH  74  97
ENDBRANCH  48  49
ENDBRANCH  41  43
ENDBRANCH  40  41
ENDBRANCH  39  40
ENDBRANCH  38  39
ENDBRANCH  37  38
ENDBRANCH  36  37
ENDBRANCH  35  36
ENDBRANCH   1  35
TORSDOF 22
ENDMDL
MODEL 3
REMARK VINA RESULT:     -10.0      3.423      7.838
REMARK SMILES O=C1NC(=O)/C(=C/c2ccc(OCc3cn(-c4ccc(C(=O)OCCOCCOCCOC(=O)c5ccc(-c6c7nc(c(-c8c(F)c(F)c(F)c(F)c8F)c8ccc([nH]8)c(-c8c(F)c(F)c(F)c(F)c8F)c8nc(c(-c9c(F)c(F)c(F)c(F)c9F)c9ccc6[nH]9)C=C8)C=C7)cc5)cc4)nn3)cc2)S1
REMARK SMILES IDX 26 1 25 2 24 3 23 4 21 5 22 6 20 7 17 8 18 9 99 10 19 11
REMARK SMILES IDX 98 12 16 13 14 14 15 15 101 16 100 17 13 18 12 19 11 20 8 21
REMARK SMILES IDX 9 22 103 23 10 24 102 25 7 26 1 27 2 28 3 29 104 30 4 31
REMARK SMILES IDX 6 33 5 34 27 35 28 36 29 37 30 38 31 39 32 40 33 41 34 42
REMARK SMILES IDX 35 43 36 44 97 45 37 46 96 47 38 48 39 49 40 50 90 51 41 52
REMARK SMILES IDX 95 53 89 54 91 55 42 56 94 57 88 58 87 59 43 61 75 62 55 63
REMARK SMILES IDX 74 64 56 65 59 66 73 67 92 68 57 69 58 70 72 72 93 73 60 74
REMARK SMILES IDX 44 75 45 76 53 77 46 78 47 79 51 80 54 81 48 82 49 83 52 84
REMARK SMILES IDX 50 85 76 86 77 87 85 88 78 89 79 90 83 91 86 92 80 93 81 94
REMARK SMILES IDX 84 95 82 96 61 97 62 98 70 99 63 100 64 101 68 102 71 103
REMARK SMILES IDX 65 104 66 105 69 106 67 107
REMARK H PARENT 3 32 91 60 59 71
REMARK Flexibility Score: inf
ROOT
ATOM      1  O   UNL A   1      43.621  18.483  25.195  1.00  0.00    -0.376 OA
ENDROOT
BRANCH   1   2
ATOM      2  C   UNL A   1      42.822  18.245  26.343  1.00  0.00     0.202 C 
BRANCH   2   3
ATOM      3  C   UNL A   1      41.980  19.321  27.065  1.00  0.00     0.261 C 
BRANCH   3   4
ATOM      4  O   UNL A   1      41.326  20.311  26.270  1.00  0.00    -0.460 OA
BRANCH   4   5
ATOM      5  C   UNL A   1      41.242  21.548  26.811  1.00  0.00     0.338 C 
ATOM      6  O   UNL A   1      42.128  22.160  27.382  1.00  0.00    -0.246 OA
BRANCH   5   7
ATOM      7  C   UNL A   1      39.948  22.155  26.438  1.00  0.00     0.060 A 
ATOM      8  C   UNL A   1      37.541  23.251  25.559  1.00  0.00     0.066 A 
ATOM      9  C   UNL A   1      37.831  21.902  25.301  1.00  0.00     0.029 A 
ATOM     10  C   UNL A   1      38.416  24.026  26.333  1.00  0.00     0.029 A 
ATOM     11  C   UNL A   1      39.051  21.369  25.706  1.00  0.00     0.018 A 
ATOM     12  C   UNL A   1      39.612  23.466  26.797  1.00  0.00     0.018 A 
BRANCH   8  13
ATOM     13  N   UNL A   1      36.415  23.826  24.926  1.00  0.00    -0.220 N 
ATOM     14  C   UNL A   1      34.672  24.135  23.650  1.00  0.00     0.120 A 
ATOM     15  C   UNL A   1      35.938  23.584  23.656  1.00  0.00     0.144 A 
ATOM     16  N   UNL A   1      34.458  24.751  24.853  1.00  0.00    -0.131 NA
ATOM     17  N   UNL A   1      35.518  24.564  25.617  1.00  0.00    -0.062 NA
BRANCH  14  18
ATOM     18  C   UNL A   1      33.572  24.035  22.645  1.00  0.00     0.289 C 
BRANCH  18  19
ATOM     19  O   UNL A   1      32.375  23.395  23.111  1.00  0.00    -0.487 OA
BRANCH  19  20
ATOM     20  C   UNL A   1      32.468  22.110  23.571  1.00  0.00     0.119 A 
ATOM     21  C   UNL A   1      32.330  19.405  24.314  1.00  0.00    -0.024 A 
ATOM     22  C   UNL A   1      32.182  19.773  22.975  1.00  0.00     0.012 A 
ATOM     23  C   UNL A   1      32.639  20.385  25.260  1.00  0.00     0.012 A 
ATOM     24  C   UNL A   1      32.249  21.123  22.610  1.00  0.00     0.047 A 
ATOM     25  C   UNL A   1      32.728  21.728  24.886  1.00  0.00     0.047 A 
BRANCH  21  26
ATOM     26  C   UNL A   1      32.167  18.009  24.727  1.00  0.00     0.029 C 
ATOM     27  O   UNL A   1      36.388  15.367  25.439  1.00  0.00    -0.261 OA
ATOM     28  C   UNL A   1      35.268  15.801  25.333  1.00  0.00     0.290 C 
ATOM     29  N   UNL A   1      34.115  15.087  25.486  1.00  0.00    -0.282 N 
ATOM     30  S   UNL A   1      34.870  17.464  24.947  1.00  0.00    -0.022 SA
ATOM     31  C   UNL A   1      32.929  15.733  25.321  1.00  0.00     0.265 C 
ATOM     32  H   UNL A   1      34.142  14.129  25.710  1.00  0.00     0.174 HD
ATOM     33  C   UNL A   1      33.171  17.158  24.977  1.00  0.00     0.083 C 
ATOM     34  O   UNL A   1      31.831  15.207  25.427  1.00  0.00    -0.268 OA
ENDBRANCH  21  26
ENDBRANCH  19  20
ENDBRANCH  18  19
ENDBRANCH  14  18
ENDBRANCH   8  13
ENDBRANCH   5   7
ENDBRANCH   4   5
ENDBRANCH   3   4
ENDBRANCH   2   3
ENDBRANCH   1   2
BRANCH   1  35
ATOM     35  C   UNL A   1      45.000  18.728  25.347  1.00  0.00     0.188 C 
BRANCH  35  36
ATOM     36  C   UNL A   1      45.464  20.074  24.752  1.00  0.00     0.188 C 
BRANCH  36  37
ATOM     37  O   UNL A   1      44.535  20.993  24.194  1.00  0.00    -0.376 OA
BRANCH  37  38
ATOM     38  C   UNL A   1      44.924  22.292  23.771  1.00  0.00     0.202 C 
BRANCH  38  39
ATOM     39  C   UNL A   1      46.051  23.083  24.433  1.00  0.00     0.261 C 
BRANCH  39  40
ATOM     40  O   UNL A   1      46.134  24.456  24.103  1.00  0.00    -0.460 OA
BRANCH  40  41
ATOM     41  C   UNL A   1      46.927  25.155  24.937  1.00  0.00     0.338 C 
ATOM     42  O   UNL A   1      48.138  25.077  25.056  1.00  0.00    -0.246 OA
BRANCH  41  43
ATOM     43  C   UNL A   1      46.088  25.961  25.819  1.00  0.00     0.060 A 
ATOM     44  C   UNL A   1      46.703  27.022  26.485  1.00  0.00     0.016 A 
ATOM     45  C   UNL A   1      44.821  25.480  26.180  1.00  0.00     0.016 A 
ATOM     46  C   UNL A   1      46.117  27.489  27.640  1.00  0.00     0.010 A 
ATOM     47  C   UNL A   1      44.247  25.937  27.342  1.00  0.00     0.010 A 
ATOM     48  C   UNL A   1      44.940  26.882  28.094  1.00  0.00    -0.014 A 
BRANCH  48  49
ATOM     49  C   UNL A   1      44.388  27.347  29.348  1.00  0.00     0.031 A 
ATOM     50  C   UNL A   1      43.128  28.095  29.169  1.00  0.00     0.074 A 
ATOM     51  C   UNL A   1      44.937  27.040  30.537  1.00  0.00     0.049 A 
ATOM     52  N   UNL A   1      42.914  29.339  29.433  1.00  0.00    -0.248 NA
ATOM     53  C   UNL A   1      42.019  27.426  28.468  1.00  0.00     0.031 C 
ATOM     54  C   UNL A   1      46.023  26.088  30.788  1.00  0.00     0.029 A 
ATOM     55  N   UNL A   1      44.568  27.428  31.791  1.00  0.00    -0.354 N 
ATOM     56  C   UNL A   1      41.576  29.555  29.128  1.00  0.00     0.074 A 
ATOM     57  C   UNL A   1      41.131  28.416  28.372  1.00  0.00     0.031 C 
ATOM     58  C   UNL A   1      46.063  25.801  32.109  1.00  0.00     0.029 A 
ATOM     59  C   UNL A   1      45.095  26.634  32.802  1.00  0.00     0.049 A 
ATOM     60  H   UNL A   1      43.983  28.201  31.965  1.00  0.00     0.167 HD
ATOM     61  C   UNL A   1      40.874  30.495  29.812  1.00  0.00     0.037 A 
ATOM     62  C   UNL A   1      44.704  26.616  34.099  1.00  0.00     0.037 A 
ATOM     63  C   UNL A   1      41.760  31.437  30.448  1.00  0.00     0.049 A 
ATOM     64  C   UNL A   1      44.000  27.890  34.374  1.00  0.00     0.074 A 
ATOM     65  C   UNL A   1      42.658  32.395  30.028  1.00  0.00     0.029 A 
ATOM     66  N   UNL A   1      42.055  31.159  31.756  1.00  0.00    -0.354 N 
ATOM     67  N   UNL A   1      44.589  29.051  34.432  1.00  0.00    -0.248 NA
ATOM     68  C   UNL A   1      42.547  27.938  34.257  1.00  0.00     0.031 C 
ATOM     69  C   UNL A   1      43.658  32.465  31.043  1.00  0.00     0.029 A 
ATOM     70  C   UNL A   1      43.318  31.577  32.065  1.00  0.00     0.049 A 
ATOM     71  H   UNL A   1      41.440  30.717  32.386  1.00  0.00     0.167 HD
ATOM     72  C   UNL A   1      43.664  29.930  33.902  1.00  0.00     0.074 A 
ATOM     73  C   UNL A   1      42.387  29.238  34.000  1.00  0.00     0.031 C 
ATOM     74  C   UNL A   1      44.080  30.988  33.144  1.00  0.00     0.037 A 
BRANCH  61  75
ATOM     75  C   UNL A   1      39.474  30.253  30.341  1.00  0.00     0.064 A 
ATOM     76  C   UNL A   1      38.501  31.255  30.155  1.00  0.00     0.173 A 
ATOM     77  C   UNL A   1      39.149  29.262  31.296  1.00  0.00     0.173 A 
ATOM     78  F   UNL A   1      38.719  32.265  29.300  1.00  0.00    -0.203 F 
ATOM     79  C   UNL A   1      37.334  31.301  30.923  1.00  0.00     0.198 A 
ATOM     80  C   UNL A   1      37.959  29.282  32.019  1.00  0.00     0.198 A 
ATOM     81  F   UNL A   1      40.011  28.307  31.665  1.00  0.00    -0.203 F 
ATOM     82  F   UNL A   1      36.503  32.347  30.808  1.00  0.00    -0.200 F 
ATOM     83  C   UNL A   1      37.066  30.317  31.856  1.00  0.00     0.200 A 
ATOM     84  F   UNL A   1      37.733  28.334  32.941  1.00  0.00    -0.200 F 
ATOM     85  F   UNL A   1      35.981  30.394  32.638  1.00  0.00    -0.200 F 
ENDBRANCH  61  75
BRANCH  62  86
ATOM     86  C   UNL A   1      44.671  25.483  35.057  1.00  0.00     0.064 A 
ATOM     87  C   UNL A   1      44.174  24.226  34.669  1.00  0.00     0.173 A 
ATOM     88  C   UNL A   1      45.384  25.522  36.270  1.00  0.00     0.173 A 
ATOM     89  F   UNL A   1      43.513  24.089  33.510  1.00  0.00    -0.203 F 
ATOM     90  C   UNL A   1      44.416  23.074  35.424  1.00  0.00     0.198 A 
ATOM     91  C   UNL A   1      45.615  24.374  37.029  1.00  0.00     0.198 A 
ATOM     92  F   UNL A   1      45.960  26.655  36.698  1.00  0.00    -0.203 F 
ATOM     93  F   UNL A   1      43.994  21.883  34.978  1.00  0.00    -0.200 F 
ATOM     94  C   UNL A   1      45.148  23.147  36.596  1.00  0.00     0.200 A 
ATOM     95  F   UNL A   1      46.352  24.454  38.146  1.00  0.00    -0.200 F 
ATOM     96  F   UNL A   1      45.441  22.035  37.285  1.00  0.00    -0.200 F 
ENDBRANCH  62  86
BRANCH  74  97
ATOM     97  C   UNL A   1      45.492  31.453  33.344  1.00  0.00     0.064 A 
ATOM     98  C   UNL A   1      45.914  32.340  34.350  1.00  0.00     0.173 A 
ATOM     99  C   UNL A   1      46.475  30.928  32.492  1.00  0.00     0.173 A 
ATOM    100  F   UNL A   1      45.054  32.810  35.265  1.00  0.00    -0.203 F 
ATOM    101  C   UNL A   1      47.247  32.735  34.446  1.00  0.00     0.198 A 
ATOM    102  C   UNL A   1      47.811  31.289  32.621  1.00  0.00     0.198 A 
ATOM    103  F   UNL A   1      46.140  30.040  31.543  1.00  0.00    -0.203 F 
ATOM    104  F   UNL A   1      47.619  33.619  35.384  1.00  0.00    -0.200 F 
ATOM    105  C   UNL A   1      48.194  32.207  33.585  1.00  0.00     0.200 A 
ATOM    106  F   UNL A   1      48.730  30.738  31.815  1.00  0.00    -0.200 F 
ATOM    107  F   UNL A   1      49.481  32.569  33.693  1.00  0.00    -0.200 F 
ENDBRANCH  74  97
ENDBRANCH  48  49
ENDBRANCH  41  43
ENDBRANCH  40  41
ENDBRANCH  39  40
ENDBRANCH  38  39
ENDBRANCH  37  38
ENDBRANCH  36  37
ENDBRANCH  35  36
ENDBRANCH   1  35
TORSDOF 22
ENDMDL
