MODEL 1
REMARK VINA RESULT:     -10.1      0.000      0.000
REMARK SMILES O=C(C[C@H]1CN(c2nc(C3CC3)ns2)CCO1)OCCOCCOCCOC(=O)c1ccc(-c2c3nc(c(-c4c(F)c(F)c(F)c(F)c4F)c4ccc([nH]4)c(-c4c(F)c(F)c(F)c(F)c4F)c4nc(c(-c5c(F)c(F)c(F)c(F)c5F)c5ccc2[nH]5)C=C4)C=C3)cc1
REMARK SMILES IDX 22 1 21 2 20 3 19 4 18 5 2 6 1 7 3 8 4 9 5 10 17 11 6 12
REMARK SMILES IDX 16 13 15 14 7 15 8 16 14 17 9 18 13 19 10 20 11 21 12 22
REMARK SMILES IDX 23 23 24 24 25 25 26 26 27 27 28 28 29 29 30 30 31 31 92 32
REMARK SMILES IDX 32 33 91 34 33 35 34 36 35 37 85 38 36 39 90 40 84 41 86 42
REMARK SMILES IDX 37 43 89 44 83 45 82 46 38 48 70 49 50 50 69 51 51 52 54 53
REMARK SMILES IDX 68 54 87 55 52 56 53 57 67 59 88 60 55 61 39 62 40 63 48 64
REMARK SMILES IDX 41 65 42 66 46 67 49 68 43 69 44 70 47 71 45 72 71 73 72 74
REMARK SMILES IDX 80 75 73 76 74 77 78 78 81 79 75 80 76 81 79 82 77 83 56 84
REMARK SMILES IDX 57 85 65 86 58 87 59 88 63 89 66 90 60 91 61 92 64 93 62 94
REMARK H PARENT 86 47 54 58
REMARK Flexibility Score: inf
ROOT
ATOM      1  C   UNL A   1      34.430  31.886  28.214  1.00  0.00     0.188 C 
ENDROOT
BRANCH   1   2
ATOM      2  O   UNL A   1      35.595  31.146  27.908  1.00  0.00    -0.376 OA
BRANCH   2   3
ATOM      3  C   UNL A   1      35.515  29.754  27.688  1.00  0.00     0.202 C 
BRANCH   3   4
ATOM      4  C   UNL A   1      34.282  29.276  26.928  1.00  0.00     0.261 C 
BRANCH   4   5
ATOM      5  O   UNL A   1      33.191  28.743  27.705  1.00  0.00    -0.463 OA
BRANCH   5   6
ATOM      6  C   UNL A   1      32.171  27.968  27.293  1.00  0.00     0.308 C 
ATOM      7  O   UNL A   1      31.110  27.984  27.915  1.00  0.00    -0.252 OA
BRANCH   6   8
ATOM      8  C   UNL A   1      32.376  27.014  26.156  1.00  0.00     0.156 C 
BRANCH   8   9
ATOM      9  C   UNL A   1      32.060  27.483  24.747  1.00  0.00     0.148 C 
ATOM     10  C   UNL A   1      33.110  26.943  23.769  1.00  0.00     0.151 C 
ATOM     11  O   UNL A   1      30.727  27.234  24.280  1.00  0.00    -0.374 OA
ATOM     12  N   UNL A   1      32.887  25.520  23.583  1.00  0.00    -0.342 N 
ATOM     13  C   UNL A   1      30.457  25.863  23.939  1.00  0.00     0.182 C 
ATOM     14  C   UNL A   1      31.556  25.154  23.116  1.00  0.00     0.147 C 
BRANCH  12  15
ATOM     15  C   UNL A   1      33.846  24.614  23.905  1.00  0.00     0.205 A 
ATOM     16  N   UNL A   1      34.686  24.711  24.920  1.00  0.00    -0.203 NA
ATOM     17  S   UNL A   1      34.192  23.204  22.957  1.00  0.00     0.004 S 
ATOM     18  C   UNL A   1      35.556  23.622  24.899  1.00  0.00     0.147 A 
ATOM     19  N   UNL A   1      35.513  22.772  23.871  1.00  0.00    -0.174 NA
BRANCH  18  20
ATOM     20  C   UNL A   1      36.576  23.365  26.012  1.00  0.00     0.059 C 
ATOM     21  C   UNL A   1      37.784  22.494  25.761  1.00  0.00     0.012 C 
ATOM     22  C   UNL A   1      37.960  23.968  25.883  1.00  0.00     0.012 C 
ENDBRANCH  18  20
ENDBRANCH  12  15
ENDBRANCH   8   9
ENDBRANCH   6   8
ENDBRANCH   5   6
ENDBRANCH   4   5
ENDBRANCH   3   4
ENDBRANCH   2   3
ENDBRANCH   1   2
BRANCH   1  23
ATOM     23  C   UNL A   1      34.594  32.882  29.372  1.00  0.00     0.188 C 
BRANCH  23  24
ATOM     24  O   UNL A   1      34.988  34.225  29.125  1.00  0.00    -0.376 OA
BRANCH  24  25
ATOM     25  C   UNL A   1      34.084  35.133  28.517  1.00  0.00     0.202 C 
BRANCH  25  26
ATOM     26  C   UNL A   1      33.160  35.944  29.437  1.00  0.00     0.261 C 
BRANCH  26  27
ATOM     27  O   UNL A   1      32.497  35.196  30.478  1.00  0.00    -0.460 OA
BRANCH  27  28
ATOM     28  C   UNL A   1      32.645  35.672  31.740  1.00  0.00     0.338 C 
ATOM     29  O   UNL A   1      31.912  36.454  32.319  1.00  0.00    -0.246 OA
BRANCH  28  30
ATOM     30  C   UNL A   1      33.778  35.005  32.433  1.00  0.00     0.060 A 
ATOM     31  C   UNL A   1      35.027  35.644  32.423  1.00  0.00     0.016 A 
ATOM     32  C   UNL A   1      33.653  33.737  33.007  1.00  0.00     0.016 A 
ATOM     33  C   UNL A   1      36.159  35.000  32.937  1.00  0.00     0.010 A 
ATOM     34  C   UNL A   1      34.794  33.083  33.502  1.00  0.00     0.010 A 
ATOM     35  C   UNL A   1      36.061  33.695  33.436  1.00  0.00    -0.014 A 
BRANCH  35  36
ATOM     36  C   UNL A   1      37.296  32.899  33.688  1.00  0.00     0.031 A 
ATOM     37  C   UNL A   1      38.054  33.133  34.970  1.00  0.00     0.074 A 
ATOM     38  C   UNL A   1      37.742  31.969  32.823  1.00  0.00     0.049 A 
ATOM     39  N   UNL A   1      39.178  32.603  35.385  1.00  0.00    -0.248 NA
ATOM     40  C   UNL A   1      37.462  34.099  35.907  1.00  0.00     0.031 C 
ATOM     41  C   UNL A   1      37.092  31.601  31.570  1.00  0.00     0.029 A 
ATOM     42  N   UNL A   1      38.851  31.157  32.877  1.00  0.00    -0.354 N 
ATOM     43  C   UNL A   1      39.434  33.180  36.622  1.00  0.00     0.074 A 
ATOM     44  C   UNL A   1      38.357  34.111  36.885  1.00  0.00     0.031 C 
ATOM     45  C   UNL A   1      37.805  30.627  30.978  1.00  0.00     0.029 A 
ATOM     46  C   UNL A   1      38.995  30.341  31.780  1.00  0.00     0.049 A 
ATOM     47  H   UNL A   1      39.484  31.160  33.632  1.00  0.00     0.167 HD
ATOM     48  C   UNL A   1      40.472  32.960  37.465  1.00  0.00     0.037 A 
ATOM     49  C   UNL A   1      39.986  29.487  31.449  1.00  0.00     0.037 A 
ATOM     50  C   UNL A   1      41.553  32.043  37.213  1.00  0.00     0.049 A 
ATOM     51  C   UNL A   1      41.174  29.320  32.368  1.00  0.00     0.074 A 
ATOM     52  C   UNL A   1      42.645  31.757  38.013  1.00  0.00     0.029 A 
ATOM     53  N   UNL A   1      41.684  31.271  36.070  1.00  0.00    -0.354 N 
ATOM     54  N   UNL A   1      41.401  29.862  33.538  1.00  0.00    -0.248 NA
ATOM     55  C   UNL A   1      42.250  28.426  31.909  1.00  0.00     0.031 C 
ATOM     56  C   UNL A   1      43.465  30.854  37.331  1.00  0.00     0.029 A 
ATOM     57  C   UNL A   1      42.853  30.529  36.133  1.00  0.00     0.049 A 
ATOM     58  H   UNL A   1      41.041  31.251  35.323  1.00  0.00     0.167 HD
ATOM     59  C   UNL A   1      42.622  29.352  33.969  1.00  0.00     0.074 A 
ATOM     60  C   UNL A   1      43.084  28.447  32.939  1.00  0.00     0.031 C 
ATOM     61  C   UNL A   1      43.299  29.614  35.113  1.00  0.00     0.037 A 
BRANCH  48  62
ATOM     62  C   UNL A   1      40.511  33.758  38.735  1.00  0.00     0.064 A 
ATOM     63  C   UNL A   1      41.270  34.934  38.846  1.00  0.00     0.173 A 
ATOM     64  C   UNL A   1      39.748  33.362  39.844  1.00  0.00     0.173 A 
ATOM     65  F   UNL A   1      42.027  35.347  37.819  1.00  0.00    -0.203 F 
ATOM     66  C   UNL A   1      41.279  35.669  40.029  1.00  0.00     0.198 A 
ATOM     67  C   UNL A   1      39.737  34.115  41.013  1.00  0.00     0.198 A 
ATOM     68  F   UNL A   1      39.001  32.248  39.787  1.00  0.00    -0.203 F 
ATOM     69  F   UNL A   1      42.045  36.763  40.127  1.00  0.00    -0.200 F 
ATOM     70  C   UNL A   1      40.508  35.264  41.108  1.00  0.00     0.200 A 
ATOM     71  F   UNL A   1      38.979  33.730  42.050  1.00  0.00    -0.200 F 
ATOM     72  F   UNL A   1      40.512  35.978  42.242  1.00  0.00    -0.200 F 
ENDBRANCH  48  62
BRANCH  49  73
ATOM     73  C   UNL A   1      39.932  28.738  30.162  1.00  0.00     0.064 A 
ATOM     74  C   UNL A   1      39.333  27.472  30.083  1.00  0.00     0.173 A 
ATOM     75  C   UNL A   1      40.531  29.245  28.999  1.00  0.00     0.173 A 
ATOM     76  F   UNL A   1      38.779  26.924  31.176  1.00  0.00    -0.203 F 
ATOM     77  C   UNL A   1      39.357  26.733  28.901  1.00  0.00     0.198 A 
ATOM     78  C   UNL A   1      40.524  28.521  27.809  1.00  0.00     0.198 A 
ATOM     79  F   UNL A   1      41.129  30.444  29.020  1.00  0.00    -0.203 F 
ATOM     80  F   UNL A   1      38.837  25.499  28.873  1.00  0.00    -0.200 F 
ATOM     81  C   UNL A   1      39.948  27.261  27.763  1.00  0.00     0.200 A 
ATOM     82  F   UNL A   1      41.089  29.040  26.710  1.00  0.00    -0.200 F 
ATOM     83  F   UNL A   1      39.976  26.550  26.628  1.00  0.00    -0.200 F 
ENDBRANCH  49  73
BRANCH  61  84
ATOM     84  C   UNL A   1      44.589  28.878  35.350  1.00  0.00     0.064 A 
ATOM     85  C   UNL A   1      44.625  27.632  35.995  1.00  0.00     0.173 A 
ATOM     86  C   UNL A   1      45.801  29.405  34.877  1.00  0.00     0.173 A 
ATOM     87  F   UNL A   1      43.498  27.088  36.478  1.00  0.00    -0.203 F 
ATOM     88  C   UNL A   1      45.830  26.955  36.177  1.00  0.00     0.198 A 
ATOM     89  C   UNL A   1      46.998  28.710  35.034  1.00  0.00     0.198 A 
ATOM     90  F   UNL A   1      45.824  30.588  34.246  1.00  0.00    -0.203 F 
ATOM     91  F   UNL A   1      45.845  25.787  36.836  1.00  0.00    -0.200 F 
ATOM     92  C   UNL A   1      47.012  27.489  35.689  1.00  0.00     0.200 A 
ATOM     93  F   UNL A   1      48.137  29.221  34.546  1.00  0.00    -0.200 F 
ATOM     94  F   UNL A   1      48.167  26.829  35.857  1.00  0.00    -0.200 F 
ENDBRANCH  61  84
ENDBRANCH  35  36
ENDBRANCH  28  30
ENDBRANCH  27  28
ENDBRANCH  26  27
ENDBRANCH  25  26
ENDBRANCH  24  25
ENDBRANCH  23  24
ENDBRANCH   1  23
TORSDOF 20
ENDMDL
MODEL 2
REMARK VINA RESULT:      -9.8      2.275      7.889
REMARK SMILES O=C(C[C@H]1CN(c2nc(C3CC3)ns2)CCO1)OCCOCCOCCOC(=O)c1ccc(-c2c3nc(c(-c4c(F)c(F)c(F)c(F)c4F)c4ccc([nH]4)c(-c4c(F)c(F)c(F)c(F)c4F)c4nc(c(-c5c(F)c(F)c(F)c(F)c5F)c5ccc2[nH]5)C=C4)C=C3)cc1
REMARK SMILES IDX 22 1 21 2 20 3 19 4 18 5 2 6 1 7 3 8 4 9 5 10 17 11 6 12
REMARK SMILES IDX 16 13 15 14 7 15 8 16 14 17 9 18 13 19 10 20 11 21 12 22
REMARK SMILES IDX 23 23 24 24 25 25 26 26 27 27 28 28 29 29 30 30 31 31 92 32
REMARK SMILES IDX 32 33 91 34 33 35 34 36 35 37 85 38 36 39 90 40 84 41 86 42
REMARK SMILES IDX 37 43 89 44 83 45 82 46 38 48 70 49 50 50 69 51 51 52 54 53
REMARK SMILES IDX 68 54 87 55 52 56 53 57 67 59 88 60 55 61 39 62 40 63 48 64
REMARK SMILES IDX 41 65 42 66 46 67 49 68 43 69 44 70 47 71 45 72 71 73 72 74
REMARK SMILES IDX 80 75 73 76 74 77 78 78 81 79 75 80 76 81 79 82 77 83 56 84
REMARK SMILES IDX 57 85 65 86 58 87 59 88 63 89 66 90 60 91 61 92 64 93 62 94
REMARK H PARENT 86 47 54 58
REMARK Flexibility Score: inf
ROOT
ATOM      1  C   UNL A   1      31.234  28.214  25.433  1.00  0.00     0.188 C 
ENDROOT
BRANCH   1   2
ATOM      2  O   UNL A   1      31.709  28.407  24.116  1.00  0.00    -0.376 OA
BRANCH   2   3
ATOM      3  C   UNL A   1      33.005  28.923  23.897  1.00  0.00     0.202 C 
BRANCH   3   4
ATOM      4  C   UNL A   1      34.040  27.918  23.401  1.00  0.00     0.261 C 
BRANCH   4   5
ATOM      5  O   UNL A   1      33.982  26.585  23.945  1.00  0.00    -0.463 OA
BRANCH   5   6
ATOM      6  C   UNL A   1      33.930  25.413  23.284  1.00  0.00     0.308 C 
ATOM      7  O   UNL A   1      33.651  25.406  22.086  1.00  0.00    -0.252 OA
BRANCH   6   8
ATOM      8  C   UNL A   1      34.099  24.129  24.037  1.00  0.00     0.156 C 
BRANCH   8   9
ATOM      9  C   UNL A   1      35.012  24.112  25.251  1.00  0.00     0.148 C 
ATOM     10  C   UNL A   1      34.615  22.964  26.187  1.00  0.00     0.151 C 
ATOM     11  O   UNL A   1      36.420  24.113  24.984  1.00  0.00    -0.374 OA
ATOM     12  N   UNL A   1      35.026  21.709  25.585  1.00  0.00    -0.342 N 
ATOM     13  C   UNL A   1      36.942  22.859  24.512  1.00  0.00     0.182 C 
ATOM     14  C   UNL A   1      36.444  21.606  25.265  1.00  0.00     0.147 C 
BRANCH  12  15
ATOM     15  C   UNL A   1      34.115  20.747  25.282  1.00  0.00     0.205 A 
ATOM     16  N   UNL A   1      34.393  19.546  24.809  1.00  0.00    -0.203 NA
ATOM     17  S   UNL A   1      32.400  20.984  25.378  1.00  0.00     0.004 S 
ATOM     18  C   UNL A   1      33.203  18.861  24.571  1.00  0.00     0.147 A 
ATOM     19  N   UNL A   1      32.042  19.501  24.715  1.00  0.00    -0.174 NA
BRANCH  18  20
ATOM     20  C   UNL A   1      33.174  17.393  24.136  1.00  0.00     0.059 C 
ATOM     21  C   UNL A   1      34.034  16.913  22.991  1.00  0.00     0.012 C 
ATOM     22  C   UNL A   1      34.400  16.536  24.385  1.00  0.00     0.012 C 
ENDBRANCH  18  20
ENDBRANCH  12  15
ENDBRANCH   8   9
ENDBRANCH   6   8
ENDBRANCH   5   6
ENDBRANCH   4   5
ENDBRANCH   3   4
ENDBRANCH   2   3
ENDBRANCH   1   2
BRANCH   1  23
ATOM     23  C   UNL A   1      32.131  28.814  26.528  1.00  0.00     0.188 C 
BRANCH  23  24
ATOM     24  O   UNL A   1      31.828  30.078  27.103  1.00  0.00    -0.376 OA
BRANCH  24  25
ATOM     25  C   UNL A   1      32.817  31.092  27.155  1.00  0.00     0.202 C 
BRANCH  25  26
ATOM     26  C   UNL A   1      32.345  32.537  27.377  1.00  0.00     0.261 C 
BRANCH  26  27
ATOM     27  O   UNL A   1      33.376  33.546  27.347  1.00  0.00    -0.460 OA
BRANCH  27  28
ATOM     28  C   UNL A   1      33.372  34.431  28.376  1.00  0.00     0.338 C 
ATOM     29  O   UNL A   1      32.532  35.282  28.606  1.00  0.00    -0.246 OA
BRANCH  28  30
ATOM     30  C   UNL A   1      34.485  34.156  29.322  1.00  0.00     0.060 A 
ATOM     31  C   UNL A   1      35.799  34.361  28.875  1.00  0.00     0.016 A 
ATOM     32  C   UNL A   1      34.261  33.623  30.594  1.00  0.00     0.016 A 
ATOM     33  C   UNL A   1      36.887  33.987  29.672  1.00  0.00     0.010 A 
ATOM     34  C   UNL A   1      35.354  33.227  31.383  1.00  0.00     0.010 A 
ATOM     35  C   UNL A   1      36.674  33.372  30.913  1.00  0.00    -0.014 A 
BRANCH  35  36
ATOM     36  C   UNL A   1      37.803  32.697  31.613  1.00  0.00     0.031 A 
ATOM     37  C   UNL A   1      38.455  31.511  30.949  1.00  0.00     0.074 A 
ATOM     38  C   UNL A   1      38.272  33.122  32.801  1.00  0.00     0.049 A 
ATOM     39  N   UNL A   1      39.415  30.732  31.384  1.00  0.00    -0.248 NA
ATOM     40  C   UNL A   1      37.952  31.156  29.613  1.00  0.00     0.031 C 
ATOM     41  C   UNL A   1      37.774  34.278  33.539  1.00  0.00     0.029 A 
ATOM     42  N   UNL A   1      39.281  32.627  33.593  1.00  0.00    -0.354 N 
ATOM     43  C   UNL A   1      39.620  29.789  30.384  1.00  0.00     0.074 A 
ATOM     44  C   UNL A   1      38.676  30.084  29.327  1.00  0.00     0.031 C 
ATOM     45  C   UNL A   1      38.488  34.414  34.670  1.00  0.00     0.029 A 
ATOM     46  C   UNL A   1      39.455  33.320  34.767  1.00  0.00     0.049 A 
ATOM     47  H   UNL A   1      39.829  31.848  33.342  1.00  0.00     0.167 HD
ATOM     48  C   UNL A   1      40.510  28.769  30.348  1.00  0.00     0.037 A 
ATOM     49  C   UNL A   1      40.277  33.081  35.810  1.00  0.00     0.037 A 
ATOM     50  C   UNL A   1      41.447  28.460  31.395  1.00  0.00     0.049 A 
ATOM     51  C   UNL A   1      41.204  31.888  35.780  1.00  0.00     0.074 A 
ATOM     52  C   UNL A   1      42.386  27.444  31.440  1.00  0.00     0.029 A 
ATOM     53  N   UNL A   1      41.560  29.159  32.587  1.00  0.00    -0.354 N 
ATOM     54  N   UNL A   1      41.396  31.010  34.827  1.00  0.00    -0.248 NA
ATOM     55  C   UNL A   1      42.020  31.649  36.982  1.00  0.00     0.031 C 
ATOM     56  C   UNL A   1      43.028  27.494  32.681  1.00  0.00     0.029 A 
ATOM     57  C   UNL A   1      42.533  28.579  33.384  1.00  0.00     0.049 A 
ATOM     58  H   UNL A   1      41.027  29.951  32.831  1.00  0.00     0.167 HD
ATOM     59  C   UNL A   1      42.374  30.139  35.298  1.00  0.00     0.074 A 
ATOM     60  C   UNL A   1      42.745  30.600  36.618  1.00  0.00     0.031 C 
ATOM     61  C   UNL A   1      42.913  29.054  34.690  1.00  0.00     0.037 A 
BRANCH  48  62
ATOM     62  C   UNL A   1      40.487  27.876  29.142  1.00  0.00     0.064 A 
ATOM     63  C   UNL A   1      41.279  28.137  28.013  1.00  0.00     0.173 A 
ATOM     64  C   UNL A   1      39.690  26.720  29.132  1.00  0.00     0.173 A 
ATOM     65  F   UNL A   1      42.046  29.236  27.968  1.00  0.00    -0.203 F 
ATOM     66  C   UNL A   1      41.254  27.286  26.911  1.00  0.00     0.198 A 
ATOM     67  C   UNL A   1      39.691  25.858  28.041  1.00  0.00     0.198 A 
ATOM     68  F   UNL A   1      38.918  26.422  30.189  1.00  0.00    -0.203 F 
ATOM     69  F   UNL A   1      41.984  27.579  25.826  1.00  0.00    -0.200 F 
ATOM     70  C   UNL A   1      40.468  26.144  26.928  1.00  0.00     0.200 A 
ATOM     71  F   UNL A   1      38.941  24.746  28.066  1.00  0.00    -0.200 F 
ATOM     72  F   UNL A   1      40.453  25.322  25.870  1.00  0.00    -0.200 F 
ENDBRANCH  48  62
BRANCH  49  73
ATOM     73  C   UNL A   1      40.247  33.968  37.008  1.00  0.00     0.064 A 
ATOM     74  C   UNL A   1      39.360  33.727  38.068  1.00  0.00     0.173 A 
ATOM     75  C   UNL A   1      41.061  35.107  37.089  1.00  0.00     0.173 A 
ATOM     76  F   UNL A   1      38.532  32.672  38.021  1.00  0.00    -0.203 F 
ATOM     77  C   UNL A   1      39.271  34.604  39.148  1.00  0.00     0.198 A 
ATOM     78  C   UNL A   1      40.997  35.963  38.186  1.00  0.00     0.198 A 
ATOM     79  F   UNL A   1      41.919  35.393  36.099  1.00  0.00    -0.203 F 
ATOM     80  F   UNL A   1      38.369  34.386  40.113  1.00  0.00    -0.200 F 
ATOM     81  C   UNL A   1      40.094  35.718  39.209  1.00  0.00     0.200 A 
ATOM     82  F   UNL A   1      41.800  37.035  38.243  1.00  0.00    -0.200 F 
ATOM     83  F   UNL A   1      40.006  36.564  40.244  1.00  0.00    -0.200 F 
ENDBRANCH  49  73
BRANCH  61  84
ATOM     84  C   UNL A   1      44.002  28.311  35.415  1.00  0.00     0.064 A 
ATOM     85  C   UNL A   1      45.353  28.670  35.293  1.00  0.00     0.173 A 
ATOM     86  C   UNL A   1      43.681  27.257  36.286  1.00  0.00     0.173 A 
ATOM     87  F   UNL A   1      45.717  29.660  34.466  1.00  0.00    -0.203 F 
ATOM     88  C   UNL A   1      46.342  27.985  35.998  1.00  0.00     0.198 A 
ATOM     89  C   UNL A   1      44.669  26.597  37.012  1.00  0.00     0.198 A 
ATOM     90  F   UNL A   1      42.405  26.879  36.447  1.00  0.00    -0.203 F 
ATOM     91  F   UNL A   1      47.631  28.317  35.831  1.00  0.00    -0.200 F 
ATOM     92  C   UNL A   1      45.999  26.957  36.862  1.00  0.00     0.200 A 
ATOM     93  F   UNL A   1      44.334  25.615  37.860  1.00  0.00    -0.200 F 
ATOM     94  F   UNL A   1      46.952  26.309  37.547  1.00  0.00    -0.200 F 
ENDBRANCH  61  84
ENDBRANCH  35  36
ENDBRANCH  28  30
ENDBRANCH  27  28
ENDBRANCH  26  27
ENDBRANCH  25  26
ENDBRANCH  24  25
ENDBRANCH  23  24
ENDBRANCH   1  23
TORSDOF 20
ENDMDL
MODEL 3
REMARK VINA RESULT:      -9.7      5.361      8.243
REMARK SMILES O=C(C[C@H]1CN(c2nc(C3CC3)ns2)CCO1)OCCOCCOCCOC(=O)c1ccc(-c2c3nc(c(-c4c(F)c(F)c(F)c(F)c4F)c4ccc([nH]4)c(-c4c(F)c(F)c(F)c(F)c4F)c4nc(c(-c5c(F)c(F)c(F)c(F)c5F)c5ccc2[nH]5)C=C4)C=C3)cc1
REMARK SMILES IDX 22 1 21 2 20 3 19 4 18 5 2 6 1 7 3 8 4 9 5 10 17 11 6 12
REMARK SMILES IDX 16 13 15 14 7 15 8 16 14 17 9 18 13 19 10 20 11 21 12 22
REMARK SMILES IDX 23 23 24 24 25 25 26 26 27 27 28 28 29 29 30 30 31 31 92 32
REMARK SMILES IDX 32 33 91 34 33 35 34 36 35 37 85 38 36 39 90 40 84 41 86 42
REMARK SMILES IDX 37 43 89 44 83 45 82 46 38 48 70 49 50 50 69 51 51 52 54 53
REMARK SMILES IDX 68 54 87 55 52 56 53 57 67 59 88 60 55 61 39 62 40 63 48 64
REMARK SMILES IDX 41 65 42 66 46 67 49 68 43 69 44 70 47 71 45 72 71 73 72 74
REMARK SMILES IDX 80 75 73 76 74 77 78 78 81 79 75 80 76 81 79 82 77 83 56 84
REMARK SMILES IDX 57 85 65 86 58 87 59 88 63 89 66 90 60 91 61 92 64 93 62 94
REMARK H PARENT 86 47 54 58
REMARK Flexibility Score: inf
ROOT
ATOM      1  C   UNL A   1      35.884  31.018  31.271  1.00  0.00     0.188 C 
ENDROOT
BRANCH   1   2
ATOM      2  O   UNL A   1      36.710  30.581  30.211  1.00  0.00    -0.376 OA
BRANCH   2   3
ATOM      3  C   UNL A   1      36.257  29.579  29.326  1.00  0.00     0.202 C 
BRANCH   3   4
ATOM      4  C   UNL A   1      35.917  30.048  27.914  1.00  0.00     0.261 C 
BRANCH   4   5
ATOM      5  O   UNL A   1      34.670  30.747  27.732  1.00  0.00    -0.463 OA
BRANCH   5   6
ATOM      6  C   UNL A   1      33.587  30.358  27.033  1.00  0.00     0.308 C 
ATOM      7  O   UNL A   1      32.502  30.896  27.250  1.00  0.00    -0.252 OA
BRANCH   6   8
ATOM      8  C   UNL A   1      33.691  29.201  26.088  1.00  0.00     0.156 C 
BRANCH   8   9
ATOM      9  C   UNL A   1      33.235  27.831  26.561  1.00  0.00     0.148 C 
ATOM     10  C   UNL A   1      31.759  27.620  26.201  1.00  0.00     0.151 C 
ATOM     11  O   UNL A   1      34.043  26.719  26.155  1.00  0.00    -0.374 OA
ATOM     12  N   UNL A   1      31.656  27.404  24.769  1.00  0.00    -0.342 N 
ATOM     13  C   UNL A   1      33.898  26.346  24.773  1.00  0.00     0.182 C 
ATOM     14  C   UNL A   1      32.446  26.296  24.247  1.00  0.00     0.147 C 
BRANCH  12  15
ATOM     15  C   UNL A   1      30.925  28.241  23.987  1.00  0.00     0.205 A 
ATOM     16  N   UNL A   1      30.463  29.424  24.348  1.00  0.00    -0.203 NA
ATOM     17  S   UNL A   1      30.388  27.837  22.388  1.00  0.00     0.004 S 
ATOM     18  C   UNL A   1      29.717  29.963  23.301  1.00  0.00     0.147 A 
ATOM     19  N   UNL A   1      29.479  29.219  22.220  1.00  0.00    -0.174 NA
BRANCH  18  20
ATOM     20  C   UNL A   1      29.144  31.382  23.348  1.00  0.00     0.059 C 
ATOM     21  C   UNL A   1      28.581  32.025  22.103  1.00  0.00     0.012 C 
ATOM     22  C   UNL A   1      27.650  31.570  23.174  1.00  0.00     0.012 C 
ENDBRANCH  18  20
ENDBRANCH  12  15
ENDBRANCH   8   9
ENDBRANCH   6   8
ENDBRANCH   5   6
ENDBRANCH   4   5
ENDBRANCH   3   4
ENDBRANCH   2   3
ENDBRANCH   1   2
BRANCH   1  23
ATOM     23  C   UNL A   1      34.954  32.188  30.914  1.00  0.00     0.188 C 
BRANCH  23  24
ATOM     24  O   UNL A   1      34.037  32.705  31.869  1.00  0.00    -0.376 OA
BRANCH  24  25
ATOM     25  C   UNL A   1      34.511  33.253  33.088  1.00  0.00     0.202 C 
BRANCH  25  26
ATOM     26  C   UNL A   1      35.046  34.693  33.062  1.00  0.00     0.261 C 
BRANCH  26  27
ATOM     27  O   UNL A   1      36.237  34.905  32.277  1.00  0.00    -0.460 OA
BRANCH  27  28
ATOM     28  C   UNL A   1      37.412  34.598  32.883  1.00  0.00     0.338 C 
ATOM     29  O   UNL A   1      37.773  34.939  33.995  1.00  0.00    -0.246 OA
BRANCH  28  30
ATOM     30  C   UNL A   1      38.202  33.642  32.065  1.00  0.00     0.060 A 
ATOM     31  C   UNL A   1      38.926  32.642  32.731  1.00  0.00     0.016 A 
ATOM     32  C   UNL A   1      38.309  33.767  30.677  1.00  0.00     0.016 A 
ATOM     33  C   UNL A   1      39.795  31.803  32.024  1.00  0.00     0.010 A 
ATOM     34  C   UNL A   1      39.199  32.938  29.972  1.00  0.00     0.010 A 
ATOM     35  C   UNL A   1      39.976  31.975  30.646  1.00  0.00    -0.014 A 
BRANCH  35  36
ATOM     36  C   UNL A   1      41.114  31.307  29.955  1.00  0.00     0.031 A 
ATOM     37  C   UNL A   1      42.365  32.106  29.688  1.00  0.00     0.074 A 
ATOM     38  C   UNL A   1      41.072  30.013  29.584  1.00  0.00     0.049 A 
ATOM     39  N   UNL A   1      43.460  31.759  29.059  1.00  0.00    -0.248 NA
ATOM     40  C   UNL A   1      42.375  33.485  30.200  1.00  0.00     0.031 C 
ATOM     41  C   UNL A   1      39.953  29.105  29.815  1.00  0.00     0.029 A 
ATOM     42  N   UNL A   1      42.005  29.238  28.934  1.00  0.00    -0.354 N 
ATOM     43  C   UNL A   1      44.283  32.878  29.087  1.00  0.00     0.074 A 
ATOM     44  C   UNL A   1      43.555  33.919  29.782  1.00  0.00     0.031 C 
ATOM     45  C   UNL A   1      40.269  27.892  29.329  1.00  0.00     0.029 A 
ATOM     46  C   UNL A   1      41.588  27.950  28.698  1.00  0.00     0.049 A 
ATOM     47  H   UNL A   1      42.890  29.575  28.665  1.00  0.00     0.167 HD
ATOM     48  C   UNL A   1      45.529  33.030  28.580  1.00  0.00     0.037 A 
ATOM     49  C   UNL A   1      42.188  26.946  28.025  1.00  0.00     0.037 A 
ATOM     50  C   UNL A   1      46.260  32.006  27.880  1.00  0.00     0.049 A 
ATOM     51  C   UNL A   1      43.545  27.166  27.397  1.00  0.00     0.074 A 
ATOM     52  C   UNL A   1      47.530  32.075  27.333  1.00  0.00     0.029 A 
ATOM     53  N   UNL A   1      45.784  30.731  27.622  1.00  0.00    -0.354 N 
ATOM     54  N   UNL A   1      44.317  28.224  27.438  1.00  0.00    -0.248 NA
ATOM     55  C   UNL A   1      44.107  26.050  26.619  1.00  0.00     0.031 C 
ATOM     56  C   UNL A   1      47.800  30.860  26.696  1.00  0.00     0.029 A 
ATOM     57  C   UNL A   1      46.724  30.013  26.901  1.00  0.00     0.049 A 
ATOM     58  H   UNL A   1      44.907  30.386  27.909  1.00  0.00     0.167 HD
ATOM     59  C   UNL A   1      45.464  27.891  26.724  1.00  0.00     0.074 A 
ATOM     60  C   UNL A   1      45.293  26.528  26.269  1.00  0.00     0.031 C 
ATOM     61  C   UNL A   1      46.558  28.649  26.467  1.00  0.00     0.037 A 
BRANCH  48  62
ATOM     62  C   UNL A   1      46.176  34.377  28.728  1.00  0.00     0.064 A 
ATOM     63  C   UNL A   1      46.995  34.687  29.824  1.00  0.00     0.173 A 
ATOM     64  C   UNL A   1      46.004  35.356  27.738  1.00  0.00     0.173 A 
ATOM     65  F   UNL A   1      47.179  33.790  30.804  1.00  0.00    -0.203 F 
ATOM     66  C   UNL A   1      47.598  35.937  29.934  1.00  0.00     0.198 A 
ATOM     67  C   UNL A   1      46.633  36.593  27.837  1.00  0.00     0.198 A 
ATOM     68  F   UNL A   1      45.235  35.108  26.667  1.00  0.00    -0.203 F 
ATOM     69  F   UNL A   1      48.340  36.227  31.011  1.00  0.00    -0.200 F 
ATOM     70  C   UNL A   1      47.424  36.886  28.937  1.00  0.00     0.200 A 
ATOM     71  F   UNL A   1      46.474  37.504  26.865  1.00  0.00    -0.200 F 
ATOM     72  F   UNL A   1      48.013  38.085  29.041  1.00  0.00    -0.200 F 
ENDBRANCH  48  62
BRANCH  49  73
ATOM     73  C   UNL A   1      41.501  25.633  27.866  1.00  0.00     0.064 A 
ATOM     74  C   UNL A   1      41.946  24.493  28.551  1.00  0.00     0.173 A 
ATOM     75  C   UNL A   1      40.424  25.479  26.981  1.00  0.00     0.173 A 
ATOM     76  F   UNL A   1      42.997  24.578  29.380  1.00  0.00    -0.203 F 
ATOM     77  C   UNL A   1      41.358  23.246  28.337  1.00  0.00     0.198 A 
ATOM     78  C   UNL A   1      39.813  24.241  26.795  1.00  0.00     0.198 A 
ATOM     79  F   UNL A   1      39.964  26.533  26.291  1.00  0.00    -0.203 F 
ATOM     80  F   UNL A   1      41.846  22.162  28.953  1.00  0.00    -0.200 F 
ATOM     81  C   UNL A   1      40.288  23.123  27.464  1.00  0.00     0.200 A 
ATOM     82  F   UNL A   1      38.775  24.128  25.955  1.00  0.00    -0.200 F 
ATOM     83  F   UNL A   1      39.725  21.925  27.254  1.00  0.00    -0.200 F 
ENDBRANCH  49  73
BRANCH  61  84
ATOM     84  C   UNL A   1      47.687  28.016  25.702  1.00  0.00     0.064 A 
ATOM     85  C   UNL A   1      47.644  27.860  24.308  1.00  0.00     0.173 A 
ATOM     86  C   UNL A   1      48.853  27.607  26.370  1.00  0.00     0.173 A 
ATOM     87  F   UNL A   1      46.550  28.222  23.621  1.00  0.00    -0.203 F 
ATOM     88  C   UNL A   1      48.716  27.298  23.616  1.00  0.00     0.198 A 
ATOM     89  C   UNL A   1      49.934  27.074  25.671  1.00  0.00     0.198 A 
ATOM     90  F   UNL A   1      48.951  27.740  27.700  1.00  0.00    -0.203 F 
ATOM     91  F   UNL A   1      48.633  27.119  22.290  1.00  0.00    -0.200 F 
ATOM     92  C   UNL A   1      49.861  26.914  24.296  1.00  0.00     0.200 A 
ATOM     93  F   UNL A   1      51.046  26.720  26.328  1.00  0.00    -0.200 F 
ATOM     94  F   UNL A   1      50.894  26.384  23.626  1.00  0.00    -0.200 F 
ENDBRANCH  61  84
ENDBRANCH  35  36
ENDBRANCH  28  30
ENDBRANCH  27  28
ENDBRANCH  26  27
ENDBRANCH  25  26
ENDBRANCH  24  25
ENDBRANCH  23  24
ENDBRANCH   1  23
TORSDOF 20
ENDMDL
