MODEL 1
REMARK VINA RESULT:     -11.4      0.000      0.000
REMARK SMILES C[C@H]1Oc2ccccc2C=C1/C=C/C(=O)N[C@H](C(=O)OCCOCCOCCOC(=O)c1ccc(-c2c3nc(c(-c4c(F)c(F)c(F)c(F)c4F)c4ccc([nH]4)c(-c4c(F)c(F)c(F)c(F)c4F)c4nc(c(-c5c(F)c(F)c(F)c(F)c5F)c5ccc2[nH]5)C=C4)C=C3)cc1)c1ccccc1
REMARK SMILES IDX 24 1 23 2 22 3 21 4 20 5 18 6 19 7 17 8 16 9 14 10 15 11
REMARK SMILES IDX 13 13 12 14 11 15 1 16 2 17 3 18 4 19 10 20 5 21 9 22 6 23
REMARK SMILES IDX 8 24 7 25 95 26 96 27 100 28 97 29 99 30 98 31 25 32 26 33
REMARK SMILES IDX 27 34 28 35 29 36 30 37 31 38 32 39 33 40 94 41 34 42 93 43
REMARK SMILES IDX 35 44 36 45 37 46 87 47 38 48 92 49 86 50 88 51 39 52 91 53
REMARK SMILES IDX 85 54 84 55 40 57 72 58 52 59 71 60 53 61 56 62 70 63 89 64
REMARK SMILES IDX 54 65 55 66 69 68 90 69 57 70 41 71 42 72 50 73 43 74 44 75
REMARK SMILES IDX 48 76 51 77 45 78 46 79 49 80 47 81 73 82 74 83 82 84 75 85
REMARK SMILES IDX 76 86 80 87 83 88 77 89 78 90 81 91 79 92 58 93 59 94 67 95
REMARK SMILES IDX 60 96 61 97 65 98 68 99 62 100 63 101 66 102 64 103
REMARK H PARENT 16 12 88 56 56 67
REMARK Flexibility Score: inf
ROOT
ATOM      1  C   UNL A   1      36.547  23.541  26.053  1.00  0.00     0.188 C 
ENDROOT
BRANCH   1   2
ATOM      2  O   UNL A   1      35.622  24.399  25.433  1.00  0.00    -0.376 OA
BRANCH   2   3
ATOM      3  C   UNL A   1      34.920  23.994  24.267  1.00  0.00     0.202 C 
BRANCH   3   4
ATOM      4  C   UNL A   1      34.116  24.909  23.319  1.00  0.00     0.261 C 
BRANCH   4   5
ATOM      5  O   UNL A   1      33.698  26.193  23.794  1.00  0.00    -0.461 OA
BRANCH   5   6
ATOM      6  C   UNL A   1      33.282  27.047  22.817  1.00  0.00     0.333 C 
ATOM      7  O   UNL A   1      33.547  26.890  21.627  1.00  0.00    -0.249 OA
BRANCH   6   8
ATOM      8  C   UNL A   1      32.360  28.188  23.342  1.00  0.00     0.223 C 
BRANCH   8   9
ATOM      9  N   UNL A   1      30.948  28.087  22.951  1.00  0.00    -0.335 N 
ATOM     10  C   UNL A   1      30.015  27.129  23.225  1.00  0.00     0.244 C 
ATOM     11  O   UNL A   1      28.819  27.395  23.131  1.00  0.00    -0.270 OA
ATOM     12  H   UNL A   1      30.619  28.834  22.401  1.00  0.00     0.165 HD
BRANCH  10  13
ATOM     13  C   UNL A   1      30.415  25.720  23.449  1.00  0.00     0.071 C 
ATOM     14  C   UNL A   1      30.442  25.073  24.623  1.00  0.00     0.013 C 
BRANCH  14  15
ATOM     15  C   UNL A   1      31.029  23.747  24.823  1.00  0.00    -0.007 C 
ATOM     16  C   UNL A   1      30.045  23.001  27.059  1.00  0.00     0.058 C 
ATOM     17  C   UNL A   1      31.307  23.365  26.271  1.00  0.00     0.200 C 
ATOM     18  O   UNL A   1      32.285  22.331  26.483  1.00  0.00    -0.485 OA
ATOM     19  C   UNL A   1      32.426  21.415  25.481  1.00  0.00     0.127 A 
ATOM     20  C   UNL A   1      31.349  22.907  23.827  1.00  0.00     0.019 C 
ATOM     21  C   UNL A   1      33.076  20.229  25.826  1.00  0.00     0.047 A 
ATOM     22  C   UNL A   1      31.993  21.641  24.172  1.00  0.00     0.017 A 
ATOM     23  C   UNL A   1      33.285  19.246  24.862  1.00  0.00     0.004 A 
ATOM     24  C   UNL A   1      32.226  20.658  23.204  1.00  0.00     0.012 A 
ATOM     25  C   UNL A   1      32.863  19.462  23.551  1.00  0.00     0.001 A 
ENDBRANCH  14  15
ENDBRANCH  10  13
ENDBRANCH   8   9
BRANCH   8  26
ATOM     26  C   UNL A   1      32.635  28.361  24.821  1.00  0.00    -0.014 A 
ATOM     27  C   UNL A   1      33.949  28.683  25.219  1.00  0.00     0.006 A 
ATOM     28  C   UNL A   1      31.668  28.143  25.808  1.00  0.00     0.006 A 
ATOM     29  C   UNL A   1      34.290  28.774  26.563  1.00  0.00     0.000 A 
ATOM     30  C   UNL A   1      32.002  28.277  27.156  1.00  0.00     0.000 A 
ATOM     31  C   UNL A   1      33.311  28.582  27.532  1.00  0.00     0.000 A 
ENDBRANCH   8  26
ENDBRANCH   6   8
ENDBRANCH   5   6
ENDBRANCH   4   5
ENDBRANCH   3   4
ENDBRANCH   2   3
ENDBRANCH   1   2
BRANCH   1  32
ATOM     32  C   UNL A   1      37.048  22.373  25.186  1.00  0.00     0.188 C 
BRANCH  32  33
ATOM     33  O   UNL A   1      36.588  21.065  25.447  1.00  0.00    -0.376 OA
BRANCH  33  34
ATOM     34  C   UNL A   1      37.356  19.953  24.997  1.00  0.00     0.202 C 
BRANCH  34  35
ATOM     35  C   UNL A   1      38.902  19.919  24.943  1.00  0.00     0.261 C 
BRANCH  35  36
ATOM     36  O   UNL A   1      39.607  19.893  26.190  1.00  0.00    -0.460 OA
BRANCH  36  37
ATOM     37  C   UNL A   1      40.943  19.669  26.112  1.00  0.00     0.338 C 
ATOM     38  O   UNL A   1      41.508  18.708  25.617  1.00  0.00    -0.246 OA
BRANCH  37  39
ATOM     39  C   UNL A   1      41.637  20.908  26.518  1.00  0.00     0.060 A 
ATOM     40  C   UNL A   1      42.070  21.824  25.560  1.00  0.00     0.016 A 
ATOM     41  C   UNL A   1      41.880  21.136  27.882  1.00  0.00     0.016 A 
ATOM     42  C   UNL A   1      42.724  22.985  25.976  1.00  0.00     0.010 A 
ATOM     43  C   UNL A   1      42.561  22.282  28.293  1.00  0.00     0.010 A 
ATOM     44  C   UNL A   1      42.961  23.229  27.343  1.00  0.00    -0.014 A 
BRANCH  44  45
ATOM     45  C   UNL A   1      43.427  24.569  27.772  1.00  0.00     0.031 A 
ATOM     46  C   UNL A   1      44.873  24.949  27.799  1.00  0.00     0.074 A 
ATOM     47  C   UNL A   1      42.486  25.461  28.134  1.00  0.00     0.049 A 
ATOM     48  N   UNL A   1      45.406  26.126  28.018  1.00  0.00    -0.248 NA
ATOM     49  C   UNL A   1      45.851  23.879  27.560  1.00  0.00     0.031 C 
ATOM     50  C   UNL A   1      41.050  25.180  28.192  1.00  0.00     0.029 A 
ATOM     51  N   UNL A   1      42.586  26.777  28.503  1.00  0.00    -0.354 N 
ATOM     52  C   UNL A   1      46.778  25.949  27.910  1.00  0.00     0.074 A 
ATOM     53  C   UNL A   1      46.999  24.538  27.663  1.00  0.00     0.031 C 
ATOM     54  C   UNL A   1      40.400  26.301  28.530  1.00  0.00     0.029 A 
ATOM     55  C   UNL A   1      41.370  27.372  28.735  1.00  0.00     0.049 A 
ATOM     56  H   UNL A   1      43.445  27.250  28.593  1.00  0.00     0.167 HD
ATOM     57  C   UNL A   1      47.752  26.889  27.989  1.00  0.00     0.037 A 
ATOM     58  C   UNL A   1      41.067  28.642  29.058  1.00  0.00     0.037 A 
ATOM     59  C   UNL A   1      47.516  28.288  28.255  1.00  0.00     0.049 A 
ATOM     60  C   UNL A   1      42.171  29.653  29.173  1.00  0.00     0.074 A 
ATOM     61  C   UNL A   1      48.437  29.321  28.311  1.00  0.00     0.029 A 
ATOM     62  N   UNL A   1      46.276  28.850  28.527  1.00  0.00    -0.354 N 
ATOM     63  N   UNL A   1      43.457  29.499  28.972  1.00  0.00    -0.248 NA
ATOM     64  C   UNL A   1      41.783  31.019  29.549  1.00  0.00     0.031 C 
ATOM     65  C   UNL A   1      47.765  30.492  28.673  1.00  0.00     0.029 A 
ATOM     66  C   UNL A   1      46.416  30.206  28.784  1.00  0.00     0.049 A 
ATOM     67  H   UNL A   1      45.424  28.357  28.538  1.00  0.00     0.167 HD
ATOM     68  C   UNL A   1      44.028  30.747  29.175  1.00  0.00     0.074 A 
ATOM     69  C   UNL A   1      42.946  31.654  29.496  1.00  0.00     0.031 C 
ATOM     70  C   UNL A   1      45.334  31.104  29.103  1.00  0.00     0.037 A 
BRANCH  57  71
ATOM     71  C   UNL A   1      49.172  26.456  27.764  1.00  0.00     0.064 A 
ATOM     72  C   UNL A   1      49.696  26.327  26.469  1.00  0.00     0.173 A 
ATOM     73  C   UNL A   1      50.051  26.280  28.845  1.00  0.00     0.173 A 
ATOM     74  F   UNL A   1      48.900  26.485  25.400  1.00  0.00    -0.203 F 
ATOM     75  C   UNL A   1      51.040  26.027  26.264  1.00  0.00     0.198 A 
ATOM     76  C   UNL A   1      51.401  26.008  28.636  1.00  0.00     0.198 A 
ATOM     77  F   UNL A   1      49.607  26.407  30.104  1.00  0.00    -0.203 F 
ATOM     78  F   UNL A   1      51.512  25.887  25.016  1.00  0.00    -0.200 F 
ATOM     79  C   UNL A   1      51.894  25.880  27.347  1.00  0.00     0.200 A 
ATOM     80  F   UNL A   1      52.228  25.885  29.684  1.00  0.00    -0.200 F 
ATOM     81  F   UNL A   1      53.193  25.615  27.147  1.00  0.00    -0.200 F 
ENDBRANCH  57  71
BRANCH  58  82
ATOM     82  C   UNL A   1      39.645  29.027  29.239  1.00  0.00     0.064 A 
ATOM     83  C   UNL A   1      38.884  29.494  28.158  1.00  0.00     0.173 A 
ATOM     84  C   UNL A   1      39.009  28.903  30.483  1.00  0.00     0.173 A 
ATOM     85  F   UNL A   1      39.452  29.643  26.953  1.00  0.00    -0.203 F 
ATOM     86  C   UNL A   1      37.542  29.830  28.318  1.00  0.00     0.198 A 
ATOM     87  C   UNL A   1      37.660  29.212  30.633  1.00  0.00     0.198 A 
ATOM     88  F   UNL A   1      39.693  28.453  31.545  1.00  0.00    -0.203 F 
ATOM     89  F   UNL A   1      36.845  30.306  27.276  1.00  0.00    -0.200 F 
ATOM     90  C   UNL A   1      36.928  29.680  29.553  1.00  0.00     0.200 A 
ATOM     91  F   UNL A   1      37.066  29.047  31.823  1.00  0.00    -0.200 F 
ATOM     92  F   UNL A   1      35.634  29.992  29.701  1.00  0.00    -0.200 F 
ENDBRANCH  58  82
BRANCH  70  93
ATOM     93  C   UNL A   1      45.676  32.544  29.364  1.00  0.00     0.064 A 
ATOM     94  C   UNL A   1      45.653  33.500  28.338  1.00  0.00     0.173 A 
ATOM     95  C   UNL A   1      45.962  32.985  30.666  1.00  0.00     0.173 A 
ATOM     96  F   UNL A   1      45.400  33.129  27.074  1.00  0.00    -0.203 F 
ATOM     97  C   UNL A   1      45.914  34.842  28.604  1.00  0.00     0.198 A 
ATOM     98  C   UNL A   1      46.191  34.332  30.932  1.00  0.00     0.198 A 
ATOM     99  F   UNL A   1      45.992  32.112  31.684  1.00  0.00    -0.203 F 
ATOM    100  F   UNL A   1      45.920  35.732  27.602  1.00  0.00    -0.200 F 
ATOM    101  C   UNL A   1      46.172  35.258  29.902  1.00  0.00     0.200 A 
ATOM    102  F   UNL A   1      46.424  34.734  32.190  1.00  0.00    -0.200 F 
ATOM    103  F   UNL A   1      46.403  36.554  30.158  1.00  0.00    -0.200 F 
ENDBRANCH  70  93
ENDBRANCH  44  45
ENDBRANCH  37  39
ENDBRANCH  36  37
ENDBRANCH  35  36
ENDBRANCH  34  35
ENDBRANCH  33  34
ENDBRANCH  32  33
ENDBRANCH   1  32
TORSDOF 21
ENDMDL
MODEL 2
REMARK VINA RESULT:     -11.3      2.011      8.220
REMARK SMILES C[C@H]1Oc2ccccc2C=C1/C=C/C(=O)N[C@H](C(=O)OCCOCCOCCOC(=O)c1ccc(-c2c3nc(c(-c4c(F)c(F)c(F)c(F)c4F)c4ccc([nH]4)c(-c4c(F)c(F)c(F)c(F)c4F)c4nc(c(-c5c(F)c(F)c(F)c(F)c5F)c5ccc2[nH]5)C=C4)C=C3)cc1)c1ccccc1
REMARK SMILES IDX 24 1 23 2 22 3 21 4 20 5 18 6 19 7 17 8 16 9 14 10 15 11
REMARK SMILES IDX 13 13 12 14 11 15 1 16 2 17 3 18 4 19 10 20 5 21 9 22 6 23
REMARK SMILES IDX 8 24 7 25 95 26 96 27 100 28 97 29 99 30 98 31 25 32 26 33
REMARK SMILES IDX 27 34 28 35 29 36 30 37 31 38 32 39 33 40 94 41 34 42 93 43
REMARK SMILES IDX 35 44 36 45 37 46 87 47 38 48 92 49 86 50 88 51 39 52 91 53
REMARK SMILES IDX 85 54 84 55 40 57 72 58 52 59 71 60 53 61 56 62 70 63 89 64
REMARK SMILES IDX 54 65 55 66 69 68 90 69 57 70 41 71 42 72 50 73 43 74 44 75
REMARK SMILES IDX 48 76 51 77 45 78 46 79 49 80 47 81 73 82 74 83 82 84 75 85
REMARK SMILES IDX 76 86 80 87 83 88 77 89 78 90 81 91 79 92 58 93 59 94 67 95
REMARK SMILES IDX 60 96 61 97 65 98 68 99 62 100 63 101 66 102 64 103
REMARK H PARENT 16 12 88 56 56 67
REMARK Flexibility Score: inf
ROOT
ATOM      1  C   UNL A   1      40.539  21.746  27.228  1.00  0.00     0.188 C 
ENDROOT
BRANCH   1   2
ATOM      2  O   UNL A   1      39.623  21.070  26.404  1.00  0.00    -0.376 OA
BRANCH   2   3
ATOM      3  C   UNL A   1      38.552  21.764  25.781  1.00  0.00     0.202 C 
BRANCH   3   4
ATOM      4  C   UNL A   1      37.658  21.234  24.640  1.00  0.00     0.261 C 
BRANCH   4   5
ATOM      5  O   UNL A   1      36.575  22.048  24.181  1.00  0.00    -0.461 OA
BRANCH   5   6
ATOM      6  C   UNL A   1      35.805  22.572  25.176  1.00  0.00     0.333 C 
ATOM      7  O   UNL A   1      35.855  23.752  25.517  1.00  0.00    -0.249 OA
BRANCH   6   8
ATOM      8  C   UNL A   1      34.788  21.556  25.775  1.00  0.00     0.223 C 
BRANCH   8   9
ATOM      9  N   UNL A   1      34.204  21.936  27.068  1.00  0.00    -0.335 N 
ATOM     10  C   UNL A   1      33.026  22.556  27.365  1.00  0.00     0.244 C 
ATOM     11  O   UNL A   1      32.548  22.456  28.492  1.00  0.00    -0.270 OA
ATOM     12  H   UNL A   1      34.754  21.704  27.851  1.00  0.00     0.165 HD
BRANCH  10  13
ATOM     13  C   UNL A   1      32.405  23.505  26.411  1.00  0.00     0.071 C 
ATOM     14  C   UNL A   1      32.748  24.787  26.217  1.00  0.00     0.013 C 
BRANCH  14  15
ATOM     15  C   UNL A   1      31.981  25.735  25.408  1.00  0.00    -0.007 C 
ATOM     16  C   UNL A   1      33.657  26.479  23.630  1.00  0.00     0.058 C 
ATOM     17  C   UNL A   1      32.781  26.889  24.818  1.00  0.00     0.200 C 
ATOM     18  O   UNL A   1      32.034  28.060  24.444  1.00  0.00    -0.485 OA
ATOM     19  C   UNL A   1      30.732  27.860  24.087  1.00  0.00     0.127 A 
ATOM     20  C   UNL A   1      30.658  25.654  25.204  1.00  0.00     0.019 C 
ATOM     21  C   UNL A   1      30.126  28.900  23.380  1.00  0.00     0.047 A 
ATOM     22  C   UNL A   1      30.012  26.712  24.430  1.00  0.00     0.017 A 
ATOM     23  C   UNL A   1      28.793  28.793  22.993  1.00  0.00     0.004 A 
ATOM     24  C   UNL A   1      28.667  26.621  24.057  1.00  0.00     0.012 A 
ATOM     25  C   UNL A   1      28.063  27.656  23.335  1.00  0.00     0.001 A 
ENDBRANCH  14  15
ENDBRANCH  10  13
ENDBRANCH   8   9
BRANCH   8  26
ATOM     26  C   UNL A   1      33.808  21.184  24.681  1.00  0.00    -0.014 A 
ATOM     27  C   UNL A   1      33.375  19.844  24.605  1.00  0.00     0.006 A 
ATOM     28  C   UNL A   1      33.375  22.087  23.705  1.00  0.00     0.006 A 
ATOM     29  C   UNL A   1      32.543  19.416  23.578  1.00  0.00     0.000 A 
ATOM     30  C   UNL A   1      32.506  21.665  22.699  1.00  0.00     0.000 A 
ATOM     31  C   UNL A   1      32.099  20.332  22.630  1.00  0.00     0.000 A 
ENDBRANCH   8  26
ENDBRANCH   6   8
ENDBRANCH   5   6
ENDBRANCH   4   5
ENDBRANCH   3   4
ENDBRANCH   2   3
ENDBRANCH   1   2
BRANCH   1  32
ATOM     32  C   UNL A   1      41.899  21.050  27.412  1.00  0.00     0.188 C 
BRANCH  32  33
ATOM     33  O   UNL A   1      42.007  19.662  27.178  1.00  0.00    -0.376 OA
BRANCH  33  34
ATOM     34  C   UNL A   1      42.336  19.198  25.871  1.00  0.00     0.202 C 
BRANCH  34  35
ATOM     35  C   UNL A   1      43.451  18.171  25.561  1.00  0.00     0.261 C 
BRANCH  35  36
ATOM     36  O   UNL A   1      44.788  18.666  25.424  1.00  0.00    -0.460 OA
BRANCH  36  37
ATOM     37  C   UNL A   1      45.018  19.464  24.351  1.00  0.00     0.338 C 
ATOM     38  O   UNL A   1      45.072  19.136  23.178  1.00  0.00    -0.246 OA
BRANCH  37  39
ATOM     39  C   UNL A   1      44.958  20.868  24.807  1.00  0.00     0.060 A 
ATOM     40  C   UNL A   1      45.291  21.202  26.119  1.00  0.00     0.016 A 
ATOM     41  C   UNL A   1      44.532  21.858  23.907  1.00  0.00     0.016 A 
ATOM     42  C   UNL A   1      45.224  22.538  26.519  1.00  0.00     0.010 A 
ATOM     43  C   UNL A   1      44.437  23.188  24.318  1.00  0.00     0.010 A 
ATOM     44  C   UNL A   1      44.811  23.540  25.620  1.00  0.00    -0.014 A 
BRANCH  44  45
ATOM     45  C   UNL A   1      44.985  24.965  25.990  1.00  0.00     0.031 A 
ATOM     46  C   UNL A   1      43.869  25.798  26.537  1.00  0.00     0.074 A 
ATOM     47  C   UNL A   1      46.209  25.498  25.825  1.00  0.00     0.049 A 
ATOM     48  N   UNL A   1      43.920  27.011  27.029  1.00  0.00    -0.248 NA
ATOM     49  C   UNL A   1      42.524  25.207  26.525  1.00  0.00     0.031 C 
ATOM     50  C   UNL A   1      47.356  24.789  25.254  1.00  0.00     0.029 A 
ATOM     51  N   UNL A   1      46.702  26.739  26.135  1.00  0.00    -0.354 N 
ATOM     52  C   UNL A   1      42.624  27.319  27.418  1.00  0.00     0.074 A 
ATOM     53  C   UNL A   1      41.798  26.186  27.052  1.00  0.00     0.031 C 
ATOM     54  C   UNL A   1      48.429  25.591  25.294  1.00  0.00     0.029 A 
ATOM     55  C   UNL A   1      48.043  26.874  25.871  1.00  0.00     0.049 A 
ATOM     56  H   UNL A   1      46.148  27.463  26.509  1.00  0.00     0.167 HD
ATOM     57  C   UNL A   1      42.182  28.437  28.044  1.00  0.00     0.037 A 
ATOM     58  C   UNL A   1      48.875  27.910  26.087  1.00  0.00     0.037 A 
ATOM     59  C   UNL A   1      43.014  29.566  28.385  1.00  0.00     0.049 A 
ATOM     60  C   UNL A   1      48.346  29.149  26.751  1.00  0.00     0.074 A 
ATOM     61  C   UNL A   1      42.662  30.724  29.058  1.00  0.00     0.029 A 
ATOM     62  N   UNL A   1      44.360  29.688  28.066  1.00  0.00    -0.354 N 
ATOM     63  N   UNL A   1      47.142  29.393  27.205  1.00  0.00    -0.248 NA
ATOM     64  C   UNL A   1      49.295  30.254  26.942  1.00  0.00     0.031 C 
ATOM     65  C   UNL A   1      43.775  31.569  29.095  1.00  0.00     0.029 A 
ATOM     66  C   UNL A   1      44.840  30.915  28.499  1.00  0.00     0.049 A 
ATOM     67  H   UNL A   1      44.894  29.005  27.601  1.00  0.00     0.167 HD
ATOM     68  C   UNL A   1      47.192  30.666  27.754  1.00  0.00     0.074 A 
ATOM     69  C   UNL A   1      48.552  31.138  27.593  1.00  0.00     0.031 C 
ATOM     70  C   UNL A   1      46.196  31.379  28.336  1.00  0.00     0.037 A 
BRANCH  57  71
ATOM     71  C   UNL A   1      40.732  28.504  28.431  1.00  0.00     0.064 A 
ATOM     72  C   UNL A   1      40.304  28.129  29.713  1.00  0.00     0.173 A 
ATOM     73  C   UNL A   1      39.779  29.053  27.558  1.00  0.00     0.173 A 
ATOM     74  F   UNL A   1      41.174  27.599  30.587  1.00  0.00    -0.203 F 
ATOM     75  C   UNL A   1      38.977  28.290  30.103  1.00  0.00     0.198 A 
ATOM     76  C   UNL A   1      38.458  29.239  27.961  1.00  0.00     0.198 A 
ATOM     77  F   UNL A   1      40.136  29.442  26.325  1.00  0.00    -0.203 F 
ATOM     78  F   UNL A   1      38.588  27.904  31.327  1.00  0.00    -0.200 F 
ATOM     79  C   UNL A   1      38.058  28.855  29.232  1.00  0.00     0.200 A 
ATOM     80  F   UNL A   1      37.576  29.803  27.124  1.00  0.00    -0.200 F 
ATOM     81  F   UNL A   1      36.787  29.032  29.618  1.00  0.00    -0.200 F 
ENDBRANCH  57  71
BRANCH  58  82
ATOM     82  C   UNL A   1      50.306  27.782  25.716  1.00  0.00     0.064 A 
ATOM     83  C   UNL A   1      51.279  27.516  26.689  1.00  0.00     0.173 A 
ATOM     84  C   UNL A   1      50.725  27.887  24.382  1.00  0.00     0.173 A 
ATOM     85  F   UNL A   1      50.929  27.421  27.979  1.00  0.00    -0.203 F 
ATOM     86  C   UNL A   1      52.620  27.368  26.341  1.00  0.00     0.198 A 
ATOM     87  C   UNL A   1      52.061  27.710  24.033  1.00  0.00     0.198 A 
ATOM     88  F   UNL A   1      49.829  28.133  23.415  1.00  0.00    -0.203 F 
ATOM     89  F   UNL A   1      53.536  27.147  27.294  1.00  0.00    -0.200 F 
ATOM     90  C   UNL A   1      53.008  27.456  25.012  1.00  0.00     0.200 A 
ATOM     91  F   UNL A   1      52.429  27.777  22.746  1.00  0.00    -0.200 F 
ATOM     92  F   UNL A   1      54.297  27.301  24.678  1.00  0.00    -0.200 F 
ENDBRANCH  58  82
BRANCH  70  93
ATOM     93  C   UNL A   1      46.533  32.746  28.860  1.00  0.00     0.064 A 
ATOM     94  C   UNL A   1      46.980  32.939  30.175  1.00  0.00     0.173 A 
ATOM     95  C   UNL A   1      46.478  33.867  28.015  1.00  0.00     0.173 A 
ATOM     96  F   UNL A   1      47.037  31.903  31.027  1.00  0.00    -0.203 F 
ATOM     97  C   UNL A   1      47.346  34.203  30.630  1.00  0.00     0.198 A 
ATOM     98  C   UNL A   1      46.875  35.123  28.465  1.00  0.00     0.198 A 
ATOM     99  F   UNL A   1      46.063  33.738  26.746  1.00  0.00    -0.203 F 
ATOM    100  F   UNL A   1      47.737  34.368  31.902  1.00  0.00    -0.200 F 
ATOM    101  C   UNL A   1      47.304  35.291  29.772  1.00  0.00     0.200 A 
ATOM    102  F   UNL A   1      46.849  36.171  27.629  1.00  0.00    -0.200 F 
ATOM    103  F   UNL A   1      47.677  36.504  30.206  1.00  0.00    -0.200 F 
ENDBRANCH  70  93
ENDBRANCH  44  45
ENDBRANCH  37  39
ENDBRANCH  36  37
ENDBRANCH  35  36
ENDBRANCH  34  35
ENDBRANCH  33  34
ENDBRANCH  32  33
ENDBRANCH   1  32
TORSDOF 21
ENDMDL
MODEL 3
REMARK VINA RESULT:     -11.3      3.221      8.501
REMARK SMILES C[C@H]1Oc2ccccc2C=C1/C=C/C(=O)N[C@H](C(=O)OCCOCCOCCOC(=O)c1ccc(-c2c3nc(c(-c4c(F)c(F)c(F)c(F)c4F)c4ccc([nH]4)c(-c4c(F)c(F)c(F)c(F)c4F)c4nc(c(-c5c(F)c(F)c(F)c(F)c5F)c5ccc2[nH]5)C=C4)C=C3)cc1)c1ccccc1
REMARK SMILES IDX 24 1 23 2 22 3 21 4 20 5 18 6 19 7 17 8 16 9 14 10 15 11
REMARK SMILES IDX 13 13 12 14 11 15 1 16 2 17 3 18 4 19 10 20 5 21 9 22 6 23
REMARK SMILES IDX 8 24 7 25 95 26 96 27 100 28 97 29 99 30 98 31 25 32 26 33
REMARK SMILES IDX 27 34 28 35 29 36 30 37 31 38 32 39 33 40 94 41 34 42 93 43
REMARK SMILES IDX 35 44 36 45 37 46 87 47 38 48 92 49 86 50 88 51 39 52 91 53
REMARK SMILES IDX 85 54 84 55 40 57 72 58 52 59 71 60 53 61 56 62 70 63 89 64
REMARK SMILES IDX 54 65 55 66 69 68 90 69 57 70 41 71 42 72 50 73 43 74 44 75
REMARK SMILES IDX 48 76 51 77 45 78 46 79 49 80 47 81 73 82 74 83 82 84 75 85
REMARK SMILES IDX 76 86 80 87 83 88 77 89 78 90 81 91 79 92 58 93 59 94 67 95
REMARK SMILES IDX 60 96 61 97 65 98 68 99 62 100 63 101 66 102 64 103
REMARK H PARENT 16 12 88 56 56 67
REMARK Flexibility Score: inf
ROOT
ATOM      1  C   UNL A   1      35.677  31.402  28.065  1.00  0.00     0.188 C 
ENDROOT
BRANCH   1   2
ATOM      2  O   UNL A   1      34.762  30.742  27.227  1.00  0.00    -0.376 OA
BRANCH   2   3
ATOM      3  C   UNL A   1      33.366  30.802  27.479  1.00  0.00     0.202 C 
BRANCH   3   4
ATOM      4  C   UNL A   1      32.313  29.755  27.055  1.00  0.00     0.261 C 
BRANCH   4   5
ATOM      5  O   UNL A   1      32.731  28.401  26.862  1.00  0.00    -0.461 OA
BRANCH   5   6
ATOM      6  C   UNL A   1      31.908  27.666  26.063  1.00  0.00     0.333 C 
ATOM      7  O   UNL A   1      31.213  28.159  25.176  1.00  0.00    -0.249 OA
BRANCH   6   8
ATOM      8  C   UNL A   1      32.003  26.132  26.316  1.00  0.00     0.223 C 
BRANCH   8   9
ATOM      9  N   UNL A   1      30.717  25.438  26.465  1.00  0.00    -0.335 N 
ATOM     10  C   UNL A   1      30.436  24.155  26.835  1.00  0.00     0.244 C 
ATOM     11  O   UNL A   1      29.317  23.870  27.255  1.00  0.00    -0.270 OA
ATOM     12  H   UNL A   1      29.926  25.989  26.264  1.00  0.00     0.165 HD
BRANCH  10  13
ATOM     13  C   UNL A   1      31.394  23.057  26.563  1.00  0.00     0.071 C 
ATOM     14  C   UNL A   1      31.638  22.483  25.376  1.00  0.00     0.013 C 
BRANCH  14  15
ATOM     15  C   UNL A   1      32.446  21.277  25.192  1.00  0.00    -0.007 C 
ATOM     16  C   UNL A   1      34.087  21.365  27.148  1.00  0.00     0.058 C 
ATOM     17  C   UNL A   1      33.902  21.390  25.627  1.00  0.00     0.200 C 
ATOM     18  O   UNL A   1      34.818  20.446  25.046  1.00  0.00    -0.485 OA
ATOM     19  C   UNL A   1      34.294  19.242  24.673  1.00  0.00     0.127 A 
ATOM     20  C   UNL A   1      31.989  20.139  24.649  1.00  0.00     0.019 C 
ATOM     21  C   UNL A   1      35.215  18.214  24.467  1.00  0.00     0.047 A 
ATOM     22  C   UNL A   1      32.928  19.035  24.463  1.00  0.00     0.017 A 
ATOM     23  C   UNL A   1      34.773  16.957  24.063  1.00  0.00     0.004 A 
ATOM     24  C   UNL A   1      32.494  17.776  24.036  1.00  0.00     0.012 A 
ATOM     25  C   UNL A   1      33.413  16.739  23.845  1.00  0.00     0.001 A 
ENDBRANCH  14  15
ENDBRANCH  10  13
ENDBRANCH   8   9
BRANCH   8  26
ATOM     26  C   UNL A   1      32.962  25.554  25.297  1.00  0.00    -0.014 A 
ATOM     27  C   UNL A   1      34.201  25.062  25.757  1.00  0.00     0.006 A 
ATOM     28  C   UNL A   1      32.707  25.554  23.922  1.00  0.00     0.006 A 
ATOM     29  C   UNL A   1      35.162  24.596  24.868  1.00  0.00     0.000 A 
ATOM     30  C   UNL A   1      33.656  25.045  23.035  1.00  0.00     0.000 A 
ATOM     31  C   UNL A   1      34.883  24.576  23.505  1.00  0.00     0.000 A 
ENDBRANCH   8  26
ENDBRANCH   6   8
ENDBRANCH   5   6
ENDBRANCH   4   5
ENDBRANCH   3   4
ENDBRANCH   2   3
ENDBRANCH   1   2
BRANCH   1  32
ATOM     32  C   UNL A   1      35.662  32.938  27.977  1.00  0.00     0.188 C 
BRANCH  32  33
ATOM     33  O   UNL A   1      35.184  33.693  29.069  1.00  0.00    -0.376 OA
BRANCH  33  34
ATOM     34  C   UNL A   1      34.449  33.040  30.101  1.00  0.00     0.202 C 
BRANCH  34  35
ATOM     35  C   UNL A   1      34.887  32.977  31.583  1.00  0.00     0.261 C 
BRANCH  35  36
ATOM     36  O   UNL A   1      35.536  31.781  32.031  1.00  0.00    -0.460 OA
BRANCH  36  37
ATOM     37  C   UNL A   1      36.560  31.953  32.904  1.00  0.00     0.338 C 
ATOM     38  O   UNL A   1      36.488  32.190  34.098  1.00  0.00    -0.246 OA
BRANCH  37  39
ATOM     39  C   UNL A   1      37.812  31.568  32.220  1.00  0.00     0.060 A 
ATOM     40  C   UNL A   1      38.790  30.837  32.891  1.00  0.00     0.016 A 
ATOM     41  C   UNL A   1      38.013  31.974  30.891  1.00  0.00     0.016 A 
ATOM     42  C   UNL A   1      39.962  30.489  32.217  1.00  0.00     0.010 A 
ATOM     43  C   UNL A   1      39.198  31.651  30.229  1.00  0.00     0.010 A 
ATOM     44  C   UNL A   1      40.168  30.880  30.880  1.00  0.00    -0.014 A 
BRANCH  44  45
ATOM     45  C   UNL A   1      41.294  30.293  30.116  1.00  0.00     0.031 A 
ATOM     46  C   UNL A   1      41.253  28.906  29.556  1.00  0.00     0.074 A 
ATOM     47  C   UNL A   1      42.378  31.068  29.925  1.00  0.00     0.049 A 
ATOM     48  N   UNL A   1      42.108  28.322  28.754  1.00  0.00    -0.248 NA
ATOM     49  C   UNL A   1      40.118  28.060  29.950  1.00  0.00     0.031 C 
ATOM     50  C   UNL A   1      42.543  32.417  30.468  1.00  0.00     0.029 A 
ATOM     51  N   UNL A   1      43.530  30.849  29.215  1.00  0.00    -0.354 N 
ATOM     52  C   UNL A   1      41.601  27.053  28.516  1.00  0.00     0.074 A 
ATOM     53  C   UNL A   1      40.392  26.931  29.306  1.00  0.00     0.031 C 
ATOM     54  C   UNL A   1      43.707  32.922  30.037  1.00  0.00     0.029 A 
ATOM     55  C   UNL A   1      44.379  31.927  29.206  1.00  0.00     0.049 A 
ATOM     56  H   UNL A   1      43.729  29.999  28.756  1.00  0.00     0.167 HD
ATOM     57  C   UNL A   1      42.095  26.095  27.693  1.00  0.00     0.037 A 
ATOM     58  C   UNL A   1      45.559  32.105  28.585  1.00  0.00     0.037 A 
ATOM     59  C   UNL A   1      43.312  26.225  26.928  1.00  0.00     0.049 A 
ATOM     60  C   UNL A   1      46.098  31.011  27.708  1.00  0.00     0.074 A 
ATOM     61  C   UNL A   1      43.868  25.324  26.035  1.00  0.00     0.029 A 
ATOM     62  N   UNL A   1      44.170  27.315  26.974  1.00  0.00    -0.354 N 
ATOM     63  N   UNL A   1      45.563  29.852  27.410  1.00  0.00    -0.248 NA
ATOM     64  C   UNL A   1      47.400  31.253  27.072  1.00  0.00     0.031 C 
ATOM     65  C   UNL A   1      45.088  25.841  25.588  1.00  0.00     0.029 A 
ATOM     66  C   UNL A   1      45.265  27.092  26.153  1.00  0.00     0.049 A 
ATOM     67  H   UNL A   1      44.024  28.126  27.512  1.00  0.00     0.167 HD
ATOM     68  C   UNL A   1      46.449  29.236  26.538  1.00  0.00     0.074 A 
ATOM     69  C   UNL A   1      47.548  30.158  26.338  1.00  0.00     0.031 C 
ATOM     70  C   UNL A   1      46.357  28.014  25.958  1.00  0.00     0.037 A 
BRANCH  57  71
ATOM     71  C   UNL A   1      41.319  24.818  27.549  1.00  0.00     0.064 A 
ATOM     72  C   UNL A   1      40.196  24.741  26.711  1.00  0.00     0.173 A 
ATOM     73  C   UNL A   1      41.762  23.633  28.158  1.00  0.00     0.173 A 
ATOM     74  F   UNL A   1      39.731  25.844  26.104  1.00  0.00    -0.203 F 
ATOM     75  C   UNL A   1      39.540  23.532  26.497  1.00  0.00     0.198 A 
ATOM     76  C   UNL A   1      41.120  22.420  27.920  1.00  0.00     0.198 A 
ATOM     77  F   UNL A   1      42.838  23.645  28.958  1.00  0.00    -0.203 F 
ATOM     78  F   UNL A   1      38.456  23.489  25.709  1.00  0.00    -0.200 F 
ATOM     79  C   UNL A   1      40.009  22.370  27.092  1.00  0.00     0.200 A 
ATOM     80  F   UNL A   1      41.587  21.295  28.481  1.00  0.00    -0.200 F 
ATOM     81  F   UNL A   1      39.391  21.203  26.866  1.00  0.00    -0.200 F 
ENDBRANCH  57  71
BRANCH  58  82
ATOM     82  C   UNL A   1      46.272  33.398  28.734  1.00  0.00     0.064 A 
ATOM     83  C   UNL A   1      47.177  33.602  29.785  1.00  0.00     0.173 A 
ATOM     84  C   UNL A   1      46.093  34.439  27.812  1.00  0.00     0.173 A 
ATOM     85  F   UNL A   1      47.371  32.641  30.699  1.00  0.00    -0.203 F 
ATOM     86  C   UNL A   1      47.868  34.805  29.912  1.00  0.00     0.198 A 
ATOM     87  C   UNL A   1      46.807  35.629  27.924  1.00  0.00     0.198 A 
ATOM     88  F   UNL A   1      45.244  34.287  26.785  1.00  0.00    -0.203 F 
ATOM     89  F   UNL A   1      48.703  34.988  30.945  1.00  0.00    -0.200 F 
ATOM     90  C   UNL A   1      47.690  35.813  28.977  1.00  0.00     0.200 A 
ATOM     91  F   UNL A   1      46.647  36.593  27.008  1.00  0.00    -0.200 F 
ATOM     92  F   UNL A   1      48.367  36.964  29.094  1.00  0.00    -0.200 F 
ENDBRANCH  58  82
BRANCH  70  93
ATOM     93  C   UNL A   1      47.468  27.596  25.036  1.00  0.00     0.064 A 
ATOM     94  C   UNL A   1      47.408  27.842  23.657  1.00  0.00     0.173 A 
ATOM     95  C   UNL A   1      48.635  27.007  25.548  1.00  0.00     0.173 A 
ATOM     96  F   UNL A   1      46.309  28.390  23.116  1.00  0.00    -0.203 F 
ATOM     97  C   UNL A   1      48.470  27.504  22.822  1.00  0.00     0.198 A 
ATOM     98  C   UNL A   1      49.707  26.699  24.714  1.00  0.00     0.198 A 
ATOM     99  F   UNL A   1      48.746  26.755  26.860  1.00  0.00    -0.203 F 
ATOM    100  F   UNL A   1      48.376  27.717  21.502  1.00  0.00    -0.200 F 
ATOM    101  C   UNL A   1      49.622  26.943  23.353  1.00  0.00     0.200 A 
ATOM    102  F   UNL A   1      50.826  26.172  25.232  1.00  0.00    -0.200 F 
ATOM    103  F   UNL A   1      50.651  26.637  22.550  1.00  0.00    -0.200 F 
ENDBRANCH  70  93
ENDBRANCH  44  45
ENDBRANCH  37  39
ENDBRANCH  36  37
ENDBRANCH  35  36
ENDBRANCH  34  35
ENDBRANCH  33  34
ENDBRANCH  32  33
ENDBRANCH   1  32
TORSDOF 21
ENDMDL
