MODEL 1
REMARK VINA RESULT:     -11.1      0.000      0.000
REMARK SMILES CC(C)(C)OC(=O)N1CC[N@H+](Cc2ccc(Cl)nc2)[C@H](C(=O)OCCOCCOCCOC(=O)c2ccc(-c3c4nc(c(-c5c(F)c(F)c(F)c(F)c5F)c5ccc([nH]5)c(-c5c(F)c(F)c(F)c(F)c5F)c5nc(c(-c6c(F)c(F)c(F)c(F)c6F)c6ccc3[nH]6)C=C5)C=C4)cc2)C1
REMARK SMILES IDX 27 1 26 2 25 3 24 4 23 5 21 6 22 7 20 8 8 9 9 10 98 11 10 12
REMARK SMILES IDX 11 13 6 15 7 16 5 17 2 18 1 19 3 20 4 21 12 22 13 23 14 24
REMARK SMILES IDX 19 25 15 26 18 27 16 28 17 29 28 30 29 31 30 32 31 33 32 34
REMARK SMILES IDX 33 35 34 36 35 37 36 38 97 39 37 40 96 41 38 42 39 43 40 44
REMARK SMILES IDX 90 45 41 46 95 47 89 48 91 49 42 50 94 51 88 52 87 53 43 55
REMARK SMILES IDX 75 56 55 57 74 58 56 59 59 60 73 61 92 62 57 63 58 64 72 66
REMARK SMILES IDX 93 67 60 68 44 69 45 70 53 71 46 72 47 73 51 74 54 75 48 76
REMARK SMILES IDX 49 77 52 78 50 79 76 80 77 81 85 82 78 83 79 84 83 85 86 86
REMARK SMILES IDX 80 87 81 88 84 89 82 90 61 91 62 92 70 93 63 94 64 95 68 96
REMARK SMILES IDX 71 97 65 98 66 99 69 100 67 101
REMARK H PARENT 11 14 91 54 59 65
REMARK Flexibility Score: inf
ROOT
ATOM      1  C   UNL A   1      34.586  31.525  27.961  1.00  0.00     0.188 C 
ENDROOT
BRANCH   1   2
ATOM      2  O   UNL A   1      33.293  31.277  27.467  1.00  0.00    -0.376 OA
BRANCH   2   3
ATOM      3  C   UNL A   1      32.977  30.095  26.767  1.00  0.00     0.202 C 
BRANCH   3   4
ATOM      4  C   UNL A   1      33.272  28.670  27.265  1.00  0.00     0.261 C 
BRANCH   4   5
ATOM      5  O   UNL A   1      33.099  27.554  26.382  1.00  0.00    -0.459 OA
BRANCH   5   6
ATOM      6  C   UNL A   1      31.913  26.892  26.489  1.00  0.00     0.366 C 
ATOM      7  O   UNL A   1      31.031  27.217  27.278  1.00  0.00    -0.245 OA
BRANCH   6   8
ATOM      8  C   UNL A   1      31.872  25.629  25.597  1.00  0.00     0.315 C 
ATOM      9  N   UNL A   1      33.198  23.838  24.362  1.00  0.00    -0.296 N 
ATOM     10  C   UNL A   1      32.175  23.831  23.326  1.00  0.00     0.184 C 
ATOM     11  C   UNL A   1      33.230  24.926  25.353  1.00  0.00     0.200 C 
ATOM     12  C   UNL A   1      30.865  24.536  23.695  1.00  0.00     0.285 C 
ATOM     13  N   UNL A   1      31.026  25.820  24.383  1.00  0.00    -0.316 N 
ATOM     14  H   UNL A   1      30.129  26.136  24.751  1.00  0.00     0.349 HD
BRANCH   9  15
ATOM     15  C   UNL A   1      34.314  23.056  24.091  1.00  0.00     0.410 C 
ATOM     16  O   UNL A   1      35.422  23.539  23.899  1.00  0.00    -0.224 OA
BRANCH  15  17
ATOM     17  O   UNL A   1      34.014  21.738  23.958  1.00  0.00    -0.444 OA
BRANCH  17  18
ATOM     18  C   UNL A   1      34.326  20.832  25.055  1.00  0.00     0.106 C 
ATOM     19  C   UNL A   1      35.858  20.855  25.165  1.00  0.00     0.056 C 
ATOM     20  C   UNL A   1      33.865  19.411  24.722  1.00  0.00     0.056 C 
ATOM     21  C   UNL A   1      33.760  21.303  26.408  1.00  0.00     0.056 C 
ENDBRANCH  17  18
ENDBRANCH  15  17
ENDBRANCH   9  15
BRANCH  13  22
ATOM     22  C   UNL A   1      31.258  26.979  23.508  1.00  0.00     0.301 C 
BRANCH  22  23
ATOM     23  C   UNL A   1      30.233  28.082  23.522  1.00  0.00     0.025 A 
ATOM     24  C   UNL A   1      28.913  27.890  23.095  1.00  0.00     0.014 A 
ATOM     25  C   UNL A   1      30.578  29.367  23.913  1.00  0.00     0.122 A 
ATOM     26  C   UNL A   1      28.045  28.980  23.006  1.00  0.00     0.041 A 
ATOM     27  N   UNL A   1      29.775  30.446  23.821  1.00  0.00    -0.244 NA
ATOM     28  C   UNL A   1      28.531  30.226  23.356  1.00  0.00     0.129 A 
ATOM     29  Cl  UNL A   1      27.546  31.625  23.282  1.00  0.00    -0.062 Cl
ENDBRANCH  22  23
ENDBRANCH  13  22
ENDBRANCH   6   8
ENDBRANCH   5   6
ENDBRANCH   4   5
ENDBRANCH   3   4
ENDBRANCH   2   3
ENDBRANCH   1   2
BRANCH   1  30
ATOM     30  C   UNL A   1      34.890  32.819  28.740  1.00  0.00     0.188 C 
BRANCH  30  31
ATOM     31  O   UNL A   1      33.808  33.639  29.148  1.00  0.00    -0.376 OA
BRANCH  31  32
ATOM     32  C   UNL A   1      33.780  34.976  28.653  1.00  0.00     0.202 C 
BRANCH  32  33
ATOM     33  C   UNL A   1      32.965  35.984  29.469  1.00  0.00     0.261 C 
BRANCH  33  34
ATOM     34  O   UNL A   1      32.309  35.319  30.562  1.00  0.00    -0.460 OA
BRANCH  34  35
ATOM     35  C   UNL A   1      32.531  35.861  31.782  1.00  0.00     0.338 C 
ATOM     36  O   UNL A   1      31.920  36.774  32.301  1.00  0.00    -0.246 OA
BRANCH  35  37
ATOM     37  C   UNL A   1      33.658  35.146  32.421  1.00  0.00     0.060 A 
ATOM     38  C   UNL A   1      34.932  35.716  32.424  1.00  0.00     0.016 A 
ATOM     39  C   UNL A   1      33.471  33.860  32.929  1.00  0.00     0.016 A 
ATOM     40  C   UNL A   1      36.017  35.001  32.935  1.00  0.00     0.010 A 
ATOM     41  C   UNL A   1      34.567  33.145  33.438  1.00  0.00     0.010 A 
ATOM     42  C   UNL A   1      35.854  33.705  33.425  1.00  0.00    -0.014 A 
BRANCH  42  43
ATOM     43  C   UNL A   1      37.063  32.891  33.724  1.00  0.00     0.031 A 
ATOM     44  C   UNL A   1      37.723  33.054  35.064  1.00  0.00     0.074 A 
ATOM     45  C   UNL A   1      37.513  31.934  32.891  1.00  0.00     0.049 A 
ATOM     46  N   UNL A   1      38.878  32.604  35.485  1.00  0.00    -0.248 NA
ATOM     47  C   UNL A   1      36.964  33.810  36.071  1.00  0.00     0.031 C 
ATOM     48  C   UNL A   1      36.877  31.523  31.642  1.00  0.00     0.029 A 
ATOM     49  N   UNL A   1      38.620  31.122  32.986  1.00  0.00    -0.354 N 
ATOM     50  C   UNL A   1      39.005  33.067  36.788  1.00  0.00     0.074 A 
ATOM     51  C   UNL A   1      37.803  33.808  37.097  1.00  0.00     0.031 C 
ATOM     52  C   UNL A   1      37.604  30.538  31.086  1.00  0.00     0.029 A 
ATOM     53  C   UNL A   1      38.797  30.303  31.898  1.00  0.00     0.049 A 
ATOM     54  H   UNL A   1      39.226  31.127  33.762  1.00  0.00     0.167 HD
ATOM     55  C   UNL A   1      40.042  32.899  37.643  1.00  0.00     0.037 A 
ATOM     56  C   UNL A   1      39.831  29.500  31.572  1.00  0.00     0.037 A 
ATOM     57  C   UNL A   1      41.222  32.132  37.351  1.00  0.00     0.049 A 
ATOM     58  C   UNL A   1      41.036  29.431  32.479  1.00  0.00     0.074 A 
ATOM     59  C   UNL A   1      42.354  31.957  38.129  1.00  0.00     0.029 A 
ATOM     60  N   UNL A   1      41.413  31.394  36.194  1.00  0.00    -0.354 N 
ATOM     61  N   UNL A   1      41.222  29.976  33.655  1.00  0.00    -0.248 NA
ATOM     62  C   UNL A   1      42.189  28.655  31.993  1.00  0.00     0.031 C 
ATOM     63  C   UNL A   1      43.246  31.140  37.425  1.00  0.00     0.029 A 
ATOM     64  C   UNL A   1      42.651  30.772  36.230  1.00  0.00     0.049 A 
ATOM     65  H   UNL A   1      40.766  31.323  35.455  1.00  0.00     0.167 HD
ATOM     66  C   UNL A   1      42.499  29.598  34.056  1.00  0.00     0.074 A 
ATOM     67  C   UNL A   1      43.037  28.760  33.006  1.00  0.00     0.031 C 
ATOM     68  C   UNL A   1      43.169  29.925  35.188  1.00  0.00     0.037 A 
BRANCH  55  69
ATOM     69  C   UNL A   1      39.974  33.628  38.948  1.00  0.00     0.064 A 
ATOM     70  C   UNL A   1      39.279  33.117  40.053  1.00  0.00     0.173 A 
ATOM     71  C   UNL A   1      40.634  34.857  39.094  1.00  0.00     0.173 A 
ATOM     72  F   UNL A   1      38.617  31.954  39.954  1.00  0.00    -0.203 F 
ATOM     73  C   UNL A   1      39.233  33.821  41.253  1.00  0.00     0.198 A 
ATOM     74  C   UNL A   1      40.606  35.546  40.302  1.00  0.00     0.198 A 
ATOM     75  F   UNL A   1      41.313  35.385  38.064  1.00  0.00    -0.203 F 
ATOM     76  F   UNL A   1      38.530  33.336  42.286  1.00  0.00    -0.200 F 
ATOM     77  C   UNL A   1      39.900  35.031  41.378  1.00  0.00     0.200 A 
ATOM     78  F   UNL A   1      41.261  36.710  40.423  1.00  0.00    -0.200 F 
ATOM     79  F   UNL A   1      39.859  35.705  42.535  1.00  0.00    -0.200 F 
ENDBRANCH  55  69
BRANCH  56  80
ATOM     80  C   UNL A   1      39.827  28.753  30.285  1.00  0.00     0.064 A 
ATOM     81  C   UNL A   1      39.317  27.449  30.204  1.00  0.00     0.173 A 
ATOM     82  C   UNL A   1      40.395  29.301  29.124  1.00  0.00     0.173 A 
ATOM     83  F   UNL A   1      38.796  26.866  31.294  1.00  0.00    -0.203 F 
ATOM     84  C   UNL A   1      39.394  26.717  29.020  1.00  0.00     0.198 A 
ATOM     85  C   UNL A   1      40.442  28.581  27.933  1.00  0.00     0.198 A 
ATOM     86  F   UNL A   1      40.913  30.538  29.150  1.00  0.00    -0.203 F 
ATOM     87  F   UNL A   1      38.952  25.453  28.988  1.00  0.00    -0.200 F 
ATOM     88  C   UNL A   1      39.951  27.285  27.885  1.00  0.00     0.200 A 
ATOM     89  F   UNL A   1      40.977  29.137  26.838  1.00  0.00    -0.200 F 
ATOM     90  F   UNL A   1      40.029  26.579  26.749  1.00  0.00    -0.200 F 
ENDBRANCH  56  80
BRANCH  68  91
ATOM     91  C   UNL A   1      44.543  29.350  35.376  1.00  0.00     0.064 A 
ATOM     92  C   UNL A   1      45.693  30.050  34.983  1.00  0.00     0.173 A 
ATOM     93  C   UNL A   1      44.712  28.107  36.005  1.00  0.00     0.173 A 
ATOM     94  F   UNL A   1      45.583  31.234  34.364  1.00  0.00    -0.203 F 
ATOM     95  C   UNL A   1      46.962  29.519  35.199  1.00  0.00     0.198 A 
ATOM     96  C   UNL A   1      45.984  27.591  36.243  1.00  0.00     0.198 A 
ATOM     97  F   UNL A   1      43.644  27.401  36.405  1.00  0.00    -0.203 F 
ATOM     98  F   UNL A   1      48.047  30.188  34.783  1.00  0.00    -0.200 F 
ATOM     99  C   UNL A   1      47.107  28.294  35.836  1.00  0.00     0.200 A 
ATOM    100  F   UNL A   1      46.121  26.414  36.868  1.00  0.00    -0.200 F 
ATOM    101  F   UNL A   1      48.330  27.790  36.051  1.00  0.00    -0.200 F 
ENDBRANCH  68  91
ENDBRANCH  42  43
ENDBRANCH  35  37
ENDBRANCH  34  35
ENDBRANCH  33  34
ENDBRANCH  32  33
ENDBRANCH  31  32
ENDBRANCH  30  31
ENDBRANCH   1  30
TORSDOF 22
ENDMDL
MODEL 2
REMARK VINA RESULT:     -11.0      4.914      7.113
REMARK SMILES CC(C)(C)OC(=O)N1CC[N@H+](Cc2ccc(Cl)nc2)[C@H](C(=O)OCCOCCOCCOC(=O)c2ccc(-c3c4nc(c(-c5c(F)c(F)c(F)c(F)c5F)c5ccc([nH]5)c(-c5c(F)c(F)c(F)c(F)c5F)c5nc(c(-c6c(F)c(F)c(F)c(F)c6F)c6ccc3[nH]6)C=C5)C=C4)cc2)C1
REMARK SMILES IDX 27 1 26 2 25 3 24 4 23 5 21 6 22 7 20 8 8 9 9 10 98 11 10 12
REMARK SMILES IDX 11 13 6 15 7 16 5 17 2 18 1 19 3 20 4 21 12 22 13 23 14 24
REMARK SMILES IDX 19 25 15 26 18 27 16 28 17 29 28 30 29 31 30 32 31 33 32 34
REMARK SMILES IDX 33 35 34 36 35 37 36 38 97 39 37 40 96 41 38 42 39 43 40 44
REMARK SMILES IDX 90 45 41 46 95 47 89 48 91 49 42 50 94 51 88 52 87 53 43 55
REMARK SMILES IDX 75 56 55 57 74 58 56 59 59 60 73 61 92 62 57 63 58 64 72 66
REMARK SMILES IDX 93 67 60 68 44 69 45 70 53 71 46 72 47 73 51 74 54 75 48 76
REMARK SMILES IDX 49 77 52 78 50 79 76 80 77 81 85 82 78 83 79 84 83 85 86 86
REMARK SMILES IDX 80 87 81 88 84 89 82 90 61 91 62 92 70 93 63 94 64 95 68 96
REMARK SMILES IDX 71 97 65 98 66 99 69 100 67 101
REMARK H PARENT 11 14 91 54 59 65
REMARK Flexibility Score: inf
ROOT
ATOM      1  C   UNL A   1      32.004  32.320  26.968  1.00  0.00     0.188 C 
ENDROOT
BRANCH   1   2
ATOM      2  O   UNL A   1      32.783  31.150  27.032  1.00  0.00    -0.376 OA
BRANCH   2   3
ATOM      3  C   UNL A   1      32.250  29.884  26.714  1.00  0.00     0.202 C 
BRANCH   3   4
ATOM      4  C   UNL A   1      32.755  28.546  27.282  1.00  0.00     0.261 C 
BRANCH   4   5
ATOM      5  O   UNL A   1      32.831  27.393  26.434  1.00  0.00    -0.459 OA
BRANCH   5   6
ATOM      6  C   UNL A   1      31.669  26.700  26.273  1.00  0.00     0.366 C 
ATOM      7  O   UNL A   1      30.665  26.905  26.946  1.00  0.00    -0.245 OA
BRANCH   6   8
ATOM      8  C   UNL A   1      31.815  25.558  25.239  1.00  0.00     0.315 C 
ATOM      9  N   UNL A   1      33.393  24.035  23.942  1.00  0.00    -0.296 N 
ATOM     10  C   UNL A   1      32.473  24.085  22.814  1.00  0.00     0.184 C 
ATOM     11  C   UNL A   1      33.244  24.991  25.051  1.00  0.00     0.200 C 
ATOM     12  C   UNL A   1      31.080  24.643  23.130  1.00  0.00     0.285 C 
ATOM     13  N   UNL A   1      31.070  25.839  23.977  1.00  0.00    -0.316 N 
ATOM     14  H   UNL A   1      30.120  26.041  24.287  1.00  0.00     0.349 HD
BRANCH   9  15
ATOM     15  C   UNL A   1      34.590  23.375  23.694  1.00  0.00     0.410 C 
ATOM     16  O   UNL A   1      34.999  23.162  22.560  1.00  0.00    -0.224 OA
BRANCH  15  17
ATOM     17  O   UNL A   1      35.180  22.910  24.825  1.00  0.00    -0.444 OA
BRANCH  17  18
ATOM     18  C   UNL A   1      34.903  21.545  25.252  1.00  0.00     0.106 C 
ATOM     19  C   UNL A   1      34.575  21.656  26.749  1.00  0.00     0.056 C 
ATOM     20  C   UNL A   1      36.144  20.667  25.071  1.00  0.00     0.056 C 
ATOM     21  C   UNL A   1      33.674  20.932  24.555  1.00  0.00     0.056 C 
ENDBRANCH  17  18
ENDBRANCH  15  17
ENDBRANCH   9  15
BRANCH  13  22
ATOM     22  C   UNL A   1      31.283  27.111  23.272  1.00  0.00     0.301 C 
BRANCH  22  23
ATOM     23  C   UNL A   1      30.210  28.162  23.384  1.00  0.00     0.025 A 
ATOM     24  C   UNL A   1      28.869  27.905  23.073  1.00  0.00     0.014 A 
ATOM     25  C   UNL A   1      30.524  29.460  23.754  1.00  0.00     0.122 A 
ATOM     26  C   UNL A   1      27.944  28.950  23.069  1.00  0.00     0.041 A 
ATOM     27  N   UNL A   1      29.663  30.498  23.741  1.00  0.00    -0.244 NA
ATOM     28  C   UNL A   1      28.396  30.217  23.385  1.00  0.00     0.129 A 
ATOM     29  Cl  UNL A   1      27.340  31.565  23.408  1.00  0.00    -0.062 Cl
ENDBRANCH  22  23
ENDBRANCH  13  22
ENDBRANCH   6   8
ENDBRANCH   5   6
ENDBRANCH   4   5
ENDBRANCH   3   4
ENDBRANCH   2   3
ENDBRANCH   1   2
BRANCH   1  30
ATOM     30  C   UNL A   1      32.489  33.618  27.640  1.00  0.00     0.188 C 
BRANCH  30  31
ATOM     31  O   UNL A   1      33.696  33.591  28.384  1.00  0.00    -0.376 OA
BRANCH  31  32
ATOM     32  C   UNL A   1      34.059  34.781  29.081  1.00  0.00     0.202 C 
BRANCH  32  33
ATOM     33  C   UNL A   1      34.134  34.675  30.607  1.00  0.00     0.261 C 
BRANCH  33  34
ATOM     34  O   UNL A   1      35.337  33.990  30.998  1.00  0.00    -0.460 OA
BRANCH  34  35
ATOM     35  C   UNL A   1      35.156  32.737  31.476  1.00  0.00     0.338 C 
ATOM     36  O   UNL A   1      34.250  32.348  32.186  1.00  0.00    -0.246 OA
BRANCH  35  37
ATOM     37  C   UNL A   1      36.252  31.877  30.980  1.00  0.00     0.060 A 
ATOM     38  C   UNL A   1      37.092  31.227  31.887  1.00  0.00     0.016 A 
ATOM     39  C   UNL A   1      36.512  31.795  29.612  1.00  0.00     0.016 A 
ATOM     40  C   UNL A   1      38.189  30.497  31.425  1.00  0.00     0.010 A 
ATOM     41  C   UNL A   1      37.619  31.062  29.154  1.00  0.00     0.010 A 
ATOM     42  C   UNL A   1      38.479  30.424  30.062  1.00  0.00    -0.014 A 
BRANCH  42  43
ATOM     43  C   UNL A   1      39.784  29.854  29.633  1.00  0.00     0.031 A 
ATOM     44  C   UNL A   1      41.006  30.726  29.708  1.00  0.00     0.074 A 
ATOM     45  C   UNL A   1      39.931  28.558  29.297  1.00  0.00     0.049 A 
ATOM     46  N   UNL A   1      42.204  30.525  29.223  1.00  0.00    -0.248 NA
ATOM     47  C   UNL A   1      40.856  31.987  30.450  1.00  0.00     0.031 C 
ATOM     48  C   UNL A   1      38.886  27.540  29.355  1.00  0.00     0.029 A 
ATOM     49  N   UNL A   1      41.038  27.878  28.847  1.00  0.00    -0.354 N 
ATOM     50  C   UNL A   1      42.936  31.656  29.558  1.00  0.00     0.074 A 
ATOM     51  C   UNL A   1      42.058  32.527  30.307  1.00  0.00     0.031 C 
ATOM     52  C   UNL A   1      39.400  26.364  28.953  1.00  0.00     0.029 A 
ATOM     53  C   UNL A   1      40.788  26.563  28.537  1.00  0.00     0.049 A 
ATOM     54  H   UNL A   1      41.926  28.293  28.758  1.00  0.00     0.167 HD
ATOM     55  C   UNL A   1      44.223  31.947  29.253  1.00  0.00     0.037 A 
ATOM     56  C   UNL A   1      41.573  25.647  27.934  1.00  0.00     0.037 A 
ATOM     57  C   UNL A   1      45.109  31.068  28.540  1.00  0.00     0.049 A 
ATOM     58  C   UNL A   1      42.961  26.034  27.483  1.00  0.00     0.074 A 
ATOM     59  C   UNL A   1      46.411  31.300  28.128  1.00  0.00     0.029 A 
ATOM     60  N   UNL A   1      44.790  29.777  28.151  1.00  0.00    -0.354 N 
ATOM     61  N   UNL A   1      43.615  27.152  27.676  1.00  0.00    -0.248 NA
ATOM     62  C   UNL A   1      43.708  25.036  26.701  1.00  0.00     0.031 C 
ATOM     63  C   UNL A   1      46.867  30.160  27.457  1.00  0.00     0.029 A 
ATOM     64  C   UNL A   1      45.865  29.204  27.490  1.00  0.00     0.049 A 
ATOM     65  H   UNL A   1      43.927  29.333  28.318  1.00  0.00     0.167 HD
ATOM     66  C   UNL A   1      44.849  26.988  27.058  1.00  0.00     0.074 A 
ATOM     67  C   UNL A   1      44.863  25.653  26.500  1.00  0.00     0.031 C 
ATOM     68  C   UNL A   1      45.875  27.868  26.954  1.00  0.00     0.037 A 
BRANCH  55  69
ATOM     69  C   UNL A   1      44.721  33.308  29.624  1.00  0.00     0.064 A 
ATOM     70  C   UNL A   1      44.596  34.408  28.765  1.00  0.00     0.173 A 
ATOM     71  C   UNL A   1      45.321  33.512  30.876  1.00  0.00     0.173 A 
ATOM     72  F   UNL A   1      44.046  34.257  27.551  1.00  0.00    -0.203 F 
ATOM     73  C   UNL A   1      45.073  35.662  29.139  1.00  0.00     0.198 A 
ATOM     74  C   UNL A   1      45.774  34.771  31.256  1.00  0.00     0.198 A 
ATOM     75  F   UNL A   1      45.461  32.489  31.732  1.00  0.00    -0.203 F 
ATOM     76  F   UNL A   1      44.981  36.694  28.289  1.00  0.00    -0.200 F 
ATOM     77  C   UNL A   1      45.655  35.844  30.386  1.00  0.00     0.200 A 
ATOM     78  F   UNL A   1      46.328  34.945  32.465  1.00  0.00    -0.200 F 
ATOM     79  F   UNL A   1      46.109  37.051  30.746  1.00  0.00    -0.200 F 
ENDBRANCH  55  69
BRANCH  56  80
ATOM     80  C   UNL A   1      41.049  24.286  27.635  1.00  0.00     0.064 A 
ATOM     81  C   UNL A   1      41.571  23.151  28.270  1.00  0.00     0.173 A 
ATOM     82  C   UNL A   1      40.062  24.086  26.657  1.00  0.00     0.173 A 
ATOM     83  F   UNL A   1      42.543  23.284  29.186  1.00  0.00    -0.203 F 
ATOM     84  C   UNL A   1      41.142  21.870  27.926  1.00  0.00     0.198 A 
ATOM     85  C   UNL A   1      39.610  22.809  26.337  1.00  0.00     0.198 A 
ATOM     86  F   UNL A   1      39.540  25.137  26.006  1.00  0.00    -0.203 F 
ATOM     87  F   UNL A   1      41.701  20.800  28.507  1.00  0.00    -0.200 F 
ATOM     88  C   UNL A   1      40.158  21.700  26.964  1.00  0.00     0.200 A 
ATOM     89  F   UNL A   1      38.655  22.652  25.410  1.00  0.00    -0.200 F 
ATOM     90  F   UNL A   1      39.750  20.469  26.630  1.00  0.00    -0.200 F 
ENDBRANCH  56  80
BRANCH  68  91
ATOM     91  C   UNL A   1      47.116  27.411  26.244  1.00  0.00     0.064 A 
ATOM     92  C   UNL A   1      48.148  26.745  26.922  1.00  0.00     0.173 A 
ATOM     93  C   UNL A   1      47.250  27.595  24.859  1.00  0.00     0.173 A 
ATOM     94  F   UNL A   1      48.074  26.559  28.248  1.00  0.00    -0.203 F 
ATOM     95  C   UNL A   1      49.276  26.294  26.241  1.00  0.00     0.198 A 
ATOM     96  C   UNL A   1      48.368  27.119  24.178  1.00  0.00     0.198 A 
ATOM     97  F   UNL A   1      46.289  28.220  24.164  1.00  0.00    -0.203 F 
ATOM     98  F   UNL A   1      50.267  25.693  26.914  1.00  0.00    -0.200 F 
ATOM     99  C   UNL A   1      49.382  26.475  24.869  1.00  0.00     0.200 A 
ATOM    100  F   UNL A   1      48.462  27.284  22.851  1.00  0.00    -0.200 F 
ATOM    101  F   UNL A   1      50.464  26.031  24.215  1.00  0.00    -0.200 F 
ENDBRANCH  68  91
ENDBRANCH  42  43
ENDBRANCH  35  37
ENDBRANCH  34  35
ENDBRANCH  33  34
ENDBRANCH  32  33
ENDBRANCH  31  32
ENDBRANCH  30  31
ENDBRANCH   1  30
TORSDOF 22
ENDMDL
MODEL 3
REMARK VINA RESULT:     -10.7      3.556     10.191
REMARK SMILES CC(C)(C)OC(=O)N1CC[N@H+](Cc2ccc(Cl)nc2)[C@H](C(=O)OCCOCCOCCOC(=O)c2ccc(-c3c4nc(c(-c5c(F)c(F)c(F)c(F)c5F)c5ccc([nH]5)c(-c5c(F)c(F)c(F)c(F)c5F)c5nc(c(-c6c(F)c(F)c(F)c(F)c6F)c6ccc3[nH]6)C=C5)C=C4)cc2)C1
REMARK SMILES IDX 27 1 26 2 25 3 24 4 23 5 21 6 22 7 20 8 8 9 9 10 98 11 10 12
REMARK SMILES IDX 11 13 6 15 7 16 5 17 2 18 1 19 3 20 4 21 12 22 13 23 14 24
REMARK SMILES IDX 19 25 15 26 18 27 16 28 17 29 28 30 29 31 30 32 31 33 32 34
REMARK SMILES IDX 33 35 34 36 35 37 36 38 97 39 37 40 96 41 38 42 39 43 40 44
REMARK SMILES IDX 90 45 41 46 95 47 89 48 91 49 42 50 94 51 88 52 87 53 43 55
REMARK SMILES IDX 75 56 55 57 74 58 56 59 59 60 73 61 92 62 57 63 58 64 72 66
REMARK SMILES IDX 93 67 60 68 44 69 45 70 53 71 46 72 47 73 51 74 54 75 48 76
REMARK SMILES IDX 49 77 52 78 50 79 76 80 77 81 85 82 78 83 79 84 83 85 86 86
REMARK SMILES IDX 80 87 81 88 84 89 82 90 61 91 62 92 70 93 63 94 64 95 68 96
REMARK SMILES IDX 71 97 65 98 66 99 69 100 67 101
REMARK H PARENT 11 14 91 54 59 65
REMARK Flexibility Score: inf
ROOT
ATOM      1  C   UNL A   1      40.085  22.189  26.382  1.00  0.00     0.188 C 
ENDROOT
BRANCH   1   2
ATOM      2  O   UNL A   1      39.816  23.536  26.690  1.00  0.00    -0.376 OA
BRANCH   2   3
ATOM      3  C   UNL A   1      38.531  24.092  26.535  1.00  0.00     0.202 C 
BRANCH   3   4
ATOM      4  C   UNL A   1      37.310  23.349  25.967  1.00  0.00     0.261 C 
BRANCH   4   5
ATOM      5  O   UNL A   1      36.161  24.088  25.533  1.00  0.00    -0.459 OA
BRANCH   5   6
ATOM      6  C   UNL A   1      35.591  23.666  24.369  1.00  0.00     0.366 C 
ATOM      7  O   UNL A   1      36.178  22.971  23.547  1.00  0.00    -0.245 OA
BRANCH   6   8
ATOM      8  C   UNL A   1      34.182  24.271  24.163  1.00  0.00     0.315 C 
ATOM      9  N   UNL A   1      32.388  25.860  25.026  1.00  0.00    -0.296 N 
ATOM     10  C   UNL A   1      31.372  24.936  24.539  1.00  0.00     0.184 C 
ATOM     11  C   UNL A   1      33.790  25.422  25.120  1.00  0.00     0.200 C 
ATOM     12  C   UNL A   1      31.877  23.855  23.578  1.00  0.00     0.285 C 
ATOM     13  N   UNL A   1      33.139  23.221  23.968  1.00  0.00    -0.316 N 
ATOM     14  H   UNL A   1      33.497  22.652  23.202  1.00  0.00     0.349 HD
BRANCH   9  15
ATOM     15  C   UNL A   1      31.901  26.936  25.758  1.00  0.00     0.410 C 
ATOM     16  O   UNL A   1      32.169  27.099  26.941  1.00  0.00    -0.224 OA
BRANCH  15  17
ATOM     17  O   UNL A   1      31.029  27.701  25.053  1.00  0.00    -0.444 OA
BRANCH  17  18
ATOM     18  C   UNL A   1      31.494  28.964  24.493  1.00  0.00     0.106 C 
ATOM     19  C   UNL A   1      30.314  29.489  23.663  1.00  0.00     0.056 C 
ATOM     20  C   UNL A   1      32.694  28.729  23.572  1.00  0.00     0.056 C 
ATOM     21  C   UNL A   1      31.810  30.021  25.568  1.00  0.00     0.056 C 
ENDBRANCH  17  18
ENDBRANCH  15  17
ENDBRANCH   9  15
BRANCH  13  22
ATOM     22  C   UNL A   1      33.019  22.124  24.940  1.00  0.00     0.301 C 
BRANCH  22  23
ATOM     23  C   UNL A   1      33.237  20.720  24.441  1.00  0.00     0.025 A 
ATOM     24  C   UNL A   1      32.292  20.043  23.660  1.00  0.00     0.014 A 
ATOM     25  C   UNL A   1      34.377  20.012  24.789  1.00  0.00     0.122 A 
ATOM     26  C   UNL A   1      32.490  18.699  23.339  1.00  0.00     0.041 A 
ATOM     27  N   UNL A   1      34.593  18.709  24.516  1.00  0.00    -0.244 NA
ATOM     28  C   UNL A   1      33.635  18.082  23.807  1.00  0.00     0.129 A 
ATOM     29  Cl  UNL A   1      33.970  16.438  23.468  1.00  0.00    -0.062 Cl
ENDBRANCH  22  23
ENDBRANCH  13  22
ENDBRANCH   6   8
ENDBRANCH   5   6
ENDBRANCH   4   5
ENDBRANCH   3   4
ENDBRANCH   2   3
ENDBRANCH   1   2
BRANCH   1  30
ATOM     30  C   UNL A   1      41.505  21.618  26.555  1.00  0.00     0.188 C 
BRANCH  30  31
ATOM     31  O   UNL A   1      42.386  21.633  25.445  1.00  0.00    -0.376 OA
BRANCH  31  32
ATOM     32  C   UNL A   1      43.764  21.371  25.703  1.00  0.00     0.202 C 
BRANCH  32  33
ATOM     33  C   UNL A   1      44.759  22.421  25.198  1.00  0.00     0.261 C 
BRANCH  33  34
ATOM     34  O   UNL A   1      44.983  23.417  26.211  1.00  0.00    -0.460 OA
BRANCH  34  35
ATOM     35  C   UNL A   1      44.925  24.698  25.782  1.00  0.00     0.338 C 
ATOM     36  O   UNL A   1      45.416  25.155  24.768  1.00  0.00    -0.246 OA
BRANCH  35  37
ATOM     37  C   UNL A   1      44.135  25.489  26.752  1.00  0.00     0.060 A 
ATOM     38  C   UNL A   1      44.496  26.808  27.032  1.00  0.00     0.016 A 
ATOM     39  C   UNL A   1      43.096  24.887  27.462  1.00  0.00     0.016 A 
ATOM     40  C   UNL A   1      43.817  27.524  28.020  1.00  0.00     0.010 A 
ATOM     41  C   UNL A   1      42.419  25.611  28.456  1.00  0.00     0.010 A 
ATOM     42  C   UNL A   1      42.791  26.931  28.757  1.00  0.00    -0.014 A 
BRANCH  42  43
ATOM     43  C   UNL A   1      42.268  27.635  29.959  1.00  0.00     0.031 A 
ATOM     44  C   UNL A   1      40.976  28.394  29.840  1.00  0.00     0.074 A 
ATOM     45  C   UNL A   1      42.843  27.518  31.171  1.00  0.00     0.049 A 
ATOM     46  N   UNL A   1      40.421  29.230  30.678  1.00  0.00    -0.248 NA
ATOM     47  C   UNL A   1      40.198  28.157  28.614  1.00  0.00     0.031 C 
ATOM     48  C   UNL A   1      43.988  26.672  31.493  1.00  0.00     0.029 A 
ATOM     49  N   UNL A   1      42.522  28.118  32.367  1.00  0.00    -0.354 N 
ATOM     50  C   UNL A   1      39.254  29.658  30.059  1.00  0.00     0.074 A 
ATOM     51  C   UNL A   1      39.168  28.971  28.789  1.00  0.00     0.031 C 
ATOM     52  C   UNL A   1      44.277  26.807  32.799  1.00  0.00     0.029 A 
ATOM     53  C   UNL A   1      43.387  27.808  33.387  1.00  0.00     0.049 A 
ATOM     54  H   UNL A   1      41.746  28.713  32.480  1.00  0.00     0.167 HD
ATOM     55  C   UNL A   1      38.344  30.555  30.507  1.00  0.00     0.037 A 
ATOM     56  C   UNL A   1      43.482  28.315  34.633  1.00  0.00     0.037 A 
ATOM     57  C   UNL A   1      38.407  31.212  31.784  1.00  0.00     0.049 A 
ATOM     58  C   UNL A   1      42.538  29.412  35.065  1.00  0.00     0.074 A 
ATOM     59  C   UNL A   1      37.568  32.184  32.300  1.00  0.00     0.029 A 
ATOM     60  N   UNL A   1      39.358  30.946  32.757  1.00  0.00    -0.354 N 
ATOM     61  N   UNL A   1      41.511  29.921  34.432  1.00  0.00    -0.248 NA
ATOM     62  C   UNL A   1      42.789  30.026  36.380  1.00  0.00     0.031 C 
ATOM     63  C   UNL A   1      38.031  32.532  33.573  1.00  0.00     0.029 A 
ATOM     64  C   UNL A   1      39.133  31.746  33.866  1.00  0.00     0.049 A 
ATOM     65  H   UNL A   1      40.084  30.288  32.672  1.00  0.00     0.167 HD
ATOM     66  C   UNL A   1      40.986  30.897  35.271  1.00  0.00     0.074 A 
ATOM     67  C   UNL A   1      41.796  30.897  36.471  1.00  0.00     0.031 C 
ATOM     68  C   UNL A   1      39.934  31.726  35.063  1.00  0.00     0.037 A 
BRANCH  55  69
ATOM     69  C   UNL A   1      37.243  30.936  29.567  1.00  0.00     0.064 A 
ATOM     70  C   UNL A   1      37.213  32.177  28.916  1.00  0.00     0.173 A 
ATOM     71  C   UNL A   1      36.206  30.028  29.306  1.00  0.00     0.173 A 
ATOM     72  F   UNL A   1      38.172  33.084  29.149  1.00  0.00    -0.203 F 
ATOM     73  C   UNL A   1      36.172  32.501  28.050  1.00  0.00     0.198 A 
ATOM     74  C   UNL A   1      35.181  30.346  28.422  1.00  0.00     0.198 A 
ATOM     75  F   UNL A   1      36.193  28.827  29.906  1.00  0.00    -0.203 F 
ATOM     76  F   UNL A   1      36.138  33.707  27.467  1.00  0.00    -0.200 F 
ATOM     77  C   UNL A   1      35.161  31.584  27.799  1.00  0.00     0.200 A 
ATOM     78  F   UNL A   1      34.210  29.454  28.174  1.00  0.00    -0.200 F 
ATOM     79  F   UNL A   1      34.163  31.897  26.962  1.00  0.00    -0.200 F 
ENDBRANCH  55  69
BRANCH  56  80
ATOM     80  C   UNL A   1      44.564  27.864  35.550  1.00  0.00     0.064 A 
ATOM     81  C   UNL A   1      45.832  28.463  35.527  1.00  0.00     0.173 A 
ATOM     82  C   UNL A   1      44.374  26.781  36.421  1.00  0.00     0.173 A 
ATOM     83  F   UNL A   1      46.077  29.480  34.686  1.00  0.00    -0.203 F 
ATOM     84  C   UNL A   1      46.871  27.983  36.323  1.00  0.00     0.198 A 
ATOM     85  C   UNL A   1      45.403  26.322  37.240  1.00  0.00     0.198 A 
ATOM     86  F   UNL A   1      43.186  26.160  36.472  1.00  0.00    -0.203 F 
ATOM     87  F   UNL A   1      48.088  28.537  36.237  1.00  0.00    -0.200 F 
ATOM     88  C   UNL A   1      46.654  26.918  37.183  1.00  0.00     0.200 A 
ATOM     89  F   UNL A   1      45.187  25.295  38.073  1.00  0.00    -0.200 F 
ATOM     90  F   UNL A   1      47.655  26.453  37.943  1.00  0.00    -0.200 F 
ENDBRANCH  56  80
BRANCH  68  91
ATOM     91  C   UNL A   1      39.567  32.678  36.163  1.00  0.00     0.064 A 
ATOM     92  C   UNL A   1      38.579  32.364  37.108  1.00  0.00     0.173 A 
ATOM     93  C   UNL A   1      40.250  33.895  36.305  1.00  0.00     0.173 A 
ATOM     94  F   UNL A   1      37.887  31.220  37.005  1.00  0.00    -0.203 F 
ATOM     95  C   UNL A   1      38.277  33.242  38.145  1.00  0.00     0.198 A 
ATOM     96  C   UNL A   1      39.963  34.759  37.359  1.00  0.00     0.198 A 
ATOM     97  F   UNL A   1      41.208  34.240  35.432  1.00  0.00    -0.203 F 
ATOM     98  F   UNL A   1      37.303  32.940  39.015  1.00  0.00    -0.200 F 
ATOM     99  C   UNL A   1      38.974  34.435  38.275  1.00  0.00     0.200 A 
ATOM    100  F   UNL A   1      40.646  35.905  37.490  1.00  0.00    -0.200 F 
ATOM    101  F   UNL A   1      38.688  35.274  39.280  1.00  0.00    -0.200 F 
ENDBRANCH  68  91
ENDBRANCH  42  43
ENDBRANCH  35  37
ENDBRANCH  34  35
ENDBRANCH  33  34
ENDBRANCH  32  33
ENDBRANCH  31  32
ENDBRANCH  30  31
ENDBRANCH   1  30
TORSDOF 22
ENDMDL
