MODEL 1
REMARK VINA RESULT:     -12.0      0.000      0.000
REMARK SMILES Cn1ccc(S(=O)(=O)N2[C@@H](C(=O)OCCOCCOCCOC(=O)c3ccc(-c4c5nc(c(-c6c(F)c(F)c(F)c(F)c6F)c6ccc([nH]6)c(-c6c(F)c(F)c(F)c(F)c6F)c6nc(c(-c7c(F)c(F)c(F)c(F)c7F)c7ccc4[nH]7)C=C6)C=C5)cc3)C[C@H]3CCCC[C@H]32)c1
REMARK SMILES IDX 17 1 16 2 15 3 14 4 13 5 11 6 12 7 10 8 9 9 94 10 88 11
REMARK SMILES IDX 89 12 93 13 90 14 92 15 91 16 6 17 7 18 8 19 5 20 1 21 2 22
REMARK SMILES IDX 3 23 95 24 4 25 18 26 19 27 20 28 21 29 22 30 23 31 24 32
REMARK SMILES IDX 25 33 26 34 87 35 27 36 86 37 28 38 29 39 30 40 80 41 31 42
REMARK SMILES IDX 85 43 79 44 81 45 32 46 84 47 78 48 77 49 33 51 65 52 45 53
REMARK SMILES IDX 64 54 46 55 49 56 63 57 82 58 47 59 48 60 62 62 83 63 50 64
REMARK SMILES IDX 34 65 35 66 43 67 36 68 37 69 41 70 44 71 38 72 39 73 42 74
REMARK SMILES IDX 40 75 66 76 67 77 75 78 68 79 69 80 73 81 76 82 70 83 71 84
REMARK SMILES IDX 74 85 72 86 51 87 52 88 60 89 53 90 54 91 58 92 61 93 55 94
REMARK SMILES IDX 56 95 59 96 57 97
REMARK H PARENT 81 50 49 61
REMARK Flexibility Score: inf
ROOT
ATOM      1  C   UNL A   1      34.319  22.340  23.515  1.00  0.00     0.188 C 
ENDROOT
BRANCH   1   2
ATOM      2  O   UNL A   1      33.250  22.374  22.573  1.00  0.00    -0.376 OA
BRANCH   2   3
ATOM      3  C   UNL A   1      33.047  23.564  21.822  1.00  0.00     0.202 C 
BRANCH   3   4
ATOM      4  C   UNL A   1      33.119  24.861  22.627  1.00  0.00     0.261 C 
BRANCH   4   5
ATOM      5  O   UNL A   1      33.670  25.951  21.865  1.00  0.00    -0.462 OA
BRANCH   5   6
ATOM      6  C   UNL A   1      33.676  27.163  22.466  1.00  0.00     0.324 C 
ATOM      7  O   UNL A   1      34.249  28.160  22.032  1.00  0.00    -0.250 OA
BRANCH   6   8
ATOM      8  C   UNL A   1      32.835  27.224  23.717  1.00  0.00     0.183 C 
ATOM      9  N   UNL A   1      31.625  28.091  23.792  1.00  0.00    -0.180 NA
ATOM     10  C   UNL A   1      31.456  28.590  25.188  1.00  0.00     0.077 C 
ATOM     11  C   UNL A   1      33.658  27.683  24.928  1.00  0.00     0.037 C 
ATOM     12  C   UNL A   1      32.571  27.887  25.980  1.00  0.00     0.009 C 
ATOM     13  C   UNL A   1      31.578  30.118  25.167  1.00  0.00     0.020 C 
ATOM     14  C   UNL A   1      33.011  28.588  27.262  1.00  0.00     0.005 C 
ATOM     15  C   UNL A   1      31.820  30.697  26.554  1.00  0.00     0.002 C 
ATOM     16  C   UNL A   1      33.078  30.105  27.167  1.00  0.00     0.000 C 
BRANCH   9  17
ATOM     17  S   UNL A   1      30.249  27.558  22.959  1.00  0.00     0.245 S 
ATOM     18  O   UNL A   1      29.459  26.759  23.866  1.00  0.00    -0.207 OA
ATOM     19  O   UNL A   1      30.643  27.085  21.651  1.00  0.00    -0.207 OA
BRANCH  17  20
ATOM     20  C   UNL A   1      29.230  28.927  22.640  1.00  0.00     0.100 A 
ATOM     21  C   UNL A   1      28.635  32.425  21.991  1.00  0.00     0.149 C 
ATOM     22  N   UNL A   1      28.559  31.002  22.236  1.00  0.00    -0.356 N 
ATOM     23  C   UNL A   1      27.505  30.360  22.831  1.00  0.00     0.086 A 
ATOM     24  C   UNL A   1      29.575  30.109  22.013  1.00  0.00     0.106 A 
ATOM     25  C   UNL A   1      27.893  29.064  23.095  1.00  0.00     0.041 A 
ENDBRANCH  17  20
ENDBRANCH   9  17
ENDBRANCH   6   8
ENDBRANCH   5   6
ENDBRANCH   4   5
ENDBRANCH   3   4
ENDBRANCH   2   3
ENDBRANCH   1   2
BRANCH   1  26
ATOM     26  C   UNL A   1      34.058  21.754  24.910  1.00  0.00     0.188 C 
BRANCH  26  27
ATOM     27  O   UNL A   1      34.468  20.391  24.983  1.00  0.00    -0.376 OA
BRANCH  27  28
ATOM     28  C   UNL A   1      35.880  20.208  24.972  1.00  0.00     0.202 C 
BRANCH  28  29
ATOM     29  C   UNL A   1      36.557  21.336  25.753  1.00  0.00     0.261 C 
BRANCH  29  30
ATOM     30  O   UNL A   1      37.816  21.754  25.189  1.00  0.00    -0.460 OA
BRANCH  30  31
ATOM     31  C   UNL A   1      38.906  21.430  25.913  1.00  0.00     0.338 C 
ATOM     32  O   UNL A   1      39.484  20.358  25.946  1.00  0.00    -0.246 OA
BRANCH  31  33
ATOM     33  C   UNL A   1      39.415  22.634  26.586  1.00  0.00     0.060 A 
ATOM     34  C   UNL A   1      38.940  23.875  26.159  1.00  0.00     0.016 A 
ATOM     35  C   UNL A   1      40.435  22.555  27.532  1.00  0.00     0.016 A 
ATOM     36  C   UNL A   1      39.543  25.050  26.597  1.00  0.00     0.010 A 
ATOM     37  C   UNL A   1      41.022  23.736  27.998  1.00  0.00     0.010 A 
ATOM     38  C   UNL A   1      40.612  24.988  27.496  1.00  0.00    -0.014 A 
BRANCH  38  39
ATOM     39  C   UNL A   1      41.404  26.208  27.791  1.00  0.00     0.031 A 
ATOM     40  C   UNL A   1      40.779  27.297  28.620  1.00  0.00     0.074 A 
ATOM     41  C   UNL A   1      42.676  26.335  27.373  1.00  0.00     0.049 A 
ATOM     42  N   UNL A   1      41.211  28.507  28.869  1.00  0.00    -0.248 NA
ATOM     43  C   UNL A   1      39.493  26.974  29.258  1.00  0.00     0.031 C 
ATOM     44  C   UNL A   1      43.434  25.320  26.642  1.00  0.00     0.029 A 
ATOM     45  N   UNL A   1      43.556  27.381  27.506  1.00  0.00    -0.354 N 
ATOM     46  C   UNL A   1      40.230  29.104  29.651  1.00  0.00     0.074 A 
ATOM     47  C   UNL A   1      39.182  28.123  29.840  1.00  0.00     0.031 C 
ATOM     48  C   UNL A   1      44.667  25.794  26.391  1.00  0.00     0.029 A 
ATOM     49  C   UNL A   1      44.763  27.164  26.889  1.00  0.00     0.049 A 
ATOM     50  H   UNL A   1      43.342  28.207  27.996  1.00  0.00     0.167 HD
ATOM     51  C   UNL A   1      40.205  30.356  30.162  1.00  0.00     0.037 A 
ATOM     52  C   UNL A   1      45.809  27.994  26.709  1.00  0.00     0.037 A 
ATOM     53  C   UNL A   1      41.262  31.319  30.004  1.00  0.00     0.049 A 
ATOM     54  C   UNL A   1      45.733  29.404  27.235  1.00  0.00     0.074 A 
ATOM     55  C   UNL A   1      41.322  32.623  30.461  1.00  0.00     0.029 A 
ATOM     56  N   UNL A   1      42.456  31.071  29.344  1.00  0.00    -0.354 N 
ATOM     57  N   UNL A   1      44.774  29.986  27.912  1.00  0.00    -0.248 NA
ATOM     58  C   UNL A   1      46.882  30.278  26.953  1.00  0.00     0.031 C 
ATOM     59  C   UNL A   1      42.543  33.174  30.055  1.00  0.00     0.029 A 
ATOM     60  C   UNL A   1      43.258  32.200  29.379  1.00  0.00     0.049 A 
ATOM     61  H   UNL A   1      42.699  30.219  28.914  1.00  0.00     0.167 HD
ATOM     62  C   UNL A   1      45.209  31.283  28.155  1.00  0.00     0.074 A 
ATOM     63  C   UNL A   1      46.527  31.398  27.565  1.00  0.00     0.031 C 
ATOM     64  C   UNL A   1      44.573  32.289  28.801  1.00  0.00     0.037 A 
BRANCH  51  65
ATOM     65  C   UNL A   1      38.974  30.771  30.909  1.00  0.00     0.064 A 
ATOM     66  C   UNL A   1      38.867  30.623  32.299  1.00  0.00     0.173 A 
ATOM     67  C   UNL A   1      37.893  31.343  30.223  1.00  0.00     0.173 A 
ATOM     68  F   UNL A   1      39.867  30.062  32.997  1.00  0.00    -0.203 F 
ATOM     69  C   UNL A   1      37.713  31.014  32.973  1.00  0.00     0.198 A 
ATOM     70  C   UNL A   1      36.750  31.755  30.902  1.00  0.00     0.198 A 
ATOM     71  F   UNL A   1      37.947  31.506  28.892  1.00  0.00    -0.203 F 
ATOM     72  F   UNL A   1      37.614  30.824  34.296  1.00  0.00    -0.200 F 
ATOM     73  C   UNL A   1      36.658  31.586  32.275  1.00  0.00     0.200 A 
ATOM     74  F   UNL A   1      35.736  32.314  30.227  1.00  0.00    -0.200 F 
ATOM     75  F   UNL A   1      35.550  31.964  32.925  1.00  0.00    -0.200 F 
ENDBRANCH  51  65
BRANCH  52  76
ATOM     76  C   UNL A   1      47.008  27.531  25.963  1.00  0.00     0.064 A 
ATOM     77  C   UNL A   1      48.100  26.964  26.634  1.00  0.00     0.173 A 
ATOM     78  C   UNL A   1      47.097  27.672  24.571  1.00  0.00     0.173 A 
ATOM     79  F   UNL A   1      48.073  26.836  27.968  1.00  0.00    -0.203 F 
ATOM     80  C   UNL A   1      49.242  26.571  25.941  1.00  0.00     0.198 A 
ATOM     81  C   UNL A   1      48.229  27.252  23.876  1.00  0.00     0.198 A 
ATOM     82  F   UNL A   1      46.081  28.215  23.884  1.00  0.00    -0.203 F 
ATOM     83  F   UNL A   1      50.292  26.074  26.611  1.00  0.00    -0.200 F 
ATOM     84  C   UNL A   1      49.304  26.710  24.562  1.00  0.00     0.200 A 
ATOM     85  F   UNL A   1      48.280  27.382  22.543  1.00  0.00    -0.200 F 
ATOM     86  F   UNL A   1      50.404  26.331  23.897  1.00  0.00    -0.200 F 
ENDBRANCH  52  76
BRANCH  64  87
ATOM     87  C   UNL A   1      45.309  33.588  28.943  1.00  0.00     0.064 A 
ATOM     88  C   UNL A   1      46.174  33.829  30.019  1.00  0.00     0.173 A 
ATOM     89  C   UNL A   1      45.176  34.587  27.965  1.00  0.00     0.173 A 
ATOM     90  F   UNL A   1      46.321  32.911  30.986  1.00  0.00    -0.203 F 
ATOM     91  C   UNL A   1      46.863  35.035  30.125  1.00  0.00     0.198 A 
ATOM     92  C   UNL A   1      45.885  35.781  28.062  1.00  0.00     0.198 A 
ATOM     93  F   UNL A   1      44.366  34.399  26.913  1.00  0.00    -0.203 F 
ATOM     94  F   UNL A   1      47.654  35.261  31.183  1.00  0.00    -0.200 F 
ATOM     95  C   UNL A   1      46.723  36.006  29.144  1.00  0.00     0.200 A 
ATOM     96  F   UNL A   1      45.757  36.713  27.109  1.00  0.00    -0.200 F 
ATOM     97  F   UNL A   1      47.391  37.163  29.245  1.00  0.00    -0.200 F 
ENDBRANCH  64  87
ENDBRANCH  38  39
ENDBRANCH  31  33
ENDBRANCH  30  31
ENDBRANCH  29  30
ENDBRANCH  28  29
ENDBRANCH  27  28
ENDBRANCH  26  27
ENDBRANCH   1  26
TORSDOF 19
ENDMDL
MODEL 2
REMARK VINA RESULT:     -11.8      1.340      3.102
REMARK SMILES Cn1ccc(S(=O)(=O)N2[C@@H](C(=O)OCCOCCOCCOC(=O)c3ccc(-c4c5nc(c(-c6c(F)c(F)c(F)c(F)c6F)c6ccc([nH]6)c(-c6c(F)c(F)c(F)c(F)c6F)c6nc(c(-c7c(F)c(F)c(F)c(F)c7F)c7ccc4[nH]7)C=C6)C=C5)cc3)C[C@H]3CCCC[C@H]32)c1
REMARK SMILES IDX 17 1 16 2 15 3 14 4 13 5 11 6 12 7 10 8 9 9 94 10 88 11
REMARK SMILES IDX 89 12 93 13 90 14 92 15 91 16 6 17 7 18 8 19 5 20 1 21 2 22
REMARK SMILES IDX 3 23 95 24 4 25 18 26 19 27 20 28 21 29 22 30 23 31 24 32
REMARK SMILES IDX 25 33 26 34 87 35 27 36 86 37 28 38 29 39 30 40 80 41 31 42
REMARK SMILES IDX 85 43 79 44 81 45 32 46 84 47 78 48 77 49 33 51 65 52 45 53
REMARK SMILES IDX 64 54 46 55 49 56 63 57 82 58 47 59 48 60 62 62 83 63 50 64
REMARK SMILES IDX 34 65 35 66 43 67 36 68 37 69 41 70 44 71 38 72 39 73 42 74
REMARK SMILES IDX 40 75 66 76 67 77 75 78 68 79 69 80 73 81 76 82 70 83 71 84
REMARK SMILES IDX 74 85 72 86 51 87 52 88 60 89 53 90 54 91 58 92 61 93 55 94
REMARK SMILES IDX 56 95 59 96 57 97
REMARK H PARENT 81 50 49 61
REMARK Flexibility Score: inf
ROOT
ATOM      1  C   UNL A   1      33.229  22.920  26.260  1.00  0.00     0.188 C 
ENDROOT
BRANCH   1   2
ATOM      2  O   UNL A   1      32.217  22.189  25.572  1.00  0.00    -0.376 OA
BRANCH   2   3
ATOM      3  C   UNL A   1      30.858  22.546  25.789  1.00  0.00     0.202 C 
BRANCH   3   4
ATOM      4  C   UNL A   1      30.635  23.959  26.327  1.00  0.00     0.261 C 
BRANCH   4   5
ATOM      5  O   UNL A   1      30.238  24.883  25.297  1.00  0.00    -0.462 OA
BRANCH   5   6
ATOM      6  C   UNL A   1      30.446  26.196  25.553  1.00  0.00     0.324 C 
ATOM      7  O   UNL A   1      30.663  26.669  26.665  1.00  0.00    -0.250 OA
BRANCH   6   8
ATOM      8  C   UNL A   1      30.467  27.058  24.315  1.00  0.00     0.183 C 
ATOM      9  N   UNL A   1      31.149  28.383  24.309  1.00  0.00    -0.180 NA
ATOM     10  C   UNL A   1      30.424  29.312  23.393  1.00  0.00     0.077 C 
ATOM     11  C   UNL A   1      29.049  27.402  23.844  1.00  0.00     0.037 C 
ATOM     12  C   UNL A   1      29.327  28.440  22.760  1.00  0.00     0.009 C 
ATOM     13  C   UNL A   1      29.884  30.480  24.227  1.00  0.00     0.020 C 
ATOM     14  C   UNL A   1      28.109  29.193  22.232  1.00  0.00     0.005 C 
ATOM     15  C   UNL A   1      28.808  31.266  23.491  1.00  0.00     0.002 C 
ATOM     16  C   UNL A   1      27.654  30.356  23.103  1.00  0.00     0.000 C 
BRANCH   9  17
ATOM     17  S   UNL A   1      32.843  28.373  24.264  1.00  0.00     0.245 S 
ATOM     18  O   UNL A   1      33.269  29.327  23.266  1.00  0.00    -0.207 OA
ATOM     19  O   UNL A   1      33.307  27.004  24.275  1.00  0.00    -0.207 OA
BRANCH  17  20
ATOM     20  C   UNL A   1      33.441  29.049  25.746  1.00  0.00     0.100 A 
ATOM     21  C   UNL A   1      34.294  31.792  27.928  1.00  0.00     0.149 C 
ATOM     22  N   UNL A   1      34.060  30.516  27.291  1.00  0.00    -0.356 N 
ATOM     23  C   UNL A   1      34.782  29.375  27.525  1.00  0.00     0.086 A 
ATOM     24  C   UNL A   1      33.160  30.292  26.282  1.00  0.00     0.106 A 
ATOM     25  C   UNL A   1      34.418  28.442  26.576  1.00  0.00     0.041 A 
ENDBRANCH  17  20
ENDBRANCH   9  17
ENDBRANCH   6   8
ENDBRANCH   5   6
ENDBRANCH   4   5
ENDBRANCH   3   4
ENDBRANCH   2   3
ENDBRANCH   1   2
BRANCH   1  26
ATOM     26  C   UNL A   1      34.555  22.218  26.590  1.00  0.00     0.188 C 
BRANCH  26  27
ATOM     27  O   UNL A   1      35.364  22.071  25.426  1.00  0.00    -0.376 OA
BRANCH  27  28
ATOM     28  C   UNL A   1      35.749  20.727  25.152  1.00  0.00     0.202 C 
BRANCH  28  29
ATOM     29  C   UNL A   1      37.271  20.641  25.007  1.00  0.00     0.261 C 
BRANCH  29  30
ATOM     30  O   UNL A   1      37.968  21.772  25.565  1.00  0.00    -0.460 OA
BRANCH  30  31
ATOM     31  C   UNL A   1      39.146  21.488  26.155  1.00  0.00     0.338 C 
ATOM     32  O   UNL A   1      39.774  20.446  26.094  1.00  0.00    -0.246 OA
BRANCH  31  33
ATOM     33  C   UNL A   1      39.668  22.701  26.803  1.00  0.00     0.060 A 
ATOM     34  C   UNL A   1      39.122  23.930  26.431  1.00  0.00     0.016 A 
ATOM     35  C   UNL A   1      40.762  22.644  27.664  1.00  0.00     0.016 A 
ATOM     36  C   UNL A   1      39.720  25.119  26.837  1.00  0.00     0.010 A 
ATOM     37  C   UNL A   1      41.346  23.839  28.098  1.00  0.00     0.010 A 
ATOM     38  C   UNL A   1      40.859  25.081  27.647  1.00  0.00    -0.014 A 
BRANCH  38  39
ATOM     39  C   UNL A   1      41.633  26.324  27.895  1.00  0.00     0.031 A 
ATOM     40  C   UNL A   1      41.002  27.423  28.706  1.00  0.00     0.074 A 
ATOM     41  C   UNL A   1      42.895  26.462  27.452  1.00  0.00     0.049 A 
ATOM     42  N   UNL A   1      41.415  28.647  28.915  1.00  0.00    -0.248 NA
ATOM     43  C   UNL A   1      39.733  27.094  29.375  1.00  0.00     0.031 C 
ATOM     44  C   UNL A   1      43.659  25.442  26.736  1.00  0.00     0.029 A 
ATOM     45  N   UNL A   1      43.757  27.528  27.542  1.00  0.00    -0.354 N 
ATOM     46  C   UNL A   1      40.436  29.247  29.697  1.00  0.00     0.074 A 
ATOM     47  C   UNL A   1      39.410  28.253  29.931  1.00  0.00     0.031 C 
ATOM     48  C   UNL A   1      44.878  25.931  26.451  1.00  0.00     0.029 A 
ATOM     49  C   UNL A   1      44.957  27.316  26.910  1.00  0.00     0.049 A 
ATOM     50  H   UNL A   1      43.536  28.362  28.013  1.00  0.00     0.167 HD
ATOM     51  C   UNL A   1      40.397  30.512  30.175  1.00  0.00     0.037 A 
ATOM     52  C   UNL A   1      45.985  28.160  26.690  1.00  0.00     0.037 A 
ATOM     53  C   UNL A   1      41.433  31.489  29.973  1.00  0.00     0.049 A 
ATOM     54  C   UNL A   1      45.891  29.582  27.178  1.00  0.00     0.074 A 
ATOM     55  C   UNL A   1      41.476  32.807  30.394  1.00  0.00     0.029 A 
ATOM     56  N   UNL A   1      42.620  31.245  29.299  1.00  0.00    -0.354 N 
ATOM     57  N   UNL A   1      44.933  30.164  27.857  1.00  0.00    -0.248 NA
ATOM     58  C   UNL A   1      47.018  30.468  26.854  1.00  0.00     0.031 C 
ATOM     59  C   UNL A   1      42.679  33.368  29.952  1.00  0.00     0.029 A 
ATOM     60  C   UNL A   1      43.401  32.389  29.290  1.00  0.00     0.049 A 
ATOM     61  H   UNL A   1      42.871  30.386  28.888  1.00  0.00     0.167 HD
ATOM     62  C   UNL A   1      45.348  31.475  28.057  1.00  0.00     0.074 A 
ATOM     63  C   UNL A   1      46.653  31.598  27.441  1.00  0.00     0.031 C 
ATOM     64  C   UNL A   1      44.704  32.487  28.687  1.00  0.00     0.037 A 
BRANCH  51  65
ATOM     65  C   UNL A   1      39.171  30.924  30.932  1.00  0.00     0.064 A 
ATOM     66  C   UNL A   1      38.099  31.575  30.307  1.00  0.00     0.173 A 
ATOM     67  C   UNL A   1      39.062  30.642  32.302  1.00  0.00     0.173 A 
ATOM     68  F   UNL A   1      38.164  31.884  29.002  1.00  0.00    -0.203 F 
ATOM     69  C   UNL A   1      36.969  31.949  31.031  1.00  0.00     0.198 A 
ATOM     70  C   UNL A   1      37.922  30.996  33.018  1.00  0.00     0.198 A 
ATOM     71  F   UNL A   1      40.062  30.021  32.946  1.00  0.00    -0.203 F 
ATOM     72  F   UNL A   1      35.974  32.609  30.424  1.00  0.00    -0.200 F 
ATOM     73  C   UNL A   1      36.879  31.654  32.384  1.00  0.00     0.200 A 
ATOM     74  F   UNL A   1      37.834  30.702  34.323  1.00  0.00    -0.200 F 
ATOM     75  F   UNL A   1      35.791  32.012  33.078  1.00  0.00    -0.200 F 
ENDBRANCH  51  65
BRANCH  52  76
ATOM     76  C   UNL A   1      47.179  27.699  25.936  1.00  0.00     0.064 A 
ATOM     77  C   UNL A   1      47.213  27.755  24.536  1.00  0.00     0.173 A 
ATOM     78  C   UNL A   1      48.296  27.167  26.596  1.00  0.00     0.173 A 
ATOM     79  F   UNL A   1      46.157  28.228  23.859  1.00  0.00    -0.203 F 
ATOM     80  C   UNL A   1      48.314  27.282  23.825  1.00  0.00     0.198 A 
ATOM     81  C   UNL A   1      49.407  26.720  25.886  1.00  0.00     0.198 A 
ATOM     82  F   UNL A   1      48.308  27.084  27.935  1.00  0.00    -0.203 F 
ATOM     83  F   UNL A   1      48.303  27.305  22.485  1.00  0.00    -0.200 F 
ATOM     84  C   UNL A   1      49.412  26.770  24.500  1.00  0.00     0.200 A 
ATOM     85  F   UNL A   1      50.469  26.233  26.543  1.00  0.00    -0.200 F 
ATOM     86  F   UNL A   1      50.470  26.316  23.816  1.00  0.00    -0.200 F 
ENDBRANCH  52  76
BRANCH  64  87
ATOM     87  C   UNL A   1      45.418  33.802  28.781  1.00  0.00     0.064 A 
ATOM     88  C   UNL A   1      46.291  34.091  29.839  1.00  0.00     0.173 A 
ATOM     89  C   UNL A   1      45.255  34.769  27.776  1.00  0.00     0.173 A 
ATOM     90  F   UNL A   1      46.467  33.204  30.830  1.00  0.00    -0.203 F 
ATOM     91  C   UNL A   1      46.960  35.311  29.900  1.00  0.00     0.198 A 
ATOM     92  C   UNL A   1      45.943  35.978  27.828  1.00  0.00     0.198 A 
ATOM     93  F   UNL A   1      44.435  34.536  26.741  1.00  0.00    -0.203 F 
ATOM     94  F   UNL A   1      47.759  35.583  30.941  1.00  0.00    -0.200 F 
ATOM     95  C   UNL A   1      46.790  36.250  28.893  1.00  0.00     0.200 A 
ATOM     96  F   UNL A   1      45.787  36.879  26.850  1.00  0.00    -0.200 F 
ATOM     97  F   UNL A   1      47.438  37.421  28.951  1.00  0.00    -0.200 F 
ENDBRANCH  64  87
ENDBRANCH  38  39
ENDBRANCH  31  33
ENDBRANCH  30  31
ENDBRANCH  29  30
ENDBRANCH  28  29
ENDBRANCH  27  28
ENDBRANCH  26  27
ENDBRANCH   1  26
TORSDOF 19
ENDMDL
MODEL 3
REMARK VINA RESULT:     -11.7      1.678      7.668
REMARK SMILES Cn1ccc(S(=O)(=O)N2[C@@H](C(=O)OCCOCCOCCOC(=O)c3ccc(-c4c5nc(c(-c6c(F)c(F)c(F)c(F)c6F)c6ccc([nH]6)c(-c6c(F)c(F)c(F)c(F)c6F)c6nc(c(-c7c(F)c(F)c(F)c(F)c7F)c7ccc4[nH]7)C=C6)C=C5)cc3)C[C@H]3CCCC[C@H]32)c1
REMARK SMILES IDX 17 1 16 2 15 3 14 4 13 5 11 6 12 7 10 8 9 9 94 10 88 11
REMARK SMILES IDX 89 12 93 13 90 14 92 15 91 16 6 17 7 18 8 19 5 20 1 21 2 22
REMARK SMILES IDX 3 23 95 24 4 25 18 26 19 27 20 28 21 29 22 30 23 31 24 32
REMARK SMILES IDX 25 33 26 34 87 35 27 36 86 37 28 38 29 39 30 40 80 41 31 42
REMARK SMILES IDX 85 43 79 44 81 45 32 46 84 47 78 48 77 49 33 51 65 52 45 53
REMARK SMILES IDX 64 54 46 55 49 56 63 57 82 58 47 59 48 60 62 62 83 63 50 64
REMARK SMILES IDX 34 65 35 66 43 67 36 68 37 69 41 70 44 71 38 72 39 73 42 74
REMARK SMILES IDX 40 75 66 76 67 77 75 78 68 79 69 80 73 81 76 82 70 83 71 84
REMARK SMILES IDX 74 85 72 86 51 87 52 88 60 89 53 90 54 91 58 92 61 93 55 94
REMARK SMILES IDX 56 95 59 96 57 97
REMARK H PARENT 81 50 49 61
REMARK Flexibility Score: inf
ROOT
ATOM      1  C   UNL A   1      36.891  23.303  24.770  1.00  0.00     0.188 C 
ENDROOT
BRANCH   1   2
ATOM      2  O   UNL A   1      35.681  23.831  24.233  1.00  0.00    -0.376 OA
BRANCH   2   3
ATOM      3  C   UNL A   1      34.866  22.983  23.435  1.00  0.00     0.202 C 
BRANCH   3   4
ATOM      4  C   UNL A   1      33.702  23.677  22.729  1.00  0.00     0.261 C 
BRANCH   4   5
ATOM      5  O   UNL A   1      33.998  25.047  22.400  1.00  0.00    -0.462 OA
BRANCH   5   6
ATOM      6  C   UNL A   1      33.106  25.973  22.823  1.00  0.00     0.324 C 
ATOM      7  O   UNL A   1      32.325  26.580  22.096  1.00  0.00    -0.250 OA
BRANCH   6   8
ATOM      8  C   UNL A   1      33.090  26.159  24.321  1.00  0.00     0.183 C 
ATOM      9  N   UNL A   1      31.839  26.539  25.037  1.00  0.00    -0.180 NA
ATOM     10  C   UNL A   1      32.181  27.386  26.218  1.00  0.00     0.077 C 
ATOM     11  C   UNL A   1      34.080  27.243  24.764  1.00  0.00     0.037 C 
ATOM     12  C   UNL A   1      33.719  27.407  26.238  1.00  0.00     0.009 C 
ATOM     13  C   UNL A   1      31.544  28.766  26.015  1.00  0.00     0.020 C 
ATOM     14  C   UNL A   1      34.352  28.599  26.950  1.00  0.00     0.005 C 
ATOM     15  C   UNL A   1      32.143  29.819  26.937  1.00  0.00     0.002 C 
ATOM     16  C   UNL A   1      33.643  29.927  26.721  1.00  0.00     0.000 C 
BRANCH   9  17
ATOM     17  S   UNL A   1      30.670  25.329  25.231  1.00  0.00     0.245 S 
ATOM     18  O   UNL A   1      30.154  24.993  23.924  1.00  0.00    -0.207 OA
ATOM     19  O   UNL A   1      29.809  25.676  26.338  1.00  0.00    -0.207 OA
BRANCH  17  20
ATOM     20  C   UNL A   1      31.463  23.869  25.734  1.00  0.00     0.100 A 
ATOM     21  C   UNL A   1      34.232  22.009  27.107  1.00  0.00     0.149 C 
ATOM     22  N   UNL A   1      32.990  22.470  26.528  1.00  0.00    -0.356 N 
ATOM     23  C   UNL A   1      32.202  21.743  25.675  1.00  0.00     0.086 A 
ATOM     24  C   UNL A   1      32.482  23.736  26.659  1.00  0.00     0.106 A 
ATOM     25  C   UNL A   1      31.240  22.589  25.163  1.00  0.00     0.041 A 
ENDBRANCH  17  20
ENDBRANCH   9  17
ENDBRANCH   6   8
ENDBRANCH   5   6
ENDBRANCH   4   5
ENDBRANCH   3   4
ENDBRANCH   2   3
ENDBRANCH   1   2
BRANCH   1  26
ATOM     26  C   UNL A   1      37.372  21.924  24.295  1.00  0.00     0.188 C 
BRANCH  26  27
ATOM     27  O   UNL A   1      37.405  20.990  25.371  1.00  0.00    -0.376 OA
BRANCH  27  28
ATOM     28  C   UNL A   1      37.820  19.681  24.992  1.00  0.00     0.202 C 
BRANCH  28  29
ATOM     29  C   UNL A   1      39.027  19.255  25.830  1.00  0.00     0.261 C 
BRANCH  29  30
ATOM     30  O   UNL A   1      40.153  20.148  25.716  1.00  0.00    -0.460 OA
BRANCH  30  31
ATOM     31  C   UNL A   1      40.948  20.212  26.802  1.00  0.00     0.338 C 
ATOM     32  O   UNL A   1      41.601  19.311  27.299  1.00  0.00    -0.246 OA
BRANCH  31  33
ATOM     33  C   UNL A   1      41.039  21.609  27.254  1.00  0.00     0.060 A 
ATOM     34  C   UNL A   1      40.369  22.583  26.513  1.00  0.00     0.016 A 
ATOM     35  C   UNL A   1      41.871  21.973  28.311  1.00  0.00     0.016 A 
ATOM     36  C   UNL A   1      40.597  23.934  26.755  1.00  0.00     0.010 A 
ATOM     37  C   UNL A   1      42.078  23.331  28.576  1.00  0.00     0.010 A 
ATOM     38  C   UNL A   1      41.480  24.318  27.768  1.00  0.00    -0.014 A 
BRANCH  38  39
ATOM     39  C   UNL A   1      41.903  25.737  27.883  1.00  0.00     0.031 A 
ATOM     40  C   UNL A   1      43.219  26.154  27.285  1.00  0.00     0.074 A 
ATOM     41  C   UNL A   1      41.113  26.657  28.465  1.00  0.00     0.049 A 
ATOM     42  N   UNL A   1      43.866  27.286  27.400  1.00  0.00    -0.248 NA
ATOM     43  C   UNL A   1      43.897  25.157  26.441  1.00  0.00     0.031 C 
ATOM     44  C   UNL A   1      39.776  26.410  29.002  1.00  0.00     0.029 A 
ATOM     45  N   UNL A   1      41.329  27.993  28.702  1.00  0.00    -0.354 N 
ATOM     46  C   UNL A   1      45.044  27.121  26.684  1.00  0.00     0.074 A 
ATOM     47  C   UNL A   1      45.024  25.783  26.134  1.00  0.00     0.031 C 
ATOM     48  C   UNL A   1      39.289  27.557  29.506  1.00  0.00     0.029 A 
ATOM     49  C   UNL A   1      40.304  28.601  29.382  1.00  0.00     0.049 A 
ATOM     50  H   UNL A   1      42.141  28.467  28.413  1.00  0.00     0.167 HD
ATOM     51  C   UNL A   1      46.052  28.006  26.504  1.00  0.00     0.037 A 
ATOM     52  C   UNL A   1      40.214  29.848  29.885  1.00  0.00     0.037 A 
ATOM     53  C   UNL A   1      46.056  29.349  27.020  1.00  0.00     0.049 A 
ATOM     54  C   UNL A   1      41.375  30.795  29.724  1.00  0.00     0.074 A 
ATOM     55  C   UNL A   1      47.041  30.315  26.915  1.00  0.00     0.029 A 
ATOM     56  N   UNL A   1      45.011  29.918  27.732  1.00  0.00    -0.354 N 
ATOM     57  N   UNL A   1      42.516  30.612  29.107  1.00  0.00    -0.248 NA
ATOM     58  C   UNL A   1      41.238  32.120  30.348  1.00  0.00     0.031 C 
ATOM     59  C   UNL A   1      46.602  31.462  27.585  1.00  0.00     0.029 A 
ATOM     60  C   UNL A   1      45.328  31.222  28.075  1.00  0.00     0.049 A 
ATOM     61  H   UNL A   1      44.168  29.463  27.959  1.00  0.00     0.167 HD
ATOM     62  C   UNL A   1      43.223  31.799  29.250  1.00  0.00     0.074 A 
ATOM     63  C   UNL A   1      42.376  32.703  30.000  1.00  0.00     0.031 C 
ATOM     64  C   UNL A   1      44.465  32.111  28.806  1.00  0.00     0.037 A 
BRANCH  51  65
ATOM     65  C   UNL A   1      47.255  27.534  25.745  1.00  0.00     0.064 A 
ATOM     66  C   UNL A   1      47.356  27.677  24.355  1.00  0.00     0.173 A 
ATOM     67  C   UNL A   1      48.332  26.948  26.427  1.00  0.00     0.173 A 
ATOM     68  F   UNL A   1      46.344  28.214  23.656  1.00  0.00    -0.203 F 
ATOM     69  C   UNL A   1      48.484  27.230  23.670  1.00  0.00     0.198 A 
ATOM     70  C   UNL A   1      49.467  26.523  25.743  1.00  0.00     0.198 A 
ATOM     71  F   UNL A   1      48.283  26.788  27.759  1.00  0.00    -0.203 F 
ATOM     72  F   UNL A   1      48.542  27.337  22.336  1.00  0.00    -0.200 F 
ATOM     73  C   UNL A   1      49.541  26.660  24.365  1.00  0.00     0.200 A 
ATOM     74  F   UNL A   1      50.490  25.980  26.418  1.00  0.00    -0.200 F 
ATOM     75  F   UNL A   1      50.625  26.233  23.706  1.00  0.00    -0.200 F 
ENDBRANCH  51  65
BRANCH  52  76
ATOM     76  C   UNL A   1      38.996  30.266  30.626  1.00  0.00     0.064 A 
ATOM     77  C   UNL A   1      37.943  30.920  29.972  1.00  0.00     0.173 A 
ATOM     78  C   UNL A   1      38.873  30.047  32.005  1.00  0.00     0.173 A 
ATOM     79  F   UNL A   1      38.028  31.178  28.659  1.00  0.00    -0.203 F 
ATOM     80  C   UNL A   1      36.820  31.352  30.674  1.00  0.00     0.198 A 
ATOM     81  C   UNL A   1      37.737  30.455  32.701  1.00  0.00     0.198 A 
ATOM     82  F   UNL A   1      39.857  29.432  32.678  1.00  0.00    -0.203 F 
ATOM     83  F   UNL A   1      35.848  32.016  30.033  1.00  0.00    -0.200 F 
ATOM     84  C   UNL A   1      36.715  31.115  32.036  1.00  0.00     0.200 A 
ATOM     85  F   UNL A   1      37.638  30.216  34.016  1.00  0.00    -0.200 F 
ATOM     86  F   UNL A   1      35.635  31.531  32.710  1.00  0.00    -0.200 F 
ENDBRANCH  52  76
BRANCH  64  87
ATOM     87  C   UNL A   1      44.965  33.497  29.082  1.00  0.00     0.064 A 
ATOM     88  C   UNL A   1      45.676  33.803  30.250  1.00  0.00     0.173 A 
ATOM     89  C   UNL A   1      44.763  34.523  28.144  1.00  0.00     0.173 A 
ATOM     90  F   UNL A   1      45.880  32.860  31.182  1.00  0.00    -0.203 F 
ATOM     91  C   UNL A   1      46.149  35.092  30.482  1.00  0.00     0.198 A 
ATOM     92  C   UNL A   1      45.258  35.804  28.368  1.00  0.00     0.198 A 
ATOM     93  F   UNL A   1      44.093  34.277  27.009  1.00  0.00    -0.203 F 
ATOM     94  F   UNL A   1      46.792  35.373  31.623  1.00  0.00    -0.200 F 
ATOM     95  C   UNL A   1      45.945  36.089  29.539  1.00  0.00     0.200 A 
ATOM     96  F   UNL A   1      45.069  36.763  27.452  1.00  0.00    -0.200 F 
ATOM     97  F   UNL A   1      46.406  37.328  29.761  1.00  0.00    -0.200 F 
ENDBRANCH  64  87
ENDBRANCH  38  39
ENDBRANCH  31  33
ENDBRANCH  30  31
ENDBRANCH  29  30
ENDBRANCH  28  29
ENDBRANCH  27  28
ENDBRANCH  26  27
ENDBRANCH   1  26
TORSDOF 19
ENDMDL
