MODEL 1
REMARK VINA RESULT:     -10.6      0.000      0.000
REMARK SMILES O=C(OCCOCCOCCOC(=O)[C@H](Cc1ccc(O)cc1)NC(=O)c1ccc(Cl)s1)c1ccc(-c2c3nc(c(-c4c(F)c(F)c(F)c(F)c4F)c4ccc([nH]4)c(-c4c(F)c(F)c(F)c(F)c4F)c4nc(c(-c5c(F)c(F)c(F)c(F)c5F)c5ccc2[nH]5)C=C4)C=C3)cc1
REMARK SMILES IDX 8 1 7 2 6 3 5 4 4 5 3 6 2 7 1 8 33 9 34 10 95 11 35 12 94 13
REMARK SMILES IDX 36 14 37 15 38 16 88 17 39 18 93 19 87 20 89 21 40 22 92 23
REMARK SMILES IDX 86 24 85 25 41 27 73 28 53 29 72 30 54 31 57 32 71 33 90 34
REMARK SMILES IDX 55 35 56 36 70 38 91 39 58 40 42 41 43 42 51 43 44 44 45 45
REMARK SMILES IDX 49 46 52 47 46 48 47 49 50 50 48 51 74 52 75 53 83 54 76 55
REMARK SMILES IDX 77 56 81 57 84 58 78 59 79 60 82 61 80 62 59 63 60 64 68 65
REMARK SMILES IDX 61 66 62 67 66 68 69 69 63 70 64 71 67 72 65 73 9 74 10 75
REMARK SMILES IDX 11 76 12 77 13 78 14 79 15 80 24 81 25 82 26 84 27 85 28 86
REMARK SMILES IDX 32 87 29 88 30 89 31 90 16 91 17 92 18 93 23 94 19 95 22 96
REMARK SMILES IDX 20 97 21 98
REMARK H PARENT 89 26 57 37 24 83 21 99
REMARK Flexibility Score: inf
ROOT
ATOM      1  C   UNL A   1      32.009  28.835  26.582  1.00  0.00     0.188 C 
ENDROOT
BRANCH   1   2
ATOM      2  C   UNL A   1      33.208  29.629  27.124  1.00  0.00     0.188 C 
BRANCH   2   3
ATOM      3  O   UNL A   1      33.004  31.026  27.333  1.00  0.00    -0.376 OA
BRANCH   3   4
ATOM      4  C   UNL A   1      31.761  31.548  26.869  1.00  0.00     0.202 C 
BRANCH   4   5
ATOM      5  C   UNL A   1      31.614  33.077  26.891  1.00  0.00     0.261 C 
BRANCH   5   6
ATOM      6  O   UNL A   1      32.808  33.795  27.222  1.00  0.00    -0.460 OA
BRANCH   6   7
ATOM      7  C   UNL A   1      33.208  34.284  28.420  1.00  0.00     0.338 C 
ATOM      8  O   UNL A   1      32.596  35.252  28.871  1.00  0.00    -0.246 OA
BRANCH   7   9
ATOM      9  C   UNL A   1      34.393  33.785  29.200  1.00  0.00     0.060 A 
ATOM     10  C   UNL A   1      34.370  32.911  30.291  1.00  0.00     0.016 A 
ATOM     11  C   UNL A   1      35.656  34.199  28.747  1.00  0.00     0.016 A 
ATOM     12  C   UNL A   1      35.533  32.394  30.870  1.00  0.00     0.010 A 
ATOM     13  C   UNL A   1      36.826  33.703  29.332  1.00  0.00     0.010 A 
ATOM     14  C   UNL A   1      36.773  32.758  30.377  1.00  0.00    -0.014 A 
BRANCH  14  15
ATOM     15  C   UNL A   1      38.029  32.287  31.008  1.00  0.00     0.031 A 
ATOM     16  C   UNL A   1      38.661  31.077  30.400  1.00  0.00     0.074 A 
ATOM     17  C   UNL A   1      38.600  32.880  32.079  1.00  0.00     0.049 A 
ATOM     18  N   UNL A   1      39.635  30.340  30.850  1.00  0.00    -0.248 NA
ATOM     19  C   UNL A   1      38.153  30.675  29.074  1.00  0.00     0.031 C 
ATOM     20  C   UNL A   1      38.262  34.188  32.634  1.00  0.00     0.029 A 
ATOM     21  N   UNL A   1      39.544  32.404  32.962  1.00  0.00    -0.354 N 
ATOM     22  C   UNL A   1      39.900  29.437  29.836  1.00  0.00     0.074 A 
ATOM     23  C   UNL A   1      38.910  29.626  28.803  1.00  0.00     0.031 C 
ATOM     24  C   UNL A   1      38.814  34.317  33.855  1.00  0.00     0.029 A 
ATOM     25  C   UNL A   1      39.576  33.116  34.147  1.00  0.00     0.049 A 
ATOM     26  H   UNL A   1      40.132  31.638  32.769  1.00  0.00     0.167 HD
ATOM     27  C   UNL A   1      40.940  28.582  29.751  1.00  0.00     0.037 A 
ATOM     28  C   UNL A   1      40.117  32.788  35.335  1.00  0.00     0.037 A 
ATOM     29  C   UNL A   1      41.904  28.417  30.798  1.00  0.00     0.049 A 
ATOM     30  C   UNL A   1      41.031  31.604  35.363  1.00  0.00     0.074 A 
ATOM     31  C   UNL A   1      43.034  27.624  30.822  1.00  0.00     0.029 A 
ATOM     32  N   UNL A   1      41.827  29.052  32.033  1.00  0.00    -0.354 N 
ATOM     33  N   UNL A   1      41.316  30.769  34.396  1.00  0.00    -0.248 NA
ATOM     34  C   UNL A   1      41.774  31.377  36.607  1.00  0.00     0.031 C 
ATOM     35  C   UNL A   1      43.600  27.724  32.098  1.00  0.00     0.029 A 
ATOM     36  C   UNL A   1      42.855  28.621  32.850  1.00  0.00     0.049 A 
ATOM     37  H   UNL A   1      41.141  29.710  32.287  1.00  0.00     0.167 HD
ATOM     38  C   UNL A   1      42.342  29.978  34.875  1.00  0.00     0.074 A 
ATOM     39  C   UNL A   1      42.586  30.394  36.243  1.00  0.00     0.031 C 
ATOM     40  C   UNL A   1      43.060  29.039  34.213  1.00  0.00     0.037 A 
BRANCH  27  41
ATOM     41  C   UNL A   1      41.054  27.790  28.489  1.00  0.00     0.064 A 
ATOM     42  C   UNL A   1      41.810  28.252  27.398  1.00  0.00     0.173 A 
ATOM     43  C   UNL A   1      40.357  26.585  28.346  1.00  0.00     0.173 A 
ATOM     44  F   UNL A   1      42.464  29.422  27.475  1.00  0.00    -0.203 F 
ATOM     45  C   UNL A   1      41.838  27.547  26.199  1.00  0.00     0.198 A 
ATOM     46  C   UNL A   1      40.408  25.870  27.154  1.00  0.00     0.198 A 
ATOM     47  F   UNL A   1      39.606  26.115  29.353  1.00  0.00    -0.203 F 
ATOM     48  F   UNL A   1      42.511  28.038  25.149  1.00  0.00    -0.200 F 
ATOM     49  C   UNL A   1      41.140  26.354  26.079  1.00  0.00     0.200 A 
ATOM     50  F   UNL A   1      39.729  24.720  27.035  1.00  0.00    -0.200 F 
ATOM     51  F   UNL A   1      41.158  25.682  24.921  1.00  0.00    -0.200 F 
ENDBRANCH  27  41
BRANCH  28  52
ATOM     52  C   UNL A   1      39.826  33.535  36.587  1.00  0.00     0.064 A 
ATOM     53  C   UNL A   1      38.817  33.155  37.477  1.00  0.00     0.173 A 
ATOM     54  C   UNL A   1      40.496  34.739  36.852  1.00  0.00     0.173 A 
ATOM     55  F   UNL A   1      38.063  32.079  37.210  1.00  0.00    -0.203 F 
ATOM     56  C   UNL A   1      38.516  33.933  38.600  1.00  0.00     0.198 A 
ATOM     57  C   UNL A   1      40.238  35.486  38.002  1.00  0.00     0.198 A 
ATOM     58  F   UNL A   1      41.341  35.239  35.939  1.00  0.00    -0.203 F 
ATOM     59  F   UNL A   1      37.485  33.594  39.387  1.00  0.00    -0.200 F 
ATOM     60  C   UNL A   1      39.242  35.083  38.875  1.00  0.00     0.200 A 
ATOM     61  F   UNL A   1      40.912  36.622  38.231  1.00  0.00    -0.200 F 
ATOM     62  F   UNL A   1      38.939  35.833  39.944  1.00  0.00    -0.200 F 
ENDBRANCH  28  52
BRANCH  40  63
ATOM     63  C   UNL A   1      44.215  28.447  34.951  1.00  0.00     0.064 A 
ATOM     64  C   UNL A   1      45.472  29.064  34.971  1.00  0.00     0.173 A 
ATOM     65  C   UNL A   1      44.045  27.253  35.668  1.00  0.00     0.173 A 
ATOM     66  F   UNL A   1      45.683  30.189  34.271  1.00  0.00    -0.203 F 
ATOM     67  C   UNL A   1      46.526  28.498  35.676  1.00  0.00     0.198 A 
ATOM     68  C   UNL A   1      45.092  26.710  36.401  1.00  0.00     0.198 A 
ATOM     69  F   UNL A   1      42.859  26.626  35.668  1.00  0.00    -0.203 F 
ATOM     70  F   UNL A   1      47.736  29.073  35.643  1.00  0.00    -0.200 F 
ATOM     71  C   UNL A   1      46.332  27.329  36.400  1.00  0.00     0.200 A 
ATOM     72  F   UNL A   1      44.899  25.590  37.109  1.00  0.00    -0.200 F 
ATOM     73  F   UNL A   1      47.347  26.793  37.091  1.00  0.00    -0.200 F 
ENDBRANCH  40  63
ENDBRANCH  14  15
ENDBRANCH   7   9
ENDBRANCH   6   7
ENDBRANCH   5   6
ENDBRANCH   4   5
ENDBRANCH   3   4
ENDBRANCH   2   3
ENDBRANCH   1   2
BRANCH   1  74
ATOM     74  O   UNL A   1      32.274  28.192  25.345  1.00  0.00    -0.376 OA
BRANCH  74  75
ATOM     75  C   UNL A   1      32.588  29.045  24.249  1.00  0.00     0.202 C 
BRANCH  75  76
ATOM     76  C   UNL A   1      33.665  28.550  23.279  1.00  0.00     0.261 C 
BRANCH  76  77
ATOM     77  O   UNL A   1      33.929  27.139  23.353  1.00  0.00    -0.462 OA
BRANCH  77  78
ATOM     78  C   UNL A   1      33.517  26.301  22.356  1.00  0.00     0.329 C 
ATOM     79  O   UNL A   1      33.625  26.519  21.160  1.00  0.00    -0.250 OA
BRANCH  78  80
ATOM     80  C   UNL A   1      32.746  25.142  23.006  1.00  0.00     0.197 C 
BRANCH  80  81
ATOM     81  N   UNL A   1      31.452  25.705  23.421  1.00  0.00    -0.338 N 
ATOM     82  C   UNL A   1      30.694  25.413  24.538  1.00  0.00     0.262 C 
ATOM     83  H   UNL A   1      31.071  26.384  22.818  1.00  0.00     0.164 HD
ATOM     84  O   UNL A   1      29.661  26.032  24.730  1.00  0.00    -0.268 OA
BRANCH  82  85
ATOM     85  C   UNL A   1      31.173  24.353  25.400  1.00  0.00     0.093 A 
ATOM     86  C   UNL A   1      30.605  23.133  25.702  1.00  0.00     0.027 A 
ATOM     87  S   UNL A   1      32.661  24.556  26.225  1.00  0.00    -0.118 S 
ATOM     88  C   UNL A   1      31.263  22.505  26.782  1.00  0.00     0.033 A 
ATOM     89  C   UNL A   1      32.460  23.101  27.054  1.00  0.00     0.094 A 
ATOM     90  Cl  UNL A   1      33.640  22.544  28.163  1.00  0.00    -0.072 Cl
ENDBRANCH  82  85
ENDBRANCH  80  81
BRANCH  80  91
ATOM     91  C   UNL A   1      32.633  23.839  22.189  1.00  0.00     0.072 C 
BRANCH  91  92
ATOM     92  C   UNL A   1      33.029  22.586  22.978  1.00  0.00    -0.045 A 
ATOM     93  C   UNL A   1      32.213  21.442  22.986  1.00  0.00     0.007 A 
ATOM     94  C   UNL A   1      34.207  22.548  23.736  1.00  0.00     0.007 A 
ATOM     95  C   UNL A   1      32.528  20.322  23.773  1.00  0.00     0.046 A 
ATOM     96  C   UNL A   1      34.529  21.428  24.516  1.00  0.00     0.046 A 
ATOM     97  C   UNL A   1      33.684  20.327  24.537  1.00  0.00     0.115 A 
BRANCH  97  98
ATOM     98  O   UNL A   1      34.033  19.264  25.315  1.00  0.00    -0.508 OA
ATOM     99  H   UNL A   1      34.061  19.354  26.248  1.00  0.00     0.293 HD
ENDBRANCH  97  98
ENDBRANCH  91  92
ENDBRANCH  80  91
ENDBRANCH  78  80
ENDBRANCH  77  78
ENDBRANCH  76  77
ENDBRANCH  75  76
ENDBRANCH  74  75
ENDBRANCH   1  74
TORSDOF 22
ENDMDL
MODEL 2
REMARK VINA RESULT:     -10.5      1.141      2.520
REMARK SMILES O=C(OCCOCCOCCOC(=O)[C@H](Cc1ccc(O)cc1)NC(=O)c1ccc(Cl)s1)c1ccc(-c2c3nc(c(-c4c(F)c(F)c(F)c(F)c4F)c4ccc([nH]4)c(-c4c(F)c(F)c(F)c(F)c4F)c4nc(c(-c5c(F)c(F)c(F)c(F)c5F)c5ccc2[nH]5)C=C4)C=C3)cc1
REMARK SMILES IDX 8 1 7 2 6 3 5 4 4 5 3 6 2 7 1 8 33 9 34 10 95 11 35 12 94 13
REMARK SMILES IDX 36 14 37 15 38 16 88 17 39 18 93 19 87 20 89 21 40 22 92 23
REMARK SMILES IDX 86 24 85 25 41 27 73 28 53 29 72 30 54 31 57 32 71 33 90 34
REMARK SMILES IDX 55 35 56 36 70 38 91 39 58 40 42 41 43 42 51 43 44 44 45 45
REMARK SMILES IDX 49 46 52 47 46 48 47 49 50 50 48 51 74 52 75 53 83 54 76 55
REMARK SMILES IDX 77 56 81 57 84 58 78 59 79 60 82 61 80 62 59 63 60 64 68 65
REMARK SMILES IDX 61 66 62 67 66 68 69 69 63 70 64 71 67 72 65 73 9 74 10 75
REMARK SMILES IDX 11 76 12 77 13 78 14 79 15 80 24 81 25 82 26 84 27 85 28 86
REMARK SMILES IDX 32 87 29 88 30 89 31 90 16 91 17 92 18 93 23 94 19 95 22 96
REMARK SMILES IDX 20 97 21 98
REMARK H PARENT 89 26 57 37 24 83 21 99
REMARK Flexibility Score: inf
ROOT
ATOM      1  C   UNL A   1      32.488  28.486  26.834  1.00  0.00     0.188 C 
ENDROOT
BRANCH   1   2
ATOM      2  C   UNL A   1      33.673  29.353  27.286  1.00  0.00     0.188 C 
BRANCH   2   3
ATOM      3  O   UNL A   1      33.386  30.721  27.577  1.00  0.00    -0.376 OA
BRANCH   3   4
ATOM      4  C   UNL A   1      32.484  31.370  26.682  1.00  0.00     0.202 C 
BRANCH   4   5
ATOM      5  C   UNL A   1      31.691  32.555  27.255  1.00  0.00     0.261 C 
BRANCH   5   6
ATOM      6  O   UNL A   1      32.408  33.794  27.306  1.00  0.00    -0.460 OA
BRANCH   6   7
ATOM      7  C   UNL A   1      32.963  34.419  28.371  1.00  0.00     0.338 C 
ATOM      8  O   UNL A   1      32.497  35.511  28.694  1.00  0.00    -0.246 OA
BRANCH   7   9
ATOM      9  C   UNL A   1      34.155  33.917  29.137  1.00  0.00     0.060 A 
ATOM     10  C   UNL A   1      34.138  33.092  30.266  1.00  0.00     0.016 A 
ATOM     11  C   UNL A   1      35.415  34.269  28.629  1.00  0.00     0.016 A 
ATOM     12  C   UNL A   1      35.303  32.564  30.833  1.00  0.00     0.010 A 
ATOM     13  C   UNL A   1      36.587  33.761  29.201  1.00  0.00     0.010 A 
ATOM     14  C   UNL A   1      36.538  32.866  30.288  1.00  0.00    -0.014 A 
BRANCH  14  15
ATOM     15  C   UNL A   1      37.797  32.381  30.902  1.00  0.00     0.031 A 
ATOM     16  C   UNL A   1      38.401  31.157  30.295  1.00  0.00     0.074 A 
ATOM     17  C   UNL A   1      38.395  32.977  31.957  1.00  0.00     0.049 A 
ATOM     18  N   UNL A   1      39.372  30.410  30.736  1.00  0.00    -0.248 NA
ATOM     19  C   UNL A   1      37.864  30.749  28.982  1.00  0.00     0.031 C 
ATOM     20  C   UNL A   1      38.086  34.295  32.505  1.00  0.00     0.029 A 
ATOM     21  N   UNL A   1      39.347  32.495  32.828  1.00  0.00    -0.354 N 
ATOM     22  C   UNL A   1      39.605  29.493  29.727  1.00  0.00     0.074 A 
ATOM     23  C   UNL A   1      38.601  29.687  28.709  1.00  0.00     0.031 C 
ATOM     24  C   UNL A   1      38.661  34.427  33.715  1.00  0.00     0.029 A 
ATOM     25  C   UNL A   1      39.410  33.219  34.005  1.00  0.00     0.049 A 
ATOM     26  H   UNL A   1      39.921  31.719  32.633  1.00  0.00     0.167 HD
ATOM     27  C   UNL A   1      40.631  28.622  29.633  1.00  0.00     0.037 A 
ATOM     28  C   UNL A   1      39.967  32.894  35.188  1.00  0.00     0.037 A 
ATOM     29  C   UNL A   1      41.611  28.453  30.665  1.00  0.00     0.049 A 
ATOM     30  C   UNL A   1      40.864  31.697  35.212  1.00  0.00     0.074 A 
ATOM     31  C   UNL A   1      42.729  27.644  30.677  1.00  0.00     0.029 A 
ATOM     32  N   UNL A   1      41.564  29.101  31.894  1.00  0.00    -0.354 N 
ATOM     33  N   UNL A   1      41.120  30.849  34.248  1.00  0.00    -0.248 NA
ATOM     34  C   UNL A   1      41.625  31.472  36.445  1.00  0.00     0.031 C 
ATOM     35  C   UNL A   1      43.319  27.748  31.942  1.00  0.00     0.029 A 
ATOM     36  C   UNL A   1      42.600  28.663  32.697  1.00  0.00     0.049 A 
ATOM     37  H   UNL A   1      40.893  29.772  32.153  1.00  0.00     0.167 HD
ATOM     38  C   UNL A   1      42.143  30.048  34.717  1.00  0.00     0.074 A 
ATOM     39  C   UNL A   1      42.416  30.473  36.077  1.00  0.00     0.031 C 
ATOM     40  C   UNL A   1      42.835  29.092  34.053  1.00  0.00     0.037 A 
BRANCH  27  41
ATOM     41  C   UNL A   1      40.712  27.816  28.377  1.00  0.00     0.064 A 
ATOM     42  C   UNL A   1      40.085  26.563  28.267  1.00  0.00     0.173 A 
ATOM     43  C   UNL A   1      41.469  28.272  27.291  1.00  0.00     0.173 A 
ATOM     44  F   UNL A   1      39.381  26.066  29.297  1.00  0.00    -0.203 F 
ATOM     45  C   UNL A   1      40.240  25.785  27.125  1.00  0.00     0.198 A 
ATOM     46  C   UNL A   1      41.600  27.502  26.141  1.00  0.00     0.198 A 
ATOM     47  F   UNL A   1      42.102  29.453  27.358  1.00  0.00    -0.203 F 
ATOM     48  F   UNL A   1      39.688  24.565  27.066  1.00  0.00    -0.200 F 
ATOM     49  C   UNL A   1      40.994  26.257  26.061  1.00  0.00     0.200 A 
ATOM     50  F   UNL A   1      42.334  27.955  25.115  1.00  0.00    -0.200 F 
ATOM     51  F   UNL A   1      41.151  25.502  24.965  1.00  0.00    -0.200 F 
ENDBRANCH  27  41
BRANCH  28  52
ATOM     52  C   UNL A   1      39.709  33.657  36.437  1.00  0.00     0.064 A 
ATOM     53  C   UNL A   1      40.500  34.737  36.841  1.00  0.00     0.173 A 
ATOM     54  C   UNL A   1      38.712  33.224  37.325  1.00  0.00     0.173 A 
ATOM     55  F   UNL A   1      41.543  35.117  36.090  1.00  0.00    -0.203 F 
ATOM     56  C   UNL A   1      40.278  35.374  38.066  1.00  0.00     0.198 A 
ATOM     57  C   UNL A   1      38.451  33.894  38.520  1.00  0.00     0.198 A 
ATOM     58  F   UNL A   1      38.049  32.087  37.069  1.00  0.00    -0.203 F 
ATOM     59  F   UNL A   1      41.106  36.348  38.469  1.00  0.00    -0.200 F 
ATOM     60  C   UNL A   1      39.240  34.969  38.893  1.00  0.00     0.200 A 
ATOM     61  F   UNL A   1      37.477  33.463  39.334  1.00  0.00    -0.200 F 
ATOM     62  F   UNL A   1      39.041  35.573  40.073  1.00  0.00    -0.200 F 
ENDBRANCH  28  52
BRANCH  40  63
ATOM     63  C   UNL A   1      43.994  28.489  34.776  1.00  0.00     0.064 A 
ATOM     64  C   UNL A   1      43.868  27.306  35.514  1.00  0.00     0.173 A 
ATOM     65  C   UNL A   1      45.254  29.101  34.703  1.00  0.00     0.173 A 
ATOM     66  F   UNL A   1      42.673  26.710  35.636  1.00  0.00    -0.203 F 
ATOM     67  C   UNL A   1      44.966  26.761  36.167  1.00  0.00     0.198 A 
ATOM     68  C   UNL A   1      46.356  28.532  35.327  1.00  0.00     0.198 A 
ATOM     69  F   UNL A   1      45.416  30.240  34.012  1.00  0.00    -0.203 F 
ATOM     70  F   UNL A   1      44.819  25.657  36.912  1.00  0.00    -0.200 F 
ATOM     71  C   UNL A   1      46.211  27.367  36.063  1.00  0.00     0.200 A 
ATOM     72  F   UNL A   1      47.559  29.112  35.214  1.00  0.00    -0.200 F 
ATOM     73  F   UNL A   1      47.271  26.830  36.681  1.00  0.00    -0.200 F 
ENDBRANCH  40  63
ENDBRANCH  14  15
ENDBRANCH   7   9
ENDBRANCH   6   7
ENDBRANCH   5   6
ENDBRANCH   4   5
ENDBRANCH   3   4
ENDBRANCH   2   3
ENDBRANCH   1   2
BRANCH   1  74
ATOM     74  O   UNL A   1      32.658  27.933  25.539  1.00  0.00    -0.376 OA
BRANCH  74  75
ATOM     75  C   UNL A   1      31.464  27.671  24.807  1.00  0.00     0.202 C 
BRANCH  75  76
ATOM     76  C   UNL A   1      30.858  26.272  24.958  1.00  0.00     0.261 C 
BRANCH  76  77
ATOM     77  O   UNL A   1      30.642  25.580  23.717  1.00  0.00    -0.462 OA
BRANCH  77  78
ATOM     78  C   UNL A   1      31.594  25.595  22.738  1.00  0.00     0.329 C 
ATOM     79  O   UNL A   1      31.535  26.240  21.704  1.00  0.00    -0.250 OA
BRANCH  78  80
ATOM     80  C   UNL A   1      32.644  24.530  23.090  1.00  0.00     0.197 C 
BRANCH  80  81
ATOM     81  N   UNL A   1      32.227  23.307  22.387  1.00  0.00    -0.338 N 
ATOM     82  C   UNL A   1      32.182  22.008  22.852  1.00  0.00     0.262 C 
ATOM     83  H   UNL A   1      31.941  23.431  21.453  1.00  0.00     0.164 HD
ATOM     84  O   UNL A   1      31.754  21.132  22.120  1.00  0.00    -0.268 OA
BRANCH  82  85
ATOM     85  C   UNL A   1      32.684  21.770  24.190  1.00  0.00     0.093 A 
ATOM     86  C   UNL A   1      33.629  20.869  24.633  1.00  0.00     0.027 A 
ATOM     87  S   UNL A   1      32.061  22.693  25.492  1.00  0.00    -0.118 S 
ATOM     88  C   UNL A   1      33.641  20.777  26.042  1.00  0.00     0.033 A 
ATOM     89  C   UNL A   1      32.948  21.803  26.616  1.00  0.00     0.094 A 
ATOM     90  Cl  UNL A   1      32.866  22.158  28.290  1.00  0.00    -0.072 Cl
ENDBRANCH  82  85
ENDBRANCH  80  81
BRANCH  80  91
ATOM     91  C   UNL A   1      34.122  24.912  22.866  1.00  0.00     0.072 C 
BRANCH  91  92
ATOM     92  C   UNL A   1      35.098  24.124  23.747  1.00  0.00    -0.045 A 
ATOM     93  C   UNL A   1      35.206  24.381  25.124  1.00  0.00     0.007 A 
ATOM     94  C   UNL A   1      35.931  23.137  23.204  1.00  0.00     0.007 A 
ATOM     95  C   UNL A   1      36.156  23.723  25.921  1.00  0.00     0.046 A 
ATOM     96  C   UNL A   1      36.876  22.470  23.999  1.00  0.00     0.046 A 
ATOM     97  C   UNL A   1      36.989  22.774  25.349  1.00  0.00     0.115 A 
BRANCH  97  98
ATOM     98  O   UNL A   1      37.925  22.106  26.081  1.00  0.00    -0.508 OA
ATOM     99  H   UNL A   1      38.496  21.493  25.663  1.00  0.00     0.293 HD
ENDBRANCH  97  98
ENDBRANCH  91  92
ENDBRANCH  80  91
ENDBRANCH  78  80
ENDBRANCH  77  78
ENDBRANCH  76  77
ENDBRANCH  75  76
ENDBRANCH  74  75
ENDBRANCH   1  74
TORSDOF 22
ENDMDL
MODEL 3
REMARK VINA RESULT:     -10.5      3.025      8.404
REMARK SMILES O=C(OCCOCCOCCOC(=O)[C@H](Cc1ccc(O)cc1)NC(=O)c1ccc(Cl)s1)c1ccc(-c2c3nc(c(-c4c(F)c(F)c(F)c(F)c4F)c4ccc([nH]4)c(-c4c(F)c(F)c(F)c(F)c4F)c4nc(c(-c5c(F)c(F)c(F)c(F)c5F)c5ccc2[nH]5)C=C4)C=C3)cc1
REMARK SMILES IDX 8 1 7 2 6 3 5 4 4 5 3 6 2 7 1 8 33 9 34 10 95 11 35 12 94 13
REMARK SMILES IDX 36 14 37 15 38 16 88 17 39 18 93 19 87 20 89 21 40 22 92 23
REMARK SMILES IDX 86 24 85 25 41 27 73 28 53 29 72 30 54 31 57 32 71 33 90 34
REMARK SMILES IDX 55 35 56 36 70 38 91 39 58 40 42 41 43 42 51 43 44 44 45 45
REMARK SMILES IDX 49 46 52 47 46 48 47 49 50 50 48 51 74 52 75 53 83 54 76 55
REMARK SMILES IDX 77 56 81 57 84 58 78 59 79 60 82 61 80 62 59 63 60 64 68 65
REMARK SMILES IDX 61 66 62 67 66 68 69 69 63 70 64 71 67 72 65 73 9 74 10 75
REMARK SMILES IDX 11 76 12 77 13 78 14 79 15 80 24 81 25 82 26 84 27 85 28 86
REMARK SMILES IDX 32 87 29 88 30 89 31 90 16 91 17 92 18 93 23 94 19 95 22 96
REMARK SMILES IDX 20 97 21 98
REMARK H PARENT 89 26 57 37 24 83 21 99
REMARK Flexibility Score: inf
ROOT
ATOM      1  C   UNL A   1      38.157  21.277  25.019  1.00  0.00     0.188 C 
ENDROOT
BRANCH   1   2
ATOM      2  C   UNL A   1      39.168  20.404  25.778  1.00  0.00     0.188 C 
BRANCH   2   3
ATOM      3  O   UNL A   1      40.024  21.078  26.701  1.00  0.00    -0.376 OA
BRANCH   3   4
ATOM      4  C   UNL A   1      41.259  20.427  26.991  1.00  0.00     0.202 C 
BRANCH   4   5
ATOM      5  C   UNL A   1      42.440  20.766  26.068  1.00  0.00     0.261 C 
BRANCH   5   6
ATOM      6  O   UNL A   1      42.283  21.966  25.301  1.00  0.00    -0.460 OA
BRANCH   6   7
ATOM      7  C   UNL A   1      43.027  23.097  25.319  1.00  0.00     0.338 C 
ATOM      8  O   UNL A   1      43.937  23.191  24.496  1.00  0.00    -0.246 OA
BRANCH   7   9
ATOM      9  C   UNL A   1      42.875  24.210  26.319  1.00  0.00     0.060 A 
ATOM     10  C   UNL A   1      43.638  25.380  26.392  1.00  0.00     0.016 A 
ATOM     11  C   UNL A   1      41.820  24.083  27.235  1.00  0.00     0.016 A 
ATOM     12  C   UNL A   1      43.337  26.424  27.273  1.00  0.00     0.010 A 
ATOM     13  C   UNL A   1      41.523  25.114  28.134  1.00  0.00     0.010 A 
ATOM     14  C   UNL A   1      42.257  26.317  28.131  1.00  0.00    -0.014 A 
BRANCH  14  15
ATOM     15  C   UNL A   1      41.949  27.372  29.125  1.00  0.00     0.031 A 
ATOM     16  C   UNL A   1      42.602  27.232  30.462  1.00  0.00     0.074 A 
ATOM     17  C   UNL A   1      41.123  28.413  28.884  1.00  0.00     0.049 A 
ATOM     18  N   UNL A   1      42.370  27.881  31.566  1.00  0.00    -0.248 NA
ATOM     19  C   UNL A   1      43.705  26.255  30.548  1.00  0.00     0.031 C 
ATOM     20  C   UNL A   1      40.608  28.834  27.584  1.00  0.00     0.029 A 
ATOM     21  N   UNL A   1      40.489  29.267  29.758  1.00  0.00    -0.354 N 
ATOM     22  C   UNL A   1      43.339  27.443  32.450  1.00  0.00     0.074 A 
ATOM     23  C   UNL A   1      44.082  26.385  31.808  1.00  0.00     0.031 C 
ATOM     24  C   UNL A   1      39.594  29.702  27.758  1.00  0.00     0.029 A 
ATOM     25  C   UNL A   1      39.420  29.927  29.181  1.00  0.00     0.049 A 
ATOM     26  H   UNL A   1      40.769  29.395  30.694  1.00  0.00     0.167 HD
ATOM     27  C   UNL A   1      43.629  27.950  33.666  1.00  0.00     0.037 A 
ATOM     28  C   UNL A   1      38.397  30.583  29.762  1.00  0.00     0.037 A 
ATOM     29  C   UNL A   1      42.869  29.000  34.277  1.00  0.00     0.049 A 
ATOM     30  C   UNL A   1      38.517  30.873  31.225  1.00  0.00     0.074 A 
ATOM     31  C   UNL A   1      43.083  29.642  35.480  1.00  0.00     0.029 A 
ATOM     32  N   UNL A   1      41.715  29.547  33.724  1.00  0.00    -0.354 N 
ATOM     33  N   UNL A   1      39.453  30.495  32.058  1.00  0.00    -0.248 NA
ATOM     34  C   UNL A   1      37.503  31.761  31.803  1.00  0.00     0.031 C 
ATOM     35  C   UNL A   1      42.018  30.525  35.689  1.00  0.00     0.029 A 
ATOM     36  C   UNL A   1      41.171  30.475  34.592  1.00  0.00     0.049 A 
ATOM     37  H   UNL A   1      41.343  29.307  32.846  1.00  0.00     0.167 HD
ATOM     38  C   UNL A   1      39.203  31.174  33.235  1.00  0.00     0.074 A 
ATOM     39  C   UNL A   1      37.989  31.940  33.024  1.00  0.00     0.031 C 
ATOM     40  C   UNL A   1      39.952  31.208  34.363  1.00  0.00     0.037 A 
BRANCH  27  41
ATOM     41  C   UNL A   1      44.805  27.361  34.375  1.00  0.00     0.064 A 
ATOM     42  C   UNL A   1      46.105  27.856  34.176  1.00  0.00     0.173 A 
ATOM     43  C   UNL A   1      44.642  26.255  35.217  1.00  0.00     0.173 A 
ATOM     44  F   UNL A   1      46.317  28.890  33.346  1.00  0.00    -0.203 F 
ATOM     45  C   UNL A   1      47.202  27.244  34.775  1.00  0.00     0.198 A 
ATOM     46  C   UNL A   1      45.738  25.662  35.834  1.00  0.00     0.198 A 
ATOM     47  F   UNL A   1      43.422  25.736  35.421  1.00  0.00    -0.203 F 
ATOM     48  F   UNL A   1      48.440  27.690  34.521  1.00  0.00    -0.200 F 
ATOM     49  C   UNL A   1      47.017  26.149  35.607  1.00  0.00     0.200 A 
ATOM     50  F   UNL A   1      45.560  24.600  36.633  1.00  0.00    -0.200 F 
ATOM     51  F   UNL A   1      48.074  25.553  36.174  1.00  0.00    -0.200 F 
ENDBRANCH  27  41
BRANCH  28  52
ATOM     52  C   UNL A   1      37.179  30.998  29.018  1.00  0.00     0.064 A 
ATOM     53  C   UNL A   1      36.946  32.320  28.627  1.00  0.00     0.173 A 
ATOM     54  C   UNL A   1      36.151  30.070  28.791  1.00  0.00     0.173 A 
ATOM     55  F   UNL A   1      37.840  33.271  28.926  1.00  0.00    -0.203 F 
ATOM     56  C   UNL A   1      35.747  32.686  28.004  1.00  0.00     0.198 A 
ATOM     57  C   UNL A   1      34.979  30.421  28.118  1.00  0.00     0.198 A 
ATOM     58  F   UNL A   1      36.249  28.837  29.307  1.00  0.00    -0.203 F 
ATOM     59  F   UNL A   1      35.512  33.975  27.720  1.00  0.00    -0.200 F 
ATOM     60  C   UNL A   1      34.777  31.734  27.729  1.00  0.00     0.200 A 
ATOM     61  F   UNL A   1      34.028  29.502  27.902  1.00  0.00    -0.200 F 
ATOM     62  F   UNL A   1      33.624  32.093  27.147  1.00  0.00    -0.200 F 
ENDBRANCH  28  52
BRANCH  40  63
ATOM     63  C   UNL A   1      39.505  32.155  35.427  1.00  0.00     0.064 A 
ATOM     64  C   UNL A   1      39.944  33.484  35.463  1.00  0.00     0.173 A 
ATOM     65  C   UNL A   1      38.601  31.721  36.409  1.00  0.00     0.173 A 
ATOM     66  F   UNL A   1      40.833  33.926  34.561  1.00  0.00    -0.203 F 
ATOM     67  C   UNL A   1      39.501  34.347  36.458  1.00  0.00     0.198 A 
ATOM     68  C   UNL A   1      38.134  32.598  37.379  1.00  0.00     0.198 A 
ATOM     69  F   UNL A   1      38.162  30.453  36.414  1.00  0.00    -0.203 F 
ATOM     70  F   UNL A   1      39.970  35.601  36.509  1.00  0.00    -0.200 F 
ATOM     71  C   UNL A   1      38.588  33.907  37.407  1.00  0.00     0.200 A 
ATOM     72  F   UNL A   1      37.243  32.175  38.286  1.00  0.00    -0.200 F 
ATOM     73  F   UNL A   1      38.152  34.746  38.356  1.00  0.00    -0.200 F 
ENDBRANCH  40  63
ENDBRANCH  14  15
ENDBRANCH   7   9
ENDBRANCH   6   7
ENDBRANCH   5   6
ENDBRANCH   4   5
ENDBRANCH   3   4
ENDBRANCH   2   3
ENDBRANCH   1   2
BRANCH   1  74
ATOM     74  O   UNL A   1      37.173  21.858  25.859  1.00  0.00    -0.376 OA
BRANCH  74  75
ATOM     75  C   UNL A   1      36.968  23.260  25.710  1.00  0.00     0.202 C 
BRANCH  75  76
ATOM     76  C   UNL A   1      35.519  23.755  25.781  1.00  0.00     0.261 C 
BRANCH  76  77
ATOM     77  O   UNL A   1      35.036  24.354  24.568  1.00  0.00    -0.462 OA
BRANCH  77  78
ATOM     78  C   UNL A   1      34.790  23.588  23.464  1.00  0.00     0.329 C 
ATOM     79  O   UNL A   1      35.641  23.079  22.752  1.00  0.00    -0.250 OA
BRANCH  78  80
ATOM     80  C   UNL A   1      33.280  23.637  23.186  1.00  0.00     0.197 C 
BRANCH  80  81
ATOM     81  N   UNL A   1      33.073  24.791  22.297  1.00  0.00    -0.338 N 
ATOM     82  C   UNL A   1      32.479  26.007  22.573  1.00  0.00     0.262 C 
ATOM     83  H   UNL A   1      33.402  24.681  21.376  1.00  0.00     0.164 HD
ATOM     84  O   UNL A   1      32.450  26.861  21.703  1.00  0.00    -0.268 OA
BRANCH  82  85
ATOM     85  C   UNL A   1      31.898  26.172  23.889  1.00  0.00     0.093 A 
ATOM     86  C   UNL A   1      30.791  25.571  24.449  1.00  0.00     0.027 A 
ATOM     87  S   UNL A   1      32.619  27.272  24.987  1.00  0.00    -0.118 S 
ATOM     88  C   UNL A   1      30.412  26.199  25.656  1.00  0.00     0.033 A 
ATOM     89  C   UNL A   1      31.392  27.028  26.118  1.00  0.00     0.094 A 
ATOM     90  Cl  UNL A   1      31.405  27.838  27.627  1.00  0.00    -0.072 Cl
ENDBRANCH  82  85
ENDBRANCH  80  81
BRANCH  80  91
ATOM     91  C   UNL A   1      32.622  22.333  22.688  1.00  0.00     0.072 C 
BRANCH  91  92
ATOM     92  C   UNL A   1      32.640  21.205  23.725  1.00  0.00    -0.045 A 
ATOM     93  C   UNL A   1      32.799  21.475  25.094  1.00  0.00     0.007 A 
ATOM     94  C   UNL A   1      32.522  19.862  23.338  1.00  0.00     0.007 A 
ATOM     95  C   UNL A   1      32.900  20.442  26.040  1.00  0.00     0.046 A 
ATOM     96  C   UNL A   1      32.614  18.827  24.281  1.00  0.00     0.046 A 
ATOM     97  C   UNL A   1      32.812  19.123  25.623  1.00  0.00     0.115 A 
BRANCH  97  98
ATOM     98  O   UNL A   1      32.903  18.086  26.502  1.00  0.00    -0.508 OA
ATOM     99  H   UNL A   1      32.292  18.016  27.209  1.00  0.00     0.293 HD
ENDBRANCH  97  98
ENDBRANCH  91  92
ENDBRANCH  80  91
ENDBRANCH  78  80
ENDBRANCH  77  78
ENDBRANCH  76  77
ENDBRANCH  75  76
ENDBRANCH  74  75
ENDBRANCH   1  74
TORSDOF 22
ENDMDL
