MODEL 1
REMARK VINA RESULT:     -12.7      0.000      0.000
REMARK SMILES Cc1ccc([N+](=O)[O-])c(N[C@H]2[C@@H]3CC[C@@H](C3)[C@@H]2C(=O)OCCOCCOCCOC(=O)c2ccc(-c3c4nc(c(-c5c(F)c(F)c(F)c(F)c5F)c5ccc([nH]5)c(-c5c(F)c(F)c(F)c(F)c5F)c5nc(c(-c6c(F)c(F)c(F)c(F)c6F)c6ccc3[nH]6)C=C5)C=C4)cc2)c1
REMARK SMILES IDX 24 1 23 2 22 3 21 4 20 5 18 6 19 7 17 8 11 9 12 10 13 11
REMARK SMILES IDX 16 12 15 13 14 14 10 15 9 17 1 18 2 19 3 20 95 21 4 22 5 23
REMARK SMILES IDX 6 24 7 25 8 26 25 27 26 28 27 29 28 30 29 31 30 32 31 33
REMARK SMILES IDX 32 34 33 35 94 36 34 37 93 38 35 39 36 40 37 41 87 42 38 43
REMARK SMILES IDX 92 44 86 45 88 46 39 47 91 48 85 49 84 50 40 52 72 53 52 54
REMARK SMILES IDX 71 55 53 56 56 57 70 58 89 59 54 60 55 61 69 63 90 64 57 65
REMARK SMILES IDX 41 66 42 67 50 68 43 69 44 70 48 71 51 72 45 73 46 74 49 75
REMARK SMILES IDX 47 76 73 77 74 78 82 79 75 80 76 81 80 82 83 83 77 84 78 85
REMARK SMILES IDX 81 86 79 87 58 88 59 89 67 90 60 91 61 92 65 93 68 94 62 95
REMARK SMILES IDX 63 96 66 97 64 98
REMARK H PARENT 10 16 88 51 56 62
REMARK Flexibility Score: inf
ROOT
ATOM      1  C   UNL A   1      40.016  19.885  25.834  1.00  0.00     0.188 C 
ENDROOT
BRANCH   1   2
ATOM      2  O   UNL A   1      39.084  20.827  26.412  1.00  0.00    -0.376 OA
BRANCH   2   3
ATOM      3  C   UNL A   1      38.979  22.222  26.079  1.00  0.00     0.202 C 
BRANCH   3   4
ATOM      4  C   UNL A   1      37.566  23.105  25.649  1.00  0.00     0.261 C 
BRANCH   4   5
ATOM      5  O   UNL A   1      35.980  23.305  26.377  1.00  0.00    -0.463 OA
BRANCH   5   6
ATOM      6  C   UNL A   1      34.626  23.560  25.989  1.00  0.00     0.311 C 
ATOM      7  O   UNL A   1      33.686  23.877  26.728  1.00  0.00    -0.252 OA
BRANCH   6   8
ATOM      8  C   UNL A   1      34.010  23.546  24.627  1.00  0.00     0.125 C 
ATOM      9  C   UNL A   1      32.486  23.820  24.872  1.00  0.00     0.097 C 
ATOM     10  C   UNL A   1      31.839  22.726  24.024  1.00  0.00     0.012 C 
ATOM     11  C   UNL A   1      32.175  21.357  24.699  1.00  0.00     0.006 C 
ATOM     12  C   UNL A   1      32.766  22.674  22.820  1.00  0.00     0.010 C 
ATOM     13  C   UNL A   1      34.036  22.399  23.648  1.00  0.00     0.006 C 
ATOM     14  C   UNL A   1      33.658  21.116  24.358  1.00  0.00     0.005 C 
BRANCH   9  15
ATOM     15  N   UNL A   1      31.943  25.208  24.798  1.00  0.00    -0.376 N 
ATOM     16  H   UNL A   1      30.961  25.145  24.841  1.00  0.00     0.161 HD
BRANCH  15  17
ATOM     17  C   UNL A   1      32.269  26.543  24.695  1.00  0.00     0.114 A 
ATOM     18  C   UNL A   1      34.494  28.864  26.901  1.00  0.00     0.044 C 
ATOM     19  C   UNL A   1      33.557  28.399  25.819  1.00  0.00    -0.049 A 
ATOM     20  C   UNL A   1      33.093  29.318  24.887  1.00  0.00     0.010 A 
ATOM     21  C   UNL A   1      33.115  27.054  25.731  1.00  0.00     0.036 A 
ATOM     22  C   UNL A   1      32.290  28.874  23.845  1.00  0.00     0.088 A 
ATOM     23  C   UNL A   1      31.919  27.507  23.745  1.00  0.00     0.292 A 
BRANCH  23  24
ATOM     24  N   UNL A   1      31.399  27.158  22.444  1.00  0.00     0.064 N 
ATOM     25  O   UNL A   1      32.059  26.362  21.763  1.00  0.00    -0.258 OA
ATOM     26  O   UNL A   1      30.411  27.792  22.044  1.00  0.00    -0.258 OA
ENDBRANCH  23  24
ENDBRANCH  15  17
ENDBRANCH   9  15
ENDBRANCH   6   8
ENDBRANCH   5   6
ENDBRANCH   4   5
ENDBRANCH   3   4
ENDBRANCH   2   3
ENDBRANCH   1   2
BRANCH   1  27
ATOM     27  C   UNL A   1      41.465  19.745  26.287  1.00  0.00     0.188 C 
BRANCH  27  28
ATOM     28  O   UNL A   1      42.178  18.936  25.376  1.00  0.00    -0.376 OA
BRANCH  28  29
ATOM     29  C   UNL A   1      43.530  18.679  25.707  1.00  0.00     0.202 C 
BRANCH  29  30
ATOM     30  C   UNL A   1      44.518  19.165  24.627  1.00  0.00     0.261 C 
BRANCH  30  31
ATOM     31  O   UNL A   1      44.268  20.551  24.274  1.00  0.00    -0.460 OA
BRANCH  31  32
ATOM     32  C   UNL A   1      45.092  21.537  24.806  1.00  0.00     0.338 C 
ATOM     33  O   UNL A   1      46.163  21.344  25.291  1.00  0.00    -0.246 OA
BRANCH  32  34
ATOM     34  C   UNL A   1      44.296  22.831  24.930  1.00  0.00     0.060 A 
ATOM     35  C   UNL A   1      44.721  24.146  24.666  1.00  0.00     0.016 A 
ATOM     36  C   UNL A   1      43.252  22.744  25.767  1.00  0.00     0.016 A 
ATOM     37  C   UNL A   1      44.233  25.302  25.448  1.00  0.00     0.010 A 
ATOM     38  C   UNL A   1      43.190  23.774  26.692  1.00  0.00     0.010 A 
ATOM     39  C   UNL A   1      43.498  25.143  26.624  1.00  0.00    -0.014 A 
BRANCH  39  40
ATOM     40  C   UNL A   1      43.120  26.249  27.823  1.00  0.00     0.031 A 
ATOM     41  C   UNL A   1      41.716  27.162  28.212  1.00  0.00     0.074 A 
ATOM     42  C   UNL A   1      44.147  26.595  28.626  1.00  0.00     0.049 A 
ATOM     43  N   UNL A   1      41.734  28.441  28.538  1.00  0.00    -0.248 NA
ATOM     44  C   UNL A   1      40.241  26.815  28.093  1.00  0.00     0.031 C 
ATOM     45  C   UNL A   1      44.123  27.438  29.818  1.00  0.00     0.029 A 
ATOM     46  N   UNL A   1      45.502  26.295  28.453  1.00  0.00    -0.354 N 
ATOM     47  C   UNL A   1      40.417  28.888  28.760  1.00  0.00     0.074 A 
ATOM     48  C   UNL A   1      39.541  27.908  28.281  1.00  0.00     0.031 C 
ATOM     49  C   UNL A   1      45.376  27.851  30.065  1.00  0.00     0.029 A 
ATOM     50  C   UNL A   1      46.204  27.398  28.963  1.00  0.00     0.049 A 
ATOM     51  H   UNL A   1      45.885  25.480  28.054  1.00  0.00     0.167 HD
ATOM     52  C   UNL A   1      40.071  29.956  29.524  1.00  0.00     0.037 A 
ATOM     53  C   UNL A   1      46.969  28.154  28.128  1.00  0.00     0.037 A 
ATOM     54  C   UNL A   1      41.268  30.540  30.049  1.00  0.00     0.049 A 
ATOM     55  C   UNL A   1      46.536  29.609  28.095  1.00  0.00     0.074 A 
ATOM     56  C   UNL A   1      41.975  30.383  31.226  1.00  0.00     0.029 A 
ATOM     57  N   UNL A   1      42.151  31.066  29.135  1.00  0.00    -0.354 N 
ATOM     58  N   UNL A   1      45.529  30.102  28.767  1.00  0.00    -0.248 NA
ATOM     59  C   UNL A   1      47.157  30.610  27.236  1.00  0.00     0.031 C 
ATOM     60  C   UNL A   1      43.281  30.911  31.020  1.00  0.00     0.029 A 
ATOM     61  C   UNL A   1      43.337  31.414  29.734  1.00  0.00     0.049 A 
ATOM     62  H   UNL A   1      41.959  31.177  28.176  1.00  0.00     0.167 HD
ATOM     63  C   UNL A   1      45.319  31.411  28.411  1.00  0.00     0.074 A 
ATOM     64  C   UNL A   1      46.360  31.674  27.435  1.00  0.00     0.031 C 
ATOM     65  C   UNL A   1      44.274  32.145  28.911  1.00  0.00     0.037 A 
BRANCH  52  66
ATOM     66  C   UNL A   1      38.645  30.163  30.027  1.00  0.00     0.064 A 
ATOM     67  C   UNL A   1      37.665  30.702  29.176  1.00  0.00     0.173 A 
ATOM     68  C   UNL A   1      38.214  29.961  31.361  1.00  0.00     0.173 A 
ATOM     69  F   UNL A   1      37.884  30.820  27.862  1.00  0.00    -0.203 F 
ATOM     70  C   UNL A   1      36.429  31.159  29.649  1.00  0.00     0.198 A 
ATOM     71  C   UNL A   1      37.013  30.494  31.853  1.00  0.00     0.198 A 
ATOM     72  F   UNL A   1      38.949  29.244  32.228  1.00  0.00    -0.203 F 
ATOM     73  F   UNL A   1      35.542  31.679  28.790  1.00  0.00    -0.200 F 
ATOM     74  C   UNL A   1      36.127  31.110  30.996  1.00  0.00     0.200 A 
ATOM     75  F   UNL A   1      36.735  30.429  33.165  1.00  0.00    -0.200 F 
ATOM     76  F   UNL A   1      34.981  31.631  31.458  1.00  0.00    -0.200 F 
ENDBRANCH  52  66
BRANCH  53  77
ATOM     77  C   UNL A   1      47.582  27.352  27.014  1.00  0.00     0.064 A 
ATOM     78  C   UNL A   1      47.075  27.528  25.701  1.00  0.00     0.173 A 
ATOM     79  C   UNL A   1      48.811  26.689  27.122  1.00  0.00     0.173 A 
ATOM     80  F   UNL A   1      45.898  28.149  25.512  1.00  0.00    -0.203 F 
ATOM     81  C   UNL A   1      47.814  27.188  24.568  1.00  0.00     0.198 A 
ATOM     82  C   UNL A   1      49.528  26.304  25.980  1.00  0.00     0.198 A 
ATOM     83  F   UNL A   1      49.386  26.511  28.319  1.00  0.00    -0.203 F 
ATOM     84  F   UNL A   1      47.361  27.514  23.349  1.00  0.00    -0.200 F 
ATOM     85  C   UNL A   1      49.048  26.586  24.709  1.00  0.00     0.200 A 
ATOM     86  F   UNL A   1      50.750  25.766  26.112  1.00  0.00    -0.200 F 
ATOM     87  F   UNL A   1      49.803  26.338  23.629  1.00  0.00    -0.200 F 
ENDBRANCH  53  77
BRANCH  65  88
ATOM     88  C   UNL A   1      43.917  33.584  28.573  1.00  0.00     0.064 A 
ATOM     89  C   UNL A   1      43.608  34.020  27.281  1.00  0.00     0.173 A 
ATOM     90  C   UNL A   1      43.932  34.618  29.554  1.00  0.00     0.173 A 
ATOM     91  F   UNL A   1      43.781  33.220  26.222  1.00  0.00    -0.203 F 
ATOM     92  C   UNL A   1      43.171  35.323  27.025  1.00  0.00     0.198 A 
ATOM     93  C   UNL A   1      43.514  35.919  29.297  1.00  0.00     0.198 A 
ATOM     94  F   UNL A   1      44.370  34.432  30.806  1.00  0.00    -0.203 F 
ATOM     95  F   UNL A   1      42.825  35.669  25.778  1.00  0.00    -0.200 F 
ATOM     96  C   UNL A   1      43.099  36.264  28.036  1.00  0.00     0.200 A 
ATOM     97  F   UNL A   1      43.519  36.823  30.287  1.00  0.00    -0.200 F 
ATOM     98  F   UNL A   1      42.664  37.506  27.789  1.00  0.00    -0.200 F 
ENDBRANCH  65  88
ENDBRANCH  39  40
ENDBRANCH  32  34
ENDBRANCH  31  32
ENDBRANCH  30  31
ENDBRANCH  29  30
ENDBRANCH  28  29
ENDBRANCH  27  28
ENDBRANCH   1  27
TORSDOF 20
ENDMDL
MODEL 2
REMARK VINA RESULT:     -12.6      1.620      2.068
REMARK SMILES Cc1ccc([N+](=O)[O-])c(N[C@H]2[C@@H]3CC[C@@H](C3)[C@@H]2C(=O)OCCOCCOCCOC(=O)c2ccc(-c3c4nc(c(-c5c(F)c(F)c(F)c(F)c5F)c5ccc([nH]5)c(-c5c(F)c(F)c(F)c(F)c5F)c5nc(c(-c6c(F)c(F)c(F)c(F)c6F)c6ccc3[nH]6)C=C5)C=C4)cc2)c1
REMARK SMILES IDX 24 1 23 2 22 3 21 4 20 5 18 6 19 7 17 8 11 9 12 10 13 11
REMARK SMILES IDX 16 12 15 13 14 14 10 15 9 17 1 18 2 19 3 20 95 21 4 22 5 23
REMARK SMILES IDX 6 24 7 25 8 26 25 27 26 28 27 29 28 30 29 31 30 32 31 33
REMARK SMILES IDX 32 34 33 35 94 36 34 37 93 38 35 39 36 40 37 41 87 42 38 43
REMARK SMILES IDX 92 44 86 45 88 46 39 47 91 48 85 49 84 50 40 52 72 53 52 54
REMARK SMILES IDX 71 55 53 56 56 57 70 58 89 59 54 60 55 61 69 63 90 64 57 65
REMARK SMILES IDX 41 66 42 67 50 68 43 69 44 70 48 71 51 72 45 73 46 74 49 75
REMARK SMILES IDX 47 76 73 77 74 78 82 79 75 80 76 81 80 82 83 83 77 84 78 85
REMARK SMILES IDX 81 86 79 87 58 88 59 89 67 90 60 91 61 92 65 93 68 94 62 95
REMARK SMILES IDX 63 96 66 97 64 98
REMARK H PARENT 10 16 88 51 56 62
REMARK Flexibility Score: inf
ROOT
ATOM      1  C   UNL A   1      40.929  21.972  26.157  1.00  0.00     0.188 C 
ENDROOT
BRANCH   1   2
ATOM      2  O   UNL A   1      39.575  21.765  26.621  1.00  0.00    -0.376 OA
BRANCH   2   3
ATOM      3  C   UNL A   1      38.377  22.053  25.880  1.00  0.00     0.202 C 
BRANCH   3   4
ATOM      4  C   UNL A   1      37.574  23.564  25.709  1.00  0.00     0.261 C 
BRANCH   4   5
ATOM      5  O   UNL A   1      35.900  24.039  25.466  1.00  0.00    -0.463 OA
BRANCH   5   6
ATOM      6  C   UNL A   1      34.920  24.091  24.424  1.00  0.00     0.311 C 
ATOM      7  O   UNL A   1      35.117  23.977  23.209  1.00  0.00    -0.252 OA
BRANCH   6   8
ATOM      8  C   UNL A   1      33.438  24.259  24.523  1.00  0.00     0.125 C 
ATOM      9  C   UNL A   1      33.210  25.034  25.867  1.00  0.00     0.097 C 
ATOM     10  C   UNL A   1      32.101  24.205  26.514  1.00  0.00     0.012 C 
ATOM     11  C   UNL A   1      32.715  22.816  26.882  1.00  0.00     0.006 C 
ATOM     12  C   UNL A   1      31.255  23.821  25.310  1.00  0.00     0.010 C 
ATOM     13  C   UNL A   1      32.415  23.151  24.547  1.00  0.00     0.006 C 
ATOM     14  C   UNL A   1      32.843  22.084  25.533  1.00  0.00     0.005 C 
BRANCH   9  15
ATOM     15  N   UNL A   1      33.099  26.522  25.875  1.00  0.00    -0.376 N 
ATOM     16  H   UNL A   1      33.873  26.875  26.373  1.00  0.00     0.161 HD
BRANCH  15  17
ATOM     17  C   UNL A   1      32.344  27.599  25.464  1.00  0.00     0.114 A 
ATOM     18  C   UNL A   1      29.344  27.889  22.990  1.00  0.00     0.044 C 
ATOM     19  C   UNL A   1      30.442  28.268  23.947  1.00  0.00    -0.049 A 
ATOM     20  C   UNL A   1      30.616  29.606  24.278  1.00  0.00     0.010 A 
ATOM     21  C   UNL A   1      31.319  27.305  24.508  1.00  0.00     0.036 A 
ATOM     22  C   UNL A   1      31.579  29.947  25.219  1.00  0.00     0.088 A 
ATOM     23  C   UNL A   1      32.398  28.952  25.815  1.00  0.00     0.292 A 
BRANCH  23  24
ATOM     24  N   UNL A   1      33.077  29.415  27.001  1.00  0.00     0.064 N 
ATOM     25  O   UNL A   1      33.561  28.557  27.751  1.00  0.00    -0.258 OA
ATOM     26  O   UNL A   1      32.995  30.626  27.260  1.00  0.00    -0.258 OA
ENDBRANCH  23  24
ENDBRANCH  15  17
ENDBRANCH   9  15
ENDBRANCH   6   8
ENDBRANCH   5   6
ENDBRANCH   4   5
ENDBRANCH   3   4
ENDBRANCH   2   3
ENDBRANCH   1   2
BRANCH   1  27
ATOM     27  C   UNL A   1      42.092  21.050  26.512  1.00  0.00     0.188 C 
BRANCH  27  28
ATOM     28  O   UNL A   1      41.948  19.816  25.842  1.00  0.00    -0.376 OA
BRANCH  28  29
ATOM     29  C   UNL A   1      42.919  18.833  26.147  1.00  0.00     0.202 C 
BRANCH  29  30
ATOM     30  C   UNL A   1      43.994  18.685  25.050  1.00  0.00     0.261 C 
BRANCH  30  31
ATOM     31  O   UNL A   1      44.946  19.781  25.099  1.00  0.00    -0.460 OA
BRANCH  31  32
ATOM     32  C   UNL A   1      44.834  20.807  24.166  1.00  0.00     0.338 C 
ATOM     33  O   UNL A   1      44.624  20.654  23.004  1.00  0.00    -0.246 OA
BRANCH  32  34
ATOM     34  C   UNL A   1      45.305  22.108  24.806  1.00  0.00     0.060 A 
ATOM     35  C   UNL A   1      46.005  22.283  26.015  1.00  0.00     0.016 A 
ATOM     36  C   UNL A   1      44.621  23.188  24.401  1.00  0.00     0.016 A 
ATOM     37  C   UNL A   1      45.785  23.457  26.887  1.00  0.00     0.010 A 
ATOM     38  C   UNL A   1      44.174  23.989  25.440  1.00  0.00     0.010 A 
ATOM     39  C   UNL A   1      44.728  24.345  26.681  1.00  0.00    -0.014 A 
BRANCH  39  40
ATOM     40  C   UNL A   1      44.096  25.526  27.685  1.00  0.00     0.031 A 
ATOM     41  C   UNL A   1      42.585  26.343  27.771  1.00  0.00     0.074 A 
ATOM     42  C   UNL A   1      44.964  26.041  28.580  1.00  0.00     0.049 A 
ATOM     43  N   UNL A   1      42.459  27.644  27.953  1.00  0.00    -0.248 NA
ATOM     44  C   UNL A   1      41.174  25.854  27.489  1.00  0.00     0.031 C 
ATOM     45  C   UNL A   1      44.702  26.992  29.655  1.00  0.00     0.029 A 
ATOM     46  N   UNL A   1      46.349  25.849  28.630  1.00  0.00    -0.354 N 
ATOM     47  C   UNL A   1      41.094  27.991  27.939  1.00  0.00     0.074 A 
ATOM     48  C   UNL A   1      40.374  26.894  27.455  1.00  0.00     0.031 C 
ATOM     49  C   UNL A   1      45.870  27.539  30.027  1.00  0.00     0.029 A 
ATOM     50  C   UNL A   1      46.883  27.055  29.106  1.00  0.00     0.049 A 
ATOM     51  H   UNL A   1      46.846  25.036  28.382  1.00  0.00     0.167 HD
ATOM     52  C   UNL A   1      40.560  29.094  28.524  1.00  0.00     0.037 A 
ATOM     53  C   UNL A   1      47.704  27.791  28.307  1.00  0.00     0.037 A 
ATOM     54  C   UNL A   1      41.620  29.833  29.142  1.00  0.00     0.049 A 
ATOM     55  C   UNL A   1      47.173  29.190  28.053  1.00  0.00     0.074 A 
ATOM     56  C   UNL A   1      42.155  29.857  30.415  1.00  0.00     0.029 A 
ATOM     57  N   UNL A   1      42.587  30.342  28.307  1.00  0.00    -0.354 N 
ATOM     58  N   UNL A   1      46.044  29.655  28.520  1.00  0.00    -0.248 NA
ATOM     59  C   UNL A   1      47.837  30.152  27.182  1.00  0.00     0.031 C 
ATOM     60  C   UNL A   1      43.434  30.478  30.336  1.00  0.00     0.029 A 
ATOM     61  C   UNL A   1      43.641  30.853  29.022  1.00  0.00     0.049 A 
ATOM     62  H   UNL A   1      42.530  30.340  27.324  1.00  0.00     0.167 HD
ATOM     63  C   UNL A   1      45.791  30.897  27.995  1.00  0.00     0.074 A 
ATOM     64  C   UNL A   1      46.942  31.155  27.150  1.00  0.00     0.031 C 
ATOM     65  C   UNL A   1      44.633  31.580  28.261  1.00  0.00     0.037 A 
BRANCH  52  66
ATOM     66  C   UNL A   1      39.065  29.221  28.799  1.00  0.00     0.064 A 
ATOM     67  C   UNL A   1      38.200  29.705  27.802  1.00  0.00     0.173 A 
ATOM     68  C   UNL A   1      38.443  28.994  30.051  1.00  0.00     0.173 A 
ATOM     69  F   UNL A   1      38.613  29.836  26.536  1.00  0.00    -0.203 F 
ATOM     70  C   UNL A   1      36.883  30.092  28.075  1.00  0.00     0.198 A 
ATOM     71  C   UNL A   1      37.154  29.459  30.347  1.00  0.00     0.198 A 
ATOM     72  F   UNL A   1      39.073  28.318  31.027  1.00  0.00    -0.203 F 
ATOM     73  F   UNL A   1      36.112  30.563  27.084  1.00  0.00    -0.200 F 
ATOM     74  C   UNL A   1      36.378  30.025  29.359  1.00  0.00     0.200 A 
ATOM     75  F   UNL A   1      36.679  29.377  31.600  1.00  0.00    -0.200 F 
ATOM     76  F   UNL A   1      35.148  30.481  29.633  1.00  0.00    -0.200 F 
ENDBRANCH  52  66
BRANCH  53  77
ATOM     77  C   UNL A   1      48.533  26.940  27.385  1.00  0.00     0.064 A 
ATOM     78  C   UNL A   1      48.100  26.784  26.044  1.00  0.00     0.173 A 
ATOM     79  C   UNL A   1      49.851  26.555  27.662  1.00  0.00     0.173 A 
ATOM     80  F   UNL A   1      46.847  27.125  25.697  1.00  0.00    -0.203 F 
ATOM     81  C   UNL A   1      48.970  26.402  25.022  1.00  0.00     0.198 A 
ATOM     82  C   UNL A   1      50.708  26.122  26.640  1.00  0.00     0.198 A 
ATOM     83  F   UNL A   1      50.359  26.701  28.892  1.00  0.00    -0.203 F 
ATOM     84  F   UNL A   1      48.555  26.418  23.747  1.00  0.00    -0.200 F 
ATOM     85  C   UNL A   1      50.279  26.082  25.320  1.00  0.00     0.200 A 
ATOM     86  F   UNL A   1      51.994  25.860  26.916  1.00  0.00    -0.200 F 
ATOM     87  F   UNL A   1      51.143  25.800  24.335  1.00  0.00    -0.200 F 
ENDBRANCH  53  77
BRANCH  65  88
ATOM     88  C   UNL A   1      44.223  32.941  27.718  1.00  0.00     0.064 A 
ATOM     89  C   UNL A   1      44.073  33.216  26.356  1.00  0.00     0.173 A 
ATOM     90  C   UNL A   1      44.018  34.065  28.571  1.00  0.00     0.173 A 
ATOM     91  F   UNL A   1      44.456  32.333  25.426  1.00  0.00    -0.203 F 
ATOM     92  C   UNL A   1      43.582  34.443  25.899  1.00  0.00     0.198 A 
ATOM     93  C   UNL A   1      43.547  35.291  28.116  1.00  0.00     0.198 A 
ATOM     94  F   UNL A   1      44.283  34.045  29.883  1.00  0.00    -0.203 F 
ATOM     95  F   UNL A   1      43.396  34.630  24.586  1.00  0.00    -0.200 F 
ATOM     96  C   UNL A   1      43.294  35.470  26.780  1.00  0.00     0.200 A 
ATOM     97  F   UNL A   1      43.341  36.287  28.989  1.00  0.00    -0.200 F 
ATOM     98  F   UNL A   1      42.810  36.637  26.339  1.00  0.00    -0.200 F 
ENDBRANCH  65  88
ENDBRANCH  39  40
ENDBRANCH  32  34
ENDBRANCH  31  32
ENDBRANCH  30  31
ENDBRANCH  29  30
ENDBRANCH  28  29
ENDBRANCH  27  28
ENDBRANCH   1  27
TORSDOF 20
ENDMDL
MODEL 3
REMARK VINA RESULT:     -12.5      4.428     10.854
REMARK SMILES Cc1ccc([N+](=O)[O-])c(N[C@H]2[C@@H]3CC[C@@H](C3)[C@@H]2C(=O)OCCOCCOCCOC(=O)c2ccc(-c3c4nc(c(-c5c(F)c(F)c(F)c(F)c5F)c5ccc([nH]5)c(-c5c(F)c(F)c(F)c(F)c5F)c5nc(c(-c6c(F)c(F)c(F)c(F)c6F)c6ccc3[nH]6)C=C5)C=C4)cc2)c1
REMARK SMILES IDX 24 1 23 2 22 3 21 4 20 5 18 6 19 7 17 8 11 9 12 10 13 11
REMARK SMILES IDX 16 12 15 13 14 14 10 15 9 17 1 18 2 19 3 20 95 21 4 22 5 23
REMARK SMILES IDX 6 24 7 25 8 26 25 27 26 28 27 29 28 30 29 31 30 32 31 33
REMARK SMILES IDX 32 34 33 35 94 36 34 37 93 38 35 39 36 40 37 41 87 42 38 43
REMARK SMILES IDX 92 44 86 45 88 46 39 47 91 48 85 49 84 50 40 52 72 53 52 54
REMARK SMILES IDX 71 55 53 56 56 57 70 58 89 59 54 60 55 61 69 63 90 64 57 65
REMARK SMILES IDX 41 66 42 67 50 68 43 69 44 70 48 71 51 72 45 73 46 74 49 75
REMARK SMILES IDX 47 76 73 77 74 78 82 79 75 80 76 81 80 82 83 83 77 84 78 85
REMARK SMILES IDX 81 86 79 87 58 88 59 89 67 90 60 91 61 92 65 93 68 94 62 95
REMARK SMILES IDX 63 96 66 97 64 98
REMARK H PARENT 10 16 88 51 56 62
REMARK Flexibility Score: inf
ROOT
ATOM      1  C   UNL A   1      33.212  33.911  28.018  1.00  0.00     0.188 C 
ENDROOT
BRANCH   1   2
ATOM      2  O   UNL A   1      32.281  33.332  27.076  1.00  0.00    -0.376 OA
BRANCH   2   3
ATOM      3  C   UNL A   1      31.711  32.014  27.155  1.00  0.00     0.202 C 
BRANCH   3   4
ATOM      4  C   UNL A   1      32.512  30.501  26.986  1.00  0.00     0.261 C 
BRANCH   4   5
ATOM      5  O   UNL A   1      33.191  29.622  25.625  1.00  0.00    -0.463 OA
BRANCH   5   6
ATOM      6  C   UNL A   1      32.909  28.475  24.816  1.00  0.00     0.311 C 
ATOM      7  O   UNL A   1      33.667  27.929  24.006  1.00  0.00    -0.252 OA
BRANCH   6   8
ATOM      8  C   UNL A   1      31.674  27.635  24.758  1.00  0.00     0.125 C 
ATOM      9  C   UNL A   1      31.961  26.573  23.642  1.00  0.00     0.097 C 
ATOM     10  C   UNL A   1      30.680  26.647  22.812  1.00  0.00     0.012 C 
ATOM     11  C   UNL A   1      30.656  28.047  22.120  1.00  0.00     0.006 C 
ATOM     12  C   UNL A   1      29.623  26.853  23.887  1.00  0.00     0.010 C 
ATOM     13  C   UNL A   1      30.277  28.123  24.466  1.00  0.00     0.006 C 
ATOM     14  C   UNL A   1      30.297  29.029  23.252  1.00  0.00     0.005 C 
BRANCH   9  15
ATOM     15  N   UNL A   1      32.519  25.234  23.994  1.00  0.00    -0.376 N 
ATOM     16  H   UNL A   1      32.241  24.603  23.290  1.00  0.00     0.161 HD
BRANCH  15  17
ATOM     17  C   UNL A   1      33.267  24.530  24.912  1.00  0.00     0.114 A 
ATOM     18  C   UNL A   1      37.074  23.705  25.090  1.00  0.00     0.044 C 
ATOM     19  C   UNL A   1      35.606  23.733  25.422  1.00  0.00    -0.049 A 
ATOM     20  C   UNL A   1      35.154  23.044  26.540  1.00  0.00     0.010 A 
ATOM     21  C   UNL A   1      34.665  24.424  24.617  1.00  0.00     0.036 A 
ATOM     22  C   UNL A   1      33.813  23.132  26.888  1.00  0.00     0.088 A 
ATOM     23  C   UNL A   1      32.905  23.888  26.100  1.00  0.00     0.292 A 
BRANCH  23  24
ATOM     24  N   UNL A   1      31.662  24.166  26.780  1.00  0.00     0.064 N 
ATOM     25  O   UNL A   1      30.952  23.198  27.083  1.00  0.00    -0.258 OA
ATOM     26  O   UNL A   1      31.327  25.356  26.877  1.00  0.00    -0.258 OA
ENDBRANCH  23  24
ENDBRANCH  15  17
ENDBRANCH   9  15
ENDBRANCH   6   8
ENDBRANCH   5   6
ENDBRANCH   4   5
ENDBRANCH   3   4
ENDBRANCH   2   3
ENDBRANCH   1   2
BRANCH   1  27
ATOM     27  C   UNL A   1      32.986  35.250  28.712  1.00  0.00     0.188 C 
BRANCH  27  28
ATOM     28  O   UNL A   1      32.640  35.038  30.064  1.00  0.00    -0.376 OA
BRANCH  28  29
ATOM     29  C   UNL A   1      32.590  36.197  30.875  1.00  0.00     0.202 C 
BRANCH  29  30
ATOM     30  C   UNL A   1      32.801  35.894  32.374  1.00  0.00     0.261 C 
BRANCH  30  31
ATOM     31  O   UNL A   1      33.382  34.577  32.564  1.00  0.00    -0.460 OA
BRANCH  31  32
ATOM     32  C   UNL A   1      34.760  34.468  32.718  1.00  0.00     0.338 C 
ATOM     33  O   UNL A   1      35.471  35.329  33.135  1.00  0.00    -0.246 OA
BRANCH  32  34
ATOM     34  C   UNL A   1      35.238  33.206  32.010  1.00  0.00     0.060 A 
ATOM     35  C   UNL A   1      35.545  31.953  32.573  1.00  0.00     0.016 A 
ATOM     36  C   UNL A   1      35.821  33.438  30.825  1.00  0.00     0.016 A 
ATOM     37  C   UNL A   1      36.620  31.092  32.035  1.00  0.00     0.010 A 
ATOM     38  C   UNL A   1      37.043  32.804  30.669  1.00  0.00     0.010 A 
ATOM     39  C   UNL A   1      37.533  31.554  31.084  1.00  0.00    -0.014 A 
BRANCH  39  40
ATOM     40  C   UNL A   1      38.987  30.901  30.573  1.00  0.00     0.031 A 
ATOM     41  C   UNL A   1      39.427  29.471  29.725  1.00  0.00     0.074 A 
ATOM     42  C   UNL A   1      40.087  31.570  30.976  1.00  0.00     0.049 A 
ATOM     43  N   UNL A   1      40.433  28.689  30.068  1.00  0.00    -0.248 NA
ATOM     44  C   UNL A   1      38.718  28.721  28.609  1.00  0.00     0.031 C 
ATOM     45  C   UNL A   1      41.480  31.328  30.612  1.00  0.00     0.029 A 
ATOM     46  N   UNL A   1      40.159  32.605  31.913  1.00  0.00    -0.354 N 
ATOM     47  C   UNL A   1      40.496  27.590  29.190  1.00  0.00     0.074 A 
ATOM     48  C   UNL A   1      39.309  27.561  28.449  1.00  0.00     0.031 C 
ATOM     49  C   UNL A   1      42.263  31.927  31.523  1.00  0.00     0.029 A 
ATOM     50  C   UNL A   1      41.392  32.445  32.563  1.00  0.00     0.049 A 
ATOM     51  H   UNL A   1      39.484  33.301  32.084  1.00  0.00     0.167 HD
ATOM     52  C   UNL A   1      41.607  26.852  28.937  1.00  0.00     0.037 A 
ATOM     53  C   UNL A   1      41.421  32.160  33.893  1.00  0.00     0.037 A 
ATOM     54  C   UNL A   1      42.685  27.381  29.717  1.00  0.00     0.049 A 
ATOM     55  C   UNL A   1      42.133  30.854  34.197  1.00  0.00     0.074 A 
ATOM     56  C   UNL A   1      43.681  28.306  29.473  1.00  0.00     0.029 A 
ATOM     57  N   UNL A   1      42.551  27.309  31.084  1.00  0.00    -0.354 N 
ATOM     58  N   UNL A   1      42.651  30.061  33.296  1.00  0.00    -0.248 NA
ATOM     59  C   UNL A   1      42.247  30.297  35.539  1.00  0.00     0.031 C 
ATOM     60  C   UNL A   1      44.203  28.722  30.731  1.00  0.00     0.029 A 
ATOM     61  C   UNL A   1      43.542  28.017  31.718  1.00  0.00     0.049 A 
ATOM     62  H   UNL A   1      41.836  26.815  31.548  1.00  0.00     0.167 HD
ATOM     63  C   UNL A   1      43.094  28.903  33.884  1.00  0.00     0.074 A 
ATOM     64  C   UNL A   1      42.802  29.098  35.292  1.00  0.00     0.031 C 
ATOM     65  C   UNL A   1      43.613  27.865  33.154  1.00  0.00     0.037 A 
BRANCH  52  66
ATOM     66  C   UNL A   1      41.710  25.937  27.721  1.00  0.00     0.064 A 
ATOM     67  C   UNL A   1      41.137  24.653  27.750  1.00  0.00     0.173 A 
ATOM     68  C   UNL A   1      42.456  26.217  26.549  1.00  0.00     0.173 A 
ATOM     69  F   UNL A   1      40.296  24.297  28.727  1.00  0.00    -0.203 F 
ATOM     70  C   UNL A   1      41.424  23.681  26.784  1.00  0.00     0.198 A 
ATOM     71  C   UNL A   1      42.813  25.222  25.628  1.00  0.00     0.198 A 
ATOM     72  F   UNL A   1      42.864  27.466  26.268  1.00  0.00    -0.203 F 
ATOM     73  F   UNL A   1      40.859  22.469  26.876  1.00  0.00    -0.200 F 
ATOM     74  C   UNL A   1      42.308  23.946  25.756  1.00  0.00     0.200 A 
ATOM     75  F   UNL A   1      43.668  25.502  24.631  1.00  0.00    -0.200 F 
ATOM     76  F   UNL A   1      42.651  22.985  24.887  1.00  0.00    -0.200 F 
ENDBRANCH  52  66
BRANCH  53  77
ATOM     77  C   UNL A   1      40.277  32.779  34.646  1.00  0.00     0.064 A 
ATOM     78  C   UNL A   1      39.200  31.943  35.040  1.00  0.00     0.173 A 
ATOM     79  C   UNL A   1      40.341  34.038  35.256  1.00  0.00     0.173 A 
ATOM     80  F   UNL A   1      39.064  30.722  34.497  1.00  0.00    -0.203 F 
ATOM     81  C   UNL A   1      38.331  32.290  36.075  1.00  0.00     0.198 A 
ATOM     82  C   UNL A   1      39.433  34.403  36.261  1.00  0.00     0.198 A 
ATOM     83  F   UNL A   1      41.343  34.881  34.975  1.00  0.00    -0.203 F 
ATOM     84  F   UNL A   1      37.427  31.403  36.516  1.00  0.00    -0.200 F 
ATOM     85  C   UNL A   1      38.456  33.517  36.694  1.00  0.00     0.200 A 
ATOM     86  F   UNL A   1      39.583  35.572  36.901  1.00  0.00    -0.200 F 
ATOM     87  F   UNL A   1      37.684  33.821  37.747  1.00  0.00    -0.200 F 
ENDBRANCH  53  77
BRANCH  65  88
ATOM     88  C   UNL A   1      44.106  26.526  33.681  1.00  0.00     0.064 A 
ATOM     89  C   UNL A   1      45.393  26.031  33.449  1.00  0.00     0.173 A 
ATOM     90  C   UNL A   1      43.258  25.641  34.410  1.00  0.00     0.173 A 
ATOM     91  F   UNL A   1      46.221  26.637  32.590  1.00  0.00    -0.203 F 
ATOM     92  C   UNL A   1      45.851  24.853  34.046  1.00  0.00     0.198 A 
ATOM     93  C   UNL A   1      43.708  24.460  34.989  1.00  0.00     0.198 A 
ATOM     94  F   UNL A   1      41.949  25.859  34.582  1.00  0.00    -0.203 F 
ATOM     95  F   UNL A   1      47.114  24.459  33.841  1.00  0.00    -0.200 F 
ATOM     96  C   UNL A   1      45.017  24.081  34.836  1.00  0.00     0.200 A 
ATOM     97  F   UNL A   1      42.855  23.703  35.694  1.00  0.00    -0.200 F 
ATOM     98  F   UNL A   1      45.464  22.962  35.418  1.00  0.00    -0.200 F 
ENDBRANCH  65  88
ENDBRANCH  39  40
ENDBRANCH  32  34
ENDBRANCH  31  32
ENDBRANCH  30  31
ENDBRANCH  29  30
ENDBRANCH  28  29
ENDBRANCH  27  28
ENDBRANCH   1  27
TORSDOF 20
ENDMDL
