MODEL 1
REMARK VINA RESULT:     -11.3      0.000      0.000
REMARK SMILES C/C(=N\NC(N)=S)c1nnn(-c2ccc(C(=O)OCCOCCOCCOC(=O)c3ccc(-c4c5nc(c(-c6c(F)c(F)c(F)c(F)c6F)c6ccc([nH]6)c(-c6c(F)c(F)c(F)c(F)c6F)c6nc(c(-c7c(F)c(F)c(F)c(F)c7F)c7ccc4[nH]7)C=C6)C=C5)cc3)cc2)c1C
REMARK SMILES IDX 21 1 20 2 19 3 18 4 16 5 17 6 15 7 12 8 13 9 94 10 14 11
REMARK SMILES IDX 93 12 11 13 8 14 9 15 95 16 10 17 96 18 2 19 1 20 3 21 4 22
REMARK SMILES IDX 5 24 7 25 6 26 22 29 23 30 24 31 25 32 26 33 27 34 28 35
REMARK SMILES IDX 29 36 30 37 31 38 92 39 32 40 91 41 33 42 34 43 35 44 85 45
REMARK SMILES IDX 36 46 90 47 84 48 86 49 37 50 89 51 83 52 82 53 38 55 70 56
REMARK SMILES IDX 50 57 69 58 51 59 54 60 68 61 87 62 52 63 53 64 67 66 88 67
REMARK SMILES IDX 55 68 39 69 40 70 48 71 41 72 42 73 46 74 49 75 43 76 44 77
REMARK SMILES IDX 47 78 45 79 71 80 72 81 80 82 73 83 74 84 78 85 81 86 75 87
REMARK SMILES IDX 76 88 79 89 77 90 56 91 57 92 65 93 58 94 59 95 63 96 66 97
REMARK SMILES IDX 60 98 61 99 64 100 62 101
REMARK H PARENT 4 23 6 27 6 28 86 54 54 65
REMARK Flexibility Score: inf
ROOT
ATOM      1  O   UNL A   1      39.944  22.055  26.373  1.00  0.00    -0.376 OA
ENDROOT
BRANCH   1   2
ATOM      2  C   UNL A   1      38.908  23.015  26.538  1.00  0.00     0.202 C 
BRANCH   2   3
ATOM      3  C   UNL A   1      37.763  23.122  25.509  1.00  0.00     0.261 C 
BRANCH   3   4
ATOM      4  O   UNL A   1      36.590  23.829  25.922  1.00  0.00    -0.460 OA
BRANCH   4   5
ATOM      5  C   UNL A   1      35.413  23.167  25.848  1.00  0.00     0.338 C 
ATOM      6  O   UNL A   1      35.224  21.991  26.099  1.00  0.00    -0.246 OA
BRANCH   5   7
ATOM      7  C   UNL A   1      34.328  24.134  25.544  1.00  0.00     0.060 A 
ATOM      8  C   UNL A   1      32.160  25.770  24.967  1.00  0.00     0.067 A 
ATOM      9  C   UNL A   1      32.243  25.171  26.227  1.00  0.00     0.029 A 
ATOM     10  C   UNL A   1      33.207  25.658  24.043  1.00  0.00     0.029 A 
ATOM     11  C   UNL A   1      33.319  24.324  26.499  1.00  0.00     0.018 A 
ATOM     12  C   UNL A   1      34.301  24.847  24.338  1.00  0.00     0.018 A 
BRANCH   8  13
ATOM     13  N   UNL A   1      30.922  26.305  24.553  1.00  0.00    -0.217 N 
ATOM     14  C   UNL A   1      29.414  27.549  23.595  1.00  0.00     0.132 A 
ATOM     15  N   UNL A   1      28.892  26.299  23.793  1.00  0.00    -0.128 NA
ATOM     16  C   UNL A   1      30.721  27.578  24.043  1.00  0.00     0.071 A 
ATOM     17  N   UNL A   1      29.846  25.529  24.302  1.00  0.00    -0.061 NA
ATOM     18  C   UNL A   1      31.785  28.600  23.893  1.00  0.00     0.069 C 
BRANCH  14  19
ATOM     19  C   UNL A   1      28.719  28.577  22.846  1.00  0.00     0.087 C 
ATOM     20  C   UNL A   1      27.248  28.757  23.132  1.00  0.00     0.071 C 
ATOM     21  N   UNL A   1      29.442  29.252  22.000  1.00  0.00    -0.176 NA
BRANCH  21  22
ATOM     22  N   UNL A   1      28.845  30.222  21.247  1.00  0.00    -0.254 N 
ATOM     23  H   UNL A   1      28.421  29.944  20.403  1.00  0.00     0.193 HD
BRANCH  22  24
ATOM     24  C   UNL A   1      28.790  31.563  21.573  1.00  0.00     0.184 C 
ATOM     25  S   UNL A   1      27.953  32.785  20.813  1.00  0.00    -0.040 S 
BRANCH  24  26
ATOM     26  N   UNL A   1      29.528  31.863  22.682  1.00  0.00    -0.375 N 
ATOM     27  H   UNL A   1      29.200  31.611  23.575  1.00  0.00     0.159 HD
ATOM     28  H   UNL A   1      30.389  32.332  22.588  1.00  0.00     0.159 HD
ENDBRANCH  24  26
ENDBRANCH  22  24
ENDBRANCH  21  22
ENDBRANCH  14  19
ENDBRANCH   8  13
ENDBRANCH   5   7
ENDBRANCH   4   5
ENDBRANCH   3   4
ENDBRANCH   2   3
ENDBRANCH   1   2
BRANCH   1  29
ATOM     29  C   UNL A   1      40.637  21.645  27.535  1.00  0.00     0.188 C 
BRANCH  29  30
ATOM     30  C   UNL A   1      41.154  20.192  27.466  1.00  0.00     0.188 C 
BRANCH  30  31
ATOM     31  O   UNL A   1      42.484  19.905  27.046  1.00  0.00    -0.376 OA
BRANCH  31  32
ATOM     32  C   UNL A   1      42.938  20.283  25.749  1.00  0.00     0.202 C 
BRANCH  32  33
ATOM     33  C   UNL A   1      43.639  21.627  25.543  1.00  0.00     0.261 C 
BRANCH  33  34
ATOM     34  O   UNL A   1      42.798  22.639  24.998  1.00  0.00    -0.460 OA
BRANCH  34  35
ATOM     35  C   UNL A   1      43.277  23.893  25.142  1.00  0.00     0.338 C 
ATOM     36  O   UNL A   1      44.262  24.369  24.606  1.00  0.00    -0.246 OA
BRANCH  35  37
ATOM     37  C   UNL A   1      42.427  24.656  26.073  1.00  0.00     0.060 A 
ATOM     38  C   UNL A   1      41.551  25.579  25.496  1.00  0.00     0.016 A 
ATOM     39  C   UNL A   1      42.641  24.619  27.457  1.00  0.00     0.016 A 
ATOM     40  C   UNL A   1      41.079  26.619  26.267  1.00  0.00     0.010 A 
ATOM     41  C   UNL A   1      42.166  25.661  28.233  1.00  0.00     0.010 A 
ATOM     42  C   UNL A   1      41.493  26.707  27.600  1.00  0.00    -0.014 A 
BRANCH  42  43
ATOM     43  C   UNL A   1      41.440  28.031  28.200  1.00  0.00     0.031 A 
ATOM     44  C   UNL A   1      42.569  28.955  27.979  1.00  0.00     0.074 A 
ATOM     45  C   UNL A   1      40.364  28.398  28.923  1.00  0.00     0.049 A 
ATOM     46  N   UNL A   1      43.307  29.538  28.868  1.00  0.00    -0.248 NA
ATOM     47  C   UNL A   1      42.925  29.269  26.591  1.00  0.00     0.031 C 
ATOM     48  C   UNL A   1      39.062  27.726  29.005  1.00  0.00     0.029 A 
ATOM     49  N   UNL A   1      40.183  29.525  29.666  1.00  0.00    -0.354 N 
ATOM     50  C   UNL A   1      44.144  30.397  28.165  1.00  0.00     0.074 A 
ATOM     51  C   UNL A   1      43.915  30.144  26.763  1.00  0.00     0.031 C 
ATOM     52  C   UNL A   1      38.170  28.562  29.578  1.00  0.00     0.029 A 
ATOM     53  C   UNL A   1      38.864  29.764  30.007  1.00  0.00     0.049 A 
ATOM     54  H   UNL A   1      40.924  30.115  29.937  1.00  0.00     0.167 HD
ATOM     55  C   UNL A   1      44.867  31.375  28.773  1.00  0.00     0.037 A 
ATOM     56  C   UNL A   1      38.362  30.908  30.528  1.00  0.00     0.037 A 
ATOM     57  C   UNL A   1      45.015  31.165  30.184  1.00  0.00     0.049 A 
ATOM     58  C   UNL A   1      39.483  31.680  31.115  1.00  0.00     0.074 A 
ATOM     59  C   UNL A   1      45.602  30.184  30.959  1.00  0.00     0.029 A 
ATOM     60  N   UNL A   1      44.266  31.919  31.050  1.00  0.00    -0.354 N 
ATOM     61  N   UNL A   1      40.119  31.353  32.205  1.00  0.00    -0.248 NA
ATOM     62  C   UNL A   1      40.155  32.657  30.270  1.00  0.00     0.031 C 
ATOM     63  C   UNL A   1      44.820  30.121  32.148  1.00  0.00     0.029 A 
ATOM     64  C   UNL A   1      43.802  31.065  32.019  1.00  0.00     0.049 A 
ATOM     65  H   UNL A   1      44.094  32.887  30.989  1.00  0.00     0.167 HD
ATOM     66  C   UNL A   1      41.425  31.767  31.990  1.00  0.00     0.074 A 
ATOM     67  C   UNL A   1      41.360  32.663  30.844  1.00  0.00     0.031 C 
ATOM     68  C   UNL A   1      42.476  31.130  32.584  1.00  0.00     0.037 A 
BRANCH  55  69
ATOM     69  C   UNL A   1      45.249  32.658  28.102  1.00  0.00     0.064 A 
ATOM     70  C   UNL A   1      44.278  33.636  27.826  1.00  0.00     0.173 A 
ATOM     71  C   UNL A   1      46.510  32.847  27.498  1.00  0.00     0.173 A 
ATOM     72  F   UNL A   1      43.034  33.516  28.311  1.00  0.00    -0.203 F 
ATOM     73  C   UNL A   1      44.549  34.722  26.990  1.00  0.00     0.198 A 
ATOM     74  C   UNL A   1      46.794  33.957  26.707  1.00  0.00     0.198 A 
ATOM     75  F   UNL A   1      47.471  31.914  27.582  1.00  0.00    -0.203 F 
ATOM     76  F   UNL A   1      43.572  35.585  26.681  1.00  0.00    -0.200 F 
ATOM     77  C   UNL A   1      45.808  34.885  26.437  1.00  0.00     0.200 A 
ATOM     78  F   UNL A   1      48.011  34.086  26.159  1.00  0.00    -0.200 F 
ATOM     79  F   UNL A   1      46.059  35.906  25.607  1.00  0.00    -0.200 F 
ENDBRANCH  55  69
BRANCH  56  80
ATOM     80  C   UNL A   1      37.019  31.481  30.303  1.00  0.00     0.064 A 
ATOM     81  C   UNL A   1      36.150  31.739  31.373  1.00  0.00     0.173 A 
ATOM     82  C   UNL A   1      36.647  32.011  29.051  1.00  0.00     0.173 A 
ATOM     83  F   UNL A   1      36.457  31.318  32.608  1.00  0.00    -0.203 F 
ATOM     84  C   UNL A   1      34.980  32.486  31.201  1.00  0.00     0.198 A 
ATOM     85  C   UNL A   1      35.473  32.741  28.875  1.00  0.00     0.198 A 
ATOM     86  F   UNL A   1      37.460  31.908  27.989  1.00  0.00    -0.203 F 
ATOM     87  F   UNL A   1      34.202  32.760  32.257  1.00  0.00    -0.200 F 
ATOM     88  C   UNL A   1      34.644  32.987  29.954  1.00  0.00     0.200 A 
ATOM     89  F   UNL A   1      35.180  33.250  27.671  1.00  0.00    -0.200 F 
ATOM     90  F   UNL A   1      33.547  33.742  29.798  1.00  0.00    -0.200 F 
ENDBRANCH  56  80
BRANCH  68  91
ATOM     91  C   UNL A   1      42.173  30.183  33.707  1.00  0.00     0.064 A 
ATOM     92  C   UNL A   1      41.752  28.859  33.503  1.00  0.00     0.173 A 
ATOM     93  C   UNL A   1      42.463  30.578  35.020  1.00  0.00     0.173 A 
ATOM     94  F   UNL A   1      41.559  28.383  32.265  1.00  0.00    -0.203 F 
ATOM     95  C   UNL A   1      41.585  27.984  34.574  1.00  0.00     0.198 A 
ATOM     96  C   UNL A   1      42.327  29.692  36.085  1.00  0.00     0.198 A 
ATOM     97  F   UNL A   1      42.929  31.814  35.263  1.00  0.00    -0.203 F 
ATOM     98  F   UNL A   1      41.175  26.726  34.357  1.00  0.00    -0.200 F 
ATOM     99  C   UNL A   1      41.878  28.399  35.863  1.00  0.00     0.200 A 
ATOM    100  F   UNL A   1      42.659  30.082  37.324  1.00  0.00    -0.200 F 
ATOM    101  F   UNL A   1      41.758  27.546  36.889  1.00  0.00    -0.200 F 
ENDBRANCH  68  91
ENDBRANCH  42  43
ENDBRANCH  35  37
ENDBRANCH  34  35
ENDBRANCH  33  34
ENDBRANCH  32  33
ENDBRANCH  31  32
ENDBRANCH  30  31
ENDBRANCH  29  30
ENDBRANCH   1  29
TORSDOF 22
ENDMDL
MODEL 2
REMARK VINA RESULT:     -11.3      4.869     10.014
REMARK SMILES C/C(=N\NC(N)=S)c1nnn(-c2ccc(C(=O)OCCOCCOCCOC(=O)c3ccc(-c4c5nc(c(-c6c(F)c(F)c(F)c(F)c6F)c6ccc([nH]6)c(-c6c(F)c(F)c(F)c(F)c6F)c6nc(c(-c7c(F)c(F)c(F)c(F)c7F)c7ccc4[nH]7)C=C6)C=C5)cc3)cc2)c1C
REMARK SMILES IDX 21 1 20 2 19 3 18 4 16 5 17 6 15 7 12 8 13 9 94 10 14 11
REMARK SMILES IDX 93 12 11 13 8 14 9 15 95 16 10 17 96 18 2 19 1 20 3 21 4 22
REMARK SMILES IDX 5 24 7 25 6 26 22 29 23 30 24 31 25 32 26 33 27 34 28 35
REMARK SMILES IDX 29 36 30 37 31 38 92 39 32 40 91 41 33 42 34 43 35 44 85 45
REMARK SMILES IDX 36 46 90 47 84 48 86 49 37 50 89 51 83 52 82 53 38 55 70 56
REMARK SMILES IDX 50 57 69 58 51 59 54 60 68 61 87 62 52 63 53 64 67 66 88 67
REMARK SMILES IDX 55 68 39 69 40 70 48 71 41 72 42 73 46 74 49 75 43 76 44 77
REMARK SMILES IDX 47 78 45 79 71 80 72 81 80 82 73 83 74 84 78 85 81 86 75 87
REMARK SMILES IDX 76 88 79 89 77 90 56 91 57 92 65 93 58 94 59 95 63 96 66 97
REMARK SMILES IDX 60 98 61 99 64 100 62 101
REMARK H PARENT 4 23 6 27 6 28 86 54 54 65
REMARK Flexibility Score: inf
ROOT
ATOM      1  O   UNL A   1      34.963  33.135  27.625  1.00  0.00    -0.376 OA
ENDROOT
BRANCH   1   2
ATOM      2  C   UNL A   1      34.060  32.100  27.994  1.00  0.00     0.202 C 
BRANCH   2   3
ATOM      3  C   UNL A   1      34.342  30.633  27.608  1.00  0.00     0.261 C 
BRANCH   3   4
ATOM      4  O   UNL A   1      33.588  30.098  26.516  1.00  0.00    -0.460 OA
BRANCH   4   5
ATOM      5  C   UNL A   1      32.469  29.403  26.822  1.00  0.00     0.338 C 
ATOM      6  O   UNL A   1      31.408  29.864  27.201  1.00  0.00    -0.246 OA
BRANCH   5   7
ATOM      7  C   UNL A   1      32.677  27.971  26.486  1.00  0.00     0.060 A 
ATOM      8  C   UNL A   1      33.033  25.248  26.071  1.00  0.00     0.067 A 
ATOM      9  C   UNL A   1      31.751  25.732  26.354  1.00  0.00     0.029 A 
ATOM     10  C   UNL A   1      34.108  26.124  25.874  1.00  0.00     0.029 A 
ATOM     11  C   UNL A   1      31.585  27.097  26.593  1.00  0.00     0.018 A 
ATOM     12  C   UNL A   1      33.926  27.492  26.070  1.00  0.00     0.018 A 
BRANCH   8  13
ATOM     13  N   UNL A   1      33.277  23.865  26.202  1.00  0.00    -0.217 N 
ATOM     14  C   UNL A   1      33.904  21.821  25.797  1.00  0.00     0.132 A 
ATOM     15  N   UNL A   1      33.933  22.029  27.149  1.00  0.00    -0.128 NA
ATOM     16  C   UNL A   1      33.518  22.985  25.159  1.00  0.00     0.071 A 
ATOM     17  N   UNL A   1      33.629  23.301  27.378  1.00  0.00    -0.061 NA
ATOM     18  C   UNL A   1      33.512  23.360  23.725  1.00  0.00     0.069 C 
BRANCH  14  19
ATOM     19  C   UNL A   1      34.405  20.607  25.182  1.00  0.00     0.087 C 
ATOM     20  C   UNL A   1      35.900  20.498  25.001  1.00  0.00     0.071 C 
ATOM     21  N   UNL A   1      33.509  19.723  24.852  1.00  0.00    -0.176 NA
BRANCH  21  22
ATOM     22  N   UNL A   1      33.912  18.566  24.251  1.00  0.00    -0.254 N 
ATOM     23  H   UNL A   1      34.851  18.510  23.959  1.00  0.00     0.193 HD
BRANCH  22  24
ATOM     24  C   UNL A   1      33.109  17.466  24.018  1.00  0.00     0.184 C 
ATOM     25  S   UNL A   1      33.149  15.973  24.751  1.00  0.00    -0.040 S 
BRANCH  24  26
ATOM     26  N   UNL A   1      32.165  17.703  23.058  1.00  0.00    -0.375 N 
ATOM     27  H   UNL A   1      31.266  17.314  23.145  1.00  0.00     0.159 HD
ATOM     28  H   UNL A   1      32.387  18.262  22.278  1.00  0.00     0.159 HD
ENDBRANCH  24  26
ENDBRANCH  22  24
ENDBRANCH  21  22
ENDBRANCH  14  19
ENDBRANCH   8  13
ENDBRANCH   5   7
ENDBRANCH   4   5
ENDBRANCH   3   4
ENDBRANCH   2   3
ENDBRANCH   1   2
BRANCH   1  29
ATOM     29  C   UNL A   1      34.706  34.429  28.130  1.00  0.00     0.188 C 
BRANCH  29  30
ATOM     30  C   UNL A   1      33.403  34.522  28.953  1.00  0.00     0.188 C 
BRANCH  30  31
ATOM     31  O   UNL A   1      33.412  34.341  30.366  1.00  0.00    -0.376 OA
BRANCH  31  32
ATOM     32  C   UNL A   1      34.381  34.995  31.180  1.00  0.00     0.202 C 
BRANCH  32  33
ATOM     33  C   UNL A   1      35.484  34.185  31.862  1.00  0.00     0.261 C 
BRANCH  33  34
ATOM     34  O   UNL A   1      36.152  33.273  30.994  1.00  0.00    -0.460 OA
BRANCH  34  35
ATOM     35  C   UNL A   1      35.989  31.974  31.325  1.00  0.00     0.338 C 
ATOM     36  O   UNL A   1      35.211  31.518  32.145  1.00  0.00    -0.246 OA
BRANCH  35  37
ATOM     37  C   UNL A   1      36.907  31.132  30.540  1.00  0.00     0.060 A 
ATOM     38  C   UNL A   1      36.655  29.758  30.557  1.00  0.00     0.016 A 
ATOM     39  C   UNL A   1      38.088  31.651  29.992  1.00  0.00     0.016 A 
ATOM     40  C   UNL A   1      37.682  28.890  30.255  1.00  0.00     0.010 A 
ATOM     41  C   UNL A   1      39.119  30.781  29.686  1.00  0.00     0.010 A 
ATOM     42  C   UNL A   1      38.936  29.420  29.938  1.00  0.00    -0.014 A 
BRANCH  42  43
ATOM     43  C   UNL A   1      40.076  28.544  30.158  1.00  0.00     0.031 A 
ATOM     44  C   UNL A   1      40.600  28.391  31.529  1.00  0.00     0.074 A 
ATOM     45  C   UNL A   1      40.617  27.874  29.121  1.00  0.00     0.049 A 
ATOM     46  N   UNL A   1      41.802  28.615  31.952  1.00  0.00    -0.248 NA
ATOM     47  C   UNL A   1      39.665  27.934  32.563  1.00  0.00     0.031 C 
ATOM     48  C   UNL A   1      40.060  27.693  27.776  1.00  0.00     0.029 A 
ATOM     49  N   UNL A   1      41.752  27.120  29.095  1.00  0.00    -0.354 N 
ATOM     50  C   UNL A   1      41.821  28.207  33.280  1.00  0.00     0.074 A 
ATOM     51  C   UNL A   1      40.463  27.859  33.627  1.00  0.00     0.031 C 
ATOM     52  C   UNL A   1      40.746  26.718  27.142  1.00  0.00     0.029 A 
ATOM     53  C   UNL A   1      41.854  26.301  27.986  1.00  0.00     0.049 A 
ATOM     54  H   UNL A   1      42.437  27.157  29.801  1.00  0.00     0.167 HD
ATOM     55  C   UNL A   1      42.975  28.033  33.976  1.00  0.00     0.037 A 
ATOM     56  C   UNL A   1      42.735  25.289  27.810  1.00  0.00     0.037 A 
ATOM     57  C   UNL A   1      44.095  28.698  33.376  1.00  0.00     0.049 A 
ATOM     58  C   UNL A   1      43.864  25.491  28.751  1.00  0.00     0.074 A 
ATOM     59  C   UNL A   1      44.403  30.016  33.102  1.00  0.00     0.029 A 
ATOM     60  N   UNL A   1      45.021  27.953  32.692  1.00  0.00    -0.354 N 
ATOM     61  N   UNL A   1      44.768  26.423  28.637  1.00  0.00    -0.248 NA
ATOM     62  C   UNL A   1      43.783  24.857  30.059  1.00  0.00     0.031 C 
ATOM     63  C   UNL A   1      45.195  29.982  31.918  1.00  0.00     0.029 A 
ATOM     64  C   UNL A   1      45.314  28.645  31.543  1.00  0.00     0.049 A 
ATOM     65  H   UNL A   1      45.402  27.089  32.970  1.00  0.00     0.167 HD
ATOM     66  C   UNL A   1      45.088  26.766  29.941  1.00  0.00     0.074 A 
ATOM     67  C   UNL A   1      44.545  25.695  30.765  1.00  0.00     0.031 C 
ATOM     68  C   UNL A   1      45.518  28.023  30.257  1.00  0.00     0.037 A 
BRANCH  55  69
ATOM     69  C   UNL A   1      43.124  27.052  35.099  1.00  0.00     0.064 A 
ATOM     70  C   UNL A   1      43.449  27.494  36.393  1.00  0.00     0.173 A 
ATOM     71  C   UNL A   1      43.198  25.661  34.880  1.00  0.00     0.173 A 
ATOM     72  F   UNL A   1      43.459  28.802  36.685  1.00  0.00    -0.203 F 
ATOM     73  C   UNL A   1      43.836  26.601  37.395  1.00  0.00     0.198 A 
ATOM     74  C   UNL A   1      43.534  24.768  35.894  1.00  0.00     0.198 A 
ATOM     75  F   UNL A   1      43.039  25.138  33.654  1.00  0.00    -0.203 F 
ATOM     76  F   UNL A   1      44.223  27.068  38.590  1.00  0.00    -0.200 F 
ATOM     77  C   UNL A   1      43.872  25.239  37.147  1.00  0.00     0.200 A 
ATOM     78  F   UNL A   1      43.588  23.455  35.629  1.00  0.00    -0.200 F 
ATOM     79  F   UNL A   1      44.276  24.385  38.097  1.00  0.00    -0.200 F 
ENDBRANCH  55  69
BRANCH  56  80
ATOM     80  C   UNL A   1      42.518  24.029  27.070  1.00  0.00     0.064 A 
ATOM     81  C   UNL A   1      43.251  23.730  25.912  1.00  0.00     0.173 A 
ATOM     82  C   UNL A   1      41.752  22.979  27.616  1.00  0.00     0.173 A 
ATOM     83  F   UNL A   1      44.048  24.656  25.361  1.00  0.00    -0.203 F 
ATOM     84  C   UNL A   1      43.222  22.456  25.337  1.00  0.00     0.198 A 
ATOM     85  C   UNL A   1      41.709  21.714  27.034  1.00  0.00     0.198 A 
ATOM     86  F   UNL A   1      41.099  23.134  28.778  1.00  0.00    -0.203 F 
ATOM     87  F   UNL A   1      43.978  22.190  24.263  1.00  0.00    -0.200 F 
ATOM     88  C   UNL A   1      42.453  21.449  25.900  1.00  0.00     0.200 A 
ATOM     89  F   UNL A   1      40.990  20.741  27.610  1.00  0.00    -0.200 F 
ATOM     90  F   UNL A   1      42.461  20.215  25.376  1.00  0.00    -0.200 F 
ENDBRANCH  56  80
BRANCH  68  91
ATOM     91  C   UNL A   1      45.932  28.921  29.130  1.00  0.00     0.064 A 
ATOM     92  C   UNL A   1      47.234  28.940  28.602  1.00  0.00     0.173 A 
ATOM     93  C   UNL A   1      44.951  29.670  28.468  1.00  0.00     0.173 A 
ATOM     94  F   UNL A   1      48.197  28.166  29.120  1.00  0.00    -0.203 F 
ATOM     95  C   UNL A   1      47.545  29.714  27.485  1.00  0.00     0.198 A 
ATOM     96  C   UNL A   1      45.258  30.415  27.333  1.00  0.00     0.198 A 
ATOM     97  F   UNL A   1      43.678  29.637  28.894  1.00  0.00    -0.203 F 
ATOM     98  F   UNL A   1      48.796  29.723  27.002  1.00  0.00    -0.200 F 
ATOM     99  C   UNL A   1      46.556  30.446  26.848  1.00  0.00     0.200 A 
ATOM    100  F   UNL A   1      44.289  31.083  26.690  1.00  0.00    -0.200 F 
ATOM    101  F   UNL A   1      46.846  31.157  25.750  1.00  0.00    -0.200 F 
ENDBRANCH  68  91
ENDBRANCH  42  43
ENDBRANCH  35  37
ENDBRANCH  34  35
ENDBRANCH  33  34
ENDBRANCH  32  33
ENDBRANCH  31  32
ENDBRANCH  30  31
ENDBRANCH  29  30
ENDBRANCH   1  29
TORSDOF 22
ENDMDL
MODEL 3
REMARK VINA RESULT:     -11.2      2.566      3.808
REMARK SMILES C/C(=N\NC(N)=S)c1nnn(-c2ccc(C(=O)OCCOCCOCCOC(=O)c3ccc(-c4c5nc(c(-c6c(F)c(F)c(F)c(F)c6F)c6ccc([nH]6)c(-c6c(F)c(F)c(F)c(F)c6F)c6nc(c(-c7c(F)c(F)c(F)c(F)c7F)c7ccc4[nH]7)C=C6)C=C5)cc3)cc2)c1C
REMARK SMILES IDX 21 1 20 2 19 3 18 4 16 5 17 6 15 7 12 8 13 9 94 10 14 11
REMARK SMILES IDX 93 12 11 13 8 14 9 15 95 16 10 17 96 18 2 19 1 20 3 21 4 22
REMARK SMILES IDX 5 24 7 25 6 26 22 29 23 30 24 31 25 32 26 33 27 34 28 35
REMARK SMILES IDX 29 36 30 37 31 38 92 39 32 40 91 41 33 42 34 43 35 44 85 45
REMARK SMILES IDX 36 46 90 47 84 48 86 49 37 50 89 51 83 52 82 53 38 55 70 56
REMARK SMILES IDX 50 57 69 58 51 59 54 60 68 61 87 62 52 63 53 64 67 66 88 67
REMARK SMILES IDX 55 68 39 69 40 70 48 71 41 72 42 73 46 74 49 75 43 76 44 77
REMARK SMILES IDX 47 78 45 79 71 80 72 81 80 82 73 83 74 84 78 85 81 86 75 87
REMARK SMILES IDX 76 88 79 89 77 90 56 91 57 92 65 93 58 94 59 95 63 96 66 97
REMARK SMILES IDX 60 98 61 99 64 100 62 101
REMARK H PARENT 4 23 6 27 6 28 86 54 54 65
REMARK Flexibility Score: inf
ROOT
ATOM      1  O   UNL A   1      36.799  22.652  25.662  1.00  0.00    -0.376 OA
ENDROOT
BRANCH   1   2
ATOM      2  C   UNL A   1      36.583  21.628  24.700  1.00  0.00     0.202 C 
BRANCH   2   3
ATOM      3  C   UNL A   1      35.629  20.453  25.001  1.00  0.00     0.261 C 
BRANCH   3   4
ATOM      4  O   UNL A   1      34.227  20.725  24.927  1.00  0.00    -0.460 OA
BRANCH   4   5
ATOM      5  C   UNL A   1      33.634  21.218  26.038  1.00  0.00     0.338 C 
ATOM      6  O   UNL A   1      33.934  20.969  27.191  1.00  0.00    -0.246 OA
BRANCH   5   7
ATOM      7  C   UNL A   1      32.632  22.240  25.644  1.00  0.00     0.060 A 
ATOM      8  C   UNL A   1      30.925  24.285  24.860  1.00  0.00     0.067 A 
ATOM      9  C   UNL A   1      31.659  23.601  23.886  1.00  0.00     0.029 A 
ATOM     10  C   UNL A   1      30.944  23.876  26.199  1.00  0.00     0.029 A 
ATOM     11  C   UNL A   1      32.539  22.596  24.291  1.00  0.00     0.018 A 
ATOM     12  C   UNL A   1      31.791  22.841  26.591  1.00  0.00     0.018 A 
BRANCH   8  13
ATOM     13  N   UNL A   1      30.339  25.522  24.519  1.00  0.00    -0.217 N 
ATOM     14  C   UNL A   1      30.068  27.585  23.880  1.00  0.00     0.132 A 
ATOM     15  N   UNL A   1      28.933  26.880  23.582  1.00  0.00    -0.128 NA
ATOM     16  C   UNL A   1      30.999  26.739  24.451  1.00  0.00     0.071 A 
ATOM     17  N   UNL A   1      29.140  25.609  23.902  1.00  0.00    -0.061 NA
ATOM     18  C   UNL A   1      32.433  26.935  24.775  1.00  0.00     0.069 C 
BRANCH  14  19
ATOM     19  C   UNL A   1      30.273  28.955  23.451  1.00  0.00     0.087 C 
ATOM     20  C   UNL A   1      31.102  29.838  24.353  1.00  0.00     0.071 C 
ATOM     21  N   UNL A   1      29.723  29.286  22.319  1.00  0.00    -0.176 NA
BRANCH  21  22
ATOM     22  N   UNL A   1      29.861  30.566  21.866  1.00  0.00    -0.254 N 
ATOM     23  H   UNL A   1      30.749  30.837  21.538  1.00  0.00     0.193 HD
BRANCH  22  24
ATOM     24  C   UNL A   1      28.856  31.513  21.833  1.00  0.00     0.184 C 
ATOM     25  S   UNL A   1      28.047  32.127  20.514  1.00  0.00    -0.040 S 
BRANCH  24  26
ATOM     26  N   UNL A   1      28.514  31.957  23.079  1.00  0.00    -0.375 N 
ATOM     27  H   UNL A   1      28.312  31.311  23.793  1.00  0.00     0.159 HD
ATOM     28  H   UNL A   1      28.469  32.923  23.262  1.00  0.00     0.159 HD
ENDBRANCH  24  26
ENDBRANCH  22  24
ENDBRANCH  21  22
ENDBRANCH  14  19
ENDBRANCH   8  13
ENDBRANCH   5   7
ENDBRANCH   4   5
ENDBRANCH   3   4
ENDBRANCH   2   3
ENDBRANCH   1   2
BRANCH   1  29
ATOM     29  C   UNL A   1      38.139  22.950  26.000  1.00  0.00     0.188 C 
BRANCH  29  30
ATOM     30  C   UNL A   1      39.063  21.713  26.007  1.00  0.00     0.188 C 
BRANCH  30  31
ATOM     31  O   UNL A   1      40.444  21.831  26.336  1.00  0.00    -0.376 OA
BRANCH  31  32
ATOM     32  C   UNL A   1      41.057  20.925  27.250  1.00  0.00     0.202 C 
BRANCH  32  33
ATOM     33  C   UNL A   1      42.130  19.951  26.762  1.00  0.00     0.261 C 
BRANCH  33  34
ATOM     34  O   UNL A   1      42.542  20.173  25.416  1.00  0.00    -0.460 OA
BRANCH  34  35
ATOM     35  C   UNL A   1      43.877  20.306  25.261  1.00  0.00     0.338 C 
ATOM     36  O   UNL A   1      44.694  19.411  25.139  1.00  0.00    -0.246 OA
BRANCH  35  37
ATOM     37  C   UNL A   1      44.246  21.732  25.260  1.00  0.00     0.060 A 
ATOM     38  C   UNL A   1      45.317  22.095  26.082  1.00  0.00     0.016 A 
ATOM     39  C   UNL A   1      43.436  22.698  24.648  1.00  0.00     0.016 A 
ATOM     40  C   UNL A   1      45.428  23.408  26.488  1.00  0.00     0.010 A 
ATOM     41  C   UNL A   1      43.547  24.016  25.053  1.00  0.00     0.010 A 
ATOM     42  C   UNL A   1      44.466  24.326  26.058  1.00  0.00    -0.014 A 
BRANCH  42  43
ATOM     43  C   UNL A   1      44.288  25.503  26.893  1.00  0.00     0.031 A 
ATOM     44  C   UNL A   1      45.334  26.544  26.885  1.00  0.00     0.074 A 
ATOM     45  C   UNL A   1      43.171  25.636  27.637  1.00  0.00     0.049 A 
ATOM     46  N   UNL A   1      46.003  27.009  27.891  1.00  0.00    -0.248 NA
ATOM     47  C   UNL A   1      45.682  27.143  25.592  1.00  0.00     0.031 C 
ATOM     48  C   UNL A   1      41.933  24.853  27.550  1.00  0.00     0.029 A 
ATOM     49  N   UNL A   1      42.880  26.583  28.572  1.00  0.00    -0.354 N 
ATOM     50  C   UNL A   1      46.771  28.052  27.388  1.00  0.00     0.074 A 
ATOM     51  C   UNL A   1      46.588  28.050  25.956  1.00  0.00     0.031 C 
ATOM     52  C   UNL A   1      40.962  25.488  28.240  1.00  0.00     0.029 A 
ATOM     53  C   UNL A   1      41.540  26.642  28.909  1.00  0.00     0.049 A 
ATOM     54  H   UNL A   1      43.561  27.171  28.971  1.00  0.00     0.167 HD
ATOM     55  C   UNL A   1      47.395  28.954  28.190  1.00  0.00     0.037 A 
ATOM     56  C   UNL A   1      40.931  27.620  29.617  1.00  0.00     0.037 A 
ATOM     57  C   UNL A   1      47.540  28.495  29.541  1.00  0.00     0.049 A 
ATOM     58  C   UNL A   1      41.970  28.359  30.375  1.00  0.00     0.074 A 
ATOM     59  C   UNL A   1      48.199  27.438  30.138  1.00  0.00     0.029 A 
ATOM     60  N   UNL A   1      46.713  29.006  30.509  1.00  0.00    -0.354 N 
ATOM     61  N   UNL A   1      42.615  27.886  31.404  1.00  0.00    -0.248 NA
ATOM     62  C   UNL A   1      42.566  29.531  29.749  1.00  0.00     0.031 C 
ATOM     63  C   UNL A   1      47.407  27.086  31.268  1.00  0.00     0.029 A 
ATOM     64  C   UNL A   1      46.311  27.948  31.286  1.00  0.00     0.049 A 
ATOM     65  H   UNL A   1      46.457  29.950  30.624  1.00  0.00     0.167 HD
ATOM     66  C   UNL A   1      43.882  28.442  31.312  1.00  0.00     0.074 A 
ATOM     67  C   UNL A   1      43.756  29.529  30.352  1.00  0.00     0.031 C 
ATOM     68  C   UNL A   1      44.976  27.794  31.810  1.00  0.00     0.037 A 
BRANCH  55  69
ATOM     69  C   UNL A   1      47.674  30.369  27.784  1.00  0.00     0.064 A 
ATOM     70  C   UNL A   1      46.618  31.241  27.468  1.00  0.00     0.173 A 
ATOM     71  C   UNL A   1      48.970  30.819  27.457  1.00  0.00     0.173 A 
ATOM     72  F   UNL A   1      45.346  30.880  27.692  1.00  0.00    -0.203 F 
ATOM     73  C   UNL A   1      46.846  32.474  26.853  1.00  0.00     0.198 A 
ATOM     74  C   UNL A   1      49.199  32.070  26.890  1.00  0.00     0.198 A 
ATOM     75  F   UNL A   1      50.040  30.020  27.589  1.00  0.00    -0.203 F 
ATOM     76  F   UNL A   1      45.807  33.239  26.488  1.00  0.00    -0.200 F 
ATOM     77  C   UNL A   1      48.136  32.890  26.571  1.00  0.00     0.200 A 
ATOM     78  F   UNL A   1      50.453  32.446  26.601  1.00  0.00    -0.200 F 
ATOM     79  F   UNL A   1      48.353  34.057  25.950  1.00  0.00    -0.200 F 
ENDBRANCH  55  69
BRANCH  56  80
ATOM     80  C   UNL A   1      39.545  28.111  29.461  1.00  0.00     0.064 A 
ATOM     81  C   UNL A   1      38.685  28.223  30.562  1.00  0.00     0.173 A 
ATOM     82  C   UNL A   1      39.109  28.707  28.259  1.00  0.00     0.173 A 
ATOM     83  F   UNL A   1      39.049  27.733  31.755  1.00  0.00    -0.203 F 
ATOM     84  C   UNL A   1      37.462  28.895  30.468  1.00  0.00     0.198 A 
ATOM     85  C   UNL A   1      37.883  29.361  28.161  1.00  0.00     0.198 A 
ATOM     86  F   UNL A   1      39.904  28.744  27.179  1.00  0.00    -0.203 F 
ATOM     87  F   UNL A   1      36.690  29.031  31.555  1.00  0.00    -0.200 F 
ATOM     88  C   UNL A   1      37.064  29.465  29.270  1.00  0.00     0.200 A 
ATOM     89  F   UNL A   1      37.528  29.938  27.005  1.00  0.00    -0.200 F 
ATOM     90  F   UNL A   1      35.913  30.148  29.191  1.00  0.00    -0.200 F 
ENDBRANCH  56  80
BRANCH  68  91
ATOM     91  C   UNL A   1      44.740  26.631  32.726  1.00  0.00     0.064 A 
ATOM     92  C   UNL A   1      44.552  26.769  34.111  1.00  0.00     0.173 A 
ATOM     93  C   UNL A   1      44.547  25.360  32.167  1.00  0.00     0.173 A 
ATOM     94  F   UNL A   1      44.616  27.973  34.696  1.00  0.00    -0.203 F 
ATOM     95  C   UNL A   1      44.229  25.671  34.906  1.00  0.00     0.198 A 
ATOM     96  C   UNL A   1      44.193  24.272  32.960  1.00  0.00     0.198 A 
ATOM     97  F   UNL A   1      44.653  25.186  30.840  1.00  0.00    -0.203 F 
ATOM     98  F   UNL A   1      44.062  25.825  36.228  1.00  0.00    -0.200 F 
ATOM     99  C   UNL A   1      44.045  24.425  34.329  1.00  0.00     0.200 A 
ATOM    100  F   UNL A   1      43.966  23.078  32.392  1.00  0.00    -0.200 F 
ATOM    101  F   UNL A   1      43.694  23.377  35.088  1.00  0.00    -0.200 F 
ENDBRANCH  68  91
ENDBRANCH  42  43
ENDBRANCH  35  37
ENDBRANCH  34  35
ENDBRANCH  33  34
ENDBRANCH  32  33
ENDBRANCH  31  32
ENDBRANCH  30  31
ENDBRANCH  29  30
ENDBRANCH   1  29
TORSDOF 22
ENDMDL
