MODEL 1
REMARK VINA RESULT:     -12.8      0.000      0.000
REMARK SMILES Cc1ccccc1/[NH+]=C1\S[C@@H](CC(=O)Nc2ccc(C(=O)OCCOCCOCCOC(=O)c3ccc(-c4c5nc(c(-c6c(F)c(F)c(F)c(F)c6F)c6ccc([nH]6)c(-c6c(F)c(F)c(F)c(F)c6F)c6nc(c(-c7c(F)c(F)c(F)c(F)c7F)c7ccc4[nH]7)C=C6)C=C5)cc3)cc2)C(=O)N1C
REMARK SMILES IDX 26 1 25 2 24 3 23 4 22 5 20 6 21 7 19 8 16 9 17 10 98 11
REMARK SMILES IDX 18 12 97 13 15 14 13 15 14 16 12 18 11 19 8 20 9 21 10 23
REMARK SMILES IDX 101 24 99 25 102 26 100 27 7 28 1 29 2 30 3 31 4 32 6 33
REMARK SMILES IDX 5 34 27 35 28 36 29 37 30 38 31 39 32 40 33 41 34 42 35 43
REMARK SMILES IDX 96 44 36 45 95 46 37 47 38 48 39 49 89 50 40 51 94 52 88 53
REMARK SMILES IDX 90 54 41 55 93 56 87 57 86 58 42 60 74 61 54 62 73 63 55 64
REMARK SMILES IDX 58 65 72 66 91 67 56 68 57 69 71 71 92 72 59 73 43 74 44 75
REMARK SMILES IDX 52 76 45 77 46 78 50 79 53 80 47 81 48 82 51 83 49 84 75 85
REMARK SMILES IDX 76 86 84 87 77 88 78 89 82 90 85 91 79 92 80 93 83 94 81 95
REMARK SMILES IDX 60 96 61 97 69 98 62 99 63 100 67 101 70 102 64 103 65 104
REMARK SMILES IDX 68 105 66 106
REMARK H PARENT 15 17 8 22 90 59 58 70
REMARK Flexibility Score: inf
ROOT
ATOM      1  C   UNL A   1      34.021  31.561  28.073  1.00  0.00     0.188 C 
ENDROOT
BRANCH   1   2
ATOM      2  O   UNL A   1      34.009  30.802  26.863  1.00  0.00    -0.376 OA
BRANCH   2   3
ATOM      3  C   UNL A   1      32.986  29.920  26.420  1.00  0.00     0.202 C 
BRANCH   3   4
ATOM      4  C   UNL A   1      31.507  30.548  25.866  1.00  0.00     0.261 C 
BRANCH   4   5
ATOM      5  O   UNL A   1      30.715  29.964  24.620  1.00  0.00    -0.460 OA
BRANCH   5   6
ATOM      6  C   UNL A   1      30.753  29.186  23.500  1.00  0.00     0.338 C 
ATOM      7  O   UNL A   1      30.600  29.567  22.351  1.00  0.00    -0.246 OA
BRANCH   6   8
ATOM      8  C   UNL A   1      31.000  27.695  23.740  1.00  0.00     0.060 A 
ATOM      9  C   UNL A   1      31.261  24.917  23.421  1.00  0.00     0.041 A 
ATOM     10  C   UNL A   1      30.035  25.457  23.794  1.00  0.00     0.027 A 
ATOM     11  C   UNL A   1      32.410  25.695  23.507  1.00  0.00     0.027 A 
ATOM     12  C   UNL A   1      29.905  26.849  23.933  1.00  0.00     0.018 A 
ATOM     13  C   UNL A   1      32.277  27.093  23.622  1.00  0.00     0.018 A 
BRANCH   9  14
ATOM     14  N   UNL A   1      31.233  23.735  22.656  1.00  0.00    -0.326 N 
ATOM     15  C   UNL A   1      31.584  22.501  23.175  1.00  0.00     0.226 C 
ATOM     16  O   UNL A   1      31.935  21.595  22.414  1.00  0.00    -0.275 OA
ATOM     17  H   UNL A   1      30.951  23.787  21.714  1.00  0.00     0.169 HD
BRANCH  15  18
ATOM     18  C   UNL A   1      31.548  22.261  24.673  1.00  0.00     0.128 C 
BRANCH  18  19
ATOM     19  C   UNL A   1      32.809  21.663  25.280  1.00  0.00     0.183 C 
ATOM     20  N   UNL A   1      36.484  20.930  25.175  1.00  0.00    -0.234 N 
ATOM     21  C   UNL A   1      35.250  21.076  24.861  1.00  0.00     0.319 C 
ATOM     22  H   UNL A   1      36.758  19.984  25.173  1.00  0.00     0.313 HD
ATOM     23  S   UNL A   1      34.273  22.467  24.558  1.00  0.00    -0.022 SA
ATOM     24  N   UNL A   1      34.443  19.968  24.812  1.00  0.00    -0.193 N 
ATOM     25  C   UNL A   1      33.116  20.179  25.139  1.00  0.00     0.324 C 
ATOM     26  C   UNL A   1      34.998  18.637  24.640  1.00  0.00     0.301 C 
ATOM     27  O   UNL A   1      32.330  19.289  25.449  1.00  0.00    -0.245 OA
BRANCH  20  28
ATOM     28  C   UNL A   1      37.539  21.782  25.519  1.00  0.00     0.128 A 
ATOM     29  C   UNL A   1      36.393  24.089  25.803  1.00  0.00     0.049 C 
ATOM     30  C   UNL A   1      37.538  23.132  25.922  1.00  0.00    -0.004 A 
ATOM     31  C   UNL A   1      38.704  23.683  26.506  1.00  0.00     0.008 A 
ATOM     32  C   UNL A   1      39.852  22.927  26.714  1.00  0.00     0.001 A 
ATOM     33  C   UNL A   1      38.739  21.059  25.705  1.00  0.00     0.052 A 
ATOM     34  C   UNL A   1      39.876  21.608  26.300  1.00  0.00     0.004 A 
ENDBRANCH  20  28
ENDBRANCH  18  19
ENDBRANCH  15  18
ENDBRANCH   9  14
ENDBRANCH   6   8
ENDBRANCH   5   6
ENDBRANCH   4   5
ENDBRANCH   3   4
ENDBRANCH   2   3
ENDBRANCH   1   2
BRANCH   1  35
ATOM     35  C   UNL A   1      34.034  33.085  27.964  1.00  0.00     0.188 C 
BRANCH  35  36
ATOM     36  O   UNL A   1      33.539  33.652  29.165  1.00  0.00    -0.376 OA
BRANCH  36  37
ATOM     37  C   UNL A   1      34.518  34.298  29.967  1.00  0.00     0.202 C 
BRANCH  37  38
ATOM     38  C   UNL A   1      34.600  33.749  31.406  1.00  0.00     0.261 C 
BRANCH  38  39
ATOM     39  O   UNL A   1      34.744  32.310  31.383  1.00  0.00    -0.460 OA
BRANCH  39  40
ATOM     40  C   UNL A   1      35.913  31.783  31.897  1.00  0.00     0.338 C 
ATOM     41  O   UNL A   1      36.486  32.184  32.865  1.00  0.00    -0.246 OA
BRANCH  40  42
ATOM     42  C   UNL A   1      36.498  30.812  30.891  1.00  0.00     0.060 A 
ATOM     43  C   UNL A   1      36.821  29.475  31.162  1.00  0.00     0.016 A 
ATOM     44  C   UNL A   1      37.119  31.345  29.817  1.00  0.00     0.016 A 
ATOM     45  C   UNL A   1      37.894  28.776  30.453  1.00  0.00     0.010 A 
ATOM     46  C   UNL A   1      38.307  30.707  29.449  1.00  0.00     0.010 A 
ATOM     47  C   UNL A   1      38.799  29.413  29.603  1.00  0.00    -0.014 A 
BRANCH  47  48
ATOM     48  C   UNL A   1      40.292  28.923  29.229  1.00  0.00     0.031 A 
ATOM     49  C   UNL A   1      40.939  27.606  28.598  1.00  0.00     0.074 A 
ATOM     50  C   UNL A   1      41.306  29.766  29.541  1.00  0.00     0.049 A 
ATOM     51  N   UNL A   1      41.797  26.806  29.215  1.00  0.00    -0.248 NA
ATOM     52  C   UNL A   1      40.883  27.199  27.181  1.00  0.00     0.031 C 
ATOM     53  C   UNL A   1      42.738  29.596  29.276  1.00  0.00     0.029 A 
ATOM     54  N   UNL A   1      41.248  30.897  30.359  1.00  0.00    -0.354 N 
ATOM     55  C   UNL A   1      42.312  25.883  28.281  1.00  0.00     0.074 A 
ATOM     56  C   UNL A   1      41.584  26.073  27.078  1.00  0.00     0.031 C 
ATOM     57  C   UNL A   1      43.418  30.320  30.177  1.00  0.00     0.029 A 
ATOM     58  C   UNL A   1      42.453  30.927  31.074  1.00  0.00     0.049 A 
ATOM     59  H   UNL A   1      40.509  31.544  30.422  1.00  0.00     0.167 HD
ATOM     60  C   UNL A   1      43.471  25.161  28.342  1.00  0.00     0.037 A 
ATOM     61  C   UNL A   1      42.463  30.905  32.433  1.00  0.00     0.037 A 
ATOM     62  C   UNL A   1      44.380  25.714  29.296  1.00  0.00     0.049 A 
ATOM     63  C   UNL A   1      43.269  29.774  33.019  1.00  0.00     0.074 A 
ATOM     64  C   UNL A   1      45.459  26.567  29.154  1.00  0.00     0.029 A 
ATOM     65  N   UNL A   1      44.045  25.685  30.630  1.00  0.00    -0.354 N 
ATOM     66  N   UNL A   1      43.712  28.757  32.336  1.00  0.00    -0.248 NA
ATOM     67  C   UNL A   1      43.587  29.674  34.439  1.00  0.00     0.031 C 
ATOM     68  C   UNL A   1      45.734  27.118  30.423  1.00  0.00     0.029 A 
ATOM     69  C   UNL A   1      44.866  26.538  31.329  1.00  0.00     0.049 A 
ATOM     70  H   UNL A   1      43.328  25.138  31.024  1.00  0.00     0.167 HD
ATOM     71  C   UNL A   1      44.285  27.851  33.196  1.00  0.00     0.074 A 
ATOM     72  C   UNL A   1      44.216  28.488  34.492  1.00  0.00     0.031 C 
ATOM     73  C   UNL A   1      44.741  26.641  32.762  1.00  0.00     0.037 A 
BRANCH  60  74
ATOM     74  C   UNL A   1      43.854  24.146  27.271  1.00  0.00     0.064 A 
ATOM     75  C   UNL A   1      44.680  24.427  26.163  1.00  0.00     0.173 A 
ATOM     76  C   UNL A   1      43.378  22.818  27.343  1.00  0.00     0.173 A 
ATOM     77  F   UNL A   1      45.243  25.631  26.001  1.00  0.00    -0.203 F 
ATOM     78  C   UNL A   1      44.930  23.479  25.158  1.00  0.00     0.198 A 
ATOM     79  C   UNL A   1      43.611  21.883  26.328  1.00  0.00     0.198 A 
ATOM     80  F   UNL A   1      42.657  22.422  28.402  1.00  0.00    -0.203 F 
ATOM     81  F   UNL A   1      45.697  23.805  24.105  1.00  0.00    -0.200 F 
ATOM     82  C   UNL A   1      44.372  22.218  25.226  1.00  0.00     0.200 A 
ATOM     83  F   UNL A   1      43.079  20.657  26.406  1.00  0.00    -0.200 F 
ATOM     84  F   UNL A   1      44.565  21.333  24.237  1.00  0.00    -0.200 F 
ENDBRANCH  60  74
BRANCH  61  85
ATOM     85  C   UNL A   1      41.272  31.544  33.065  1.00  0.00     0.064 A 
ATOM     86  C   UNL A   1      40.180  30.718  33.412  1.00  0.00     0.173 A 
ATOM     87  C   UNL A   1      41.295  32.833  33.611  1.00  0.00     0.173 A 
ATOM     88  F   UNL A   1      40.112  29.463  32.937  1.00  0.00    -0.203 F 
ATOM     89  C   UNL A   1      39.218  31.121  34.336  1.00  0.00     0.198 A 
ATOM     90  C   UNL A   1      40.314  33.244  34.524  1.00  0.00     0.198 A 
ATOM     91  F   UNL A   1      42.337  33.646  33.389  1.00  0.00    -0.203 F 
ATOM     92  F   UNL A   1      38.276  30.257  34.738  1.00  0.00    -0.200 F 
ATOM     93  C   UNL A   1      39.293  32.380  34.900  1.00  0.00     0.200 A 
ATOM     94  F   UNL A   1      40.434  34.427  35.144  1.00  0.00    -0.200 F 
ATOM     95  F   UNL A   1      38.437  32.731  35.871  1.00  0.00    -0.200 F 
ENDBRANCH  61  85
BRANCH  73  96
ATOM     96  C   UNL A   1      45.172  25.451  33.587  1.00  0.00     0.064 A 
ATOM     97  C   UNL A   1      44.284  24.590  34.247  1.00  0.00     0.173 A 
ATOM     98  C   UNL A   1      46.534  25.042  33.599  1.00  0.00     0.173 A 
ATOM     99  F   UNL A   1      42.962  24.792  34.212  1.00  0.00    -0.203 F 
ATOM    100  C   UNL A   1      44.728  23.446  34.917  1.00  0.00     0.198 A 
ATOM    101  C   UNL A   1      46.962  23.867  34.212  1.00  0.00     0.198 A 
ATOM    102  F   UNL A   1      47.492  25.756  32.988  1.00  0.00    -0.203 F 
ATOM    103  F   UNL A   1      43.843  22.681  35.572  1.00  0.00    -0.200 F 
ATOM    104  C   UNL A   1      46.060  23.077  34.888  1.00  0.00     0.200 A 
ATOM    105  F   UNL A   1      48.248  23.500  34.124  1.00  0.00    -0.200 F 
ATOM    106  F   UNL A   1      46.469  21.955  35.493  1.00  0.00    -0.200 F 
ENDBRANCH  73  96
ENDBRANCH  47  48
ENDBRANCH  40  42
ENDBRANCH  39  40
ENDBRANCH  38  39
ENDBRANCH  37  38
ENDBRANCH  36  37
ENDBRANCH  35  36
ENDBRANCH   1  35
TORSDOF 21
ENDMDL
MODEL 2
REMARK VINA RESULT:     -12.7      1.953      3.209
REMARK SMILES Cc1ccccc1/[NH+]=C1\S[C@@H](CC(=O)Nc2ccc(C(=O)OCCOCCOCCOC(=O)c3ccc(-c4c5nc(c(-c6c(F)c(F)c(F)c(F)c6F)c6ccc([nH]6)c(-c6c(F)c(F)c(F)c(F)c6F)c6nc(c(-c7c(F)c(F)c(F)c(F)c7F)c7ccc4[nH]7)C=C6)C=C5)cc3)cc2)C(=O)N1C
REMARK SMILES IDX 26 1 25 2 24 3 23 4 22 5 20 6 21 7 19 8 16 9 17 10 98 11
REMARK SMILES IDX 18 12 97 13 15 14 13 15 14 16 12 18 11 19 8 20 9 21 10 23
REMARK SMILES IDX 101 24 99 25 102 26 100 27 7 28 1 29 2 30 3 31 4 32 6 33
REMARK SMILES IDX 5 34 27 35 28 36 29 37 30 38 31 39 32 40 33 41 34 42 35 43
REMARK SMILES IDX 96 44 36 45 95 46 37 47 38 48 39 49 89 50 40 51 94 52 88 53
REMARK SMILES IDX 90 54 41 55 93 56 87 57 86 58 42 60 74 61 54 62 73 63 55 64
REMARK SMILES IDX 58 65 72 66 91 67 56 68 57 69 71 71 92 72 59 73 43 74 44 75
REMARK SMILES IDX 52 76 45 77 46 78 50 79 53 80 47 81 48 82 51 83 49 84 75 85
REMARK SMILES IDX 76 86 84 87 77 88 78 89 82 90 85 91 79 92 80 93 83 94 81 95
REMARK SMILES IDX 60 96 61 97 69 98 62 99 63 100 67 101 70 102 64 103 65 104
REMARK SMILES IDX 68 105 66 106
REMARK H PARENT 15 17 8 22 90 59 58 70
REMARK Flexibility Score: inf
ROOT
ATOM      1  C   UNL A   1      34.077  34.854  28.384  1.00  0.00     0.188 C 
ENDROOT
BRANCH   1   2
ATOM      2  O   UNL A   1      33.701  33.640  27.735  1.00  0.00    -0.376 OA
BRANCH   2   3
ATOM      3  C   UNL A   1      32.503  33.397  27.006  1.00  0.00     0.202 C 
BRANCH   3   4
ATOM      4  C   UNL A   1      31.637  31.956  27.256  1.00  0.00     0.261 C 
BRANCH   4   5
ATOM      5  O   UNL A   1      31.787  30.669  26.338  1.00  0.00    -0.460 OA
BRANCH   5   6
ATOM      6  C   UNL A   1      32.567  29.615  25.961  1.00  0.00     0.338 C 
ATOM      7  O   UNL A   1      33.321  28.981  26.681  1.00  0.00    -0.246 OA
BRANCH   6   8
ATOM      8  C   UNL A   1      32.478  29.223  24.484  1.00  0.00     0.060 A 
ATOM      9  C   UNL A   1      32.467  27.792  22.068  1.00  0.00     0.041 A 
ATOM     10  C   UNL A   1      33.654  28.343  22.540  1.00  0.00     0.027 A 
ATOM     11  C   UNL A   1      31.255  28.201  22.613  1.00  0.00     0.027 A 
ATOM     12  C   UNL A   1      33.657  29.040  23.758  1.00  0.00     0.018 A 
ATOM     13  C   UNL A   1      31.259  28.880  23.847  1.00  0.00     0.018 A 
BRANCH   9  14
ATOM     14  N   UNL A   1      32.567  26.608  21.312  1.00  0.00    -0.326 N 
ATOM     15  C   UNL A   1      32.823  25.375  21.886  1.00  0.00     0.226 C 
ATOM     16  O   UNL A   1      33.298  24.468  21.197  1.00  0.00    -0.275 OA
ATOM     17  H   UNL A   1      32.449  26.659  20.335  1.00  0.00     0.169 HD
BRANCH  15  18
ATOM     18  C   UNL A   1      32.534  25.139  23.356  1.00  0.00     0.128 C 
BRANCH  18  19
ATOM     19  C   UNL A   1      33.339  24.033  24.022  1.00  0.00     0.183 C 
ATOM     20  N   UNL A   1      33.616  20.603  25.510  1.00  0.00    -0.234 N 
ATOM     21  C   UNL A   1      33.213  21.778  25.197  1.00  0.00     0.319 C 
ATOM     22  H   UNL A   1      33.876  20.540  26.458  1.00  0.00     0.313 HD
ATOM     23  S   UNL A   1      32.508  22.434  23.764  1.00  0.00    -0.022 SA
ATOM     24  N   UNL A   1      33.414  22.806  26.084  1.00  0.00    -0.193 N 
ATOM     25  C   UNL A   1      33.606  24.054  25.520  1.00  0.00     0.324 C 
ATOM     26  C   UNL A   1      33.624  22.553  27.498  1.00  0.00     0.301 C 
ATOM     27  O   UNL A   1      34.097  25.011  26.110  1.00  0.00    -0.245 OA
BRANCH  20  28
ATOM     28  C   UNL A   1      33.779  19.387  24.838  1.00  0.00     0.128 A 
ATOM     29  C   UNL A   1      36.345  19.024  24.845  1.00  0.00     0.049 C 
ATOM     30  C   UNL A   1      34.927  18.596  24.630  1.00  0.00    -0.004 A 
ATOM     31  C   UNL A   1      34.778  17.262  24.182  1.00  0.00     0.008 A 
ATOM     32  C   UNL A   1      33.529  16.695  23.955  1.00  0.00     0.001 A 
ATOM     33  C   UNL A   1      32.530  18.790  24.553  1.00  0.00     0.052 A 
ATOM     34  C   UNL A   1      32.396  17.467  24.129  1.00  0.00     0.004 A 
ENDBRANCH  20  28
ENDBRANCH  18  19
ENDBRANCH  15  18
ENDBRANCH   9  14
ENDBRANCH   6   8
ENDBRANCH   5   6
ENDBRANCH   4   5
ENDBRANCH   3   4
ENDBRANCH   2   3
ENDBRANCH   1   2
BRANCH   1  35
ATOM     35  C   UNL A   1      32.964  35.792  28.852  1.00  0.00     0.188 C 
BRANCH  35  36
ATOM     36  O   UNL A   1      32.463  35.348  30.101  1.00  0.00    -0.376 OA
BRANCH  36  37
ATOM     37  C   UNL A   1      32.792  36.178  31.205  1.00  0.00     0.202 C 
BRANCH  37  38
ATOM     38  C   UNL A   1      33.333  35.403  32.424  1.00  0.00     0.261 C 
BRANCH  38  39
ATOM     39  O   UNL A   1      33.836  34.111  32.010  1.00  0.00    -0.460 OA
BRANCH  39  40
ATOM     40  C   UNL A   1      35.148  33.812  32.323  1.00  0.00     0.338 C 
ATOM     41  O   UNL A   1      35.836  34.429  33.080  1.00  0.00    -0.246 OA
BRANCH  40  42
ATOM     42  C   UNL A   1      35.657  32.762  31.357  1.00  0.00     0.060 A 
ATOM     43  C   UNL A   1      35.902  31.422  31.686  1.00  0.00     0.016 A 
ATOM     44  C   UNL A   1      36.293  33.207  30.252  1.00  0.00     0.016 A 
ATOM     45  C   UNL A   1      36.919  30.626  30.997  1.00  0.00     0.010 A 
ATOM     46  C   UNL A   1      37.435  32.480  29.900  1.00  0.00     0.010 A 
ATOM     47  C   UNL A   1      37.848  31.167  30.108  1.00  0.00    -0.014 A 
BRANCH  47  48
ATOM     48  C   UNL A   1      39.304  30.570  29.739  1.00  0.00     0.031 A 
ATOM     49  C   UNL A   1      39.851  29.237  29.048  1.00  0.00     0.074 A 
ATOM     50  C   UNL A   1      40.378  31.302  30.119  1.00  0.00     0.049 A 
ATOM     51  N   UNL A   1      40.621  28.333  29.638  1.00  0.00    -0.248 NA
ATOM     52  C   UNL A   1      39.797  28.914  27.610  1.00  0.00     0.031 C 
ATOM     53  C   UNL A   1      41.797  31.023  29.876  1.00  0.00     0.029 A 
ATOM     54  N   UNL A   1      40.396  32.388  30.998  1.00  0.00    -0.354 N 
ATOM     55  C   UNL A   1      41.078  27.421  28.664  1.00  0.00     0.074 A 
ATOM     56  C   UNL A   1      40.401  27.738  27.458  1.00  0.00     0.031 C 
ATOM     57  C   UNL A   1      42.513  31.634  30.831  1.00  0.00     0.029 A 
ATOM     58  C   UNL A   1      41.580  32.274  31.740  1.00  0.00     0.049 A 
ATOM     59  H   UNL A   1      39.714  33.092  31.082  1.00  0.00     0.167 HD
ATOM     60  C   UNL A   1      42.169  26.597  28.709  1.00  0.00     0.037 A 
ATOM     61  C   UNL A   1      41.552  32.177  33.096  1.00  0.00     0.037 A 
ATOM     62  C   UNL A   1      43.097  27.016  29.712  1.00  0.00     0.049 A 
ATOM     63  C   UNL A   1      42.242  30.950  33.633  1.00  0.00     0.074 A 
ATOM     64  C   UNL A   1      44.249  27.778  29.642  1.00  0.00     0.029 A 
ATOM     65  N   UNL A   1      42.726  26.944  31.035  1.00  0.00    -0.354 N 
ATOM     66  N   UNL A   1      42.614  29.936  32.904  1.00  0.00    -0.248 NA
ATOM     67  C   UNL A   1      42.513  30.745  35.052  1.00  0.00     0.031 C 
ATOM     68  C   UNL A   1      44.537  28.234  30.946  1.00  0.00     0.029 A 
ATOM     69  C   UNL A   1      43.599  27.683  31.799  1.00  0.00     0.049 A 
ATOM     70  H   UNL A   1      41.954  26.441  31.382  1.00  0.00     0.167 HD
ATOM     71  C   UNL A   1      43.084  28.939  33.724  1.00  0.00     0.074 A 
ATOM     72  C   UNL A   1      43.036  29.508  35.052  1.00  0.00     0.031 C 
ATOM     73  C   UNL A   1      43.445  27.719  33.232  1.00  0.00     0.037 A 
BRANCH  60  74
ATOM     74  C   UNL A   1      42.491  25.613  27.591  1.00  0.00     0.064 A 
ATOM     75  C   UNL A   1      43.499  25.805  26.623  1.00  0.00     0.173 A 
ATOM     76  C   UNL A   1      41.762  24.409  27.468  1.00  0.00     0.173 A 
ATOM     77  F   UNL A   1      44.300  26.876  26.655  1.00  0.00    -0.203 F 
ATOM     78  C   UNL A   1      43.696  24.907  25.562  1.00  0.00     0.198 A 
ATOM     79  C   UNL A   1      41.946  23.529  26.395  1.00  0.00     0.198 A 
ATOM     80  F   UNL A   1      40.841  24.087  28.387  1.00  0.00    -0.203 F 
ATOM     81  F   UNL A   1      44.648  25.151  24.647  1.00  0.00    -0.200 F 
ATOM     82  C   UNL A   1      42.901  23.786  25.432  1.00  0.00     0.200 A 
ATOM     83  F   UNL A   1      41.182  22.435  26.282  1.00  0.00    -0.200 F 
ATOM     84  F   UNL A   1      43.052  22.960  24.386  1.00  0.00    -0.200 F 
ENDBRANCH  60  74
BRANCH  61  85
ATOM     85  C   UNL A   1      40.405  32.883  33.737  1.00  0.00     0.064 A 
ATOM     86  C   UNL A   1      39.248  32.130  34.042  1.00  0.00     0.173 A 
ATOM     87  C   UNL A   1      40.518  34.146  34.328  1.00  0.00     0.173 A 
ATOM     88  F   UNL A   1      39.092  30.901  33.522  1.00  0.00    -0.203 F 
ATOM     89  C   UNL A   1      38.308  32.573  34.969  1.00  0.00     0.198 A 
ATOM     90  C   UNL A   1      39.558  34.599  35.244  1.00  0.00     0.198 A 
ATOM     91  F   UNL A   1      41.621  34.885  34.146  1.00  0.00    -0.203 F 
ATOM     92  F   UNL A   1      37.297  31.770  35.330  1.00  0.00    -0.200 F 
ATOM     93  C   UNL A   1      38.470  33.802  35.579  1.00  0.00     0.200 A 
ATOM     94  F   UNL A   1      39.758  35.747  35.907  1.00  0.00    -0.200 F 
ATOM     95  F   UNL A   1      37.629  34.183  36.552  1.00  0.00    -0.200 F 
ENDBRANCH  61  85
BRANCH  73  96
ATOM     96  C   UNL A   1      43.750  26.452  33.997  1.00  0.00     0.064 A 
ATOM     97  C   UNL A   1      45.041  25.936  34.178  1.00  0.00     0.173 A 
ATOM     98  C   UNL A   1      42.725  25.792  34.729  1.00  0.00     0.173 A 
ATOM     99  F   UNL A   1      46.112  26.533  33.643  1.00  0.00    -0.203 F 
ATOM    100  C   UNL A   1      45.280  24.813  34.976  1.00  0.00     0.198 A 
ATOM    101  C   UNL A   1      42.979  24.714  35.575  1.00  0.00     0.198 A 
ATOM    102  F   UNL A   1      41.445  26.191  34.671  1.00  0.00    -0.203 F 
ATOM    103  F   UNL A   1      46.526  24.331  35.079  1.00  0.00    -0.200 F 
ATOM    104  C   UNL A   1      44.255  24.212  35.683  1.00  0.00     0.200 A 
ATOM    105  F   UNL A   1      41.980  24.183  36.293  1.00  0.00    -0.200 F 
ATOM    106  F   UNL A   1      44.502  23.166  36.482  1.00  0.00    -0.200 F 
ENDBRANCH  73  96
ENDBRANCH  47  48
ENDBRANCH  40  42
ENDBRANCH  39  40
ENDBRANCH  38  39
ENDBRANCH  37  38
ENDBRANCH  36  37
ENDBRANCH  35  36
ENDBRANCH   1  35
TORSDOF 21
ENDMDL
MODEL 3
REMARK VINA RESULT:     -12.4      1.658      3.056
REMARK SMILES Cc1ccccc1/[NH+]=C1\S[C@@H](CC(=O)Nc2ccc(C(=O)OCCOCCOCCOC(=O)c3ccc(-c4c5nc(c(-c6c(F)c(F)c(F)c(F)c6F)c6ccc([nH]6)c(-c6c(F)c(F)c(F)c(F)c6F)c6nc(c(-c7c(F)c(F)c(F)c(F)c7F)c7ccc4[nH]7)C=C6)C=C5)cc3)cc2)C(=O)N1C
REMARK SMILES IDX 26 1 25 2 24 3 23 4 22 5 20 6 21 7 19 8 16 9 17 10 98 11
REMARK SMILES IDX 18 12 97 13 15 14 13 15 14 16 12 18 11 19 8 20 9 21 10 23
REMARK SMILES IDX 101 24 99 25 102 26 100 27 7 28 1 29 2 30 3 31 4 32 6 33
REMARK SMILES IDX 5 34 27 35 28 36 29 37 30 38 31 39 32 40 33 41 34 42 35 43
REMARK SMILES IDX 96 44 36 45 95 46 37 47 38 48 39 49 89 50 40 51 94 52 88 53
REMARK SMILES IDX 90 54 41 55 93 56 87 57 86 58 42 60 74 61 54 62 73 63 55 64
REMARK SMILES IDX 58 65 72 66 91 67 56 68 57 69 71 71 92 72 59 73 43 74 44 75
REMARK SMILES IDX 52 76 45 77 46 78 50 79 53 80 47 81 48 82 51 83 49 84 75 85
REMARK SMILES IDX 76 86 84 87 77 88 78 89 82 90 85 91 79 92 80 93 83 94 81 95
REMARK SMILES IDX 60 96 61 97 69 98 62 99 63 100 67 101 70 102 64 103 65 104
REMARK SMILES IDX 68 105 66 106
REMARK H PARENT 15 17 8 22 90 59 58 70
REMARK Flexibility Score: inf
ROOT
ATOM      1  C   UNL A   1      34.326  34.673  28.423  1.00  0.00     0.188 C 
ENDROOT
BRANCH   1   2
ATOM      2  O   UNL A   1      34.238  33.535  27.564  1.00  0.00    -0.376 OA
BRANCH   2   3
ATOM      3  C   UNL A   1      33.553  32.318  27.829  1.00  0.00     0.202 C 
BRANCH   3   4
ATOM      4  C   UNL A   1      34.360  30.833  27.637  1.00  0.00     0.261 C 
BRANCH   4   5
ATOM      5  O   UNL A   1      33.730  29.580  26.893  1.00  0.00    -0.460 OA
BRANCH   5   6
ATOM      6  C   UNL A   1      33.460  28.970  25.702  1.00  0.00     0.338 C 
ATOM      7  O   UNL A   1      34.048  29.152  24.649  1.00  0.00    -0.246 OA
BRANCH   6   8
ATOM      8  C   UNL A   1      32.294  27.978  25.718  1.00  0.00     0.060 A 
ATOM      9  C   UNL A   1      30.600  25.796  25.212  1.00  0.00     0.041 A 
ATOM     10  C   UNL A   1      30.477  26.957  24.455  1.00  0.00     0.027 A 
ATOM     11  C   UNL A   1      31.330  25.822  26.396  1.00  0.00     0.027 A 
ATOM     12  C   UNL A   1      31.340  28.038  24.699  1.00  0.00     0.018 A 
ATOM     13  C   UNL A   1      32.212  26.895  26.627  1.00  0.00     0.018 A 
BRANCH   9  14
ATOM     14  N   UNL A   1      30.276  24.581  24.577  1.00  0.00    -0.326 N 
ATOM     15  C   UNL A   1      31.238  23.723  24.073  1.00  0.00     0.226 C 
ATOM     16  O   UNL A   1      30.932  22.911  23.196  1.00  0.00    -0.275 OA
ATOM     17  H   UNL A   1      29.328  24.332  24.490  1.00  0.00     0.169 HD
BRANCH  15  18
ATOM     18  C   UNL A   1      32.665  23.784  24.585  1.00  0.00     0.128 C 
BRANCH  18  19
ATOM     19  C   UNL A   1      33.572  22.639  24.161  1.00  0.00     0.183 C 
ATOM     20  N   UNL A   1      35.217  19.332  24.807  1.00  0.00    -0.234 N 
ATOM     21  C   UNL A   1      34.757  20.521  24.932  1.00  0.00     0.319 C 
ATOM     22  H   UNL A   1      36.202  19.311  24.823  1.00  0.00     0.313 HD
ATOM     23  S   UNL A   1      33.160  21.148  25.121  1.00  0.00    -0.022 SA
ATOM     24  N   UNL A   1      35.622  21.581  24.825  1.00  0.00    -0.193 N 
ATOM     25  C   UNL A   1      35.083  22.744  24.305  1.00  0.00     0.324 C 
ATOM     26  C   UNL A   1      37.049  21.416  25.041  1.00  0.00     0.301 C 
ATOM     27  O   UNL A   1      35.747  23.672  23.853  1.00  0.00    -0.245 OA
BRANCH  20  28
ATOM     28  C   UNL A   1      34.666  18.055  24.653  1.00  0.00     0.128 A 
ATOM     29  C   UNL A   1      36.419  16.497  25.757  1.00  0.00     0.049 C 
ATOM     30  C   UNL A   1      35.083  16.806  25.154  1.00  0.00    -0.004 A 
ATOM     31  C   UNL A   1      34.191  15.708  25.111  1.00  0.00     0.008 A 
ATOM     32  C   UNL A   1      32.902  15.825  24.605  1.00  0.00     0.001 A 
ATOM     33  C   UNL A   1      33.365  18.124  24.105  1.00  0.00     0.052 A 
ATOM     34  C   UNL A   1      32.488  17.038  24.086  1.00  0.00     0.004 A 
ENDBRANCH  20  28
ENDBRANCH  18  19
ENDBRANCH  15  18
ENDBRANCH   9  14
ENDBRANCH   6   8
ENDBRANCH   5   6
ENDBRANCH   4   5
ENDBRANCH   3   4
ENDBRANCH   2   3
ENDBRANCH   1   2
BRANCH   1  35
ATOM     35  C   UNL A   1      33.043  35.450  28.716  1.00  0.00     0.188 C 
BRANCH  35  36
ATOM     36  O   UNL A   1      32.540  35.075  29.986  1.00  0.00    -0.376 OA
BRANCH  36  37
ATOM     37  C   UNL A   1      32.899  35.945  31.051  1.00  0.00     0.202 C 
BRANCH  37  38
ATOM     38  C   UNL A   1      33.590  35.230  32.229  1.00  0.00     0.261 C 
BRANCH  38  39
ATOM     39  O   UNL A   1      33.959  33.884  31.848  1.00  0.00    -0.460 OA
BRANCH  39  40
ATOM     40  C   UNL A   1      35.208  33.436  32.234  1.00  0.00     0.338 C 
ATOM     41  O   UNL A   1      35.865  33.897  33.118  1.00  0.00    -0.246 OA
BRANCH  40  42
ATOM     42  C   UNL A   1      35.727  32.467  31.190  1.00  0.00     0.060 A 
ATOM     43  C   UNL A   1      35.904  31.092  31.392  1.00  0.00     0.016 A 
ATOM     44  C   UNL A   1      36.435  32.993  30.169  1.00  0.00     0.016 A 
ATOM     45  C   UNL A   1      36.925  30.327  30.675  1.00  0.00     0.010 A 
ATOM     46  C   UNL A   1      37.566  32.258  29.798  1.00  0.00     0.010 A 
ATOM     47  C   UNL A   1      37.919  30.914  29.891  1.00  0.00    -0.014 A 
BRANCH  47  48
ATOM     48  C   UNL A   1      39.368  30.295  29.533  1.00  0.00     0.031 A 
ATOM     49  C   UNL A   1      39.901  28.949  28.858  1.00  0.00     0.074 A 
ATOM     50  C   UNL A   1      40.450  31.020  29.908  1.00  0.00     0.049 A 
ATOM     51  N   UNL A   1      40.658  28.042  29.460  1.00  0.00    -0.248 NA
ATOM     52  C   UNL A   1      39.847  28.610  27.424  1.00  0.00     0.031 C 
ATOM     53  C   UNL A   1      41.865  30.720  29.672  1.00  0.00     0.029 A 
ATOM     54  N   UNL A   1      40.478  32.115  30.775  1.00  0.00    -0.354 N 
ATOM     55  C   UNL A   1      41.108  27.114  28.498  1.00  0.00     0.074 A 
ATOM     56  C   UNL A   1      40.437  27.426  27.287  1.00  0.00     0.031 C 
ATOM     57  C   UNL A   1      42.586  31.334  30.622  1.00  0.00     0.029 A 
ATOM     58  C   UNL A   1      41.658  31.995  31.520  1.00  0.00     0.049 A 
ATOM     59  H   UNL A   1      39.805  32.828  30.848  1.00  0.00     0.167 HD
ATOM     60  C   UNL A   1      42.188  26.278  28.555  1.00  0.00     0.037 A 
ATOM     61  C   UNL A   1      41.626  31.914  32.877  1.00  0.00     0.037 A 
ATOM     62  C   UNL A   1      43.119  26.697  29.556  1.00  0.00     0.049 A 
ATOM     63  C   UNL A   1      42.300  30.684  33.430  1.00  0.00     0.074 A 
ATOM     64  C   UNL A   1      44.279  27.444  29.480  1.00  0.00     0.029 A 
ATOM     65  N   UNL A   1      42.743  26.644  30.879  1.00  0.00    -0.354 N 
ATOM     66  N   UNL A   1      42.662  29.658  32.714  1.00  0.00    -0.248 NA
ATOM     67  C   UNL A   1      42.565  30.492  34.852  1.00  0.00     0.031 C 
ATOM     68  C   UNL A   1      44.570  27.911  30.780  1.00  0.00     0.029 A 
ATOM     69  C   UNL A   1      43.623  27.382  31.636  1.00  0.00     0.049 A 
ATOM     70  H   UNL A   1      41.965  26.155  31.229  1.00  0.00     0.167 HD
ATOM     71  C   UNL A   1      43.118  28.665  33.546  1.00  0.00     0.074 A 
ATOM     72  C   UNL A   1      43.073  29.249  34.868  1.00  0.00     0.031 C 
ATOM     73  C   UNL A   1      43.466  27.435  33.069  1.00  0.00     0.037 A 
BRANCH  60  74
ATOM     74  C   UNL A   1      42.502  25.278  27.449  1.00  0.00     0.064 A 
ATOM     75  C   UNL A   1      41.889  24.015  27.316  1.00  0.00     0.173 A 
ATOM     76  C   UNL A   1      43.466  25.584  26.463  1.00  0.00     0.173 A 
ATOM     77  F   UNL A   1      40.919  23.620  28.150  1.00  0.00    -0.203 F 
ATOM     78  C   UNL A   1      42.279  23.095  26.329  1.00  0.00     0.198 A 
ATOM     79  C   UNL A   1      43.868  24.655  25.495  1.00  0.00     0.198 A 
ATOM     80  F   UNL A   1      44.046  26.793  26.445  1.00  0.00    -0.203 F 
ATOM     81  F   UNL A   1      41.686  21.893  26.263  1.00  0.00    -0.200 F 
ATOM     82  C   UNL A   1      43.287  23.404  25.438  1.00  0.00     0.200 A 
ATOM     83  F   UNL A   1      44.837  24.966  24.625  1.00  0.00    -0.200 F 
ATOM     84  F   UNL A   1      43.698  22.503  24.534  1.00  0.00    -0.200 F 
ENDBRANCH  60  74
BRANCH  61  85
ATOM     85  C   UNL A   1      40.485  32.640  33.507  1.00  0.00     0.064 A 
ATOM     86  C   UNL A   1      39.335  31.896  33.856  1.00  0.00     0.173 A 
ATOM     87  C   UNL A   1      40.603  33.925  34.050  1.00  0.00     0.173 A 
ATOM     88  F   UNL A   1      39.176  30.649  33.383  1.00  0.00    -0.203 F 
ATOM     89  C   UNL A   1      38.406  32.371  34.778  1.00  0.00     0.198 A 
ATOM     90  C   UNL A   1      39.654  34.408  34.962  1.00  0.00     0.198 A 
ATOM     91  F   UNL A   1      41.702  34.658  33.826  1.00  0.00    -0.203 F 
ATOM     92  F   UNL A   1      37.403  31.580  35.182  1.00  0.00    -0.200 F 
ATOM     93  C   UNL A   1      38.573  33.623  35.340  1.00  0.00     0.200 A 
ATOM     94  F   UNL A   1      39.860  35.581  35.579  1.00  0.00    -0.200 F 
ATOM     95  F   UNL A   1      37.745  34.038  36.310  1.00  0.00    -0.200 F 
ENDBRANCH  61  85
BRANCH  73  96
ATOM     96  C   UNL A   1      43.754  26.173  33.849  1.00  0.00     0.064 A 
ATOM     97  C   UNL A   1      42.806  25.502  34.633  1.00  0.00     0.173 A 
ATOM     98  C   UNL A   1      44.996  25.500  33.689  1.00  0.00     0.173 A 
ATOM     99  F   UNL A   1      41.558  25.966  34.769  1.00  0.00    -0.203 F 
ATOM    100  C   UNL A   1      43.095  24.285  35.258  1.00  0.00     0.198 A 
ATOM    101  C   UNL A   1      45.256  24.256  34.260  1.00  0.00     0.198 A 
ATOM    102  F   UNL A   1      45.989  26.013  32.947  1.00  0.00    -0.203 F 
ATOM    103  F   UNL A   1      42.170  23.706  36.035  1.00  0.00    -0.200 F 
ATOM    104  C   UNL A   1      44.311  23.657  35.061  1.00  0.00     0.200 A 
ATOM    105  F   UNL A   1      46.420  23.640  34.010  1.00  0.00    -0.200 F 
ATOM    106  F   UNL A   1      44.563  22.468  35.625  1.00  0.00    -0.200 F 
ENDBRANCH  73  96
ENDBRANCH  47  48
ENDBRANCH  40  42
ENDBRANCH  39  40
ENDBRANCH  38  39
ENDBRANCH  37  38
ENDBRANCH  36  37
ENDBRANCH  35  36
ENDBRANCH   1  35
TORSDOF 21
ENDMDL
