MODEL 1
REMARK VINA RESULT:      -9.6      0.000      0.000
REMARK SMILES Cn1ccnc1[C@@H]1[C@@H](C(=O)OCCOCCOCCOC(=O)c2ccc(-c3c4nc(c(-c5c(F)c(F)c(F)c(F)c5F)c5ccc([nH]5)c(-c5c(F)c(F)c(F)c(F)c5F)c5nc(c(-c6c(F)c(F)c(F)c(F)c6F)c6ccc3[nH]6)C=C5)C=C4)cc2)CC(=O)N1CCc1ccccc1F
REMARK SMILES IDX 15 1 14 2 13 3 12 4 11 5 9 6 10 7 8 8 7 9 89 10 86 11 87 12
REMARK SMILES IDX 88 13 6 14 1 15 2 16 3 17 4 18 5 19 90 20 91 21 92 22 93 23
REMARK SMILES IDX 97 24 94 25 96 26 98 27 95 28 16 29 17 30 18 31 19 32 20 33
REMARK SMILES IDX 21 34 22 35 23 36 24 37 85 38 25 39 84 40 26 41 27 42 28 43
REMARK SMILES IDX 78 44 29 45 83 46 77 47 79 48 30 49 82 50 76 51 75 52 31 54
REMARK SMILES IDX 63 55 43 56 62 57 44 58 47 59 61 60 80 61 45 62 46 63 60 65
REMARK SMILES IDX 81 66 48 67 32 68 33 69 41 70 34 71 35 72 39 73 42 74 36 75
REMARK SMILES IDX 37 76 40 77 38 78 64 79 65 80 73 81 66 82 67 83 71 84 74 85
REMARK SMILES IDX 68 86 69 87 72 88 70 89 49 90 50 91 58 92 51 93 52 94 56 95
REMARK SMILES IDX 59 96 53 97 54 98 57 99 55 100
REMARK H PARENT 79 53 47 64
REMARK Flexibility Score: inf
ROOT
ATOM      1  C   UNL A   1      33.642  37.625  32.162  1.00  0.00     0.188 C 
ENDROOT
BRANCH   1   2
ATOM      2  O   UNL A   1      32.905  37.109  31.059  1.00  0.00    -0.376 OA
BRANCH   2   3
ATOM      3  C   UNL A   1      33.352  35.962  30.353  1.00  0.00     0.202 C 
BRANCH   3   4
ATOM      4  C   UNL A   1      32.769  35.668  28.960  1.00  0.00     0.261 C 
BRANCH   4   5
ATOM      5  O   UNL A   1      32.762  34.292  28.528  1.00  0.00    -0.463 OA
BRANCH   5   6
ATOM      6  C   UNL A   1      33.929  33.846  27.999  1.00  0.00     0.312 C 
ATOM      7  O   UNL A   1      34.705  34.541  27.351  1.00  0.00    -0.252 OA
BRANCH   6   8
ATOM      8  C   UNL A   1      34.235  32.390  28.295  1.00  0.00     0.139 C 
ATOM      9  C   UNL A   1      35.715  32.188  28.072  1.00  0.00     0.166 C 
ATOM     10  N   UNL A   1      35.868  30.758  27.880  1.00  0.00    -0.331 N 
ATOM     11  C   UNL A   1      33.624  31.273  27.447  1.00  0.00     0.118 C 
ATOM     12  C   UNL A   1      34.676  30.197  27.452  1.00  0.00     0.224 C 
ATOM     13  O   UNL A   1      34.499  29.046  27.089  1.00  0.00    -0.275 OA
BRANCH   9  14
ATOM     14  C   UNL A   1      36.562  32.802  29.134  1.00  0.00     0.132 A 
ATOM     15  C   UNL A   1      35.505  31.851  31.238  1.00  0.00     0.151 C 
ATOM     16  N   UNL A   1      36.477  32.609  30.491  1.00  0.00    -0.336 N 
ATOM     17  C   UNL A   1      37.492  33.324  31.073  1.00  0.00     0.107 A 
ATOM     18  C   UNL A   1      38.080  34.020  30.050  1.00  0.00     0.131 A 
ATOM     19  N   UNL A   1      37.488  33.705  28.863  1.00  0.00    -0.239 NA
ENDBRANCH   9  14
BRANCH  10  20
ATOM     20  C   UNL A   1      37.151  30.080  27.692  1.00  0.00     0.125 C 
BRANCH  20  21
ATOM     21  C   UNL A   1      37.500  29.076  28.808  1.00  0.00     0.060 C 
BRANCH  21  22
ATOM     22  C   UNL A   1      38.954  28.673  28.808  1.00  0.00    -0.010 A 
ATOM     23  C   UNL A   1      39.802  29.026  27.747  1.00  0.00     0.007 A 
ATOM     24  C   UNL A   1      39.508  28.040  29.925  1.00  0.00     0.126 A 
ATOM     25  C   UNL A   1      41.183  28.838  27.858  1.00  0.00     0.000 A 
ATOM     26  C   UNL A   1      40.878  27.823  30.028  1.00  0.00     0.039 A 
ATOM     27  F   UNL A   1      38.718  27.692  30.952  1.00  0.00    -0.207 F 
ATOM     28  C   UNL A   1      41.721  28.248  29.003  1.00  0.00     0.003 A 
ENDBRANCH  21  22
ENDBRANCH  20  21
ENDBRANCH  10  20
ENDBRANCH   6   8
ENDBRANCH   5   6
ENDBRANCH   4   5
ENDBRANCH   3   4
ENDBRANCH   2   3
ENDBRANCH   1   2
BRANCH   1  29
ATOM     29  C   UNL A   1      33.891  36.763  33.409  1.00  0.00     0.188 C 
BRANCH  29  30
ATOM     30  O   UNL A   1      35.085  36.024  33.386  1.00  0.00    -0.376 OA
BRANCH  30  31
ATOM     31  C   UNL A   1      35.016  34.629  33.592  1.00  0.00     0.202 C 
BRANCH  31  32
ATOM     32  C   UNL A   1      35.757  33.984  34.778  1.00  0.00     0.261 C 
BRANCH  32  33
ATOM     33  O   UNL A   1      36.614  32.861  34.500  1.00  0.00    -0.460 OA
BRANCH  33  34
ATOM     34  C   UNL A   1      37.402  32.398  35.495  1.00  0.00     0.338 C 
ATOM     35  O   UNL A   1      37.137  32.372  36.689  1.00  0.00    -0.246 OA
BRANCH  34  36
ATOM     36  C   UNL A   1      38.563  31.705  34.881  1.00  0.00     0.060 A 
ATOM     37  C   UNL A   1      39.857  31.990  35.341  1.00  0.00     0.016 A 
ATOM     38  C   UNL A   1      38.376  30.768  33.863  1.00  0.00     0.016 A 
ATOM     39  C   UNL A   1      40.968  31.357  34.769  1.00  0.00     0.010 A 
ATOM     40  C   UNL A   1      39.489  30.155  33.275  1.00  0.00     0.010 A 
ATOM     41  C   UNL A   1      40.792  30.464  33.705  1.00  0.00    -0.014 A 
BRANCH  41  42
ATOM     42  C   UNL A   1      41.963  29.987  32.919  1.00  0.00     0.031 A 
ATOM     43  C   UNL A   1      42.718  28.783  33.416  1.00  0.00     0.074 A 
ATOM     44  C   UNL A   1      42.366  30.610  31.798  1.00  0.00     0.049 A 
ATOM     45  N   UNL A   1      43.825  28.247  32.969  1.00  0.00    -0.248 NA
ATOM     46  C   UNL A   1      42.145  28.094  34.584  1.00  0.00     0.031 C 
ATOM     47  C   UNL A   1      41.707  31.759  31.184  1.00  0.00     0.029 A 
ATOM     48  N   UNL A   1      43.451  30.370  30.987  1.00  0.00    -0.354 N 
ATOM     49  C   UNL A   1      44.090  27.173  33.809  1.00  0.00     0.074 A 
ATOM     50  C   UNL A   1      43.042  27.147  34.807  1.00  0.00     0.031 C 
ATOM     51  C   UNL A   1      42.414  32.141  30.106  1.00  0.00     0.029 A 
ATOM     52  C   UNL A   1      43.596  31.289  29.976  1.00  0.00     0.049 A 
ATOM     53  H   UNL A   1      44.064  29.611  31.118  1.00  0.00     0.167 HD
ATOM     54  C   UNL A   1      45.113  26.286  33.755  1.00  0.00     0.037 A 
ATOM     55  C   UNL A   1      44.588  31.447  29.075  1.00  0.00     0.037 A 
ATOM     56  C   UNL A   1      46.157  26.312  32.763  1.00  0.00     0.049 A 
ATOM     57  C   UNL A   1      45.759  30.493  29.080  1.00  0.00     0.074 A 
ATOM     58  C   UNL A   1      47.218  25.437  32.605  1.00  0.00     0.029 A 
ATOM     59  N   UNL A   1      46.281  27.272  31.769  1.00  0.00    -0.354 N 
ATOM     60  N   UNL A   1      45.986  29.460  29.855  1.00  0.00    -0.248 NA
ATOM     61  C   UNL A   1      46.811  30.729  28.080  1.00  0.00     0.031 C 
ATOM     62  C   UNL A   1      48.020  25.906  31.560  1.00  0.00     0.029 A 
ATOM     63  C   UNL A   1      47.421  27.031  31.018  1.00  0.00     0.049 A 
ATOM     64  H   UNL A   1      45.652  28.014  31.619  1.00  0.00     0.167 HD
ATOM     65  C   UNL A   1      47.185  28.908  29.420  1.00  0.00     0.074 A 
ATOM     66  C   UNL A   1      47.631  29.711  28.301  1.00  0.00     0.031 C 
ATOM     67  C   UNL A   1      47.856  27.832  29.902  1.00  0.00     0.037 A 
BRANCH  54  68
ATOM     68  C   UNL A   1      45.177  25.232  34.823  1.00  0.00     0.064 A 
ATOM     69  C   UNL A   1      44.717  23.924  34.605  1.00  0.00     0.173 A 
ATOM     70  C   UNL A   1      45.738  25.527  36.074  1.00  0.00     0.173 A 
ATOM     71  F   UNL A   1      44.161  23.590  33.431  1.00  0.00    -0.203 F 
ATOM     72  C   UNL A   1      44.788  22.962  35.610  1.00  0.00     0.198 A 
ATOM     73  C   UNL A   1      45.839  24.555  37.066  1.00  0.00     0.198 A 
ATOM     74  F   UNL A   1      46.198  26.761  36.336  1.00  0.00    -0.203 F 
ATOM     75  F   UNL A   1      44.292  21.735  35.397  1.00  0.00    -0.200 F 
ATOM     76  C   UNL A   1      45.355  23.276  36.835  1.00  0.00     0.200 A 
ATOM     77  F   UNL A   1      46.402  24.856  38.244  1.00  0.00    -0.200 F 
ATOM     78  F   UNL A   1      45.431  22.347  37.799  1.00  0.00    -0.200 F 
ENDBRANCH  54  68
BRANCH  55  79
ATOM     79  C   UNL A   1      44.537  32.571  28.102  1.00  0.00     0.064 A 
ATOM     80  C   UNL A   1      44.930  33.867  28.468  1.00  0.00     0.173 A 
ATOM     81  C   UNL A   1      44.068  32.381  26.793  1.00  0.00     0.173 A 
ATOM     82  F   UNL A   1      45.356  34.109  29.717  1.00  0.00    -0.203 F 
ATOM     83  C   UNL A   1      44.838  34.930  27.572  1.00  0.00     0.198 A 
ATOM     84  C   UNL A   1      44.007  33.438  25.887  1.00  0.00     0.198 A 
ATOM     85  F   UNL A   1      43.672  31.164  26.392  1.00  0.00    -0.203 F 
ATOM     86  F   UNL A   1      45.168  36.167  27.967  1.00  0.00    -0.200 F 
ATOM     87  C   UNL A   1      44.383  34.713  26.280  1.00  0.00     0.200 A 
ATOM     88  F   UNL A   1      43.577  33.222  24.637  1.00  0.00    -0.200 F 
ATOM     89  F   UNL A   1      44.298  35.735  25.417  1.00  0.00    -0.200 F 
ENDBRANCH  55  79
BRANCH  67  90
ATOM     90  C   UNL A   1      49.124  27.427  29.201  1.00  0.00     0.064 A 
ATOM     91  C   UNL A   1      50.377  27.927  29.586  1.00  0.00     0.173 A 
ATOM     92  C   UNL A   1      49.088  26.487  28.158  1.00  0.00     0.173 A 
ATOM     93  F   UNL A   1      50.469  28.836  30.569  1.00  0.00    -0.203 F 
ATOM     94  C   UNL A   1      51.541  27.525  28.935  1.00  0.00     0.198 A 
ATOM     95  C   UNL A   1      50.258  26.062  27.533  1.00  0.00     0.198 A 
ATOM     96  F   UNL A   1      47.920  25.969  27.754  1.00  0.00    -0.203 F 
ATOM     97  F   UNL A   1      52.721  28.056  29.286  1.00  0.00    -0.200 F 
ATOM     98  C   UNL A   1      51.482  26.587  27.916  1.00  0.00     0.200 A 
ATOM     99  F   UNL A   1      50.198  25.141  26.560  1.00  0.00    -0.200 F 
ATOM    100  F   UNL A   1      52.604  26.194  27.297  1.00  0.00    -0.200 F 
ENDBRANCH  67  90
ENDBRANCH  41  42
ENDBRANCH  34  36
ENDBRANCH  33  34
ENDBRANCH  32  33
ENDBRANCH  31  32
ENDBRANCH  30  31
ENDBRANCH  29  30
ENDBRANCH   1  29
TORSDOF 21
ENDMDL
MODEL 2
REMARK VINA RESULT:      -8.6      4.245     10.312
REMARK SMILES Cn1ccnc1[C@@H]1[C@@H](C(=O)OCCOCCOCCOC(=O)c2ccc(-c3c4nc(c(-c5c(F)c(F)c(F)c(F)c5F)c5ccc([nH]5)c(-c5c(F)c(F)c(F)c(F)c5F)c5nc(c(-c6c(F)c(F)c(F)c(F)c6F)c6ccc3[nH]6)C=C5)C=C4)cc2)CC(=O)N1CCc1ccccc1F
REMARK SMILES IDX 15 1 14 2 13 3 12 4 11 5 9 6 10 7 8 8 7 9 89 10 86 11 87 12
REMARK SMILES IDX 88 13 6 14 1 15 2 16 3 17 4 18 5 19 90 20 91 21 92 22 93 23
REMARK SMILES IDX 97 24 94 25 96 26 98 27 95 28 16 29 17 30 18 31 19 32 20 33
REMARK SMILES IDX 21 34 22 35 23 36 24 37 85 38 25 39 84 40 26 41 27 42 28 43
REMARK SMILES IDX 78 44 29 45 83 46 77 47 79 48 30 49 82 50 76 51 75 52 31 54
REMARK SMILES IDX 63 55 43 56 62 57 44 58 47 59 61 60 80 61 45 62 46 63 60 65
REMARK SMILES IDX 81 66 48 67 32 68 33 69 41 70 34 71 35 72 39 73 42 74 36 75
REMARK SMILES IDX 37 76 40 77 38 78 64 79 65 80 73 81 66 82 67 83 71 84 74 85
REMARK SMILES IDX 68 86 69 87 72 88 70 89 49 90 50 91 58 92 51 93 52 94 56 95
REMARK SMILES IDX 59 96 53 97 54 98 57 99 55 100
REMARK H PARENT 79 53 47 64
REMARK Flexibility Score: inf
ROOT
ATOM      1  C   UNL A   1      44.971  24.219  30.218  1.00  0.00     0.188 C 
ENDROOT
BRANCH   1   2
ATOM      2  O   UNL A   1      44.092  24.078  31.328  1.00  0.00    -0.376 OA
BRANCH   2   3
ATOM      3  C   UNL A   1      44.540  23.507  32.548  1.00  0.00     0.202 C 
BRANCH   3   4
ATOM      4  C   UNL A   1      45.133  24.425  33.630  1.00  0.00     0.261 C 
BRANCH   4   5
ATOM      5  O   UNL A   1      44.816  25.829  33.547  1.00  0.00    -0.463 OA
BRANCH   5   6
ATOM      6  C   UNL A   1      43.589  26.174  34.013  1.00  0.00     0.312 C 
ATOM      7  O   UNL A   1      42.922  25.485  34.777  1.00  0.00    -0.252 OA
BRANCH   6   8
ATOM      8  C   UNL A   1      43.094  27.524  33.532  1.00  0.00     0.139 C 
ATOM      9  C   UNL A   1      42.431  28.204  34.708  1.00  0.00     0.166 C 
ATOM     10  N   UNL A   1      41.571  29.211  34.116  1.00  0.00    -0.331 N 
ATOM     11  C   UNL A   1      42.016  27.624  32.452  1.00  0.00     0.118 C 
ATOM     12  C   UNL A   1      41.256  28.873  32.811  1.00  0.00     0.224 C 
ATOM     13  O   UNL A   1      40.464  29.442  32.078  1.00  0.00    -0.275 OA
BRANCH   9  14
ATOM     14  C   UNL A   1      43.399  28.686  35.733  1.00  0.00     0.132 A 
ATOM     15  C   UNL A   1      44.823  30.288  34.373  1.00  0.00     0.151 C 
ATOM     16  N   UNL A   1      44.396  29.617  35.575  1.00  0.00    -0.336 N 
ATOM     17  C   UNL A   1      44.994  29.793  36.796  1.00  0.00     0.107 A 
ATOM     18  C   UNL A   1      44.411  28.870  37.623  1.00  0.00     0.131 A 
ATOM     19  N   UNL A   1      43.442  28.183  36.955  1.00  0.00    -0.239 NA
ENDBRANCH   9  14
BRANCH  10  20
ATOM     20  C   UNL A   1      40.771  30.169  34.880  1.00  0.00     0.125 C 
BRANCH  20  21
ATOM     21  C   UNL A   1      41.203  31.637  34.695  1.00  0.00     0.060 C 
BRANCH  21  22
ATOM     22  C   UNL A   1      40.469  32.589  35.607  1.00  0.00    -0.010 A 
ATOM     23  C   UNL A   1      41.075  33.092  36.768  1.00  0.00     0.007 A 
ATOM     24  C   UNL A   1      39.210  33.079  35.244  1.00  0.00     0.126 A 
ATOM     25  C   UNL A   1      40.472  34.132  37.482  1.00  0.00     0.000 A 
ATOM     26  C   UNL A   1      38.592  34.092  35.969  1.00  0.00     0.039 A 
ATOM     27  F   UNL A   1      38.608  32.613  34.139  1.00  0.00    -0.207 F 
ATOM     28  C   UNL A   1      39.238  34.639  37.075  1.00  0.00     0.003 A 
ENDBRANCH  21  22
ENDBRANCH  20  21
ENDBRANCH  10  20
ENDBRANCH   6   8
ENDBRANCH   5   6
ENDBRANCH   4   5
ENDBRANCH   3   4
ENDBRANCH   2   3
ENDBRANCH   1   2
BRANCH   1  29
ATOM     29  C   UNL A   1      44.574  23.687  28.832  1.00  0.00     0.188 C 
BRANCH  29  30
ATOM     30  O   UNL A   1      43.373  22.961  28.802  1.00  0.00    -0.376 OA
BRANCH  30  31
ATOM     31  C   UNL A   1      43.003  22.323  27.598  1.00  0.00     0.202 C 
BRANCH  31  32
ATOM     32  C   UNL A   1      41.563  21.814  27.402  1.00  0.00     0.261 C 
BRANCH  32  33
ATOM     33  O   UNL A   1      40.851  22.253  26.230  1.00  0.00    -0.460 OA
BRANCH  33  34
ATOM     34  C   UNL A   1      39.628  22.801  26.395  1.00  0.00     0.338 C 
ATOM     35  O   UNL A   1      38.551  22.225  26.327  1.00  0.00    -0.246 OA
BRANCH  34  36
ATOM     36  C   UNL A   1      39.805  24.184  26.905  1.00  0.00     0.060 A 
ATOM     37  C   UNL A   1      40.394  25.153  26.078  1.00  0.00     0.016 A 
ATOM     38  C   UNL A   1      39.381  24.529  28.189  1.00  0.00     0.016 A 
ATOM     39  C   UNL A   1      40.582  26.460  26.542  1.00  0.00     0.010 A 
ATOM     40  C   UNL A   1      39.592  25.830  28.661  1.00  0.00     0.010 A 
ATOM     41  C   UNL A   1      40.217  26.797  27.852  1.00  0.00    -0.014 A 
BRANCH  41  42
ATOM     42  C   UNL A   1      40.643  28.094  28.444  1.00  0.00     0.031 A 
ATOM     43  C   UNL A   1      42.096  28.284  28.786  1.00  0.00     0.074 A 
ATOM     44  C   UNL A   1      39.765  29.082  28.694  1.00  0.00     0.049 A 
ATOM     45  N   UNL A   1      42.687  29.276  29.404  1.00  0.00    -0.248 NA
ATOM     46  C   UNL A   1      43.005  27.202  28.378  1.00  0.00     0.031 C 
ATOM     47  C   UNL A   1      38.340  29.048  28.377  1.00  0.00     0.029 A 
ATOM     48  N   UNL A   1      39.948  30.305  29.295  1.00  0.00    -0.354 N 
ATOM     49  C   UNL A   1      44.030  28.928  29.476  1.00  0.00     0.074 A 
ATOM     50  C   UNL A   1      44.164  27.625  28.860  1.00  0.00     0.031 C 
ATOM     51  C   UNL A   1      37.771  30.187  28.810  1.00  0.00     0.029 A 
ATOM     52  C   UNL A   1      38.783  31.013  29.468  1.00  0.00     0.049 A 
ATOM     53  H   UNL A   1      40.830  30.642  29.575  1.00  0.00     0.167 HD
ATOM     54  C   UNL A   1      45.061  29.630  30.005  1.00  0.00     0.037 A 
ATOM     55  C   UNL A   1      38.556  32.175  30.116  1.00  0.00     0.037 A 
ATOM     56  C   UNL A   1      44.928  30.926  30.619  1.00  0.00     0.049 A 
ATOM     57  C   UNL A   1      39.707  32.905  30.766  1.00  0.00     0.074 A 
ATOM     58  C   UNL A   1      45.920  31.732  31.154  1.00  0.00     0.029 A 
ATOM     59  N   UNL A   1      43.729  31.600  30.795  1.00  0.00    -0.354 N 
ATOM     60  N   UNL A   1      40.979  32.588  30.800  1.00  0.00    -0.248 NA
ATOM     61  C   UNL A   1      39.388  34.158  31.466  1.00  0.00     0.031 C 
ATOM     62  C   UNL A   1      45.311  32.860  31.714  1.00  0.00     0.029 A 
ATOM     63  C   UNL A   1      43.951  32.794  31.463  1.00  0.00     0.049 A 
ATOM     64  H   UNL A   1      42.850  31.278  30.489  1.00  0.00     0.167 HD
ATOM     65  C   UNL A   1      41.613  33.611  31.496  1.00  0.00     0.074 A 
ATOM     66  C   UNL A   1      40.588  34.569  31.852  1.00  0.00     0.031 C 
ATOM     67  C   UNL A   1      42.925  33.746  31.810  1.00  0.00     0.037 A 
BRANCH  54  68
ATOM     68  C   UNL A   1      46.422  28.995  29.979  1.00  0.00     0.064 A 
ATOM     69  C   UNL A   1      47.275  29.110  28.871  1.00  0.00     0.173 A 
ATOM     70  C   UNL A   1      46.892  28.285  31.095  1.00  0.00     0.173 A 
ATOM     71  F   UNL A   1      46.872  29.767  27.773  1.00  0.00    -0.203 F 
ATOM     72  C   UNL A   1      48.534  28.513  28.870  1.00  0.00     0.198 A 
ATOM     73  C   UNL A   1      48.163  27.718  31.104  1.00  0.00     0.198 A 
ATOM     74  F   UNL A   1      46.119  28.147  32.184  1.00  0.00    -0.203 F 
ATOM     75  F   UNL A   1      49.310  28.591  27.779  1.00  0.00    -0.200 F 
ATOM     76  C   UNL A   1      48.979  27.826  29.988  1.00  0.00     0.200 A 
ATOM     77  F   UNL A   1      48.598  27.068  32.192  1.00  0.00    -0.200 F 
ATOM     78  F   UNL A   1      50.195  27.259  29.989  1.00  0.00    -0.200 F 
ENDBRANCH  54  68
BRANCH  55  79
ATOM     79  C   UNL A   1      37.173  32.716  30.210  1.00  0.00     0.064 A 
ATOM     80  C   UNL A   1      36.662  33.577  29.228  1.00  0.00     0.173 A 
ATOM     81  C   UNL A   1      36.342  32.406  31.298  1.00  0.00     0.173 A 
ATOM     82  F   UNL A   1      37.427  33.930  28.184  1.00  0.00    -0.203 F 
ATOM     83  C   UNL A   1      35.383  34.121  29.340  1.00  0.00     0.198 A 
ATOM     84  C   UNL A   1      35.052  32.924  31.392  1.00  0.00     0.198 A 
ATOM     85  F   UNL A   1      36.783  31.594  32.269  1.00  0.00    -0.203 F 
ATOM     86  F   UNL A   1      34.942  34.984  28.414  1.00  0.00    -0.200 F 
ATOM     87  C   UNL A   1      34.577  33.789  30.418  1.00  0.00     0.200 A 
ATOM     88  F   UNL A   1      34.272  32.593  32.429  1.00  0.00    -0.200 F 
ATOM     89  F   UNL A   1      33.347  34.310  30.523  1.00  0.00    -0.200 F 
ENDBRANCH  55  79
BRANCH  67  90
ATOM     90  C   UNL A   1      43.345  34.992  32.541  1.00  0.00     0.064 A 
ATOM     91  C   UNL A   1      43.578  34.998  33.924  1.00  0.00     0.173 A 
ATOM     92  C   UNL A   1      43.562  36.188  31.837  1.00  0.00     0.173 A 
ATOM     93  F   UNL A   1      43.374  33.886  34.649  1.00  0.00    -0.203 F 
ATOM     94  C   UNL A   1      43.983  36.159  34.579  1.00  0.00     0.198 A 
ATOM     95  C   UNL A   1      44.001  37.337  32.489  1.00  0.00     0.198 A 
ATOM     96  F   UNL A   1      43.364  36.238  30.511  1.00  0.00    -0.203 F 
ATOM     97  F   UNL A   1      44.148  36.153  35.909  1.00  0.00    -0.200 F 
ATOM     98  C   UNL A   1      44.202  37.324  33.860  1.00  0.00     0.200 A 
ATOM     99  F   UNL A   1      44.230  38.457  31.788  1.00  0.00    -0.200 F 
ATOM    100  F   UNL A   1      44.602  38.438  34.490  1.00  0.00    -0.200 F 
ENDBRANCH  67  90
ENDBRANCH  41  42
ENDBRANCH  34  36
ENDBRANCH  33  34
ENDBRANCH  32  33
ENDBRANCH  31  32
ENDBRANCH  30  31
ENDBRANCH  29  30
ENDBRANCH   1  29
TORSDOF 21
ENDMDL
MODEL 3
REMARK VINA RESULT:      -8.6      7.748     12.434
REMARK SMILES Cn1ccnc1[C@@H]1[C@@H](C(=O)OCCOCCOCCOC(=O)c2ccc(-c3c4nc(c(-c5c(F)c(F)c(F)c(F)c5F)c5ccc([nH]5)c(-c5c(F)c(F)c(F)c(F)c5F)c5nc(c(-c6c(F)c(F)c(F)c(F)c6F)c6ccc3[nH]6)C=C5)C=C4)cc2)CC(=O)N1CCc1ccccc1F
REMARK SMILES IDX 15 1 14 2 13 3 12 4 11 5 9 6 10 7 8 8 7 9 89 10 86 11 87 12
REMARK SMILES IDX 88 13 6 14 1 15 2 16 3 17 4 18 5 19 90 20 91 21 92 22 93 23
REMARK SMILES IDX 97 24 94 25 96 26 98 27 95 28 16 29 17 30 18 31 19 32 20 33
REMARK SMILES IDX 21 34 22 35 23 36 24 37 85 38 25 39 84 40 26 41 27 42 28 43
REMARK SMILES IDX 78 44 29 45 83 46 77 47 79 48 30 49 82 50 76 51 75 52 31 54
REMARK SMILES IDX 63 55 43 56 62 57 44 58 47 59 61 60 80 61 45 62 46 63 60 65
REMARK SMILES IDX 81 66 48 67 32 68 33 69 41 70 34 71 35 72 39 73 42 74 36 75
REMARK SMILES IDX 37 76 40 77 38 78 64 79 65 80 73 81 66 82 67 83 71 84 74 85
REMARK SMILES IDX 68 86 69 87 72 88 70 89 49 90 50 91 58 92 51 93 52 94 56 95
REMARK SMILES IDX 59 96 53 97 54 98 57 99 55 100
REMARK H PARENT 79 53 47 64
REMARK Flexibility Score: inf
ROOT
ATOM      1  C   UNL A   1      44.737  41.232  27.627  1.00  0.00     0.188 C 
ENDROOT
BRANCH   1   2
ATOM      2  O   UNL A   1      44.120  40.999  26.366  1.00  0.00    -0.376 OA
BRANCH   2   3
ATOM      3  C   UNL A   1      43.782  42.076  25.507  1.00  0.00     0.202 C 
BRANCH   3   4
ATOM      4  C   UNL A   1      42.511  41.976  24.647  1.00  0.00     0.261 C 
BRANCH   4   5
ATOM      5  O   UNL A   1      42.687  41.690  23.244  1.00  0.00    -0.463 OA
BRANCH   5   6
ATOM      6  C   UNL A   1      41.904  42.413  22.404  1.00  0.00     0.312 C 
ATOM      7  O   UNL A   1      40.850  42.948  22.730  1.00  0.00    -0.252 OA
BRANCH   6   8
ATOM      8  C   UNL A   1      42.452  42.542  20.995  1.00  0.00     0.139 C 
ATOM      9  C   UNL A   1      43.521  43.609  21.025  1.00  0.00     0.166 C 
ATOM     10  N   UNL A   1      43.654  44.039  19.646  1.00  0.00    -0.331 N 
ATOM     11  C   UNL A   1      41.557  43.014  19.847  1.00  0.00     0.118 C 
ATOM     12  C   UNL A   1      42.496  43.761  18.939  1.00  0.00     0.224 C 
ATOM     13  O   UNL A   1      42.239  44.099  17.795  1.00  0.00    -0.275 OA
BRANCH   9  14
ATOM     14  C   UNL A   1      44.775  43.170  21.700  1.00  0.00     0.132 A 
ATOM     15  C   UNL A   1      45.220  45.122  23.262  1.00  0.00     0.151 C 
ATOM     16  N   UNL A   1      45.467  43.822  22.692  1.00  0.00    -0.336 N 
ATOM     17  C   UNL A   1      46.520  43.022  23.053  1.00  0.00     0.107 A 
ATOM     18  C   UNL A   1      46.493  41.967  22.179  1.00  0.00     0.131 A 
ATOM     19  N   UNL A   1      45.425  42.077  21.340  1.00  0.00    -0.239 NA
ENDBRANCH   9  14
BRANCH  10  20
ATOM     20  C   UNL A   1      44.627  45.025  19.176  1.00  0.00     0.125 C 
BRANCH  20  21
ATOM     21  C   UNL A   1      44.028  46.419  18.905  1.00  0.00     0.060 C 
BRANCH  21  22
ATOM     22  C   UNL A   1      44.966  47.328  18.148  1.00  0.00    -0.010 A 
ATOM     23  C   UNL A   1      46.267  46.916  17.823  1.00  0.00     0.007 A 
ATOM     24  C   UNL A   1      44.510  48.554  17.654  1.00  0.00     0.126 A 
ATOM     25  C   UNL A   1      47.046  47.673  16.942  1.00  0.00     0.000 A 
ATOM     26  C   UNL A   1      45.292  49.326  16.802  1.00  0.00     0.039 A 
ATOM     27  F   UNL A   1      43.270  48.971  17.952  1.00  0.00    -0.207 F 
ATOM     28  C   UNL A   1      46.552  48.871  16.423  1.00  0.00     0.003 A 
ENDBRANCH  21  22
ENDBRANCH  20  21
ENDBRANCH  10  20
ENDBRANCH   6   8
ENDBRANCH   5   6
ENDBRANCH   4   5
ENDBRANCH   3   4
ENDBRANCH   2   3
ENDBRANCH   1   2
BRANCH   1  29
ATOM     29  C   UNL A   1      46.176  40.763  27.894  1.00  0.00     0.188 C 
BRANCH  29  30
ATOM     30  O   UNL A   1      46.479  40.533  29.245  1.00  0.00    -0.376 OA
BRANCH  30  31
ATOM     31  C   UNL A   1      45.438  40.130  30.109  1.00  0.00     0.202 C 
BRANCH  31  32
ATOM     32  C   UNL A   1      45.241  38.640  30.442  1.00  0.00     0.261 C 
BRANCH  32  33
ATOM     33  O   UNL A   1      46.406  37.874  30.801  1.00  0.00    -0.460 OA
BRANCH  33  34
ATOM     34  C   UNL A   1      47.031  37.171  29.831  1.00  0.00     0.338 C 
ATOM     35  O   UNL A   1      48.129  37.408  29.346  1.00  0.00    -0.246 OA
BRANCH  34  36
ATOM     36  C   UNL A   1      46.269  35.918  29.604  1.00  0.00     0.060 A 
ATOM     37  C   UNL A   1      46.412  34.852  30.504  1.00  0.00     0.016 A 
ATOM     38  C   UNL A   1      45.405  35.798  28.514  1.00  0.00     0.016 A 
ATOM     39  C   UNL A   1      45.711  33.656  30.303  1.00  0.00     0.010 A 
ATOM     40  C   UNL A   1      44.724  34.594  28.300  1.00  0.00     0.010 A 
ATOM     41  C   UNL A   1      44.892  33.506  29.177  1.00  0.00    -0.014 A 
BRANCH  41  42
ATOM     42  C   UNL A   1      44.351  32.170  28.810  1.00  0.00     0.031 A 
ATOM     43  C   UNL A   1      42.986  31.784  29.315  1.00  0.00     0.074 A 
ATOM     44  C   UNL A   1      45.053  31.302  28.059  1.00  0.00     0.049 A 
ATOM     45  N   UNL A   1      42.351  30.643  29.220  1.00  0.00    -0.248 NA
ATOM     46  C   UNL A   1      42.241  32.830  30.032  1.00  0.00     0.031 C 
ATOM     47  C   UNL A   1      46.365  31.560  27.472  1.00  0.00     0.029 A 
ATOM     48  N   UNL A   1      44.761  30.013  27.681  1.00  0.00    -0.354 N 
ATOM     49  C   UNL A   1      41.143  30.829  29.880  1.00  0.00     0.074 A 
ATOM     50  C   UNL A   1      41.143  32.183  30.391  1.00  0.00     0.031 C 
ATOM     51  C   UNL A   1      46.778  30.454  26.828  1.00  0.00     0.029 A 
ATOM     52  C   UNL A   1      45.778  29.398  26.990  1.00  0.00     0.049 A 
ATOM     53  H   UNL A   1      43.905  29.571  27.885  1.00  0.00     0.167 HD
ATOM     54  C   UNL A   1      40.123  29.952  30.045  1.00  0.00     0.037 A 
ATOM     55  C   UNL A   1      45.901  28.122  26.571  1.00  0.00     0.037 A 
ATOM     56  C   UNL A   1      40.123  28.604  29.537  1.00  0.00     0.049 A 
ATOM     57  C   UNL A   1      44.785  27.139  26.832  1.00  0.00     0.074 A 
ATOM     58  C   UNL A   1      39.123  27.651  29.624  1.00  0.00     0.029 A 
ATOM     59  N   UNL A   1      41.180  28.012  28.862  1.00  0.00    -0.354 N 
ATOM     60  N   UNL A   1      43.631  27.330  27.425  1.00  0.00    -0.248 NA
ATOM     61  C   UNL A   1      44.990  25.761  26.360  1.00  0.00     0.031 C 
ATOM     62  C   UNL A   1      39.601  26.463  29.063  1.00  0.00     0.029 A 
ATOM     63  C   UNL A   1      40.870  26.695  28.559  1.00  0.00     0.049 A 
ATOM     64  H   UNL A   1      42.026  28.462  28.631  1.00  0.00     0.167 HD
ATOM     65  C   UNL A   1      42.965  26.112  27.373  1.00  0.00     0.074 A 
ATOM     66  C   UNL A   1      43.835  25.191  26.674  1.00  0.00     0.031 C 
ATOM     67  C   UNL A   1      41.741  25.785  27.858  1.00  0.00     0.037 A 
BRANCH  54  68
ATOM     68  C   UNL A   1      38.934  30.410  30.840  1.00  0.00     0.064 A 
ATOM     69  C   UNL A   1      37.810  30.988  30.230  1.00  0.00     0.173 A 
ATOM     70  C   UNL A   1      38.906  30.237  32.232  1.00  0.00     0.173 A 
ATOM     71  F   UNL A   1      37.789  31.188  28.904  1.00  0.00    -0.203 F 
ATOM     72  C   UNL A   1      36.718  31.404  30.988  1.00  0.00     0.198 A 
ATOM     73  C   UNL A   1      37.799  30.622  32.983  1.00  0.00     0.198 A 
ATOM     74  F   UNL A   1      39.952  29.685  32.867  1.00  0.00    -0.203 F 
ATOM     75  F   UNL A   1      35.678  32.003  30.390  1.00  0.00    -0.200 F 
ATOM     76  C   UNL A   1      36.710  31.213  32.361  1.00  0.00     0.200 A 
ATOM     77  F   UNL A   1      37.787  30.422  34.308  1.00  0.00    -0.200 F 
ATOM     78  F   UNL A   1      35.654  31.606  33.089  1.00  0.00    -0.200 F 
ENDBRANCH  54  68
BRANCH  55  79
ATOM     79  C   UNL A   1      47.144  27.683  25.880  1.00  0.00     0.064 A 
ATOM     80  C   UNL A   1      47.248  27.718  24.482  1.00  0.00     0.173 A 
ATOM     81  C   UNL A   1      48.244  27.193  26.601  1.00  0.00     0.173 A 
ATOM     82  F   UNL A   1      46.213  28.147  23.744  1.00  0.00    -0.203 F 
ATOM     83  C   UNL A   1      48.394  27.262  23.832  1.00  0.00     0.198 A 
ATOM     84  C   UNL A   1      49.402  26.769  25.952  1.00  0.00     0.198 A 
ATOM     85  F   UNL A   1      48.195  27.130  27.939  1.00  0.00    -0.203 F 
ATOM     86  F   UNL A   1      48.444  27.256  22.493  1.00  0.00    -0.200 F 
ATOM     87  C   UNL A   1      49.473  26.795  24.568  1.00  0.00     0.200 A 
ATOM     88  F   UNL A   1      50.446  26.328  26.667  1.00  0.00    -0.200 F 
ATOM     89  F   UNL A   1      50.576  26.361  23.943  1.00  0.00    -0.200 F 
ENDBRANCH  55  79
BRANCH  67  90
ATOM     90  C   UNL A   1      41.243  24.386  27.618  1.00  0.00     0.064 A 
ATOM     91  C   UNL A   1      40.176  24.117  26.748  1.00  0.00     0.173 A 
ATOM     92  C   UNL A   1      41.876  23.293  28.232  1.00  0.00     0.173 A 
ATOM     93  F   UNL A   1      39.527  25.124  26.142  1.00  0.00    -0.203 F 
ATOM     94  C   UNL A   1      39.743  22.811  26.525  1.00  0.00     0.198 A 
ATOM     95  C   UNL A   1      41.463  21.988  27.980  1.00  0.00     0.198 A 
ATOM     96  F   UNL A   1      42.908  23.491  29.066  1.00  0.00    -0.203 F 
ATOM     97  F   UNL A   1      38.688  22.584  25.731  1.00  0.00    -0.200 F 
ATOM     98  C   UNL A   1      40.392  21.748  27.134  1.00  0.00     0.200 A 
ATOM     99  F   UNL A   1      42.105  20.961  28.556  1.00  0.00    -0.200 F 
ATOM    100  F   UNL A   1      39.980  20.493  26.912  1.00  0.00    -0.200 F 
ENDBRANCH  67  90
ENDBRANCH  41  42
ENDBRANCH  34  36
ENDBRANCH  33  34
ENDBRANCH  32  33
ENDBRANCH  31  32
ENDBRANCH  30  31
ENDBRANCH  29  30
ENDBRANCH   1  29
TORSDOF 21
ENDMDL
