MODEL 1
REMARK VINA RESULT:     -11.1      0.000      0.000
REMARK SMILES Cc1nnc(-c2ccccc2-c2cc(NCC(=O)OCCOCCOCCOC(=O)c3ccc(-c4c5nc(c(-c6c(F)c(F)c(F)c(F)c6F)c6ccc([nH]6)c(-c6c(F)c(F)c(F)c(F)c6F)c6nc(c(-c7c(F)c(F)c(F)c(F)c7F)c7ccc4[nH]7)C=C6)C=C5)cc3)nc3[nH]ccc23)o1
REMARK SMILES IDX 23 1 22 2 21 3 20 4 19 5 17 6 18 7 16 8 15 9 14 11 12 12
REMARK SMILES IDX 13 13 99 14 95 15 98 16 94 17 96 18 97 19 11 21 6 22 7 23
REMARK SMILES IDX 8 24 10 25 9 26 5 27 1 28 2 29 3 30 100 31 4 32 24 33 25 34
REMARK SMILES IDX 26 35 27 36 28 37 29 38 30 39 31 40 32 41 93 42 33 43 92 44
REMARK SMILES IDX 34 45 35 46 36 47 86 48 37 49 91 50 85 51 87 52 38 53 90 54
REMARK SMILES IDX 84 55 83 56 39 58 71 59 51 60 70 61 52 62 55 63 69 64 88 65
REMARK SMILES IDX 53 66 54 67 68 69 89 70 56 71 40 72 41 73 49 74 42 75 43 76
REMARK SMILES IDX 47 77 50 78 44 79 45 80 48 81 46 82 72 83 73 84 81 85 74 86
REMARK SMILES IDX 75 87 79 88 82 89 76 90 77 91 80 92 78 93 57 94 58 95 66 96
REMARK SMILES IDX 59 97 60 98 64 99 67 100 61 101 62 102 65 103 63 104
REMARK H PARENT 15 10 96 20 87 57 55 68
REMARK Flexibility Score: inf
ROOT
ATOM      1  C   UNL A   1      41.590  21.831  25.947  1.00  0.00     0.188 C 
ENDROOT
BRANCH   1   2
ATOM      2  O   UNL A   1      40.744  22.053  27.049  1.00  0.00    -0.376 OA
BRANCH   2   3
ATOM      3  C   UNL A   1      39.836  23.146  26.981  1.00  0.00     0.202 C 
BRANCH   3   4
ATOM      4  C   UNL A   1      38.485  23.094  26.225  1.00  0.00     0.261 C 
BRANCH   4   5
ATOM      5  O   UNL A   1      37.891  21.801  26.018  1.00  0.00    -0.462 OA
BRANCH   5   6
ATOM      6  C   UNL A   1      36.599  21.733  25.609  1.00  0.00     0.325 C 
ATOM      7  O   UNL A   1      35.929  20.704  25.652  1.00  0.00    -0.250 OA
BRANCH   6   8
ATOM      8  C   UNL A   1      35.969  23.097  25.281  1.00  0.00     0.237 C 
BRANCH   8   9
ATOM      9  N   UNL A   1      35.749  23.425  23.868  1.00  0.00    -0.359 N 
ATOM     10  H   UNL A   1      36.333  23.023  23.184  1.00  0.00     0.162 HD
BRANCH   9  11
ATOM     11  C   UNL A   1      34.739  24.288  23.474  1.00  0.00     0.129 A 
ATOM     12  C   UNL A   1      33.211  26.119  24.068  1.00  0.00    -0.003 A 
ATOM     13  C   UNL A   1      34.281  25.255  24.387  1.00  0.00     0.056 A 
ATOM     14  C   UNL A   1      32.652  25.946  22.783  1.00  0.00     0.027 A 
ATOM     15  C   UNL A   1      33.216  24.975  21.965  1.00  0.00     0.140 A 
ATOM     16  C   UNL A   1      31.598  26.537  22.025  1.00  0.00     0.030 A 
ATOM     17  N   UNL A   1      34.232  24.148  22.241  1.00  0.00    -0.213 NA
ATOM     18  N   UNL A   1      32.547  24.972  20.775  1.00  0.00    -0.346 N 
ATOM     19  C   UNL A   1      31.549  25.907  20.799  1.00  0.00     0.085 A 
ATOM     20  H   UNL A   1      32.753  24.383  20.012  1.00  0.00     0.167 HD
BRANCH  12  21
ATOM     21  C   UNL A   1      32.662  27.146  24.980  1.00  0.00    -0.005 A 
ATOM     22  C   UNL A   1      31.897  26.845  26.129  1.00  0.00     0.047 A 
ATOM     23  C   UNL A   1      31.461  27.886  26.980  1.00  0.00     0.014 A 
ATOM     24  C   UNL A   1      31.756  29.218  26.706  1.00  0.00     0.001 A 
ATOM     25  C   UNL A   1      32.916  28.510  24.711  1.00  0.00     0.009 A 
ATOM     26  C   UNL A   1      32.475  29.531  25.562  1.00  0.00     0.001 A 
BRANCH  22  27
ATOM     27  C   UNL A   1      31.509  25.492  26.483  1.00  0.00     0.248 A 
ATOM     28  C   UNL A   1      32.717  22.400  27.616  1.00  0.00     0.113 C 
ATOM     29  C   UNL A   1      31.886  23.515  27.144  1.00  0.00     0.213 A 
ATOM     30  N   UNL A   1      30.586  23.597  26.960  1.00  0.00    -0.113 NA
ATOM     31  O   UNL A   1      32.543  24.671  26.846  1.00  0.00    -0.421 OA
ATOM     32  N   UNL A   1      30.339  24.892  26.537  1.00  0.00    -0.108 NA
ENDBRANCH  22  27
ENDBRANCH  12  21
ENDBRANCH   9  11
ENDBRANCH   8   9
ENDBRANCH   6   8
ENDBRANCH   5   6
ENDBRANCH   4   5
ENDBRANCH   3   4
ENDBRANCH   2   3
ENDBRANCH   1   2
BRANCH   1  33
ATOM     33  C   UNL A   1      42.814  20.963  26.279  1.00  0.00     0.188 C 
BRANCH  33  34
ATOM     34  O   UNL A   1      44.132  21.446  26.106  1.00  0.00    -0.376 OA
BRANCH  34  35
ATOM     35  C   UNL A   1      44.656  21.514  24.790  1.00  0.00     0.202 C 
BRANCH  35  36
ATOM     36  C   UNL A   1      44.794  22.890  24.118  1.00  0.00     0.261 C 
BRANCH  36  37
ATOM     37  O   UNL A   1      44.105  23.967  24.778  1.00  0.00    -0.460 OA
BRANCH  37  38
ATOM     38  C   UNL A   1      44.889  25.001  25.196  1.00  0.00     0.338 C 
ATOM     39  O   UNL A   1      45.871  25.458  24.650  1.00  0.00    -0.246 OA
BRANCH  38  40
ATOM     40  C   UNL A   1      44.214  25.655  26.340  1.00  0.00     0.060 A 
ATOM     41  C   UNL A   1      44.565  26.973  26.681  1.00  0.00     0.016 A 
ATOM     42  C   UNL A   1      43.233  24.978  27.060  1.00  0.00     0.016 A 
ATOM     43  C   UNL A   1      43.906  27.632  27.719  1.00  0.00     0.010 A 
ATOM     44  C   UNL A   1      42.607  25.622  28.128  1.00  0.00     0.010 A 
ATOM     45  C   UNL A   1      42.942  26.948  28.466  1.00  0.00    -0.014 A 
BRANCH  45  46
ATOM     46  C   UNL A   1      42.386  27.539  29.703  1.00  0.00     0.031 A 
ATOM     47  C   UNL A   1      41.096  28.301  29.610  1.00  0.00     0.074 A 
ATOM     48  C   UNL A   1      43.031  27.440  30.877  1.00  0.00     0.049 A 
ATOM     49  N   UNL A   1      40.496  29.038  30.508  1.00  0.00    -0.248 NA
ATOM     50  C   UNL A   1      40.394  28.225  28.319  1.00  0.00     0.031 C 
ATOM     51  C   UNL A   1      44.254  26.676  31.110  1.00  0.00     0.029 A 
ATOM     52  N   UNL A   1      42.753  28.011  32.094  1.00  0.00    -0.354 N 
ATOM     53  C   UNL A   1      39.358  29.531  29.885  1.00  0.00     0.074 A 
ATOM     54  C   UNL A   1      39.362  29.028  28.529  1.00  0.00     0.031 C 
ATOM     55  C   UNL A   1      44.634  26.843  32.388  1.00  0.00     0.029 A 
ATOM     56  C   UNL A   1      43.709  27.764  33.048  1.00  0.00     0.049 A 
ATOM     57  H   UNL A   1      41.945  28.547  32.267  1.00  0.00     0.167 HD
ATOM     58  C   UNL A   1      38.399  30.336  30.401  1.00  0.00     0.037 A 
ATOM     59  C   UNL A   1      43.839  28.260  34.295  1.00  0.00     0.037 A 
ATOM     60  C   UNL A   1      38.408  30.841  31.749  1.00  0.00     0.049 A 
ATOM     61  C   UNL A   1      42.816  29.245  34.809  1.00  0.00     0.074 A 
ATOM     62  C   UNL A   1      37.472  31.643  32.375  1.00  0.00     0.029 A 
ATOM     63  N   UNL A   1      39.416  30.605  32.672  1.00  0.00    -0.354 N 
ATOM     64  N   UNL A   1      41.729  29.693  34.229  1.00  0.00    -0.248 NA
ATOM     65  C   UNL A   1      43.049  29.800  36.150  1.00  0.00     0.031 C 
ATOM     66  C   UNL A   1      37.947  31.950  33.655  1.00  0.00     0.029 A 
ATOM     67  C   UNL A   1      39.145  31.281  33.851  1.00  0.00     0.049 A 
ATOM     68  H   UNL A   1      40.208  30.041  32.514  1.00  0.00     0.167 HD
ATOM     69  C   UNL A   1      41.130  30.551  35.145  1.00  0.00     0.074 A 
ATOM     70  C   UNL A   1      41.971  30.554  36.323  1.00  0.00     0.031 C 
ATOM     71  C   UNL A   1      39.986  31.268  35.022  1.00  0.00     0.037 A 
BRANCH  58  72
ATOM     72  C   UNL A   1      37.287  30.758  29.484  1.00  0.00     0.064 A 
ATOM     73  C   UNL A   1      37.233  32.044  28.925  1.00  0.00     0.173 A 
ATOM     74  C   UNL A   1      36.264  29.856  29.153  1.00  0.00     0.173 A 
ATOM     75  F   UNL A   1      38.177  32.950  29.220  1.00  0.00    -0.203 F 
ATOM     76  C   UNL A   1      36.176  32.423  28.101  1.00  0.00     0.198 A 
ATOM     77  C   UNL A   1      35.228  30.227  28.300  1.00  0.00     0.198 A 
ATOM     78  F   UNL A   1      36.268  28.613  29.656  1.00  0.00    -0.203 F 
ATOM     79  F   UNL A   1      36.111  33.676  27.631  1.00  0.00    -0.200 F 
ATOM     80  C   UNL A   1      35.178  31.513  27.784  1.00  0.00     0.200 A 
ATOM     81  F   UNL A   1      34.274  29.341  27.984  1.00  0.00    -0.200 F 
ATOM     82  F   UNL A   1      34.163  31.879  26.989  1.00  0.00    -0.200 F 
ENDBRANCH  58  72
BRANCH  59  83
ATOM     83  C   UNL A   1      44.987  27.852  35.147  1.00  0.00     0.064 A 
ATOM     84  C   UNL A   1      44.869  26.781  36.045  1.00  0.00     0.173 A 
ATOM     85  C   UNL A   1      46.213  28.534  35.107  1.00  0.00     0.173 A 
ATOM     86  F   UNL A   1      43.708  26.116  36.142  1.00  0.00    -0.203 F 
ATOM     87  C   UNL A   1      45.923  26.420  36.881  1.00  0.00     0.198 A 
ATOM     88  C   UNL A   1      47.277  28.152  35.921  1.00  0.00     0.198 A 
ATOM     89  F   UNL A   1      46.377  29.571  34.273  1.00  0.00    -0.203 F 
ATOM     90  F   UNL A   1      45.764  25.427  37.765  1.00  0.00    -0.200 F 
ATOM     91  C   UNL A   1      47.129  27.102  36.813  1.00  0.00     0.200 A 
ATOM     92  F   UNL A   1      48.443  28.808  35.845  1.00  0.00    -0.200 F 
ATOM     93  F   UNL A   1      48.143  26.753  37.617  1.00  0.00    -0.200 F 
ENDBRANCH  59  83
BRANCH  71  94
ATOM     94  C   UNL A   1      39.543  32.085  36.204  1.00  0.00     0.064 A 
ATOM     95  C   UNL A   1      40.116  33.331  36.499  1.00  0.00     0.173 A 
ATOM     96  C   UNL A   1      38.486  31.642  37.015  1.00  0.00     0.173 A 
ATOM     97  F   UNL A   1      41.138  33.796  35.766  1.00  0.00    -0.203 F 
ATOM     98  C   UNL A   1      39.660  34.093  37.574  1.00  0.00     0.198 A 
ATOM     99  C   UNL A   1      38.010  32.421  38.066  1.00  0.00     0.198 A 
ATOM    100  F   UNL A   1      37.897  30.461  36.773  1.00  0.00    -0.203 F 
ATOM    101  F   UNL A   1      40.250  35.260  37.862  1.00  0.00    -0.200 F 
ATOM    102  C   UNL A   1      38.601  33.643  38.348  1.00  0.00     0.200 A 
ATOM    103  F   UNL A   1      36.975  31.992  38.801  1.00  0.00    -0.200 F 
ATOM    104  F   UNL A   1      38.153  34.385  39.370  1.00  0.00    -0.200 F 
ENDBRANCH  71  94
ENDBRANCH  45  46
ENDBRANCH  38  40
ENDBRANCH  37  38
ENDBRANCH  36  37
ENDBRANCH  35  36
ENDBRANCH  34  35
ENDBRANCH  33  34
ENDBRANCH   1  33
TORSDOF 21
ENDMDL
MODEL 2
REMARK VINA RESULT:     -11.0      0.980      2.123
REMARK SMILES Cc1nnc(-c2ccccc2-c2cc(NCC(=O)OCCOCCOCCOC(=O)c3ccc(-c4c5nc(c(-c6c(F)c(F)c(F)c(F)c6F)c6ccc([nH]6)c(-c6c(F)c(F)c(F)c(F)c6F)c6nc(c(-c7c(F)c(F)c(F)c(F)c7F)c7ccc4[nH]7)C=C6)C=C5)cc3)nc3[nH]ccc23)o1
REMARK SMILES IDX 23 1 22 2 21 3 20 4 19 5 17 6 18 7 16 8 15 9 14 11 12 12
REMARK SMILES IDX 13 13 99 14 95 15 98 16 94 17 96 18 97 19 11 21 6 22 7 23
REMARK SMILES IDX 8 24 10 25 9 26 5 27 1 28 2 29 3 30 100 31 4 32 24 33 25 34
REMARK SMILES IDX 26 35 27 36 28 37 29 38 30 39 31 40 32 41 93 42 33 43 92 44
REMARK SMILES IDX 34 45 35 46 36 47 86 48 37 49 91 50 85 51 87 52 38 53 90 54
REMARK SMILES IDX 84 55 83 56 39 58 71 59 51 60 70 61 52 62 55 63 69 64 88 65
REMARK SMILES IDX 53 66 54 67 68 69 89 70 56 71 40 72 41 73 49 74 42 75 43 76
REMARK SMILES IDX 47 77 50 78 44 79 45 80 48 81 46 82 72 83 73 84 81 85 74 86
REMARK SMILES IDX 75 87 79 88 82 89 76 90 77 91 80 92 78 93 57 94 58 95 66 96
REMARK SMILES IDX 59 97 60 98 64 99 67 100 61 101 62 102 65 103 63 104
REMARK H PARENT 15 10 96 20 87 57 55 68
REMARK Flexibility Score: inf
ROOT
ATOM      1  C   UNL A   1      41.782  22.014  25.826  1.00  0.00     0.188 C 
ENDROOT
BRANCH   1   2
ATOM      2  O   UNL A   1      41.060  22.018  27.034  1.00  0.00    -0.376 OA
BRANCH   2   3
ATOM      3  C   UNL A   1      40.084  23.035  27.222  1.00  0.00     0.202 C 
BRANCH   3   4
ATOM      4  C   UNL A   1      38.752  23.102  26.435  1.00  0.00     0.261 C 
BRANCH   4   5
ATOM      5  O   UNL A   1      38.455  22.015  25.542  1.00  0.00    -0.462 OA
BRANCH   5   6
ATOM      6  C   UNL A   1      37.248  21.991  24.920  1.00  0.00     0.325 C 
ATOM      7  O   UNL A   1      37.056  22.455  23.799  1.00  0.00    -0.250 OA
BRANCH   6   8
ATOM      8  C   UNL A   1      36.183  21.149  25.642  1.00  0.00     0.237 C 
BRANCH   8   9
ATOM      9  N   UNL A   1      35.463  21.770  26.760  1.00  0.00    -0.359 N 
ATOM     10  H   UNL A   1      35.793  21.636  27.678  1.00  0.00     0.162 HD
BRANCH   9  11
ATOM     11  C   UNL A   1      34.331  22.541  26.552  1.00  0.00     0.129 A 
ATOM     12  C   UNL A   1      33.365  24.658  25.761  1.00  0.00    -0.003 A 
ATOM     13  C   UNL A   1      34.472  23.800  25.942  1.00  0.00     0.056 A 
ATOM     14  C   UNL A   1      32.129  24.161  26.226  1.00  0.00     0.027 A 
ATOM     15  C   UNL A   1      32.119  22.888  26.783  1.00  0.00     0.140 A 
ATOM     16  C   UNL A   1      30.781  24.626  26.281  1.00  0.00     0.030 A 
ATOM     17  N   UNL A   1      33.150  22.054  26.960  1.00  0.00    -0.213 NA
ATOM     18  N   UNL A   1      30.839  22.591  27.157  1.00  0.00    -0.346 N 
ATOM     19  C   UNL A   1      30.014  23.644  26.871  1.00  0.00     0.085 A 
ATOM     20  H   UNL A   1      30.554  21.743  27.570  1.00  0.00     0.167 HD
BRANCH  12  21
ATOM     21  C   UNL A   1      33.438  26.001  25.147  1.00  0.00    -0.005 A 
ATOM     22  C   UNL A   1      33.385  26.229  23.753  1.00  0.00     0.047 A 
ATOM     23  C   UNL A   1      33.400  27.551  23.252  1.00  0.00     0.014 A 
ATOM     24  C   UNL A   1      33.482  28.648  24.104  1.00  0.00     0.001 A 
ATOM     25  C   UNL A   1      33.555  27.135  25.983  1.00  0.00     0.009 A 
ATOM     26  C   UNL A   1      33.572  28.438  25.472  1.00  0.00     0.001 A 
BRANCH  22  27
ATOM     27  C   UNL A   1      33.331  25.152  22.782  1.00  0.00     0.248 A 
ATOM     28  C   UNL A   1      32.189  21.881  22.235  1.00  0.00     0.113 C 
ATOM     29  C   UNL A   1      32.796  23.213  22.117  1.00  0.00     0.213 A 
ATOM     30  N   UNL A   1      33.404  23.791  21.104  1.00  0.00    -0.113 NA
ATOM     31  O   UNL A   1      32.725  24.006  23.223  1.00  0.00    -0.421 OA
ATOM     32  N   UNL A   1      33.745  25.062  21.535  1.00  0.00    -0.108 NA
ENDBRANCH  22  27
ENDBRANCH  12  21
ENDBRANCH   9  11
ENDBRANCH   8   9
ENDBRANCH   6   8
ENDBRANCH   5   6
ENDBRANCH   4   5
ENDBRANCH   3   4
ENDBRANCH   2   3
ENDBRANCH   1   2
BRANCH   1  33
ATOM     33  C   UNL A   1      42.955  21.021  25.816  1.00  0.00     0.188 C 
BRANCH  33  34
ATOM     34  O   UNL A   1      44.296  21.459  25.921  1.00  0.00    -0.376 OA
BRANCH  34  35
ATOM     35  C   UNL A   1      45.001  21.760  24.728  1.00  0.00     0.202 C 
BRANCH  35  36
ATOM     36  C   UNL A   1      45.034  23.215  24.234  1.00  0.00     0.261 C 
BRANCH  36  37
ATOM     37  O   UNL A   1      44.256  24.144  25.010  1.00  0.00    -0.460 OA
BRANCH  37  38
ATOM     38  C   UNL A   1      44.847  25.347  25.258  1.00  0.00     0.338 C 
ATOM     39  O   UNL A   1      45.665  25.929  24.577  1.00  0.00    -0.246 OA
BRANCH  38  40
ATOM     40  C   UNL A   1      44.157  25.968  26.411  1.00  0.00     0.060 A 
ATOM     41  C   UNL A   1      44.395  27.322  26.705  1.00  0.00     0.016 A 
ATOM     42  C   UNL A   1      43.270  25.224  27.185  1.00  0.00     0.016 A 
ATOM     43  C   UNL A   1      43.716  27.946  27.752  1.00  0.00     0.010 A 
ATOM     44  C   UNL A   1      42.626  25.838  28.261  1.00  0.00     0.010 A 
ATOM     45  C   UNL A   1      42.848  27.198  28.552  1.00  0.00    -0.014 A 
BRANCH  45  46
ATOM     46  C   UNL A   1      42.285  27.771  29.795  1.00  0.00     0.031 A 
ATOM     47  C   UNL A   1      41.000  28.542  29.704  1.00  0.00     0.074 A 
ATOM     48  C   UNL A   1      42.919  27.646  30.973  1.00  0.00     0.049 A 
ATOM     49  N   UNL A   1      40.397  29.267  30.610  1.00  0.00    -0.248 NA
ATOM     50  C   UNL A   1      40.310  28.495  28.406  1.00  0.00     0.031 C 
ATOM     51  C   UNL A   1      44.135  26.870  31.202  1.00  0.00     0.029 A 
ATOM     52  N   UNL A   1      42.633  28.197  32.197  1.00  0.00    -0.354 N 
ATOM     53  C   UNL A   1      39.268  29.779  29.987  1.00  0.00     0.074 A 
ATOM     54  C   UNL A   1      39.281  29.300  28.621  1.00  0.00     0.031 C 
ATOM     55  C   UNL A   1      44.504  27.011  32.487  1.00  0.00     0.029 A 
ATOM     56  C   UNL A   1      43.580  27.926  33.155  1.00  0.00     0.049 A 
ATOM     57  H   UNL A   1      41.827  28.735  32.372  1.00  0.00     0.167 HD
ATOM     58  C   UNL A   1      38.309  30.580  30.508  1.00  0.00     0.037 A 
ATOM     59  C   UNL A   1      43.701  28.398  34.411  1.00  0.00     0.037 A 
ATOM     60  C   UNL A   1      38.310  31.060  31.865  1.00  0.00     0.049 A 
ATOM     61  C   UNL A   1      42.681  29.381  34.935  1.00  0.00     0.074 A 
ATOM     62  C   UNL A   1      37.374  31.858  32.498  1.00  0.00     0.029 A 
ATOM     63  N   UNL A   1      39.308  30.802  32.793  1.00  0.00    -0.354 N 
ATOM     64  N   UNL A   1      41.601  29.847  34.353  1.00  0.00    -0.248 NA
ATOM     65  C   UNL A   1      42.905  29.910  36.288  1.00  0.00     0.031 C 
ATOM     66  C   UNL A   1      37.839  32.139  33.786  1.00  0.00     0.029 A 
ATOM     67  C   UNL A   1      39.031  31.458  33.981  1.00  0.00     0.049 A 
ATOM     68  H   UNL A   1      40.098  30.235  32.631  1.00  0.00     0.167 HD
ATOM     69  C   UNL A   1      41.000  30.691  35.279  1.00  0.00     0.074 A 
ATOM     70  C   UNL A   1      41.830  30.668  36.464  1.00  0.00     0.031 C 
ATOM     71  C   UNL A   1      39.862  31.418  35.159  1.00  0.00     0.037 A 
BRANCH  58  72
ATOM     72  C   UNL A   1      37.209  31.026  29.589  1.00  0.00     0.064 A 
ATOM     73  C   UNL A   1      37.188  32.310  29.022  1.00  0.00     0.173 A 
ATOM     74  C   UNL A   1      36.162  30.150  29.265  1.00  0.00     0.173 A 
ATOM     75  F   UNL A   1      38.157  33.192  29.312  1.00  0.00    -0.203 F 
ATOM     76  C   UNL A   1      36.141  32.712  28.197  1.00  0.00     0.198 A 
ATOM     77  C   UNL A   1      35.136  30.543  28.409  1.00  0.00     0.198 A 
ATOM     78  F   UNL A   1      36.133  28.910  29.775  1.00  0.00    -0.203 F 
ATOM     79  F   UNL A   1      36.109  33.964  27.719  1.00  0.00    -0.200 F 
ATOM     80  C   UNL A   1      35.120  31.826  27.886  1.00  0.00     0.200 A 
ATOM     81  F   UNL A   1      34.158  29.681  28.099  1.00  0.00    -0.200 F 
ATOM     82  F   UNL A   1      34.114  32.215  27.090  1.00  0.00    -0.200 F 
ENDBRANCH  58  72
BRANCH  59  83
ATOM     83  C   UNL A   1      44.839  27.968  35.266  1.00  0.00     0.064 A 
ATOM     84  C   UNL A   1      44.719  26.856  36.112  1.00  0.00     0.173 A 
ATOM     85  C   UNL A   1      46.056  28.667  35.280  1.00  0.00     0.173 A 
ATOM     86  F   UNL A   1      43.567  26.172  36.158  1.00  0.00    -0.203 F 
ATOM     87  C   UNL A   1      45.763  26.471  36.952  1.00  0.00     0.198 A 
ATOM     88  C   UNL A   1      47.110  28.263  36.097  1.00  0.00     0.198 A 
ATOM     89  F   UNL A   1      46.221  29.743  34.497  1.00  0.00    -0.203 F 
ATOM     90  F   UNL A   1      45.602  25.437  37.787  1.00  0.00    -0.200 F 
ATOM     91  C   UNL A   1      46.961  27.171  36.937  1.00  0.00     0.200 A 
ATOM     92  F   UNL A   1      48.268  28.937  36.073  1.00  0.00    -0.200 F 
ATOM     93  F   UNL A   1      47.965  26.800  37.744  1.00  0.00    -0.200 F 
ENDBRANCH  59  83
BRANCH  71  94
ATOM     94  C   UNL A   1      39.413  32.217  36.351  1.00  0.00     0.064 A 
ATOM     95  C   UNL A   1      39.955  33.477  36.645  1.00  0.00     0.173 A 
ATOM     96  C   UNL A   1      38.381  31.740  37.176  1.00  0.00     0.173 A 
ATOM     97  F   UNL A   1      40.953  33.974  35.900  1.00  0.00    -0.203 F 
ATOM     98  C   UNL A   1      39.494  34.220  37.730  1.00  0.00     0.198 A 
ATOM     99  C   UNL A   1      37.899  32.500  38.238  1.00  0.00     0.198 A 
ATOM    100  F   UNL A   1      37.822  30.544  36.936  1.00  0.00    -0.203 F 
ATOM    101  F   UNL A   1      40.055  35.402  38.016  1.00  0.00    -0.200 F 
ATOM    102  C   UNL A   1      38.459  33.737  38.518  1.00  0.00     0.200 A 
ATOM    103  F   UNL A   1      36.888  32.039  38.986  1.00  0.00    -0.200 F 
ATOM    104  F   UNL A   1      38.006  34.461  39.550  1.00  0.00    -0.200 F 
ENDBRANCH  71  94
ENDBRANCH  45  46
ENDBRANCH  38  40
ENDBRANCH  37  38
ENDBRANCH  36  37
ENDBRANCH  35  36
ENDBRANCH  34  35
ENDBRANCH  33  34
ENDBRANCH   1  33
TORSDOF 21
ENDMDL
MODEL 3
REMARK VINA RESULT:     -10.2      1.420      7.321
REMARK SMILES Cc1nnc(-c2ccccc2-c2cc(NCC(=O)OCCOCCOCCOC(=O)c3ccc(-c4c5nc(c(-c6c(F)c(F)c(F)c(F)c6F)c6ccc([nH]6)c(-c6c(F)c(F)c(F)c(F)c6F)c6nc(c(-c7c(F)c(F)c(F)c(F)c7F)c7ccc4[nH]7)C=C6)C=C5)cc3)nc3[nH]ccc23)o1
REMARK SMILES IDX 23 1 22 2 21 3 20 4 19 5 17 6 18 7 16 8 15 9 14 11 12 12
REMARK SMILES IDX 13 13 99 14 95 15 98 16 94 17 96 18 97 19 11 21 6 22 7 23
REMARK SMILES IDX 8 24 10 25 9 26 5 27 1 28 2 29 3 30 100 31 4 32 24 33 25 34
REMARK SMILES IDX 26 35 27 36 28 37 29 38 30 39 31 40 32 41 93 42 33 43 92 44
REMARK SMILES IDX 34 45 35 46 36 47 86 48 37 49 91 50 85 51 87 52 38 53 90 54
REMARK SMILES IDX 84 55 83 56 39 58 71 59 51 60 70 61 52 62 55 63 69 64 88 65
REMARK SMILES IDX 53 66 54 67 68 69 89 70 56 71 40 72 41 73 49 74 42 75 43 76
REMARK SMILES IDX 47 77 50 78 44 79 45 80 48 81 46 82 72 83 73 84 81 85 74 86
REMARK SMILES IDX 75 87 79 88 82 89 76 90 77 91 80 92 78 93 57 94 58 95 66 96
REMARK SMILES IDX 59 97 60 98 64 99 67 100 61 101 62 102 65 103 63 104
REMARK H PARENT 15 10 96 20 87 57 55 68
REMARK Flexibility Score: inf
ROOT
ATOM      1  C   UNL A   1      42.513  23.449  26.059  1.00  0.00     0.188 C 
ENDROOT
BRANCH   1   2
ATOM      2  O   UNL A   1      41.657  23.129  27.128  1.00  0.00    -0.376 OA
BRANCH   2   3
ATOM      3  C   UNL A   1      40.461  23.885  27.271  1.00  0.00     0.202 C 
BRANCH   3   4
ATOM      4  C   UNL A   1      39.214  23.697  26.371  1.00  0.00     0.261 C 
BRANCH   4   5
ATOM      5  O   UNL A   1      38.412  22.524  26.588  1.00  0.00    -0.462 OA
BRANCH   5   6
ATOM      6  C   UNL A   1      37.628  22.072  25.576  1.00  0.00     0.325 C 
ATOM      7  O   UNL A   1      38.072  21.691  24.495  1.00  0.00    -0.250 OA
BRANCH   6   8
ATOM      8  C   UNL A   1      36.152  21.875  25.960  1.00  0.00     0.237 C 
BRANCH   8   9
ATOM      9  N   UNL A   1      35.548  22.854  26.871  1.00  0.00    -0.359 N 
ATOM     10  H   UNL A   1      36.072  23.189  27.633  1.00  0.00     0.162 HD
BRANCH   9  11
ATOM     11  C   UNL A   1      34.255  23.316  26.682  1.00  0.00     0.129 A 
ATOM     12  C   UNL A   1      32.770  25.206  26.171  1.00  0.00    -0.003 A 
ATOM     13  C   UNL A   1      34.064  24.660  26.315  1.00  0.00     0.056 A 
ATOM     14  C   UNL A   1      31.703  24.314  26.413  1.00  0.00     0.027 A 
ATOM     15  C   UNL A   1      32.026  23.002  26.739  1.00  0.00     0.140 A 
ATOM     16  C   UNL A   1      30.278  24.378  26.407  1.00  0.00     0.030 A 
ATOM     17  N   UNL A   1      33.242  22.459  26.876  1.00  0.00    -0.213 NA
ATOM     18  N   UNL A   1      30.867  22.305  26.922  1.00  0.00    -0.346 N 
ATOM     19  C   UNL A   1      29.792  23.131  26.737  1.00  0.00     0.085 A 
ATOM     20  H   UNL A   1      30.813  21.348  27.152  1.00  0.00     0.167 HD
BRANCH  12  21
ATOM     21  C   UNL A   1      32.489  26.612  25.807  1.00  0.00    -0.005 A 
ATOM     22  C   UNL A   1      32.530  27.101  24.482  1.00  0.00     0.047 A 
ATOM     23  C   UNL A   1      32.190  28.447  24.215  1.00  0.00     0.014 A 
ATOM     24  C   UNL A   1      31.824  29.318  25.236  1.00  0.00     0.001 A 
ATOM     25  C   UNL A   1      32.147  27.530  26.825  1.00  0.00     0.009 A 
ATOM     26  C   UNL A   1      31.815  28.861  26.546  1.00  0.00     0.001 A 
BRANCH  22  27
ATOM     27  C   UNL A   1      32.931  26.281  23.353  1.00  0.00     0.248 A 
ATOM     28  C   UNL A   1      33.008  22.999  22.119  1.00  0.00     0.113 C 
ATOM     29  C   UNL A   1      33.141  24.449  22.311  1.00  0.00     0.213 A 
ATOM     30  N   UNL A   1      33.608  25.381  21.509  1.00  0.00    -0.113 NA
ATOM     31  O   UNL A   1      32.707  24.939  23.507  1.00  0.00    -0.421 OA
ATOM     32  N   UNL A   1      33.462  26.579  22.187  1.00  0.00    -0.108 NA
ENDBRANCH  22  27
ENDBRANCH  12  21
ENDBRANCH   9  11
ENDBRANCH   8   9
ENDBRANCH   6   8
ENDBRANCH   5   6
ENDBRANCH   4   5
ENDBRANCH   3   4
ENDBRANCH   2   3
ENDBRANCH   1   2
BRANCH   1  33
ATOM     33  C   UNL A   1      43.005  22.220  25.278  1.00  0.00     0.188 C 
BRANCH  33  34
ATOM     34  O   UNL A   1      44.379  21.891  25.205  1.00  0.00    -0.376 OA
BRANCH  34  35
ATOM     35  C   UNL A   1      45.150  22.454  24.157  1.00  0.00     0.202 C 
BRANCH  35  36
ATOM     36  C   UNL A   1      46.267  23.448  24.513  1.00  0.00     0.261 C 
BRANCH  36  37
ATOM     37  O   UNL A   1      45.955  24.370  25.573  1.00  0.00    -0.460 OA
BRANCH  37  38
ATOM     38  C   UNL A   1      46.154  25.687  25.286  1.00  0.00     0.338 C 
ATOM     39  O   UNL A   1      46.708  26.163  24.318  1.00  0.00    -0.246 OA
BRANCH  38  40
ATOM     40  C   UNL A   1      45.370  26.490  26.253  1.00  0.00     0.060 A 
ATOM     41  C   UNL A   1      45.358  27.891  26.131  1.00  0.00     0.016 A 
ATOM     42  C   UNL A   1      44.640  25.864  27.260  1.00  0.00     0.016 A 
ATOM     43  C   UNL A   1      44.584  28.667  26.994  1.00  0.00     0.010 A 
ATOM     44  C   UNL A   1      43.903  26.645  28.151  1.00  0.00     0.010 A 
ATOM     45  C   UNL A   1      43.874  28.047  28.026  1.00  0.00    -0.014 A 
BRANCH  45  46
ATOM     46  C   UNL A   1      43.224  28.852  29.085  1.00  0.00     0.031 A 
ATOM     47  C   UNL A   1      43.973  29.080  30.366  1.00  0.00     0.074 A 
ATOM     48  C   UNL A   1      41.980  29.336  28.932  1.00  0.00     0.049 A 
ATOM     49  N   UNL A   1      43.563  29.608  31.489  1.00  0.00    -0.248 NA
ATOM     50  C   UNL A   1      45.377  28.641  30.379  1.00  0.00     0.031 C 
ATOM     51  C   UNL A   1      41.177  29.238  27.716  1.00  0.00     0.029 A 
ATOM     52  N   UNL A   1      41.167  29.991  29.823  1.00  0.00    -0.354 N 
ATOM     53  C   UNL A   1      44.649  29.545  32.350  1.00  0.00     0.074 A 
ATOM     54  C   UNL A   1      45.730  28.910  31.626  1.00  0.00     0.031 C 
ATOM     55  C   UNL A   1      39.975  29.794  27.944  1.00  0.00     0.029 A 
ATOM     56  C   UNL A   1      39.908  30.240  29.335  1.00  0.00     0.049 A 
ATOM     57  H   UNL A   1      41.458  30.255  30.726  1.00  0.00     0.167 HD
ATOM     58  C   UNL A   1      44.735  29.976  33.630  1.00  0.00     0.037 A 
ATOM     59  C   UNL A   1      38.820  30.736  29.956  1.00  0.00     0.037 A 
ATOM     60  C   UNL A   1      43.652  30.598  34.346  1.00  0.00     0.049 A 
ATOM     61  C   UNL A   1      38.906  31.106  31.418  1.00  0.00     0.074 A 
ATOM     62  C   UNL A   1      43.642  31.091  35.638  1.00  0.00     0.029 A 
ATOM     63  N   UNL A   1      42.377  30.794  33.834  1.00  0.00    -0.354 N 
ATOM     64  N   UNL A   1      39.940  31.067  32.225  1.00  0.00    -0.248 NA
ATOM     65  C   UNL A   1      37.669  31.577  32.056  1.00  0.00     0.031 C 
ATOM     66  C   UNL A   1      42.345  31.522  35.931  1.00  0.00     0.029 A 
ATOM     67  C   UNL A   1      41.563  31.364  34.798  1.00  0.00     0.049 A 
ATOM     68  H   UNL A   1      42.094  30.562  32.919  1.00  0.00     0.167 HD
ATOM     69  C   UNL A   1      39.488  31.543  33.451  1.00  0.00     0.074 A 
ATOM     70  C   UNL A   1      38.089  31.871  33.280  1.00  0.00     0.031 C 
ATOM     71  C   UNL A   1      40.172  31.697  34.611  1.00  0.00     0.037 A 
BRANCH  58  72
ATOM     72  C   UNL A   1      46.031  29.742  34.352  1.00  0.00     0.064 A 
ATOM     73  C   UNL A   1      46.281  28.558  35.064  1.00  0.00     0.173 A 
ATOM     74  C   UNL A   1      47.041  30.715  34.322  1.00  0.00     0.173 A 
ATOM     75  F   UNL A   1      45.343  27.602  35.138  1.00  0.00    -0.203 F 
ATOM     76  C   UNL A   1      47.479  28.376  35.751  1.00  0.00     0.198 A 
ATOM     77  C   UNL A   1      48.252  30.513  34.979  1.00  0.00     0.198 A 
ATOM     78  F   UNL A   1      46.857  31.863  33.653  1.00  0.00    -0.203 F 
ATOM     79  F   UNL A   1      47.670  27.266  36.478  1.00  0.00    -0.200 F 
ATOM     80  C   UNL A   1      48.465  29.350  35.703  1.00  0.00     0.200 A 
ATOM     81  F   UNL A   1      49.209  31.449  34.919  1.00  0.00    -0.200 F 
ATOM     82  F   UNL A   1      49.618  29.171  36.363  1.00  0.00    -0.200 F 
ENDBRANCH  58  72
BRANCH  59  83
ATOM     83  C   UNL A   1      37.542  30.901  29.213  1.00  0.00     0.064 A 
ATOM     84  C   UNL A   1      36.703  29.803  28.978  1.00  0.00     0.173 A 
ATOM     85  C   UNL A   1      37.145  32.145  28.698  1.00  0.00     0.173 A 
ATOM     86  F   UNL A   1      37.053  28.587  29.423  1.00  0.00    -0.203 F 
ATOM     87  C   UNL A   1      35.527  29.937  28.242  1.00  0.00     0.198 A 
ATOM     88  C   UNL A   1      35.953  32.284  27.990  1.00  0.00     0.198 A 
ATOM     89  F   UNL A   1      37.914  33.226  28.887  1.00  0.00    -0.203 F 
ATOM     90  F   UNL A   1      34.772  28.860  27.989  1.00  0.00    -0.200 F 
ATOM     91  C   UNL A   1      35.149  31.179  27.755  1.00  0.00     0.200 A 
ATOM     92  F   UNL A   1      35.588  33.488  27.529  1.00  0.00    -0.200 F 
ATOM     93  F   UNL A   1      34.018  31.308  27.049  1.00  0.00    -0.200 F 
ENDBRANCH  59  83
BRANCH  71  94
ATOM     94  C   UNL A   1      39.436  32.286  35.783  1.00  0.00     0.064 A 
ATOM     95  C   UNL A   1      38.602  31.509  36.601  1.00  0.00     0.173 A 
ATOM     96  C   UNL A   1      39.620  33.635  36.129  1.00  0.00     0.173 A 
ATOM     97  F   UNL A   1      38.379  30.219  36.308  1.00  0.00    -0.203 F 
ATOM     98  C   UNL A   1      37.964  32.066  37.708  1.00  0.00     0.198 A 
ATOM     99  C   UNL A   1      39.010  34.179  37.256  1.00  0.00     0.198 A 
ATOM    100  F   UNL A   1      40.414  34.421  35.386  1.00  0.00    -0.203 F 
ATOM    101  F   UNL A   1      37.138  31.316  38.449  1.00  0.00    -0.200 F 
ATOM    102  C   UNL A   1      38.177  33.396  38.041  1.00  0.00     0.200 A 
ATOM    103  F   UNL A   1      39.232  35.458  37.585  1.00  0.00    -0.200 F 
ATOM    104  F   UNL A   1      37.577  33.923  39.115  1.00  0.00    -0.200 F 
ENDBRANCH  71  94
ENDBRANCH  45  46
ENDBRANCH  38  40
ENDBRANCH  37  38
ENDBRANCH  36  37
ENDBRANCH  35  36
ENDBRANCH  34  35
ENDBRANCH  33  34
ENDBRANCH   1  33
TORSDOF 21
ENDMDL
