MODEL 1
REMARK VINA RESULT:     -10.9      0.000      0.000
REMARK SMILES Cc1n[nH]c(S[C@H]2CC[C@]([NH3+])(C(=O)OCCOCCOCCOC(=O)c3ccc(-c4c5nc(c(-c6c(F)c(F)c(F)c(F)c6F)c6ccc([nH]6)c(-c6c(F)c(F)c(F)c(F)c6F)c6nc(c(-c7c(F)c(F)c(F)c(F)c7F)c7ccc4[nH]7)C=C6)C=C5)cc3)C2)n1
REMARK SMILES IDX 18 1 17 2 16 3 15 4 14 5 12 6 13 7 10 8 7 9 8 10 89 11 9 12
REMARK SMILES IDX 6 13 5 14 1 15 2 16 3 17 90 18 4 19 11 21 19 25 20 26 21 27
REMARK SMILES IDX 22 28 23 29 24 30 25 31 26 32 27 33 88 34 28 35 87 36 29 37
REMARK SMILES IDX 30 38 31 39 81 40 32 41 86 42 80 43 82 44 33 45 85 46 79 47
REMARK SMILES IDX 78 48 34 50 66 51 46 52 65 53 47 54 50 55 64 56 83 57 48 58
REMARK SMILES IDX 49 59 63 61 84 62 51 63 35 64 36 65 44 66 37 67 38 68 42 69
REMARK SMILES IDX 45 70 39 71 40 72 43 73 41 74 67 75 68 76 76 77 69 78 70 79
REMARK SMILES IDX 74 80 77 81 71 82 72 83 75 84 73 85 52 86 53 87 61 88 54 89
REMARK SMILES IDX 55 90 59 91 62 92 56 93 57 94 60 95 58 96
REMARK H PARENT 4 20 11 22 11 23 11 24 82 49 50 60
REMARK Flexibility Score: inf
ROOT
ATOM      1  C   UNL A   1      34.819  20.560  24.960  1.00  0.00     0.188 C 
ENDROOT
BRANCH   1   2
ATOM      2  O   UNL A   1      33.721  20.767  25.843  1.00  0.00    -0.376 OA
BRANCH   2   3
ATOM      3  C   UNL A   1      32.415  20.605  25.283  1.00  0.00     0.202 C 
BRANCH   3   4
ATOM      4  C   UNL A   1      31.495  21.844  25.298  1.00  0.00     0.261 C 
BRANCH   4   5
ATOM      5  O   UNL A   1      31.962  22.971  26.083  1.00  0.00    -0.459 OA
BRANCH   5   6
ATOM      6  C   UNL A   1      31.085  23.986  26.295  1.00  0.00     0.368 C 
ATOM      7  O   UNL A   1      30.199  23.964  27.148  1.00  0.00    -0.245 OA
BRANCH   6   8
ATOM      8  C   UNL A   1      31.257  25.201  25.340  1.00  0.00     0.193 C 
ATOM      9  C   UNL A   1      32.601  27.020  24.361  1.00  0.00     0.062 C 
ATOM     10  C   UNL A   1      31.631  27.653  25.366  1.00  0.00     0.022 C 
ATOM     11  C   UNL A   1      32.660  25.539  24.806  1.00  0.00     0.096 C 
ATOM     12  C   UNL A   1      30.947  26.500  26.113  1.00  0.00     0.082 C 
BRANCH   9  13
ATOM     13  S   UNL A   1      32.047  27.117  22.627  1.00  0.00    -0.083 SA
BRANCH  13  14
ATOM     14  C   UNL A   1      30.751  28.243  22.529  1.00  0.00     0.183 A 
ATOM     15  C   UNL A   1      27.408  29.285  22.908  1.00  0.00     0.092 C 
ATOM     16  C   UNL A   1      28.855  29.146  22.646  1.00  0.00     0.148 A 
ATOM     17  N   UNL A   1      29.609  30.115  22.108  1.00  0.00    -0.158 NA
ATOM     18  N   UNL A   1      29.527  27.986  22.921  1.00  0.00    -0.206 NA
ATOM     19  N   UNL A   1      30.811  29.508  22.036  1.00  0.00    -0.254 N 
ATOM     20  H   UNL A   1      31.625  29.926  21.674  1.00  0.00     0.192 HD
ENDBRANCH  13  14
ENDBRANCH   9  13
BRANCH   8  21
ATOM     21  N   UNL A   1      30.295  25.009  24.235  1.00  0.00    -0.343 N 
ATOM     22  H   UNL A   1      29.902  24.069  24.288  1.00  0.00     0.345 HD
ATOM     23  H   UNL A   1      30.774  25.127  23.343  1.00  0.00     0.345 HD
ATOM     24  H   UNL A   1      29.545  25.696  24.312  1.00  0.00     0.345 HD
ENDBRANCH   8  21
ENDBRANCH   6   8
ENDBRANCH   5   6
ENDBRANCH   4   5
ENDBRANCH   3   4
ENDBRANCH   2   3
ENDBRANCH   1   2
BRANCH   1  25
ATOM     25  C   UNL A   1      35.346  21.834  24.291  1.00  0.00     0.188 C 
BRANCH  25  26
ATOM     26  O   UNL A   1      35.138  22.978  25.101  1.00  0.00    -0.376 OA
BRANCH  26  27
ATOM     27  C   UNL A   1      36.152  23.580  25.893  1.00  0.00     0.202 C 
BRANCH  27  28
ATOM     28  C   UNL A   1      37.552  22.986  25.879  1.00  0.00     0.261 C 
BRANCH  28  29
ATOM     29  O   UNL A   1      38.541  23.775  26.521  1.00  0.00    -0.460 OA
BRANCH  29  30
ATOM     30  C   UNL A   1      39.736  23.244  26.861  1.00  0.00     0.338 C 
ATOM     31  O   UNL A   1      40.044  22.090  27.036  1.00  0.00    -0.246 OA
BRANCH  30  32
ATOM     32  C   UNL A   1      40.628  24.408  26.970  1.00  0.00     0.060 A 
ATOM     33  C   UNL A   1      41.478  24.438  28.067  1.00  0.00     0.016 A 
ATOM     34  C   UNL A   1      40.384  25.538  26.163  1.00  0.00     0.016 A 
ATOM     35  C   UNL A   1      41.799  25.676  28.561  1.00  0.00     0.010 A 
ATOM     36  C   UNL A   1      40.684  26.767  26.662  1.00  0.00     0.010 A 
ATOM     37  C   UNL A   1      41.268  26.800  27.917  1.00  0.00    -0.014 A 
BRANCH  37  38
ATOM     38  C   UNL A   1      41.262  28.045  28.630  1.00  0.00     0.031 A 
ATOM     39  C   UNL A   1      42.388  28.913  28.275  1.00  0.00     0.074 A 
ATOM     40  C   UNL A   1      40.254  28.357  29.462  1.00  0.00     0.049 A 
ATOM     41  N   UNL A   1      43.397  29.212  29.019  1.00  0.00    -0.248 NA
ATOM     42  C   UNL A   1      42.510  29.342  26.873  1.00  0.00     0.031 C 
ATOM     43  C   UNL A   1      38.964  27.683  29.638  1.00  0.00     0.029 A 
ATOM     44  N   UNL A   1      40.146  29.441  30.265  1.00  0.00    -0.354 N 
ATOM     45  C   UNL A   1      44.188  30.039  28.239  1.00  0.00     0.074 A 
ATOM     46  C   UNL A   1      43.713  29.912  26.887  1.00  0.00     0.031 C 
ATOM     47  C   UNL A   1      38.129  28.504  30.317  1.00  0.00     0.029 A 
ATOM     48  C   UNL A   1      38.859  29.699  30.707  1.00  0.00     0.049 A 
ATOM     49  H   UNL A   1      40.918  30.001  30.513  1.00  0.00     0.167 HD
ATOM     50  C   UNL A   1      44.989  30.969  28.818  1.00  0.00     0.037 A 
ATOM     51  C   UNL A   1      38.448  30.883  31.225  1.00  0.00     0.037 A 
ATOM     52  C   UNL A   1      45.214  30.672  30.212  1.00  0.00     0.049 A 
ATOM     53  C   UNL A   1      39.674  31.609  31.678  1.00  0.00     0.074 A 
ATOM     54  C   UNL A   1      45.737  29.583  30.886  1.00  0.00     0.029 A 
ATOM     55  N   UNL A   1      44.516  31.390  31.154  1.00  0.00    -0.354 N 
ATOM     56  N   UNL A   1      40.413  31.224  32.685  1.00  0.00    -0.248 NA
ATOM     57  C   UNL A   1      40.348  32.471  30.713  1.00  0.00     0.031 C 
ATOM     58  C   UNL A   1      44.934  29.446  32.055  1.00  0.00     0.029 A 
ATOM     59  C   UNL A   1      44.009  30.490  32.059  1.00  0.00     0.049 A 
ATOM     60  H   UNL A   1      44.401  32.368  31.176  1.00  0.00     0.167 HD
ATOM     61  C   UNL A   1      41.722  31.436  32.272  1.00  0.00     0.074 A 
ATOM     62  C   UNL A   1      41.617  32.276  31.082  1.00  0.00     0.031 C 
ATOM     63  C   UNL A   1      42.750  30.669  32.744  1.00  0.00     0.037 A 
BRANCH  50  64
ATOM     64  C   UNL A   1      45.238  32.326  28.220  1.00  0.00     0.064 A 
ATOM     65  C   UNL A   1      46.562  32.720  27.967  1.00  0.00     0.173 A 
ATOM     66  C   UNL A   1      44.268  33.354  28.158  1.00  0.00     0.173 A 
ATOM     67  F   UNL A   1      47.562  31.827  28.023  1.00  0.00    -0.203 F 
ATOM     68  C   UNL A   1      46.899  34.057  27.745  1.00  0.00     0.198 A 
ATOM     69  C   UNL A   1      44.601  34.674  27.875  1.00  0.00     0.198 A 
ATOM     70  F   UNL A   1      42.985  33.154  28.481  1.00  0.00    -0.203 F 
ATOM     71  F   UNL A   1      48.188  34.405  27.641  1.00  0.00    -0.200 F 
ATOM     72  C   UNL A   1      45.920  35.032  27.703  1.00  0.00     0.200 A 
ATOM     73  F   UNL A   1      43.637  35.606  27.857  1.00  0.00    -0.200 F 
ATOM     74  F   UNL A   1      46.247  36.321  27.552  1.00  0.00    -0.200 F 
ENDBRANCH  50  64
BRANCH  51  75
ATOM     75  C   UNL A   1      37.146  31.558  30.991  1.00  0.00     0.064 A 
ATOM     76  C   UNL A   1      36.239  31.750  32.047  1.00  0.00     0.173 A 
ATOM     77  C   UNL A   1      36.863  32.256  29.798  1.00  0.00     0.173 A 
ATOM     78  F   UNL A   1      36.453  31.164  33.234  1.00  0.00    -0.203 F 
ATOM     79  C   UNL A   1      35.136  32.604  31.924  1.00  0.00     0.198 A 
ATOM     80  C   UNL A   1      35.755  33.094  29.671  1.00  0.00     0.198 A 
ATOM     81  F   UNL A   1      37.702  32.219  28.754  1.00  0.00    -0.203 F 
ATOM     82  F   UNL A   1      34.332  32.812  32.975  1.00  0.00    -0.200 F 
ATOM     83  C   UNL A   1      34.900  33.280  30.738  1.00  0.00     0.200 A 
ATOM     84  F   UNL A   1      35.561  33.766  28.527  1.00  0.00    -0.200 F 
ATOM     85  F   UNL A   1      33.878  34.140  30.637  1.00  0.00    -0.200 F 
ENDBRANCH  51  75
BRANCH  63  86
ATOM     86  C   UNL A   1      42.479  29.753  33.904  1.00  0.00     0.064 A 
ATOM     87  C   UNL A   1      41.884  28.484  33.776  1.00  0.00     0.173 A 
ATOM     88  C   UNL A   1      42.986  30.099  35.164  1.00  0.00     0.173 A 
ATOM     89  F   UNL A   1      41.481  28.030  32.584  1.00  0.00    -0.203 F 
ATOM     90  C   UNL A   1      41.761  27.628  34.870  1.00  0.00     0.198 A 
ATOM     91  C   UNL A   1      42.899  29.227  36.245  1.00  0.00     0.198 A 
ATOM     92  F   UNL A   1      43.621  31.270  35.332  1.00  0.00    -0.203 F 
ATOM     93  F   UNL A   1      41.181  26.428  34.722  1.00  0.00    -0.200 F 
ATOM     94  C   UNL A   1      42.275  27.998  36.101  1.00  0.00     0.200 A 
ATOM     95  F   UNL A   1      43.447  29.565  37.419  1.00  0.00    -0.200 F 
ATOM     96  F   UNL A   1      42.200  27.157  37.142  1.00  0.00    -0.200 F 
ENDBRANCH  63  86
ENDBRANCH  37  38
ENDBRANCH  30  32
ENDBRANCH  29  30
ENDBRANCH  28  29
ENDBRANCH  27  28
ENDBRANCH  26  27
ENDBRANCH  25  26
ENDBRANCH   1  25
TORSDOF 20
ENDMDL
MODEL 2
REMARK VINA RESULT:     -10.6      3.716      8.856
REMARK SMILES Cc1n[nH]c(S[C@H]2CC[C@]([NH3+])(C(=O)OCCOCCOCCOC(=O)c3ccc(-c4c5nc(c(-c6c(F)c(F)c(F)c(F)c6F)c6ccc([nH]6)c(-c6c(F)c(F)c(F)c(F)c6F)c6nc(c(-c7c(F)c(F)c(F)c(F)c7F)c7ccc4[nH]7)C=C6)C=C5)cc3)C2)n1
REMARK SMILES IDX 18 1 17 2 16 3 15 4 14 5 12 6 13 7 10 8 7 9 8 10 89 11 9 12
REMARK SMILES IDX 6 13 5 14 1 15 2 16 3 17 90 18 4 19 11 21 19 25 20 26 21 27
REMARK SMILES IDX 22 28 23 29 24 30 25 31 26 32 27 33 88 34 28 35 87 36 29 37
REMARK SMILES IDX 30 38 31 39 81 40 32 41 86 42 80 43 82 44 33 45 85 46 79 47
REMARK SMILES IDX 78 48 34 50 66 51 46 52 65 53 47 54 50 55 64 56 83 57 48 58
REMARK SMILES IDX 49 59 63 61 84 62 51 63 35 64 36 65 44 66 37 67 38 68 42 69
REMARK SMILES IDX 45 70 39 71 40 72 43 73 41 74 67 75 68 76 76 77 69 78 70 79
REMARK SMILES IDX 74 80 77 81 71 82 72 83 75 84 73 85 52 86 53 87 61 88 54 89
REMARK SMILES IDX 55 90 59 91 62 92 56 93 57 94 60 95 58 96
REMARK H PARENT 4 20 11 22 11 23 11 24 82 49 50 60
REMARK Flexibility Score: inf
ROOT
ATOM      1  C   UNL A   1      32.903  31.258  27.210  1.00  0.00     0.188 C 
ENDROOT
BRANCH   1   2
ATOM      2  O   UNL A   1      32.808  29.996  26.556  1.00  0.00    -0.376 OA
BRANCH   2   3
ATOM      3  C   UNL A   1      33.288  28.864  27.286  1.00  0.00     0.202 C 
BRANCH   3   4
ATOM      4  C   UNL A   1      34.057  27.794  26.481  1.00  0.00     0.261 C 
BRANCH   4   5
ATOM      5  O   UNL A   1      33.289  26.632  26.076  1.00  0.00    -0.459 OA
BRANCH   5   6
ATOM      6  C   UNL A   1      33.400  26.236  24.782  1.00  0.00     0.368 C 
ATOM      7  O   UNL A   1      33.755  26.973  23.864  1.00  0.00    -0.245 OA
BRANCH   6   8
ATOM      8  C   UNL A   1      33.005  24.755  24.521  1.00  0.00     0.193 C 
ATOM      9  C   UNL A   1      33.580  22.392  24.120  1.00  0.00     0.062 C 
ATOM     10  C   UNL A   1      33.127  22.990  22.783  1.00  0.00     0.022 C 
ATOM     11  C   UNL A   1      33.970  23.637  24.953  1.00  0.00     0.096 C 
ATOM     12  C   UNL A   1      32.967  24.501  23.000  1.00  0.00     0.082 C 
BRANCH   9  13
ATOM     13  S   UNL A   1      32.288  21.451  24.995  1.00  0.00    -0.083 SA
BRANCH  13  14
ATOM     14  C   UNL A   1      32.732  19.789  25.002  1.00  0.00     0.183 A 
ATOM     15  C   UNL A   1      33.563  16.713  23.502  1.00  0.00     0.092 C 
ATOM     16  C   UNL A   1      33.263  17.844  24.403  1.00  0.00     0.148 A 
ATOM     17  N   UNL A   1      33.240  17.744  25.740  1.00  0.00    -0.158 NA
ATOM     18  N   UNL A   1      32.960  19.088  23.918  1.00  0.00    -0.206 NA
ATOM     19  N   UNL A   1      32.890  18.997  26.095  1.00  0.00    -0.254 N 
ATOM     20  H   UNL A   1      32.764  19.298  27.023  1.00  0.00     0.192 HD
ENDBRANCH  13  14
ENDBRANCH   9  13
BRANCH   8  21
ATOM     21  N   UNL A   1      31.665  24.565  25.116  1.00  0.00    -0.343 N 
ATOM     22  H   UNL A   1      31.711  24.743  26.119  1.00  0.00     0.345 HD
ATOM     23  H   UNL A   1      31.354  23.607  24.955  1.00  0.00     0.345 HD
ATOM     24  H   UNL A   1      31.006  25.213  24.685  1.00  0.00     0.345 HD
ENDBRANCH   8  21
ENDBRANCH   6   8
ENDBRANCH   5   6
ENDBRANCH   4   5
ENDBRANCH   3   4
ENDBRANCH   2   3
ENDBRANCH   1   2
BRANCH   1  25
ATOM     25  C   UNL A   1      34.264  31.537  27.858  1.00  0.00     0.188 C 
BRANCH  25  26
ATOM     26  O   UNL A   1      34.236  32.703  28.662  1.00  0.00    -0.376 OA
BRANCH  26  27
ATOM     27  C   UNL A   1      33.861  33.985  28.180  1.00  0.00     0.202 C 
BRANCH  27  28
ATOM     28  C   UNL A   1      33.387  35.038  29.171  1.00  0.00     0.261 C 
BRANCH  28  29
ATOM     29  O   UNL A   1      33.213  34.571  30.500  1.00  0.00    -0.460 OA
BRANCH  29  30
ATOM     30  C   UNL A   1      33.542  35.348  31.555  1.00  0.00     0.338 C 
ATOM     31  O   UNL A   1      33.155  36.453  31.847  1.00  0.00    -0.246 OA
BRANCH  30  32
ATOM     32  C   UNL A   1      34.502  34.534  32.315  1.00  0.00     0.060 A 
ATOM     33  C   UNL A   1      35.600  35.200  32.842  1.00  0.00     0.016 A 
ATOM     34  C   UNL A   1      34.435  33.128  32.222  1.00  0.00     0.016 A 
ATOM     35  C   UNL A   1      36.762  34.482  32.947  1.00  0.00     0.010 A 
ATOM     36  C   UNL A   1      35.591  32.418  32.306  1.00  0.00     0.010 A 
ATOM     37  C   UNL A   1      36.748  33.143  32.536  1.00  0.00    -0.014 A 
BRANCH  37  38
ATOM     38  C   UNL A   1      38.006  32.507  32.268  1.00  0.00     0.031 A 
ATOM     39  C   UNL A   1      38.835  32.350  33.465  1.00  0.00     0.074 A 
ATOM     40  C   UNL A   1      38.298  32.052  31.038  1.00  0.00     0.049 A 
ATOM     41  N   UNL A   1      39.924  32.980  33.738  1.00  0.00    -0.248 NA
ATOM     42  C   UNL A   1      38.296  31.547  34.573  1.00  0.00     0.031 C 
ATOM     43  C   UNL A   1      37.414  31.905  29.876  1.00  0.00     0.029 A 
ATOM     44  N   UNL A   1      39.462  31.513  30.606  1.00  0.00    -0.354 N 
ATOM     45  C   UNL A   1      40.320  32.501  34.976  1.00  0.00     0.074 A 
ATOM     46  C   UNL A   1      39.192  31.797  35.527  1.00  0.00     0.031 C 
ATOM     47  C   UNL A   1      38.019  31.110  28.962  1.00  0.00     0.029 A 
ATOM     48  C   UNL A   1      39.357  30.789  29.430  1.00  0.00     0.049 A 
ATOM     49  H   UNL A   1      40.313  31.625  31.089  1.00  0.00     0.167 HD
ATOM     50  C   UNL A   1      41.633  32.488  35.320  1.00  0.00     0.037 A 
ATOM     51  C   UNL A   1      40.280  29.898  28.993  1.00  0.00     0.037 A 
ATOM     52  C   UNL A   1      42.402  33.381  34.489  1.00  0.00     0.049 A 
ATOM     53  C   UNL A   1      41.562  30.220  29.692  1.00  0.00     0.074 A 
ATOM     54  C   UNL A   1      42.330  34.736  34.219  1.00  0.00     0.029 A 
ATOM     55  N   UNL A   1      43.160  32.841  33.477  1.00  0.00    -0.354 N 
ATOM     56  N   UNL A   1      42.252  31.308  29.474  1.00  0.00    -0.248 NA
ATOM     57  C   UNL A   1      41.815  29.576  30.976  1.00  0.00     0.031 C 
ATOM     58  C   UNL A   1      42.625  34.857  32.830  1.00  0.00     0.029 A 
ATOM     59  C   UNL A   1      42.917  33.582  32.346  1.00  0.00     0.049 A 
ATOM     60  H   UNL A   1      43.766  32.069  33.550  1.00  0.00     0.167 HD
ATOM     61  C   UNL A   1      42.693  31.711  30.728  1.00  0.00     0.074 A 
ATOM     62  C   UNL A   1      42.458  30.565  31.602  1.00  0.00     0.031 C 
ATOM     63  C   UNL A   1      42.923  33.027  31.013  1.00  0.00     0.037 A 
BRANCH  50  64
ATOM     64  C   UNL A   1      42.257  31.391  36.139  1.00  0.00     0.064 A 
ATOM     65  C   UNL A   1      43.094  31.742  37.211  1.00  0.00     0.173 A 
ATOM     66  C   UNL A   1      42.301  30.035  35.742  1.00  0.00     0.173 A 
ATOM     67  F   UNL A   1      43.144  33.008  37.651  1.00  0.00    -0.203 F 
ATOM     68  C   UNL A   1      43.967  30.819  37.790  1.00  0.00     0.198 A 
ATOM     69  C   UNL A   1      43.127  29.105  36.363  1.00  0.00     0.198 A 
ATOM     70  F   UNL A   1      41.643  29.575  34.671  1.00  0.00    -0.203 F 
ATOM     71  F   UNL A   1      44.842  31.229  38.718  1.00  0.00    -0.200 F 
ATOM     72  C   UNL A   1      43.986  29.504  37.364  1.00  0.00     0.200 A 
ATOM     73  F   UNL A   1      43.142  27.839  35.921  1.00  0.00    -0.200 F 
ATOM     74  F   UNL A   1      44.865  28.634  37.876  1.00  0.00    -0.200 F 
ENDBRANCH  50  64
BRANCH  51  75
ATOM     75  C   UNL A   1      40.021  28.592  28.334  1.00  0.00     0.064 A 
ATOM     76  C   UNL A   1      40.571  28.303  27.075  1.00  0.00     0.173 A 
ATOM     77  C   UNL A   1      39.447  27.503  29.023  1.00  0.00     0.173 A 
ATOM     78  F   UNL A   1      41.180  29.267  26.368  1.00  0.00    -0.203 F 
ATOM     79  C   UNL A   1      40.569  27.004  26.550  1.00  0.00     0.198 A 
ATOM     80  C   UNL A   1      39.431  26.212  28.493  1.00  0.00     0.198 A 
ATOM     81  F   UNL A   1      38.969  27.639  30.267  1.00  0.00    -0.203 F 
ATOM     82  F   UNL A   1      41.163  26.758  25.375  1.00  0.00    -0.200 F 
ATOM     83  C   UNL A   1      40.005  25.959  27.263  1.00  0.00     0.200 A 
ATOM     84  F   UNL A   1      38.910  25.207  29.212  1.00  0.00    -0.200 F 
ATOM     85  F   UNL A   1      40.052  24.708  26.788  1.00  0.00    -0.200 F 
ENDBRANCH  51  75
BRANCH  63  86
ATOM     86  C   UNL A   1      42.928  34.010  29.875  1.00  0.00     0.064 A 
ATOM     87  C   UNL A   1      44.063  34.300  29.096  1.00  0.00     0.173 A 
ATOM     88  C   UNL A   1      41.706  34.552  29.454  1.00  0.00     0.173 A 
ATOM     89  F   UNL A   1      45.244  33.728  29.362  1.00  0.00    -0.203 F 
ATOM     90  C   UNL A   1      43.984  35.132  27.981  1.00  0.00     0.198 A 
ATOM     91  C   UNL A   1      41.621  35.350  28.317  1.00  0.00     0.198 A 
ATOM     92  F   UNL A   1      40.577  34.259  30.120  1.00  0.00    -0.203 F 
ATOM     93  F   UNL A   1      45.084  35.399  27.263  1.00  0.00    -0.200 F 
ATOM     94  C   UNL A   1      42.761  35.650  27.588  1.00  0.00     0.200 A 
ATOM     95  F   UNL A   1      40.428  35.802  27.908  1.00  0.00    -0.200 F 
ATOM     96  F   UNL A   1      42.675  36.411  26.489  1.00  0.00    -0.200 F 
ENDBRANCH  63  86
ENDBRANCH  37  38
ENDBRANCH  30  32
ENDBRANCH  29  30
ENDBRANCH  28  29
ENDBRANCH  27  28
ENDBRANCH  26  27
ENDBRANCH  25  26
ENDBRANCH   1  25
TORSDOF 20
ENDMDL
MODEL 3
REMARK VINA RESULT:     -10.6      1.350      2.162
REMARK SMILES Cc1n[nH]c(S[C@H]2CC[C@]([NH3+])(C(=O)OCCOCCOCCOC(=O)c3ccc(-c4c5nc(c(-c6c(F)c(F)c(F)c(F)c6F)c6ccc([nH]6)c(-c6c(F)c(F)c(F)c(F)c6F)c6nc(c(-c7c(F)c(F)c(F)c(F)c7F)c7ccc4[nH]7)C=C6)C=C5)cc3)C2)n1
REMARK SMILES IDX 18 1 17 2 16 3 15 4 14 5 12 6 13 7 10 8 7 9 8 10 89 11 9 12
REMARK SMILES IDX 6 13 5 14 1 15 2 16 3 17 90 18 4 19 11 21 19 25 20 26 21 27
REMARK SMILES IDX 22 28 23 29 24 30 25 31 26 32 27 33 88 34 28 35 87 36 29 37
REMARK SMILES IDX 30 38 31 39 81 40 32 41 86 42 80 43 82 44 33 45 85 46 79 47
REMARK SMILES IDX 78 48 34 50 66 51 46 52 65 53 47 54 50 55 64 56 83 57 48 58
REMARK SMILES IDX 49 59 63 61 84 62 51 63 35 64 36 65 44 66 37 67 38 68 42 69
REMARK SMILES IDX 45 70 39 71 40 72 43 73 41 74 67 75 68 76 76 77 69 78 70 79
REMARK SMILES IDX 74 80 77 81 71 82 72 83 75 84 73 85 52 86 53 87 61 88 54 89
REMARK SMILES IDX 55 90 59 91 62 92 56 93 57 94 60 95 58 96
REMARK H PARENT 4 20 11 22 11 23 11 24 82 49 50 60
REMARK Flexibility Score: inf
ROOT
ATOM      1  C   UNL A   1      34.703  19.981  24.985  1.00  0.00     0.188 C 
ENDROOT
BRANCH   1   2
ATOM      2  O   UNL A   1      33.378  20.402  25.297  1.00  0.00    -0.376 OA
BRANCH   2   3
ATOM      3  C   UNL A   1      32.549  20.767  24.190  1.00  0.00     0.202 C 
BRANCH   3   4
ATOM      4  C   UNL A   1      32.411  22.276  23.895  1.00  0.00     0.261 C 
BRANCH   4   5
ATOM      5  O   UNL A   1      31.574  23.027  24.810  1.00  0.00    -0.459 OA
BRANCH   5   6
ATOM      6  C   UNL A   1      32.137  24.096  25.432  1.00  0.00     0.368 C 
ATOM      7  O   UNL A   1      32.798  24.020  26.467  1.00  0.00    -0.245 OA
BRANCH   6   8
ATOM      8  C   UNL A   1      31.857  25.464  24.750  1.00  0.00     0.193 C 
ATOM      9  C   UNL A   1      30.631  27.595  24.580  1.00  0.00     0.062 C 
ATOM     10  C   UNL A   1      30.112  26.675  23.469  1.00  0.00     0.022 C 
ATOM     11  C   UNL A   1      31.268  26.611  25.590  1.00  0.00     0.096 C 
ATOM     12  C   UNL A   1      30.731  25.291  23.710  1.00  0.00     0.082 C 
BRANCH   9  13
ATOM     13  S   UNL A   1      31.881  28.801  24.028  1.00  0.00    -0.083 SA
BRANCH  13  14
ATOM     14  C   UNL A   1      32.742  29.366  25.405  1.00  0.00     0.183 A 
ATOM     15  C   UNL A   1      35.443  29.419  27.666  1.00  0.00     0.092 C 
ATOM     16  C   UNL A   1      34.198  29.633  26.899  1.00  0.00     0.148 A 
ATOM     17  N   UNL A   1      33.249  30.512  27.253  1.00  0.00    -0.158 NA
ATOM     18  N   UNL A   1      33.920  28.917  25.767  1.00  0.00    -0.206 NA
ATOM     19  N   UNL A   1      32.329  30.312  26.288  1.00  0.00    -0.254 N 
ATOM     20  H   UNL A   1      31.470  30.789  26.231  1.00  0.00     0.192 HD
ENDBRANCH  13  14
ENDBRANCH   9  13
BRANCH   8  21
ATOM     21  N   UNL A   1      33.116  25.873  24.093  1.00  0.00    -0.343 N 
ATOM     22  H   UNL A   1      33.907  25.453  24.584  1.00  0.00     0.345 HD
ATOM     23  H   UNL A   1      33.200  26.889  24.122  1.00  0.00     0.345 HD
ATOM     24  H   UNL A   1      33.112  25.559  23.123  1.00  0.00     0.345 HD
ENDBRANCH   8  21
ENDBRANCH   6   8
ENDBRANCH   5   6
ENDBRANCH   4   5
ENDBRANCH   3   4
ENDBRANCH   2   3
ENDBRANCH   1   2
BRANCH   1  25
ATOM     25  C   UNL A   1      35.734  21.113  24.933  1.00  0.00     0.188 C 
BRANCH  25  26
ATOM     26  O   UNL A   1      35.527  22.062  25.964  1.00  0.00    -0.376 OA
BRANCH  26  27
ATOM     27  C   UNL A   1      36.199  23.311  26.035  1.00  0.00     0.202 C 
BRANCH  27  28
ATOM     28  C   UNL A   1      37.677  23.378  25.679  1.00  0.00     0.261 C 
BRANCH  28  29
ATOM     29  O   UNL A   1      38.539  23.677  26.765  1.00  0.00    -0.460 OA
BRANCH  29  30
ATOM     30  C   UNL A   1      39.776  23.138  26.835  1.00  0.00     0.338 C 
ATOM     31  O   UNL A   1      40.113  21.979  26.806  1.00  0.00    -0.246 OA
BRANCH  30  32
ATOM     32  C   UNL A   1      40.669  24.301  26.948  1.00  0.00     0.060 A 
ATOM     33  C   UNL A   1      41.488  24.348  28.068  1.00  0.00     0.016 A 
ATOM     34  C   UNL A   1      40.450  25.418  26.116  1.00  0.00     0.016 A 
ATOM     35  C   UNL A   1      41.799  25.593  28.549  1.00  0.00     0.010 A 
ATOM     36  C   UNL A   1      40.741  26.655  26.601  1.00  0.00     0.010 A 
ATOM     37  C   UNL A   1      41.290  26.707  27.871  1.00  0.00    -0.014 A 
BRANCH  37  38
ATOM     38  C   UNL A   1      41.269  27.965  28.562  1.00  0.00     0.031 A 
ATOM     39  C   UNL A   1      42.399  28.829  28.213  1.00  0.00     0.074 A 
ATOM     40  C   UNL A   1      40.245  28.289  29.369  1.00  0.00     0.049 A 
ATOM     41  N   UNL A   1      43.393  29.143  28.970  1.00  0.00    -0.248 NA
ATOM     42  C   UNL A   1      42.546  29.233  26.806  1.00  0.00     0.031 C 
ATOM     43  C   UNL A   1      38.953  27.616  29.533  1.00  0.00     0.029 A 
ATOM     44  N   UNL A   1      40.120  29.387  30.151  1.00  0.00    -0.354 N 
ATOM     45  C   UNL A   1      44.198  29.958  28.191  1.00  0.00     0.074 A 
ATOM     46  C   UNL A   1      43.748  29.807  26.832  1.00  0.00     0.031 C 
ATOM     47  C   UNL A   1      38.104  28.446  30.182  1.00  0.00     0.029 A 
ATOM     48  C   UNL A   1      38.824  29.649  30.565  1.00  0.00     0.049 A 
ATOM     49  H   UNL A   1      40.885  29.952  30.404  1.00  0.00     0.167 HD
ATOM     50  C   UNL A   1      44.986  30.900  28.768  1.00  0.00     0.037 A 
ATOM     51  C   UNL A   1      38.402  30.841  31.054  1.00  0.00     0.037 A 
ATOM     52  C   UNL A   1      45.186  30.628  30.171  1.00  0.00     0.049 A 
ATOM     53  C   UNL A   1      39.618  31.578  31.517  1.00  0.00     0.074 A 
ATOM     54  C   UNL A   1      45.698  29.552  30.873  1.00  0.00     0.029 A 
ATOM     55  N   UNL A   1      44.468  31.361  31.087  1.00  0.00    -0.354 N 
ATOM     56  N   UNL A   1      40.338  31.212  32.544  1.00  0.00    -0.248 NA
ATOM     57  C   UNL A   1      40.307  32.425  30.550  1.00  0.00     0.031 C 
ATOM     58  C   UNL A   1      44.873  29.433  32.030  1.00  0.00     0.029 A 
ATOM     59  C   UNL A   1      43.947  30.475  31.998  1.00  0.00     0.049 A 
ATOM     60  H   UNL A   1      44.351  32.338  31.090  1.00  0.00     0.167 HD
ATOM     61  C   UNL A   1      41.654  31.420  32.152  1.00  0.00     0.074 A 
ATOM     62  C   UNL A   1      41.570  32.238  30.946  1.00  0.00     0.031 C 
ATOM     63  C   UNL A   1      42.675  30.663  32.656  1.00  0.00     0.037 A 
BRANCH  50  64
ATOM     64  C   UNL A   1      45.243  32.247  28.151  1.00  0.00     0.064 A 
ATOM     65  C   UNL A   1      44.162  33.128  27.979  1.00  0.00     0.173 A 
ATOM     66  C   UNL A   1      46.431  32.591  27.467  1.00  0.00     0.173 A 
ATOM     67  F   UNL A   1      42.982  32.882  28.567  1.00  0.00    -0.203 F 
ATOM     68  C   UNL A   1      44.243  34.227  27.123  1.00  0.00     0.198 A 
ATOM     69  C   UNL A   1      46.526  33.722  26.664  1.00  0.00     0.198 A 
ATOM     70  F   UNL A   1      47.508  31.795  27.447  1.00  0.00    -0.203 F 
ATOM     71  F   UNL A   1      43.149  34.962  26.885  1.00  0.00    -0.200 F 
ATOM     72  C   UNL A   1      45.422  34.521  26.463  1.00  0.00     0.200 A 
ATOM     73  F   UNL A   1      47.674  33.977  26.020  1.00  0.00    -0.200 F 
ATOM     74  F   UNL A   1      45.483  35.538  25.595  1.00  0.00    -0.200 F 
ENDBRANCH  50  64
BRANCH  51  75
ATOM     75  C   UNL A   1      37.103  31.510  30.785  1.00  0.00     0.064 A 
ATOM     76  C   UNL A   1      36.171  31.708  31.817  1.00  0.00     0.173 A 
ATOM     77  C   UNL A   1      36.845  32.195  29.579  1.00  0.00     0.173 A 
ATOM     78  F   UNL A   1      36.360  31.134  33.014  1.00  0.00    -0.203 F 
ATOM     79  C   UNL A   1      35.069  32.557  31.661  1.00  0.00     0.198 A 
ATOM     80  C   UNL A   1      35.737  33.028  29.419  1.00  0.00     0.198 A 
ATOM     81  F   UNL A   1      37.707  32.151  28.554  1.00  0.00    -0.203 F 
ATOM     82  F   UNL A   1      34.240  32.771  32.692  1.00  0.00    -0.200 F 
ATOM     83  C   UNL A   1      34.857  33.221  30.464  1.00  0.00     0.200 A 
ATOM     84  F   UNL A   1      35.566  33.689  28.265  1.00  0.00    -0.200 F 
ATOM     85  F   UNL A   1      33.834  34.076  30.333  1.00  0.00    -0.200 F 
ENDBRANCH  51  75
BRANCH  63  86
ATOM     86  C   UNL A   1      42.384  29.767  33.827  1.00  0.00     0.064 A 
ATOM     87  C   UNL A   1      41.854  28.469  33.706  1.00  0.00     0.173 A 
ATOM     88  C   UNL A   1      42.808  30.170  35.100  1.00  0.00     0.173 A 
ATOM     89  F   UNL A   1      41.534  27.965  32.507  1.00  0.00    -0.203 F 
ATOM     90  C   UNL A   1      41.711  27.638  34.816  1.00  0.00     0.198 A 
ATOM     91  C   UNL A   1      42.703  29.324  36.200  1.00  0.00     0.198 A 
ATOM     92  F   UNL A   1      43.381  31.373  35.267  1.00  0.00    -0.203 F 
ATOM     93  F   UNL A   1      41.194  26.409  34.673  1.00  0.00    -0.200 F 
ATOM     94  C   UNL A   1      42.143  28.064  36.061  1.00  0.00     0.200 A 
ATOM     95  F   UNL A   1      43.173  29.718  37.391  1.00  0.00    -0.200 F 
ATOM     96  F   UNL A   1      42.050  27.248  37.120  1.00  0.00    -0.200 F 
ENDBRANCH  63  86
ENDBRANCH  37  38
ENDBRANCH  30  32
ENDBRANCH  29  30
ENDBRANCH  28  29
ENDBRANCH  27  28
ENDBRANCH  26  27
ENDBRANCH  25  26
ENDBRANCH   1  25
TORSDOF 20
ENDMDL
