MODEL 1
REMARK VINA RESULT:     -12.1      0.000      0.000
REMARK SMILES O=C(OCCOCCOCCOC(=O)[C@@H]1CCCC[C@H]1C(=O)Nc1ccc(NC(=O)c2ccco2)cc1)c1ccc(-c2c3nc(c(-c4c(F)c(F)c(F)c(F)c4F)c4ccc([nH]4)c(-c4c(F)c(F)c(F)c(F)c4F)c4nc(c(-c5c(F)c(F)c(F)c(F)c5F)c5ccc2[nH]5)C=C4)C=C3)cc1
REMARK SMILES IDX 8 1 7 2 6 3 5 4 4 5 3 6 2 7 1 8 38 9 39 10 100 11 40 12
REMARK SMILES IDX 99 13 41 14 42 15 43 16 93 17 44 18 98 19 92 20 94 21 45 22
REMARK SMILES IDX 97 23 91 24 90 25 46 27 78 28 58 29 77 30 59 31 62 32 76 33
REMARK SMILES IDX 95 34 60 35 61 36 75 38 96 39 63 40 47 41 48 42 56 43 49 44
REMARK SMILES IDX 50 45 54 46 57 47 51 48 52 49 55 50 53 51 79 52 80 53 88 54
REMARK SMILES IDX 81 55 82 56 86 57 89 58 83 59 84 60 87 61 85 62 64 63 65 64
REMARK SMILES IDX 73 65 66 66 67 67 71 68 74 69 68 70 69 71 72 72 70 73 9 74
REMARK SMILES IDX 10 75 11 76 12 77 13 78 14 79 15 80 16 81 20 82 17 83 19 84
REMARK SMILES IDX 18 85 21 86 22 87 23 88 24 90 25 91 37 92 26 93 36 94 27 95
REMARK SMILES IDX 28 96 29 97 30 99 31 100 32 101 35 102 33 103 34 104
REMARK H PARENT 94 26 62 37 23 89 28 98
REMARK Flexibility Score: inf
ROOT
ATOM      1  C   UNL A   1      39.660  21.684  26.739  1.00  0.00     0.188 C 
ENDROOT
BRANCH   1   2
ATOM      2  C   UNL A   1      40.782  20.757  27.176  1.00  0.00     0.188 C 
BRANCH   2   3
ATOM      3  O   UNL A   1      41.229  19.829  26.196  1.00  0.00    -0.376 OA
BRANCH   3   4
ATOM      4  C   UNL A   1      42.601  19.848  25.779  1.00  0.00     0.202 C 
BRANCH   4   5
ATOM      5  C   UNL A   1      43.434  21.148  25.789  1.00  0.00     0.261 C 
BRANCH   5   6
ATOM      6  O   UNL A   1      42.818  22.431  25.466  1.00  0.00    -0.460 OA
BRANCH   6   7
ATOM      7  C   UNL A   1      43.279  23.702  25.368  1.00  0.00     0.338 C 
ATOM      8  O   UNL A   1      43.928  24.063  24.393  1.00  0.00    -0.246 OA
BRANCH   7   9
ATOM      9  C   UNL A   1      42.979  24.668  26.439  1.00  0.00     0.060 A 
ATOM     10  C   UNL A   1      43.449  25.961  26.355  1.00  0.00     0.016 A 
ATOM     11  C   UNL A   1      42.099  24.396  27.472  1.00  0.00     0.016 A 
ATOM     12  C   UNL A   1      43.523  26.833  27.398  1.00  0.00     0.010 A 
ATOM     13  C   UNL A   1      41.895  25.386  28.445  1.00  0.00     0.010 A 
ATOM     14  C   UNL A   1      42.669  26.582  28.435  1.00  0.00    -0.014 A 
BRANCH  14  15
ATOM     15  C   UNL A   1      42.522  27.724  29.361  1.00  0.00     0.031 A 
ATOM     16  C   UNL A   1      43.002  27.510  30.697  1.00  0.00     0.074 A 
ATOM     17  C   UNL A   1      41.671  28.731  29.028  1.00  0.00     0.049 A 
ATOM     18  N   UNL A   1      42.533  28.053  31.767  1.00  0.00    -0.248 NA
ATOM     19  C   UNL A   1      43.995  26.438  30.857  1.00  0.00     0.031 C 
ATOM     20  C   UNL A   1      40.290  27.944  27.923  1.00  0.00     0.029 A 
ATOM     21  N   UNL A   1      40.895  30.184  29.818  1.00  0.00    -0.354 N 
ATOM     22  C   UNL A   1      43.245  27.436  32.752  1.00  0.00     0.074 A 
ATOM     23  C   UNL A   1      44.017  26.355  32.172  1.00  0.00     0.031 C 
ATOM     24  C   UNL A   1      38.697  28.914  28.159  1.00  0.00     0.029 A 
ATOM     25  C   UNL A   1      39.104  30.387  29.390  1.00  0.00     0.049 A 
ATOM     26  H   UNL A   1      41.382  30.801  30.413  1.00  0.00     0.167 HD
ATOM     27  C   UNL A   1      43.328  27.863  34.015  1.00  0.00     0.037 A 
ATOM     28  C   UNL A   1      38.221  31.287  29.873  1.00  0.00     0.037 A 
ATOM     29  C   UNL A   1      42.511  28.904  34.558  1.00  0.00     0.049 A 
ATOM     30  C   UNL A   1      38.588  31.765  31.260  1.00  0.00     0.074 A 
ATOM     31  C   UNL A   1      42.559  29.381  35.845  1.00  0.00     0.029 A 
ATOM     32  N   UNL A   1      41.481  29.586  33.895  1.00  0.00    -0.354 N 
ATOM     33  N   UNL A   1      39.550  31.309  32.037  1.00  0.00    -0.248 NA
ATOM     34  C   UNL A   1      37.675  32.697  31.933  1.00  0.00     0.031 C 
ATOM     35  C   UNL A   1      41.540  30.313  35.986  1.00  0.00     0.029 A 
ATOM     36  C   UNL A   1      40.901  30.500  34.766  1.00  0.00     0.049 A 
ATOM     37  H   UNL A   1      41.213  29.441  32.958  1.00  0.00     0.167 HD
ATOM     38  C   UNL A   1      39.291  31.795  33.307  1.00  0.00     0.074 A 
ATOM     39  C   UNL A   1      38.162  32.703  33.168  1.00  0.00     0.031 C 
ATOM     40  C   UNL A   1      39.815  31.424  34.505  1.00  0.00     0.037 A 
BRANCH  27  41
ATOM     41  C   UNL A   1      44.402  27.208  34.797  1.00  0.00     0.064 A 
ATOM     42  C   UNL A   1      44.140  26.041  35.541  1.00  0.00     0.173 A 
ATOM     43  C   UNL A   1      45.658  27.803  34.894  1.00  0.00     0.173 A 
ATOM     44  F   UNL A   1      42.914  25.492  35.538  1.00  0.00    -0.203 F 
ATOM     45  C   UNL A   1      45.111  25.502  36.370  1.00  0.00     0.198 A 
ATOM     46  C   UNL A   1      46.640  27.232  35.688  1.00  0.00     0.198 A 
ATOM     47  F   UNL A   1      45.914  28.951  34.250  1.00  0.00    -0.203 F 
ATOM     48  F   UNL A   1      44.818  24.445  37.141  1.00  0.00    -0.200 F 
ATOM     49  C   UNL A   1      46.365  26.088  36.428  1.00  0.00     0.200 A 
ATOM     50  F   UNL A   1      47.850  27.802  35.758  1.00  0.00    -0.200 F 
ATOM     51  F   UNL A   1      47.310  25.561  37.217  1.00  0.00    -0.200 F 
ENDBRANCH  27  41
BRANCH  28  52
ATOM     52  C   UNL A   1      36.926  31.626  29.184  1.00  0.00     0.064 A 
ATOM     53  C   UNL A   1      36.697  32.929  28.701  1.00  0.00     0.173 A 
ATOM     54  C   UNL A   1      35.874  30.724  28.954  1.00  0.00     0.173 A 
ATOM     55  F   UNL A   1      37.638  33.874  28.853  1.00  0.00    -0.203 F 
ATOM     56  C   UNL A   1      35.492  33.305  28.088  1.00  0.00     0.198 A 
ATOM     57  C   UNL A   1      34.703  31.072  28.276  1.00  0.00     0.198 A 
ATOM     58  F   UNL A   1      35.918  29.478  29.422  1.00  0.00    -0.203 F 
ATOM     59  F   UNL A   1      35.291  34.583  27.737  1.00  0.00    -0.200 F 
ATOM     60  C   UNL A   1      34.499  32.370  27.863  1.00  0.00     0.200 A 
ATOM     61  F   UNL A   1      33.766  30.138  28.054  1.00  0.00    -0.200 F 
ATOM     62  F   UNL A   1      33.346  32.720  27.278  1.00  0.00    -0.200 F 
ENDBRANCH  28  52
BRANCH  40  63
ATOM     63  C   UNL A   1      39.214  32.077  35.719  1.00  0.00     0.064 A 
ATOM     64  C   UNL A   1      38.291  31.428  36.555  1.00  0.00     0.173 A 
ATOM     65  C   UNL A   1      39.649  33.354  36.095  1.00  0.00     0.173 A 
ATOM     66  F   UNL A   1      37.851  30.196  36.278  1.00  0.00    -0.203 F 
ATOM     67  C   UNL A   1      37.790  32.049  37.692  1.00  0.00     0.198 A 
ATOM     68  C   UNL A   1      39.184  33.952  37.260  1.00  0.00     0.198 A 
ATOM     69  F   UNL A   1      40.565  33.997  35.356  1.00  0.00    -0.203 F 
ATOM     70  F   UNL A   1      36.866  31.426  38.437  1.00  0.00    -0.200 F 
ATOM     71  C   UNL A   1      38.242  33.307  38.049  1.00  0.00     0.200 A 
ATOM     72  F   UNL A   1      39.655  35.151  37.625  1.00  0.00    -0.200 F 
ATOM     73  F   UNL A   1      37.769  33.899  39.152  1.00  0.00    -0.200 F 
ENDBRANCH  40  63
ENDBRANCH  14  15
ENDBRANCH   7   9
ENDBRANCH   6   7
ENDBRANCH   5   6
ENDBRANCH   4   5
ENDBRANCH   3   4
ENDBRANCH   2   3
ENDBRANCH   1   2
BRANCH   1  74
ATOM     74  O   UNL A   1      39.215  21.597  25.395  1.00  0.00    -0.376 OA
BRANCH  74  75
ATOM     75  C   UNL A   1      37.869  21.197  25.169  1.00  0.00     0.202 C 
BRANCH  75  76
ATOM     76  C   UNL A   1      36.807  22.274  24.872  1.00  0.00     0.261 C 
BRANCH  76  77
ATOM     77  O   UNL A   1      35.672  21.854  24.110  1.00  0.00    -0.463 OA
BRANCH  77  78
ATOM     78  C   UNL A   1      34.682  21.127  24.723  1.00  0.00     0.309 C 
ATOM     79  O   UNL A   1      34.661  19.920  24.882  1.00  0.00    -0.252 OA
BRANCH  78  80
ATOM     80  C   UNL A   1      33.629  22.119  25.219  1.00  0.00     0.111 C 
ATOM     81  C   UNL A   1      33.726  22.541  26.706  1.00  0.00     0.016 C 
ATOM     82  C   UNL A   1      32.249  21.676  24.733  1.00  0.00     0.093 C 
ATOM     83  C   UNL A   1      32.485  23.198  27.332  1.00  0.00     0.001 C 
ATOM     84  C   UNL A   1      31.007  22.245  25.442  1.00  0.00     0.014 C 
ATOM     85  C   UNL A   1      31.169  22.557  26.929  1.00  0.00     0.001 C 
BRANCH  82  86
ATOM     86  C   UNL A   1      32.204  21.827  23.196  1.00  0.00     0.228 C 
ATOM     87  O   UNL A   1      32.293  20.805  22.503  1.00  0.00    -0.274 OA
ATOM     88  N   UNL A   1      32.090  23.020  22.527  1.00  0.00    -0.326 N 
ATOM     89  H   UNL A   1      32.185  22.948  21.549  1.00  0.00     0.169 HD
BRANCH  88  90
ATOM     90  C   UNL A   1      31.862  24.326  22.993  1.00  0.00     0.041 A 
ATOM     91  C   UNL A   1      30.187  24.881  23.394  1.00  0.00     0.028 A 
ATOM     92  C   UNL A   1      33.161  25.325  23.657  1.00  0.00     0.028 A 
ATOM     93  C   UNL A   1      30.042  26.513  24.693  1.00  0.00     0.028 A 
ATOM     94  C   UNL A   1      33.000  26.723  24.722  1.00  0.00     0.028 A 
ATOM     95  C   UNL A   1      31.515  27.321  25.258  1.00  0.00     0.041 A 
BRANCH  95  96
ATOM     96  N   UNL A   1      31.474  28.575  25.862  1.00  0.00    -0.319 N 
ATOM     97  C   UNL A   1      31.405  29.778  25.201  1.00  0.00     0.291 C 
ATOM     98  H   UNL A   1      31.496  28.603  26.846  1.00  0.00     0.170 HD
ATOM     99  O   UNL A   1      31.798  30.798  25.763  1.00  0.00    -0.265 OA
BRANCH  97 100
ATOM    100  C   UNL A   1      30.703  29.749  23.941  1.00  0.00     0.191 A 
ATOM    101  C   UNL A   1      31.086  29.257  22.706  1.00  0.00     0.056 A 
ATOM    102  O   UNL A   1      29.448  30.267  23.856  1.00  0.00    -0.459 OA
ATOM    103  C   UNL A   1      30.048  29.545  21.806  1.00  0.00     0.043 A 
ATOM    104  C   UNL A   1      29.073  30.134  22.565  1.00  0.00     0.196 A 
ENDBRANCH  97 100
ENDBRANCH  95  96
ENDBRANCH  88  90
ENDBRANCH  82  86
ENDBRANCH  78  80
ENDBRANCH  77  78
ENDBRANCH  76  77
ENDBRANCH  75  76
ENDBRANCH  74  75
ENDBRANCH   1  74
TORSDOF 21
ENDMDL
MODEL 2
REMARK VINA RESULT:     -11.9      4.951      7.364
REMARK SMILES O=C(OCCOCCOCCOC(=O)[C@@H]1CCCC[C@H]1C(=O)Nc1ccc(NC(=O)c2ccco2)cc1)c1ccc(-c2c3nc(c(-c4c(F)c(F)c(F)c(F)c4F)c4ccc([nH]4)c(-c4c(F)c(F)c(F)c(F)c4F)c4nc(c(-c5c(F)c(F)c(F)c(F)c5F)c5ccc2[nH]5)C=C4)C=C3)cc1
REMARK SMILES IDX 8 1 7 2 6 3 5 4 4 5 3 6 2 7 1 8 38 9 39 10 100 11 40 12
REMARK SMILES IDX 99 13 41 14 42 15 43 16 93 17 44 18 98 19 92 20 94 21 45 22
REMARK SMILES IDX 97 23 91 24 90 25 46 27 78 28 58 29 77 30 59 31 62 32 76 33
REMARK SMILES IDX 95 34 60 35 61 36 75 38 96 39 63 40 47 41 48 42 56 43 49 44
REMARK SMILES IDX 50 45 54 46 57 47 51 48 52 49 55 50 53 51 79 52 80 53 88 54
REMARK SMILES IDX 81 55 82 56 86 57 89 58 83 59 84 60 87 61 85 62 64 63 65 64
REMARK SMILES IDX 73 65 66 66 67 67 71 68 74 69 68 70 69 71 72 72 70 73 9 74
REMARK SMILES IDX 10 75 11 76 12 77 13 78 14 79 15 80 16 81 20 82 17 83 19 84
REMARK SMILES IDX 18 85 21 86 22 87 23 88 24 90 25 91 37 92 26 93 36 94 27 95
REMARK SMILES IDX 28 96 29 97 30 99 31 100 32 101 35 102 33 103 34 104
REMARK H PARENT 94 26 62 37 23 89 28 98
REMARK Flexibility Score: inf
ROOT
ATOM      1  C   UNL A   1      40.004  22.618  26.197  1.00  0.00     0.188 C 
ENDROOT
BRANCH   1   2
ATOM      2  C   UNL A   1      40.616  21.534  27.069  1.00  0.00     0.188 C 
BRANCH   2   3
ATOM      3  O   UNL A   1      41.699  20.818  26.489  1.00  0.00    -0.376 OA
BRANCH   3   4
ATOM      4  C   UNL A   1      41.603  19.396  26.331  1.00  0.00     0.202 C 
BRANCH   4   5
ATOM      5  C   UNL A   1      42.805  18.550  25.859  1.00  0.00     0.261 C 
BRANCH   5   6
ATOM      6  O   UNL A   1      43.543  18.911  24.653  1.00  0.00    -0.460 OA
BRANCH   6   7
ATOM      7  C   UNL A   1      44.752  19.479  24.420  1.00  0.00     0.338 C 
ATOM      8  O   UNL A   1      45.671  18.828  23.938  1.00  0.00    -0.246 OA
BRANCH   7   9
ATOM      9  C   UNL A   1      44.956  20.904  24.733  1.00  0.00     0.060 A 
ATOM     10  C   UNL A   1      44.490  21.874  23.873  1.00  0.00     0.016 A 
ATOM     11  C   UNL A   1      45.459  21.343  25.946  1.00  0.00     0.016 A 
ATOM     12  C   UNL A   1      44.888  23.176  23.875  1.00  0.00     0.010 A 
ATOM     13  C   UNL A   1      45.621  22.724  26.134  1.00  0.00     0.010 A 
ATOM     14  C   UNL A   1      45.395  23.633  25.060  1.00  0.00    -0.014 A 
BRANCH  14  15
ATOM     15  C   UNL A   1      45.477  25.106  25.133  1.00  0.00     0.031 A 
ATOM     16  C   UNL A   1      46.794  25.651  25.303  1.00  0.00     0.074 A 
ATOM     17  C   UNL A   1      44.341  25.812  25.378  1.00  0.00     0.049 A 
ATOM     18  N   UNL A   1      47.088  26.745  25.918  1.00  0.00    -0.248 NA
ATOM     19  C   UNL A   1      47.905  24.780  24.894  1.00  0.00     0.031 C 
ATOM     20  C   UNL A   1      43.187  24.658  26.418  1.00  0.00     0.029 A 
ATOM     21  N   UNL A   1      43.860  27.517  25.826  1.00  0.00    -0.354 N 
ATOM     22  C   UNL A   1      48.450  26.741  25.900  1.00  0.00     0.074 A 
ATOM     23  C   UNL A   1      48.913  25.461  25.402  1.00  0.00     0.031 C 
ATOM     24  C   UNL A   1      42.104  25.722  27.528  1.00  0.00     0.029 A 
ATOM     25  C   UNL A   1      42.540  27.593  27.125  1.00  0.00     0.049 A 
ATOM     26  H   UNL A   1      44.262  28.318  25.418  1.00  0.00     0.167 HD
ATOM     27  C   UNL A   1      49.219  27.802  26.156  1.00  0.00     0.037 A 
ATOM     28  C   UNL A   1      42.032  28.679  27.745  1.00  0.00     0.037 A 
ATOM     29  C   UNL A   1      48.725  29.032  26.693  1.00  0.00     0.049 A 
ATOM     30  C   UNL A   1      43.013  29.829  27.787  1.00  0.00     0.074 A 
ATOM     31  C   UNL A   1      49.471  30.152  26.970  1.00  0.00     0.029 A 
ATOM     32  N   UNL A   1      47.405  29.300  27.081  1.00  0.00    -0.354 N 
ATOM     33  N   UNL A   1      44.279  29.816  27.420  1.00  0.00    -0.248 NA
ATOM     34  C   UNL A   1      42.614  31.052  28.493  1.00  0.00     0.031 C 
ATOM     35  C   UNL A   1      48.629  31.081  27.566  1.00  0.00     0.029 A 
ATOM     36  C   UNL A   1      47.328  30.593  27.584  1.00  0.00     0.049 A 
ATOM     37  H   UNL A   1      46.651  28.671  27.007  1.00  0.00     0.167 HD
ATOM     38  C   UNL A   1      44.852  30.959  27.951  1.00  0.00     0.074 A 
ATOM     39  C   UNL A   1      43.761  31.719  28.543  1.00  0.00     0.031 C 
ATOM     40  C   UNL A   1      46.162  31.293  28.087  1.00  0.00     0.037 A 
BRANCH  27  41
ATOM     41  C   UNL A   1      50.636  27.620  25.766  1.00  0.00     0.064 A 
ATOM     42  C   UNL A   1      51.041  27.779  24.426  1.00  0.00     0.173 A 
ATOM     43  C   UNL A   1      51.568  27.178  26.703  1.00  0.00     0.173 A 
ATOM     44  F   UNL A   1      50.148  28.119  23.481  1.00  0.00    -0.203 F 
ATOM     45  C   UNL A   1      52.339  27.486  24.043  1.00  0.00     0.198 A 
ATOM     46  C   UNL A   1      52.878  26.933  26.322  1.00  0.00     0.198 A 
ATOM     47  F   UNL A   1      51.196  26.953  27.972  1.00  0.00    -0.203 F 
ATOM     48  F   UNL A   1      52.685  27.555  22.749  1.00  0.00    -0.200 F 
ATOM     49  C   UNL A   1      53.260  27.081  24.995  1.00  0.00     0.200 A 
ATOM     50  F   UNL A   1      53.768  26.527  27.237  1.00  0.00    -0.200 F 
ATOM     51  F   UNL A   1      54.520  26.810  24.630  1.00  0.00    -0.200 F 
ENDBRANCH  27  41
BRANCH  28  52
ATOM     52  C   UNL A   1      40.713  28.675  28.472  1.00  0.00     0.064 A 
ATOM     53  C   UNL A   1      40.651  28.306  29.830  1.00  0.00     0.173 A 
ATOM     54  C   UNL A   1      39.478  29.032  27.906  1.00  0.00     0.173 A 
ATOM     55  F   UNL A   1      41.771  27.957  30.480  1.00  0.00    -0.203 F 
ATOM     56  C   UNL A   1      39.441  28.249  30.540  1.00  0.00     0.198 A 
ATOM     57  C   UNL A   1      38.282  29.051  28.628  1.00  0.00     0.198 A 
ATOM     58  F   UNL A   1      39.373  29.330  26.612  1.00  0.00    -0.203 F 
ATOM     59  F   UNL A   1      39.429  27.795  31.801  1.00  0.00    -0.200 F 
ATOM     60  C   UNL A   1      38.258  28.636  29.941  1.00  0.00     0.200 A 
ATOM     61  F   UNL A   1      37.153  29.451  28.026  1.00  0.00    -0.200 F 
ATOM     62  F   UNL A   1      37.100  28.584  30.612  1.00  0.00    -0.200 F 
ENDBRANCH  28  52
BRANCH  40  63
ATOM     63  C   UNL A   1      46.444  32.570  28.830  1.00  0.00     0.064 A 
ATOM     64  C   UNL A   1      46.738  32.603  30.203  1.00  0.00     0.173 A 
ATOM     65  C   UNL A   1      46.505  33.776  28.120  1.00  0.00     0.173 A 
ATOM     66  F   UNL A   1      46.729  31.489  30.941  1.00  0.00    -0.203 F 
ATOM     67  C   UNL A   1      47.035  33.798  30.845  1.00  0.00     0.198 A 
ATOM     68  C   UNL A   1      46.851  34.962  28.756  1.00  0.00     0.198 A 
ATOM     69  F   UNL A   1      46.278  33.790  26.799  1.00  0.00    -0.203 F 
ATOM     70  F   UNL A   1      47.254  33.806  32.167  1.00  0.00    -0.200 F 
ATOM     71  C   UNL A   1      47.099  34.976  30.121  1.00  0.00     0.200 A 
ATOM     72  F   UNL A   1      46.954  36.091  28.044  1.00  0.00    -0.200 F 
ATOM     73  F   UNL A   1      47.398  36.125  30.739  1.00  0.00    -0.200 F 
ENDBRANCH  40  63
ENDBRANCH  14  15
ENDBRANCH   7   9
ENDBRANCH   6   7
ENDBRANCH   5   6
ENDBRANCH   4   5
ENDBRANCH   3   4
ENDBRANCH   2   3
ENDBRANCH   1   2
BRANCH   1  74
ATOM     74  O   UNL A   1      38.597  22.791  26.245  1.00  0.00    -0.376 OA
BRANCH  74  75
ATOM     75  C   UNL A   1      37.785  21.740  25.738  1.00  0.00     0.202 C 
BRANCH  75  76
ATOM     76  C   UNL A   1      37.277  21.820  24.284  1.00  0.00     0.261 C 
BRANCH  76  77
ATOM     77  O   UNL A   1      35.913  22.210  24.109  1.00  0.00    -0.463 OA
BRANCH  77  78
ATOM     78  C   UNL A   1      34.916  21.420  24.627  1.00  0.00     0.309 C 
ATOM     79  O   UNL A   1      34.908  20.204  24.678  1.00  0.00    -0.252 OA
BRANCH  78  80
ATOM     80  C   UNL A   1      33.835  22.353  25.176  1.00  0.00     0.111 C 
ATOM     81  C   UNL A   1      34.036  22.863  26.625  1.00  0.00     0.016 C 
ATOM     82  C   UNL A   1      32.457  21.776  24.849  1.00  0.00     0.093 C 
ATOM     83  C   UNL A   1      32.809  23.453  27.338  1.00  0.00     0.001 C 
ATOM     84  C   UNL A   1      31.244  22.284  25.649  1.00  0.00     0.014 C 
ATOM     85  C   UNL A   1      31.519  22.690  27.097  1.00  0.00     0.001 C 
BRANCH  82  86
ATOM     86  C   UNL A   1      32.255  21.838  23.319  1.00  0.00     0.228 C 
ATOM     87  O   UNL A   1      32.182  20.772  22.693  1.00  0.00    -0.274 OA
ATOM     88  N   UNL A   1      32.168  22.994  22.584  1.00  0.00    -0.326 N 
ATOM     89  H   UNL A   1      32.147  22.856  21.610  1.00  0.00     0.169 HD
BRANCH  88  90
ATOM     90  C   UNL A   1      32.101  24.341  22.980  1.00  0.00     0.041 A 
ATOM     91  C   UNL A   1      33.441  25.487  22.573  1.00  0.00     0.028 A 
ATOM     92  C   UNL A   1      30.578  25.105  23.452  1.00  0.00     0.028 A 
ATOM     93  C   UNL A   1      32.948  27.520  22.576  1.00  0.00     0.028 A 
ATOM     94  C   UNL A   1      30.209  26.831  23.480  1.00  0.00     0.028 A 
ATOM     95  C   UNL A   1      31.318  28.029  23.051  1.00  0.00     0.041 A 
BRANCH  95  96
ATOM     96  N   UNL A   1      31.029  29.355  23.364  1.00  0.00    -0.319 N 
ATOM     97  C   UNL A   1      31.033  29.896  24.627  1.00  0.00     0.291 C 
ATOM     98  H   UNL A   1      30.804  29.956  22.617  1.00  0.00     0.170 HD
ATOM     99  O   UNL A   1      30.372  30.908  24.850  1.00  0.00    -0.265 OA
BRANCH  97 100
ATOM    100  C   UNL A   1      31.972  29.303  25.548  1.00  0.00     0.191 A 
ATOM    101  C   UNL A   1      31.779  28.385  26.565  1.00  0.00     0.056 A 
ATOM    102  O   UNL A   1      33.287  29.642  25.482  1.00  0.00    -0.459 OA
ATOM    103  C   UNL A   1      33.021  28.200  27.195  1.00  0.00     0.043 A 
ATOM    104  C   UNL A   1      33.900  28.968  26.480  1.00  0.00     0.196 A 
ENDBRANCH  97 100
ENDBRANCH  95  96
ENDBRANCH  88  90
ENDBRANCH  82  86
ENDBRANCH  78  80
ENDBRANCH  77  78
ENDBRANCH  76  77
ENDBRANCH  75  76
ENDBRANCH  74  75
ENDBRANCH   1  74
TORSDOF 21
ENDMDL
MODEL 3
REMARK VINA RESULT:     -11.7      1.059      2.144
REMARK SMILES O=C(OCCOCCOCCOC(=O)[C@@H]1CCCC[C@H]1C(=O)Nc1ccc(NC(=O)c2ccco2)cc1)c1ccc(-c2c3nc(c(-c4c(F)c(F)c(F)c(F)c4F)c4ccc([nH]4)c(-c4c(F)c(F)c(F)c(F)c4F)c4nc(c(-c5c(F)c(F)c(F)c(F)c5F)c5ccc2[nH]5)C=C4)C=C3)cc1
REMARK SMILES IDX 8 1 7 2 6 3 5 4 4 5 3 6 2 7 1 8 38 9 39 10 100 11 40 12
REMARK SMILES IDX 99 13 41 14 42 15 43 16 93 17 44 18 98 19 92 20 94 21 45 22
REMARK SMILES IDX 97 23 91 24 90 25 46 27 78 28 58 29 77 30 59 31 62 32 76 33
REMARK SMILES IDX 95 34 60 35 61 36 75 38 96 39 63 40 47 41 48 42 56 43 49 44
REMARK SMILES IDX 50 45 54 46 57 47 51 48 52 49 55 50 53 51 79 52 80 53 88 54
REMARK SMILES IDX 81 55 82 56 86 57 89 58 83 59 84 60 87 61 85 62 64 63 65 64
REMARK SMILES IDX 73 65 66 66 67 67 71 68 74 69 68 70 69 71 72 72 70 73 9 74
REMARK SMILES IDX 10 75 11 76 12 77 13 78 14 79 15 80 16 81 20 82 17 83 19 84
REMARK SMILES IDX 18 85 21 86 22 87 23 88 24 90 25 91 37 92 26 93 36 94 27 95
REMARK SMILES IDX 28 96 29 97 30 99 31 100 32 101 35 102 33 103 34 104
REMARK H PARENT 94 26 62 37 23 89 28 98
REMARK Flexibility Score: inf
ROOT
ATOM      1  C   UNL A   1      40.743  20.686  27.499  1.00  0.00     0.188 C 
ENDROOT
BRANCH   1   2
ATOM      2  C   UNL A   1      41.939  19.757  27.369  1.00  0.00     0.188 C 
BRANCH   2   3
ATOM      3  O   UNL A   1      42.217  19.293  26.055  1.00  0.00    -0.376 OA
BRANCH   3   4
ATOM      4  C   UNL A   1      43.332  19.835  25.335  1.00  0.00     0.202 C 
BRANCH   4   5
ATOM      5  C   UNL A   1      43.977  21.181  25.732  1.00  0.00     0.261 C 
BRANCH   5   6
ATOM      6  O   UNL A   1      43.231  22.429  25.610  1.00  0.00    -0.460 OA
BRANCH   6   7
ATOM      7  C   UNL A   1      43.585  23.730  25.463  1.00  0.00     0.338 C 
ATOM      8  O   UNL A   1      44.161  24.116  24.453  1.00  0.00    -0.246 OA
BRANCH   7   9
ATOM      9  C   UNL A   1      43.255  24.697  26.525  1.00  0.00     0.060 A 
ATOM     10  C   UNL A   1      43.731  25.988  26.455  1.00  0.00     0.016 A 
ATOM     11  C   UNL A   1      42.343  24.427  27.530  1.00  0.00     0.016 A 
ATOM     12  C   UNL A   1      43.776  26.860  27.499  1.00  0.00     0.010 A 
ATOM     13  C   UNL A   1      42.112  25.418  28.496  1.00  0.00     0.010 A 
ATOM     14  C   UNL A   1      42.889  26.612  28.510  1.00  0.00    -0.014 A 
BRANCH  14  15
ATOM     15  C   UNL A   1      42.717  27.755  29.431  1.00  0.00     0.031 A 
ATOM     16  C   UNL A   1      43.187  27.551  30.773  1.00  0.00     0.074 A 
ATOM     17  C   UNL A   1      41.857  28.748  29.086  1.00  0.00     0.049 A 
ATOM     18  N   UNL A   1      42.700  28.090  31.836  1.00  0.00    -0.248 NA
ATOM     19  C   UNL A   1      44.193  26.493  30.945  1.00  0.00     0.031 C 
ATOM     20  C   UNL A   1      40.498  27.940  27.969  1.00  0.00     0.029 A 
ATOM     21  N   UNL A   1      41.053  30.194  29.864  1.00  0.00    -0.354 N 
ATOM     22  C   UNL A   1      43.410  27.487  32.830  1.00  0.00     0.074 A 
ATOM     23  C   UNL A   1      44.202  26.414  32.261  1.00  0.00     0.031 C 
ATOM     24  C   UNL A   1      38.889  28.889  28.186  1.00  0.00     0.029 A 
ATOM     25  C   UNL A   1      39.264  30.371  29.418  1.00  0.00     0.049 A 
ATOM     26  H   UNL A   1      41.525  30.818  30.462  1.00  0.00     0.167 HD
ATOM     27  C   UNL A   1      43.474  27.918  34.092  1.00  0.00     0.037 A 
ATOM     28  C   UNL A   1      38.363  31.260  29.889  1.00  0.00     0.037 A 
ATOM     29  C   UNL A   1      42.637  28.949  34.624  1.00  0.00     0.049 A 
ATOM     30  C   UNL A   1      38.709  31.747  31.278  1.00  0.00     0.074 A 
ATOM     31  C   UNL A   1      42.665  29.431  35.910  1.00  0.00     0.029 A 
ATOM     32  N   UNL A   1      41.605  29.615  33.948  1.00  0.00    -0.354 N 
ATOM     33  N   UNL A   1      39.670  31.306  32.066  1.00  0.00    -0.248 NA
ATOM     34  C   UNL A   1      37.777  32.668  31.939  1.00  0.00     0.031 C 
ATOM     35  C   UNL A   1      41.632  30.349  36.038  1.00  0.00     0.029 A 
ATOM     36  C   UNL A   1      41.003  30.523  34.811  1.00  0.00     0.049 A 
ATOM     37  H   UNL A   1      41.348  29.463  33.010  1.00  0.00     0.167 HD
ATOM     38  C   UNL A   1      39.391  31.793  33.332  1.00  0.00     0.074 A 
ATOM     39  C   UNL A   1      38.251  32.685  33.179  1.00  0.00     0.031 C 
ATOM     40  C   UNL A   1      39.907  31.431  34.536  1.00  0.00     0.037 A 
BRANCH  27  41
ATOM     41  C   UNL A   1      44.548  27.280  34.887  1.00  0.00     0.064 A 
ATOM     42  C   UNL A   1      45.865  27.779  34.850  1.00  0.00     0.173 A 
ATOM     43  C   UNL A   1      44.290  26.108  35.595  1.00  0.00     0.173 A 
ATOM     44  F   UNL A   1      46.164  28.856  34.106  1.00  0.00    -0.203 F 
ATOM     45  C   UNL A   1      46.891  27.106  35.493  1.00  0.00     0.198 A 
ATOM     46  C   UNL A   1      45.313  25.466  36.277  1.00  0.00     0.198 A 
ATOM     47  F   UNL A   1      43.061  25.573  35.593  1.00  0.00    -0.203 F 
ATOM     48  F   UNL A   1      48.153  27.542  35.374  1.00  0.00    -0.200 F 
ATOM     49  C   UNL A   1      46.610  25.961  36.221  1.00  0.00     0.200 A 
ATOM     50  F   UNL A   1      45.048  24.351  36.970  1.00  0.00    -0.200 F 
ATOM     51  F   UNL A   1      47.598  25.317  36.856  1.00  0.00    -0.200 F 
ENDBRANCH  27  41
BRANCH  28  52
ATOM     52  C   UNL A   1      37.070  31.579  29.186  1.00  0.00     0.064 A 
ATOM     53  C   UNL A   1      36.059  30.605  29.080  1.00  0.00     0.173 A 
ATOM     54  C   UNL A   1      36.752  32.818  28.607  1.00  0.00     0.173 A 
ATOM     55  F   UNL A   1      36.246  29.386  29.607  1.00  0.00    -0.203 F 
ATOM     56  C   UNL A   1      34.853  30.842  28.401  1.00  0.00     0.198 A 
ATOM     57  C   UNL A   1      35.523  33.085  27.997  1.00  0.00     0.198 A 
ATOM     58  F   UNL A   1      37.641  33.810  28.564  1.00  0.00    -0.203 F 
ATOM     59  F   UNL A   1      33.969  29.847  28.244  1.00  0.00    -0.200 F 
ATOM     60  C   UNL A   1      34.581  32.089  27.871  1.00  0.00     0.200 A 
ATOM     61  F   UNL A   1      35.279  34.310  27.510  1.00  0.00    -0.200 F 
ATOM     62  F   UNL A   1      33.432  32.322  27.221  1.00  0.00    -0.200 F 
ENDBRANCH  28  52
BRANCH  40  63
ATOM     63  C   UNL A   1      39.285  32.080  35.742  1.00  0.00     0.064 A 
ATOM     64  C   UNL A   1      38.375  31.415  36.580  1.00  0.00     0.173 A 
ATOM     65  C   UNL A   1      39.686  33.371  36.108  1.00  0.00     0.173 A 
ATOM     66  F   UNL A   1      37.969  30.170  36.312  1.00  0.00    -0.203 F 
ATOM     67  C   UNL A   1      37.855  32.033  37.709  1.00  0.00     0.198 A 
ATOM     68  C   UNL A   1      39.201  33.968  37.266  1.00  0.00     0.198 A 
ATOM     69  F   UNL A   1      40.588  34.031  35.367  1.00  0.00    -0.203 F 
ATOM     70  F   UNL A   1      36.944  31.393  38.457  1.00  0.00    -0.200 F 
ATOM     71  C   UNL A   1      38.273  33.305  38.057  1.00  0.00     0.200 A 
ATOM     72  F   UNL A   1      39.640  35.181  37.622  1.00  0.00    -0.200 F 
ATOM     73  F   UNL A   1      37.780  33.895  39.153  1.00  0.00    -0.200 F 
ENDBRANCH  40  63
ENDBRANCH  14  15
ENDBRANCH   7   9
ENDBRANCH   6   7
ENDBRANCH   5   6
ENDBRANCH   4   5
ENDBRANCH   3   4
ENDBRANCH   2   3
ENDBRANCH   1   2
BRANCH   1  74
ATOM     74  O   UNL A   1      40.408  21.494  26.381  1.00  0.00    -0.376 OA
BRANCH  74  75
ATOM     75  C   UNL A   1      39.150  21.271  25.759  1.00  0.00     0.202 C 
BRANCH  75  76
ATOM     76  C   UNL A   1      38.113  22.412  25.737  1.00  0.00     0.261 C 
BRANCH  76  77
ATOM     77  O   UNL A   1      37.074  22.307  24.761  1.00  0.00    -0.463 OA
BRANCH  77  78
ATOM     78  C   UNL A   1      35.996  21.493  25.011  1.00  0.00     0.309 C 
ATOM     79  O   UNL A   1      36.019  20.285  25.159  1.00  0.00    -0.252 OA
BRANCH  78  80
ATOM     80  C   UNL A   1      34.763  22.392  25.121  1.00  0.00     0.111 C 
ATOM     81  C   UNL A   1      34.962  23.749  25.841  1.00  0.00     0.016 C 
ATOM     82  C   UNL A   1      33.568  21.555  25.578  1.00  0.00     0.093 C 
ATOM     83  C   UNL A   1      33.698  24.480  26.321  1.00  0.00     0.001 C 
ATOM     84  C   UNL A   1      32.349  22.284  26.171  1.00  0.00     0.014 C 
ATOM     85  C   UNL A   1      32.646  23.574  26.935  1.00  0.00     0.001 C 
BRANCH  82  86
ATOM     86  C   UNL A   1      33.205  20.568  24.447  1.00  0.00     0.228 C 
ATOM     87  O   UNL A   1      33.415  19.361  24.630  1.00  0.00    -0.274 OA
ATOM     88  N   UNL A   1      32.678  20.926  23.231  1.00  0.00    -0.326 N 
ATOM     89  H   UNL A   1      32.606  20.186  22.586  1.00  0.00     0.169 HD
BRANCH  88  90
ATOM     90  C   UNL A   1      32.223  22.163  22.747  1.00  0.00     0.041 A 
ATOM     91  C   UNL A   1      30.663  22.866  23.337  1.00  0.00     0.028 A 
ATOM     92  C   UNL A   1      33.302  23.308  21.938  1.00  0.00     0.028 A 
ATOM     93  C   UNL A   1      30.438  24.933  23.112  1.00  0.00     0.028 A 
ATOM     94  C   UNL A   1      33.061  25.044  21.732  1.00  0.00     0.028 A 
ATOM     95  C   UNL A   1      31.701  25.871  22.296  1.00  0.00     0.041 A 
BRANCH  95  96
ATOM     96  N   UNL A   1      31.473  27.171  21.851  1.00  0.00    -0.319 N 
ATOM     97  C   UNL A   1      31.328  28.276  22.654  1.00  0.00     0.291 C 
ATOM     98  H   UNL A   1      31.409  27.310  20.878  1.00  0.00     0.170 HD
ATOM     99  O   UNL A   1      30.722  29.257  22.227  1.00  0.00    -0.265 OA
BRANCH  97 100
ATOM    100  C   UNL A   1      32.069  28.239  23.892  1.00  0.00     0.191 A 
ATOM    101  C   UNL A   1      31.689  27.828  25.158  1.00  0.00     0.056 A 
ATOM    102  O   UNL A   1      33.363  28.656  23.916  1.00  0.00    -0.459 OA
ATOM    103  C   UNL A   1      32.778  28.065  26.013  1.00  0.00     0.043 A 
ATOM    104  C   UNL A   1      33.770  28.542  25.200  1.00  0.00     0.196 A 
ENDBRANCH  97 100
ENDBRANCH  95  96
ENDBRANCH  88  90
ENDBRANCH  82  86
ENDBRANCH  78  80
ENDBRANCH  77  78
ENDBRANCH  76  77
ENDBRANCH  75  76
ENDBRANCH  74  75
ENDBRANCH   1  74
TORSDOF 21
ENDMDL
