MODEL 1
REMARK VINA RESULT:     -11.4      0.000      0.000
REMARK SMILES COc1c(N)cc(-c2ccccc2)cc1C(=O)OCCOCCOCCOC(=O)c1ccc(-c2c3nc(c(-c4c(F)c(F)c(F)c(F)c4F)c4ccc([nH]4)c(-c4c(F)c(F)c(F)c(F)c4F)c4nc(c(-c5c(F)c(F)c(F)c(F)c5F)c5ccc2[nH]5)C=C4)C=C3)cc1
REMARK SMILES IDX 23 1 22 2 21 3 20 4 19 5 18 6 16 7 17 8 15 9 3 10 4 11 6 12
REMARK SMILES IDX 14 13 7 14 2 15 1 16 5 17 8 20 9 21 13 22 10 23 12 24 11 25
REMARK SMILES IDX 24 26 25 27 26 28 27 29 28 30 29 31 30 32 31 33 92 34 32 35
REMARK SMILES IDX 91 36 33 37 34 38 35 39 85 40 36 41 90 42 84 43 86 44 37 45
REMARK SMILES IDX 89 46 83 47 82 48 38 50 70 51 50 52 69 53 51 54 54 55 68 56
REMARK SMILES IDX 87 57 52 58 53 59 67 61 88 62 55 63 39 64 40 65 48 66 41 67
REMARK SMILES IDX 42 68 46 69 49 70 43 71 44 72 47 73 45 74 71 75 72 76 80 77
REMARK SMILES IDX 73 78 74 79 78 80 81 81 75 82 76 83 79 84 77 85 56 86 57 87
REMARK SMILES IDX 65 88 58 89 59 90 63 91 66 92 60 93 61 94 64 95 62 96
REMARK H PARENT 5 18 5 19 86 49 54 60
REMARK Flexibility Score: inf
ROOT
ATOM      1  C   UNL A   1      31.028  29.263  24.299  1.00  0.00     0.188 C 
ENDROOT
BRANCH   1   2
ATOM      2  C   UNL A   1      30.088  28.607  23.266  1.00  0.00     0.188 C 
BRANCH   2   3
ATOM      3  O   UNL A   1      30.606  27.996  22.100  1.00  0.00    -0.376 OA
BRANCH   3   4
ATOM      4  C   UNL A   1      31.826  27.270  22.154  1.00  0.00     0.202 C 
BRANCH   4   5
ATOM      5  C   UNL A   1      31.989  25.937  21.421  1.00  0.00     0.261 C 
BRANCH   5   6
ATOM      6  O   UNL A   1      31.781  24.793  22.260  1.00  0.00    -0.460 OA
BRANCH   6   7
ATOM      7  C   UNL A   1      32.912  24.130  22.608  1.00  0.00     0.342 C 
ATOM      8  O   UNL A   1      34.051  24.411  22.267  1.00  0.00    -0.246 OA
BRANCH   7   9
ATOM      9  C   UNL A   1      32.646  23.125  23.656  1.00  0.00     0.104 A 
ATOM     10  C   UNL A   1      32.026  23.420  24.875  1.00  0.00     0.156 A 
ATOM     11  C   UNL A   1      31.652  22.372  25.736  1.00  0.00     0.076 A 
ATOM     12  C   UNL A   1      32.087  21.071  25.448  1.00  0.00     0.038 A 
ATOM     13  C   UNL A   1      33.024  21.805  23.358  1.00  0.00     0.028 A 
ATOM     14  C   UNL A   1      32.775  20.770  24.264  1.00  0.00    -0.015 A 
BRANCH  10  15
ATOM     15  O   UNL A   1      31.707  24.722  25.183  1.00  0.00    -0.494 OA
ATOM     16  C   UNL A   1      32.808  25.386  25.818  1.00  0.00     0.278 C 
ENDBRANCH  10  15
BRANCH  11  17
ATOM     17  N   UNL A   1      30.960  22.607  26.923  1.00  0.00    -0.396 N 
ATOM     18  H   UNL A   1      31.412  22.481  27.790  1.00  0.00     0.156 HD
ATOM     19  H   UNL A   1      30.021  22.898  26.896  1.00  0.00     0.156 HD
ENDBRANCH  11  17
BRANCH  14  20
ATOM     20  C   UNL A   1      33.179  19.392  23.975  1.00  0.00    -0.018 A 
ATOM     21  C   UNL A   1      34.272  18.819  24.641  1.00  0.00     0.009 A 
ATOM     22  C   UNL A   1      32.507  18.630  23.008  1.00  0.00     0.009 A 
ATOM     23  C   UNL A   1      34.691  17.521  24.339  1.00  0.00     0.001 A 
ATOM     24  C   UNL A   1      32.923  17.331  22.709  1.00  0.00     0.001 A 
ATOM     25  C   UNL A   1      34.018  16.778  23.373  1.00  0.00     0.000 A 
ENDBRANCH  14  20
ENDBRANCH   7   9
ENDBRANCH   6   7
ENDBRANCH   5   6
ENDBRANCH   4   5
ENDBRANCH   3   4
ENDBRANCH   2   3
ENDBRANCH   1   2
BRANCH   1  26
ATOM     26  O   UNL A   1      31.603  28.517  25.354  1.00  0.00    -0.376 OA
BRANCH  26  27
ATOM     27  C   UNL A   1      31.673  29.080  26.656  1.00  0.00     0.202 C 
BRANCH  27  28
ATOM     28  C   UNL A   1      31.779  30.594  26.851  1.00  0.00     0.261 C 
BRANCH  28  29
ATOM     29  O   UNL A   1      33.051  31.142  26.480  1.00  0.00    -0.460 OA
BRANCH  29  30
ATOM     30  C   UNL A   1      33.536  32.076  27.334  1.00  0.00     0.338 C 
ATOM     31  O   UNL A   1      32.982  33.080  27.739  1.00  0.00    -0.246 OA
BRANCH  30  32
ATOM     32  C   UNL A   1      34.830  31.619  27.868  1.00  0.00     0.060 A 
ATOM     33  C   UNL A   1      34.932  30.295  28.311  1.00  0.00     0.016 A 
ATOM     34  C   UNL A   1      35.899  32.504  28.003  1.00  0.00     0.016 A 
ATOM     35  C   UNL A   1      36.106  29.854  28.914  1.00  0.00     0.010 A 
ATOM     36  C   UNL A   1      37.069  32.067  28.629  1.00  0.00     0.010 A 
ATOM     37  C   UNL A   1      37.166  30.748  29.110  1.00  0.00    -0.014 A 
BRANCH  37  38
ATOM     38  C   UNL A   1      38.305  30.352  29.967  1.00  0.00     0.031 A 
ATOM     39  C   UNL A   1      39.304  29.370  29.426  1.00  0.00     0.074 A 
ATOM     40  C   UNL A   1      38.460  30.871  31.196  1.00  0.00     0.049 A 
ATOM     41  N   UNL A   1      40.337  28.823  30.014  1.00  0.00    -0.248 NA
ATOM     42  C   UNL A   1      39.113  28.949  28.029  1.00  0.00     0.031 C 
ATOM     43  C   UNL A   1      37.593  31.877  31.805  1.00  0.00     0.029 A 
ATOM     44  N   UNL A   1      39.404  30.610  32.158  1.00  0.00    -0.354 N 
ATOM     45  C   UNL A   1      40.912  27.990  29.064  1.00  0.00     0.074 A 
ATOM     46  C   UNL A   1      40.104  28.086  27.868  1.00  0.00     0.031 C 
ATOM     47  C   UNL A   1      38.032  32.132  33.050  1.00  0.00     0.029 A 
ATOM     48  C   UNL A   1      39.188  31.282  33.334  1.00  0.00     0.049 A 
ATOM     49  H   UNL A   1      40.164  29.998  32.017  1.00  0.00     0.167 HD
ATOM     50  C   UNL A   1      42.018  27.219  29.181  1.00  0.00     0.037 A 
ATOM     51  C   UNL A   1      39.833  31.194  34.514  1.00  0.00     0.037 A 
ATOM     52  C   UNL A   1      42.813  27.119  30.375  1.00  0.00     0.049 A 
ATOM     53  C   UNL A   1      41.006  30.257  34.646  1.00  0.00     0.074 A 
ATOM     54  C   UNL A   1      43.956  26.368  30.591  1.00  0.00     0.029 A 
ATOM     55  N   UNL A   1      42.543  27.786  31.560  1.00  0.00    -0.354 N 
ATOM     56  N   UNL A   1      41.555  29.481  33.742  1.00  0.00    -0.248 NA
ATOM     57  C   UNL A   1      41.649  30.182  35.967  1.00  0.00     0.031 C 
ATOM     58  C   UNL A   1      44.346  26.543  31.923  1.00  0.00     0.029 A 
ATOM     59  C   UNL A   1      43.481  27.445  32.520  1.00  0.00     0.049 A 
ATOM     60  H   UNL A   1      41.794  28.410  31.698  1.00  0.00     0.167 HD
ATOM     61  C   UNL A   1      42.623  28.854  34.372  1.00  0.00     0.074 A 
ATOM     62  C   UNL A   1      42.651  29.346  35.733  1.00  0.00     0.031 C 
ATOM     63  C   UNL A   1      43.503  27.954  33.867  1.00  0.00     0.037 A 
BRANCH  50  64
ATOM     64  C   UNL A   1      42.410  26.393  27.992  1.00  0.00     0.064 A 
ATOM     65  C   UNL A   1      41.884  25.109  27.780  1.00  0.00     0.173 A 
ATOM     66  C   UNL A   1      43.303  26.903  27.039  1.00  0.00     0.173 A 
ATOM     67  F   UNL A   1      41.039  24.571  28.672  1.00  0.00    -0.203 F 
ATOM     68  C   UNL A   1      42.257  24.358  26.669  1.00  0.00     0.198 A 
ATOM     69  C   UNL A   1      43.654  26.160  25.914  1.00  0.00     0.198 A 
ATOM     70  F   UNL A   1      43.834  28.125  27.194  1.00  0.00    -0.203 F 
ATOM     71  F   UNL A   1      41.779  23.116  26.510  1.00  0.00    -0.200 F 
ATOM     72  C   UNL A   1      43.137  24.886  25.735  1.00  0.00     0.200 A 
ATOM     73  F   UNL A   1      44.495  26.675  25.008  1.00  0.00    -0.200 F 
ATOM     74  F   UNL A   1      43.491  24.163  24.663  1.00  0.00    -0.200 F 
ENDBRANCH  50  64
BRANCH  51  75
ATOM     75  C   UNL A   1      39.371  31.997  35.675  1.00  0.00     0.064 A 
ATOM     76  C   UNL A   1      39.922  33.256  35.950  1.00  0.00     0.173 A 
ATOM     77  C   UNL A   1      38.390  31.509  36.552  1.00  0.00     0.173 A 
ATOM     78  F   UNL A   1      40.884  33.752  35.158  1.00  0.00    -0.203 F 
ATOM     79  C   UNL A   1      39.524  33.987  37.067  1.00  0.00     0.198 A 
ATOM     80  C   UNL A   1      37.973  32.253  37.654  1.00  0.00     0.198 A 
ATOM     81  F   UNL A   1      37.837  30.306  36.338  1.00  0.00    -0.203 F 
ATOM     82  F   UNL A   1      40.106  35.164  37.336  1.00  0.00    -0.200 F 
ATOM     83  C   UNL A   1      38.547  33.488  37.915  1.00  0.00     0.200 A 
ATOM     84  F   UNL A   1      37.024  31.770  38.466  1.00  0.00    -0.200 F 
ATOM     85  F   UNL A   1      38.168  34.190  38.991  1.00  0.00    -0.200 F 
ENDBRANCH  51  75
BRANCH  63  86
ATOM     86  C   UNL A   1      44.601  27.475  34.773  1.00  0.00     0.064 A 
ATOM     87  C   UNL A   1      44.466  26.312  35.546  1.00  0.00     0.173 A 
ATOM     88  C   UNL A   1      45.823  28.162  34.829  1.00  0.00     0.173 A 
ATOM     89  F   UNL A   1      43.313  25.626  35.539  1.00  0.00    -0.203 F 
ATOM     90  C   UNL A   1      45.507  25.867  36.357  1.00  0.00     0.198 A 
ATOM     91  C   UNL A   1      46.872  27.698  35.617  1.00  0.00     0.198 A 
ATOM     92  F   UNL A   1      46.006  29.275  34.103  1.00  0.00    -0.203 F 
ATOM     93  F   UNL A   1      45.342  24.778  37.119  1.00  0.00    -0.200 F 
ATOM     94  C   UNL A   1      46.712  26.556  36.385  1.00  0.00     0.200 A 
ATOM     95  F   UNL A   1      48.039  28.357  35.632  1.00  0.00    -0.200 F 
ATOM     96  F   UNL A   1      47.716  26.120  37.159  1.00  0.00    -0.200 F 
ENDBRANCH  63  86
ENDBRANCH  37  38
ENDBRANCH  30  32
ENDBRANCH  29  30
ENDBRANCH  28  29
ENDBRANCH  27  28
ENDBRANCH  26  27
ENDBRANCH   1  26
TORSDOF 20
ENDMDL
MODEL 2
REMARK VINA RESULT:     -11.3      4.457      8.251
REMARK SMILES COc1c(N)cc(-c2ccccc2)cc1C(=O)OCCOCCOCCOC(=O)c1ccc(-c2c3nc(c(-c4c(F)c(F)c(F)c(F)c4F)c4ccc([nH]4)c(-c4c(F)c(F)c(F)c(F)c4F)c4nc(c(-c5c(F)c(F)c(F)c(F)c5F)c5ccc2[nH]5)C=C4)C=C3)cc1
REMARK SMILES IDX 23 1 22 2 21 3 20 4 19 5 18 6 16 7 17 8 15 9 3 10 4 11 6 12
REMARK SMILES IDX 14 13 7 14 2 15 1 16 5 17 8 20 9 21 13 22 10 23 12 24 11 25
REMARK SMILES IDX 24 26 25 27 26 28 27 29 28 30 29 31 30 32 31 33 92 34 32 35
REMARK SMILES IDX 91 36 33 37 34 38 35 39 85 40 36 41 90 42 84 43 86 44 37 45
REMARK SMILES IDX 89 46 83 47 82 48 38 50 70 51 50 52 69 53 51 54 54 55 68 56
REMARK SMILES IDX 87 57 52 58 53 59 67 61 88 62 55 63 39 64 40 65 48 66 41 67
REMARK SMILES IDX 42 68 46 69 49 70 43 71 44 72 47 73 45 74 71 75 72 76 80 77
REMARK SMILES IDX 73 78 74 79 78 80 81 81 75 82 76 83 79 84 77 85 56 86 57 87
REMARK SMILES IDX 65 88 58 89 59 90 63 91 66 92 60 93 61 94 64 95 62 96
REMARK H PARENT 5 18 5 19 86 49 54 60
REMARK Flexibility Score: inf
ROOT
ATOM      1  C   UNL A   1      37.077  22.088  25.032  1.00  0.00     0.188 C 
ENDROOT
BRANCH   1   2
ATOM      2  C   UNL A   1      36.190  22.633  23.892  1.00  0.00     0.188 C 
BRANCH   2   3
ATOM      3  O   UNL A   1      34.839  22.979  24.127  1.00  0.00    -0.376 OA
BRANCH   3   4
ATOM      4  C   UNL A   1      33.951  22.037  24.713  1.00  0.00     0.202 C 
BRANCH   4   5
ATOM      5  C   UNL A   1      33.143  22.383  25.965  1.00  0.00     0.261 C 
BRANCH   5   6
ATOM      6  O   UNL A   1      33.111  23.787  26.256  1.00  0.00    -0.460 OA
BRANCH   6   7
ATOM      7  C   UNL A   1      31.874  24.293  26.486  1.00  0.00     0.342 C 
ATOM      8  O   UNL A   1      31.035  23.838  27.249  1.00  0.00    -0.246 OA
BRANCH   7   9
ATOM      9  C   UNL A   1      31.710  25.622  25.865  1.00  0.00     0.104 A 
ATOM     10  C   UNL A   1      30.898  25.864  24.752  1.00  0.00     0.156 A 
ATOM     11  C   UNL A   1      30.662  27.188  24.338  1.00  0.00     0.076 A 
ATOM     12  C   UNL A   1      31.402  28.223  24.925  1.00  0.00     0.038 A 
ATOM     13  C   UNL A   1      32.400  26.681  26.478  1.00  0.00     0.028 A 
ATOM     14  C   UNL A   1      32.276  27.987  25.996  1.00  0.00    -0.015 A 
BRANCH  10  15
ATOM     15  O   UNL A   1      30.268  24.815  24.124  1.00  0.00    -0.494 OA
ATOM     16  C   UNL A   1      31.154  24.152  23.212  1.00  0.00     0.278 C 
ENDBRANCH  10  15
BRANCH  11  17
ATOM     17  N   UNL A   1      29.798  27.487  23.286  1.00  0.00    -0.396 N 
ATOM     18  H   UNL A   1      28.890  27.820  23.473  1.00  0.00     0.156 HD
ATOM     19  H   UNL A   1      30.094  27.364  22.355  1.00  0.00     0.156 HD
ENDBRANCH  11  17
BRANCH  14  20
ATOM     20  C   UNL A   1      33.003  29.099  26.613  1.00  0.00    -0.018 A 
ATOM     21  C   UNL A   1      32.401  30.360  26.735  1.00  0.00     0.009 A 
ATOM     22  C   UNL A   1      34.321  28.938  27.065  1.00  0.00     0.009 A 
ATOM     23  C   UNL A   1      33.103  31.436  27.283  1.00  0.00     0.001 A 
ATOM     24  C   UNL A   1      35.023  30.014  27.615  1.00  0.00     0.001 A 
ATOM     25  C   UNL A   1      34.413  31.263  27.721  1.00  0.00     0.000 A 
ENDBRANCH  14  20
ENDBRANCH   7   9
ENDBRANCH   6   7
ENDBRANCH   5   6
ENDBRANCH   4   5
ENDBRANCH   3   4
ENDBRANCH   2   3
ENDBRANCH   1   2
BRANCH   1  26
ATOM     26  O   UNL A   1      37.077  20.716  25.377  1.00  0.00    -0.376 OA
BRANCH  26  27
ATOM     27  C   UNL A   1      38.094  19.865  24.871  1.00  0.00     0.202 C 
BRANCH  27  28
ATOM     28  C   UNL A   1      39.272  19.439  25.750  1.00  0.00     0.261 C 
BRANCH  28  29
ATOM     29  O   UNL A   1      40.272  20.452  25.916  1.00  0.00    -0.460 OA
BRANCH  29  30
ATOM     30  C   UNL A   1      40.814  20.517  27.156  1.00  0.00     0.338 C 
ATOM     31  O   UNL A   1      41.215  19.599  27.846  1.00  0.00    -0.246 OA
BRANCH  30  32
ATOM     32  C   UNL A   1      41.018  21.928  27.523  1.00  0.00     0.060 A 
ATOM     33  C   UNL A   1      40.277  22.902  26.844  1.00  0.00     0.016 A 
ATOM     34  C   UNL A   1      41.982  22.288  28.465  1.00  0.00     0.016 A 
ATOM     35  C   UNL A   1      40.514  24.251  27.090  1.00  0.00     0.010 A 
ATOM     36  C   UNL A   1      42.234  23.642  28.695  1.00  0.00     0.010 A 
ATOM     37  C   UNL A   1      41.520  24.627  27.989  1.00  0.00    -0.014 A 
BRANCH  37  38
ATOM     38  C   UNL A   1      41.938  26.045  28.064  1.00  0.00     0.031 A 
ATOM     39  C   UNL A   1      43.258  26.438  27.466  1.00  0.00     0.074 A 
ATOM     40  C   UNL A   1      41.149  26.970  28.635  1.00  0.00     0.049 A 
ATOM     41  N   UNL A   1      43.863  27.597  27.473  1.00  0.00    -0.248 NA
ATOM     42  C   UNL A   1      43.994  25.377  26.760  1.00  0.00     0.031 C 
ATOM     43  C   UNL A   1      39.822  26.721  29.193  1.00  0.00     0.029 A 
ATOM     44  N   UNL A   1      41.361  28.309  28.848  1.00  0.00    -0.354 N 
ATOM     45  C   UNL A   1      45.052  27.405  26.783  1.00  0.00     0.074 A 
ATOM     46  C   UNL A   1      45.094  26.014  26.387  1.00  0.00     0.031 C 
ATOM     47  C   UNL A   1      39.345  27.868  29.708  1.00  0.00     0.029 A 
ATOM     48  C   UNL A   1      40.348  28.919  29.545  1.00  0.00     0.049 A 
ATOM     49  H   UNL A   1      42.162  28.786  28.531  1.00  0.00     0.167 HD
ATOM     50  C   UNL A   1      46.018  28.311  26.502  1.00  0.00     0.037 A 
ATOM     51  C   UNL A   1      40.261  30.176  30.023  1.00  0.00     0.037 A 
ATOM     52  C   UNL A   1      45.976  29.691  26.904  1.00  0.00     0.049 A 
ATOM     53  C   UNL A   1      41.393  31.140  29.777  1.00  0.00     0.074 A 
ATOM     54  C   UNL A   1      46.904  30.688  26.664  1.00  0.00     0.029 A 
ATOM     55  N   UNL A   1      44.952  30.265  27.642  1.00  0.00    -0.354 N 
ATOM     56  N   UNL A   1      42.509  30.959  29.112  1.00  0.00    -0.248 NA
ATOM     57  C   UNL A   1      41.253  32.488  30.350  1.00  0.00     0.031 C 
ATOM     58  C   UNL A   1      46.465  31.854  27.299  1.00  0.00     0.029 A 
ATOM     59  C   UNL A   1      45.237  31.598  27.888  1.00  0.00     0.049 A 
ATOM     60  H   UNL A   1      44.142  29.795  27.946  1.00  0.00     0.167 HD
ATOM     61  C   UNL A   1      43.186  32.172  29.159  1.00  0.00     0.074 A 
ATOM     62  C   UNL A   1      42.352  33.086  29.910  1.00  0.00     0.031 C 
ATOM     63  C   UNL A   1      44.389  32.499  28.626  1.00  0.00     0.037 A 
BRANCH  50  64
ATOM     64  C   UNL A   1      47.221  27.823  25.750  1.00  0.00     0.064 A 
ATOM     65  C   UNL A   1      48.372  27.373  26.414  1.00  0.00     0.173 A 
ATOM     66  C   UNL A   1      47.210  27.781  24.348  1.00  0.00     0.173 A 
ATOM     67  F   UNL A   1      48.437  27.410  27.753  1.00  0.00    -0.203 F 
ATOM     68  C   UNL A   1      49.479  26.922  25.700  1.00  0.00     0.198 A 
ATOM     69  C   UNL A   1      48.309  27.303  23.638  1.00  0.00     0.198 A 
ATOM     70  F   UNL A   1      46.134  28.198  23.667  1.00  0.00    -0.203 F 
ATOM     71  F   UNL A   1      50.585  26.541  26.352  1.00  0.00    -0.200 F 
ATOM     72  C   UNL A   1      49.444  26.881  24.313  1.00  0.00     0.200 A 
ATOM     73  F   UNL A   1      48.269  27.254  22.299  1.00  0.00    -0.200 F 
ATOM     74  F   UNL A   1      50.508  26.441  23.628  1.00  0.00    -0.200 F 
ENDBRANCH  50  64
BRANCH  51  75
ATOM     75  C   UNL A   1      39.069  30.592  30.806  1.00  0.00     0.064 A 
ATOM     76  C   UNL A   1      38.990  30.353  32.186  1.00  0.00     0.173 A 
ATOM     77  C   UNL A   1      37.972  31.209  30.187  1.00  0.00     0.173 A 
ATOM     78  F   UNL A   1      40.000  29.739  32.817  1.00  0.00    -0.203 F 
ATOM     79  C   UNL A   1      37.851  30.698  32.911  1.00  0.00     0.198 A 
ATOM     80  C   UNL A   1      36.845  31.579  30.918  1.00  0.00     0.198 A 
ATOM     81  F   UNL A   1      37.995  31.451  28.869  1.00  0.00    -0.203 F 
ATOM     82  F   UNL A   1      37.780  30.410  34.218  1.00  0.00    -0.200 F 
ATOM     83  C   UNL A   1      36.783  31.315  32.278  1.00  0.00     0.200 A 
ATOM     84  F   UNL A   1      35.818  32.180  30.304  1.00  0.00    -0.200 F 
ATOM     85  F   UNL A   1      35.686  31.643  32.976  1.00  0.00    -0.200 F 
ENDBRANCH  51  75
BRANCH  63  86
ATOM     86  C   UNL A   1      44.858  33.916  28.792  1.00  0.00     0.064 A 
ATOM     87  C   UNL A   1      45.669  34.304  29.868  1.00  0.00     0.173 A 
ATOM     88  C   UNL A   1      44.533  34.886  27.831  1.00  0.00     0.173 A 
ATOM     89  F   UNL A   1      45.997  33.419  30.821  1.00  0.00    -0.203 F 
ATOM     90  C   UNL A   1      46.119  35.617  29.988  1.00  0.00     0.198 A 
ATOM     91  C   UNL A   1      45.009  36.190  27.938  1.00  0.00     0.198 A 
ATOM     92  F   UNL A   1      43.766  34.564  26.778  1.00  0.00    -0.203 F 
ATOM     93  F   UNL A   1      46.857  35.976  31.047  1.00  0.00    -0.200 F 
ATOM     94  C   UNL A   1      45.796  36.556  29.019  1.00  0.00     0.200 A 
ATOM     95  F   UNL A   1      44.707  37.091  26.993  1.00  0.00    -0.200 F 
ATOM     96  F   UNL A   1      46.238  37.817  29.130  1.00  0.00    -0.200 F 
ENDBRANCH  63  86
ENDBRANCH  37  38
ENDBRANCH  30  32
ENDBRANCH  29  30
ENDBRANCH  28  29
ENDBRANCH  27  28
ENDBRANCH  26  27
ENDBRANCH   1  26
TORSDOF 20
ENDMDL
MODEL 3
REMARK VINA RESULT:     -11.2      1.585      7.724
REMARK SMILES COc1c(N)cc(-c2ccccc2)cc1C(=O)OCCOCCOCCOC(=O)c1ccc(-c2c3nc(c(-c4c(F)c(F)c(F)c(F)c4F)c4ccc([nH]4)c(-c4c(F)c(F)c(F)c(F)c4F)c4nc(c(-c5c(F)c(F)c(F)c(F)c5F)c5ccc2[nH]5)C=C4)C=C3)cc1
REMARK SMILES IDX 23 1 22 2 21 3 20 4 19 5 18 6 16 7 17 8 15 9 3 10 4 11 6 12
REMARK SMILES IDX 14 13 7 14 2 15 1 16 5 17 8 20 9 21 13 22 10 23 12 24 11 25
REMARK SMILES IDX 24 26 25 27 26 28 27 29 28 30 29 31 30 32 31 33 92 34 32 35
REMARK SMILES IDX 91 36 33 37 34 38 35 39 85 40 36 41 90 42 84 43 86 44 37 45
REMARK SMILES IDX 89 46 83 47 82 48 38 50 70 51 50 52 69 53 51 54 54 55 68 56
REMARK SMILES IDX 87 57 52 58 53 59 67 61 88 62 55 63 39 64 40 65 48 66 41 67
REMARK SMILES IDX 42 68 46 69 49 70 43 71 44 72 47 73 45 74 71 75 72 76 80 77
REMARK SMILES IDX 73 78 74 79 78 80 81 81 75 82 76 83 79 84 77 85 56 86 57 87
REMARK SMILES IDX 65 88 58 89 59 90 63 91 66 92 60 93 61 94 64 95 62 96
REMARK H PARENT 5 18 5 19 86 49 54 60
REMARK Flexibility Score: inf
ROOT
ATOM      1  C   UNL A   1      30.626  28.133  23.928  1.00  0.00     0.188 C 
ENDROOT
BRANCH   1   2
ATOM      2  C   UNL A   1      30.618  27.805  22.420  1.00  0.00     0.188 C 
BRANCH   2   3
ATOM      3  O   UNL A   1      31.383  26.732  21.907  1.00  0.00    -0.376 OA
BRANCH   3   4
ATOM      4  C   UNL A   1      32.803  26.775  21.964  1.00  0.00     0.202 C 
BRANCH   4   5
ATOM      5  C   UNL A   1      33.584  25.884  22.931  1.00  0.00     0.261 C 
BRANCH   5   6
ATOM      6  O   UNL A   1      32.919  24.651  23.238  1.00  0.00    -0.460 OA
BRANCH   6   7
ATOM      7  C   UNL A   1      33.470  23.551  22.668  1.00  0.00     0.342 C 
ATOM      8  O   UNL A   1      33.656  23.370  21.474  1.00  0.00    -0.246 OA
BRANCH   7   9
ATOM      9  C   UNL A   1      34.044  22.647  23.683  1.00  0.00     0.104 A 
ATOM     10  C   UNL A   1      33.410  21.484  24.134  1.00  0.00     0.156 A 
ATOM     11  C   UNL A   1      34.108  20.591  24.968  1.00  0.00     0.076 A 
ATOM     12  C   UNL A   1      35.349  20.981  25.490  1.00  0.00     0.038 A 
ATOM     13  C   UNL A   1      35.314  22.994  24.174  1.00  0.00     0.028 A 
ATOM     14  C   UNL A   1      35.966  22.180  25.104  1.00  0.00    -0.015 A 
BRANCH  10  15
ATOM     15  O   UNL A   1      32.145  21.178  23.690  1.00  0.00    -0.494 OA
ATOM     16  C   UNL A   1      32.196  20.350  22.519  1.00  0.00     0.278 C 
ENDBRANCH  10  15
BRANCH  11  17
ATOM     17  N   UNL A   1      33.551  19.381  25.379  1.00  0.00    -0.396 N 
ATOM     18  H   UNL A   1      32.948  18.887  24.777  1.00  0.00     0.156 HD
ATOM     19  H   UNL A   1      33.760  19.020  26.271  1.00  0.00     0.156 HD
ENDBRANCH  11  17
BRANCH  14  20
ATOM     20  C   UNL A   1      37.282  22.537  25.638  1.00  0.00    -0.018 A 
ATOM     21  C   UNL A   1      38.310  21.584  25.691  1.00  0.00     0.009 A 
ATOM     22  C   UNL A   1      37.535  23.824  26.137  1.00  0.00     0.009 A 
ATOM     23  C   UNL A   1      39.554  21.904  26.238  1.00  0.00     0.001 A 
ATOM     24  C   UNL A   1      38.780  24.145  26.682  1.00  0.00     0.001 A 
ATOM     25  C   UNL A   1      39.788  23.184  26.735  1.00  0.00     0.000 A 
ENDBRANCH  14  20
ENDBRANCH   7   9
ENDBRANCH   6   7
ENDBRANCH   5   6
ENDBRANCH   4   5
ENDBRANCH   3   4
ENDBRANCH   2   3
ENDBRANCH   1   2
BRANCH   1  26
ATOM     26  O   UNL A   1      31.075  29.385  24.410  1.00  0.00    -0.376 OA
BRANCH  26  27
ATOM     27  C   UNL A   1      31.808  29.447  25.625  1.00  0.00     0.202 C 
BRANCH  27  28
ATOM     28  C   UNL A   1      32.012  30.779  26.351  1.00  0.00     0.261 C 
BRANCH  28  29
ATOM     29  O   UNL A   1      32.956  30.718  27.427  1.00  0.00    -0.460 OA
BRANCH  29  30
ATOM     30  C   UNL A   1      33.822  31.759  27.482  1.00  0.00     0.338 C 
ATOM     31  O   UNL A   1      33.581  32.942  27.327  1.00  0.00    -0.246 OA
BRANCH  30  32
ATOM     32  C   UNL A   1      35.135  31.274  27.937  1.00  0.00     0.060 A 
ATOM     33  C   UNL A   1      35.302  29.898  28.129  1.00  0.00     0.016 A 
ATOM     34  C   UNL A   1      36.159  32.170  28.245  1.00  0.00     0.016 A 
ATOM     35  C   UNL A   1      36.495  29.410  28.654  1.00  0.00     0.010 A 
ATOM     36  C   UNL A   1      37.348  31.681  28.792  1.00  0.00     0.010 A 
ATOM     37  C   UNL A   1      37.509  30.303  29.023  1.00  0.00    -0.014 A 
BRANCH  37  38
ATOM     38  C   UNL A   1      38.665  29.810  29.804  1.00  0.00     0.031 A 
ATOM     39  C   UNL A   1      38.883  30.354  31.187  1.00  0.00     0.074 A 
ATOM     40  C   UNL A   1      39.495  28.882  29.301  1.00  0.00     0.049 A 
ATOM     41  N   UNL A   1      39.860  30.127  32.026  1.00  0.00    -0.248 NA
ATOM     42  C   UNL A   1      37.855  31.277  31.693  1.00  0.00     0.031 C 
ATOM     43  C   UNL A   1      39.351  28.236  27.998  1.00  0.00     0.029 A 
ATOM     44  N   UNL A   1      40.635  28.329  29.829  1.00  0.00    -0.354 N 
ATOM     45  C   UNL A   1      39.570  30.884  33.153  1.00  0.00     0.074 A 
ATOM     46  C   UNL A   1      38.338  31.592  32.885  1.00  0.00     0.031 C 
ATOM     47  C   UNL A   1      40.380  27.389  27.818  1.00  0.00     0.029 A 
ATOM     48  C   UNL A   1      41.270  27.462  28.976  1.00  0.00     0.049 A 
ATOM     49  H   UNL A   1      40.966  28.536  30.734  1.00  0.00     0.167 HD
ATOM     50  C   UNL A   1      40.269  30.974  34.309  1.00  0.00     0.037 A 
ATOM     51  C   UNL A   1      42.450  26.827  29.107  1.00  0.00     0.037 A 
ATOM     52  C   UNL A   1      41.499  30.275  34.568  1.00  0.00     0.049 A 
ATOM     53  C   UNL A   1      43.256  27.017  30.366  1.00  0.00     0.074 A 
ATOM     54  C   UNL A   1      42.280  30.298  35.710  1.00  0.00     0.029 A 
ATOM     55  N   UNL A   1      42.132  29.434  33.666  1.00  0.00    -0.354 N 
ATOM     56  N   UNL A   1      42.973  27.723  31.435  1.00  0.00    -0.248 NA
ATOM     57  C   UNL A   1      44.550  26.321  30.437  1.00  0.00     0.031 C 
ATOM     58  C   UNL A   1      43.412  29.509  35.479  1.00  0.00     0.029 A 
ATOM     59  C   UNL A   1      43.308  28.951  34.215  1.00  0.00     0.049 A 
ATOM     60  H   UNL A   1      41.795  29.213  32.768  1.00  0.00     0.167 HD
ATOM     61  C   UNL A   1      44.032  27.531  32.314  1.00  0.00     0.074 A 
ATOM     62  C   UNL A   1      44.961  26.636  31.658  1.00  0.00     0.031 C 
ATOM     63  C   UNL A   1      44.216  28.048  33.554  1.00  0.00     0.037 A 
BRANCH  50  64
ATOM     64  C   UNL A   1      39.734  31.893  35.366  1.00  0.00     0.064 A 
ATOM     65  C   UNL A   1      40.143  33.233  35.456  1.00  0.00     0.173 A 
ATOM     66  C   UNL A   1      38.781  31.434  36.287  1.00  0.00     0.173 A 
ATOM     67  F   UNL A   1      41.065  33.714  34.609  1.00  0.00    -0.203 F 
ATOM     68  C   UNL A   1      39.634  34.072  36.443  1.00  0.00     0.198 A 
ATOM     69  C   UNL A   1      38.253  32.283  37.256  1.00  0.00     0.198 A 
ATOM     70  F   UNL A   1      38.357  30.162  36.244  1.00  0.00    -0.203 F 
ATOM     71  F   UNL A   1      40.072  35.334  36.539  1.00  0.00    -0.200 F 
ATOM     72  C   UNL A   1      38.685  33.598  37.338  1.00  0.00     0.200 A 
ATOM     73  F   UNL A   1      37.329  31.826  38.113  1.00  0.00    -0.200 F 
ATOM     74  F   UNL A   1      38.192  34.408  38.285  1.00  0.00    -0.200 F 
ENDBRANCH  50  64
BRANCH  51  75
ATOM     75  C   UNL A   1      42.959  25.968  28.006  1.00  0.00     0.064 A 
ATOM     76  C   UNL A   1      42.760  24.581  28.019  1.00  0.00     0.173 A 
ATOM     77  C   UNL A   1      43.680  26.514  26.933  1.00  0.00     0.173 A 
ATOM     78  F   UNL A   1      42.103  24.009  29.039  1.00  0.00    -0.203 F 
ATOM     79  C   UNL A   1      43.279  23.770  27.012  1.00  0.00     0.198 A 
ATOM     80  C   UNL A   1      44.175  25.705  25.912  1.00  0.00     0.198 A 
ATOM     81  F   UNL A   1      43.904  27.834  26.878  1.00  0.00    -0.203 F 
ATOM     82  F   UNL A   1      43.120  22.441  27.077  1.00  0.00    -0.200 F 
ATOM     83  C   UNL A   1      43.981  24.333  25.957  1.00  0.00     0.200 A 
ATOM     84  F   UNL A   1      44.847  26.254  24.892  1.00  0.00    -0.200 F 
ATOM     85  F   UNL A   1      44.484  23.552  24.991  1.00  0.00    -0.200 F 
ENDBRANCH  51  75
BRANCH  63  86
ATOM     86  C   UNL A   1      45.446  27.625  34.306  1.00  0.00     0.064 A 
ATOM     87  C   UNL A   1      46.638  28.360  34.245  1.00  0.00     0.173 A 
ATOM     88  C   UNL A   1      45.412  26.496  35.138  1.00  0.00     0.173 A 
ATOM     89  F   UNL A   1      46.727  29.440  33.453  1.00  0.00    -0.203 F 
ATOM     90  C   UNL A   1      47.759  27.968  34.973  1.00  0.00     0.198 A 
ATOM     91  C   UNL A   1      46.524  26.124  35.888  1.00  0.00     0.198 A 
ATOM     92  F   UNL A   1      44.293  25.763  35.238  1.00  0.00    -0.203 F 
ATOM     93  F   UNL A   1      48.901  28.661  34.867  1.00  0.00    -0.200 F 
ATOM     94  C   UNL A   1      47.698  26.856  35.801  1.00  0.00     0.200 A 
ATOM     95  F   UNL A   1      46.458  25.057  36.697  1.00  0.00    -0.200 F 
ATOM     96  F   UNL A   1      48.774  26.485  36.509  1.00  0.00    -0.200 F 
ENDBRANCH  63  86
ENDBRANCH  37  38
ENDBRANCH  30  32
ENDBRANCH  29  30
ENDBRANCH  28  29
ENDBRANCH  27  28
ENDBRANCH  26  27
ENDBRANCH   1  26
TORSDOF 20
ENDMDL
