MODEL 1
REMARK VINA RESULT:     -10.4      0.000      0.000
REMARK SMILES COc1ccc(C(=O)NC(=S)Nc2ccc(Br)cc2C(=O)OCCOCCOCCOC(=O)c2ccc(-c3c4nc(c(-c5c(F)c(F)c(F)c(F)c5F)c5ccc([nH]5)c(-c5c(F)c(F)c(F)c(F)c5F)c5nc(c(-c6c(F)c(F)c(F)c(F)c6F)c6ccc3[nH]6)C=C5)C=C4)cc2)cc1Br
REMARK SMILES IDX 25 1 24 2 23 3 22 4 20 5 21 6 19 7 13 8 14 9 15 10 18 11
REMARK SMILES IDX 16 12 17 13 12 14 10 16 11 17 9 18 7 19 8 20 6 22 3 23 4 24
REMARK SMILES IDX 98 25 5 26 97 27 99 28 2 29 1 30 26 31 27 32 28 33 29 34
REMARK SMILES IDX 30 35 31 36 32 37 33 38 34 39 35 40 96 41 36 42 95 43 37 44
REMARK SMILES IDX 38 45 39 46 89 47 40 48 94 49 88 50 90 51 41 52 93 53 87 54
REMARK SMILES IDX 86 55 42 57 74 58 54 59 73 60 55 61 58 62 72 63 91 64 56 65
REMARK SMILES IDX 57 66 71 68 92 69 59 70 43 71 44 72 52 73 45 74 46 75 50 76
REMARK SMILES IDX 53 77 47 78 48 79 51 80 49 81 75 82 76 83 84 84 77 85 78 86
REMARK SMILES IDX 82 87 85 88 79 89 80 90 83 91 81 92 60 93 61 94 69 95 62 96
REMARK SMILES IDX 63 97 67 98 70 99 64 100 65 101 68 102 66 103
REMARK H PARENT 12 15 9 21 90 56 58 67
REMARK Flexibility Score: inf
ROOT
ATOM      1  O   UNL A   1      31.055  27.382  25.605  1.00  0.00    -0.376 OA
ENDROOT
BRANCH   1   2
ATOM      2  C   UNL A   1      31.602  27.584  24.312  1.00  0.00     0.202 C 
BRANCH   2   3
ATOM      3  C   UNL A   1      32.777  26.787  23.714  1.00  0.00     0.261 C 
BRANCH   3   4
ATOM      4  O   UNL A   1      32.951  25.435  24.165  1.00  0.00    -0.460 OA
BRANCH   4   5
ATOM      5  C   UNL A   1      33.711  24.671  23.352  1.00  0.00     0.340 C 
ATOM      6  O   UNL A   1      34.057  24.937  22.213  1.00  0.00    -0.246 OA
BRANCH   5   7
ATOM      7  C   UNL A   1      34.225  23.485  24.057  1.00  0.00     0.084 A 
ATOM      8  C   UNL A   1      34.856  23.757  25.646  1.00  0.00     0.055 A 
ATOM      9  C   UNL A   1      34.545  22.634  27.025  1.00  0.00     0.028 A 
ATOM     10  C   UNL A   1      33.798  21.020  26.822  1.00  0.00     0.018 A 
ATOM     11  C   UNL A   1      33.506  21.897  23.682  1.00  0.00     0.033 A 
ATOM     12  C   UNL A   1      33.294  20.506  25.146  1.00  0.00     0.018 A 
ATOM     13  Br  UNL A   1      32.678  18.614  25.388  1.00  0.00    -0.051 Br
BRANCH   8  14
ATOM     14  N   UNL A   1      36.309  23.930  25.464  1.00  0.00    -0.332 N 
ATOM     15  H   UNL A   1      36.537  24.785  25.031  1.00  0.00     0.169 HD
BRANCH  14  16
ATOM     16  C   UNL A   1      37.428  23.170  25.760  1.00  0.00     0.177 C 
ATOM     17  S   UNL A   1      37.540  21.707  24.928  1.00  0.00    -0.040 S 
BRANCH  16  18
ATOM     18  N   UNL A   1      38.548  23.458  26.602  1.00  0.00    -0.299 N 
ATOM     19  C   UNL A   1      39.945  23.273  27.074  1.00  0.00     0.257 C 
ATOM     20  O   UNL A   1      40.391  23.926  28.010  1.00  0.00    -0.269 OA
ATOM     21  H   UNL A   1      38.207  24.169  27.190  1.00  0.00     0.172 HD
BRANCH  19  22
ATOM     22  C   UNL A   1      40.802  22.289  26.405  1.00  0.00     0.041 A 
ATOM     23  C   UNL A   1      43.910  20.509  25.395  1.00  0.00     0.133 A 
ATOM     24  C   UNL A   1      42.458  19.673  26.017  1.00  0.00     0.048 A 
ATOM     25  C   UNL A   1      43.865  22.322  25.228  1.00  0.00     0.060 A 
ATOM     26  C   UNL A   1      40.969  20.553  26.516  1.00  0.00     0.018 A 
ATOM     27  C   UNL A   1      42.114  23.177  25.747  1.00  0.00     0.033 A 
ATOM     28  Br  UNL A   1      45.612  22.925  24.512  1.00  0.00    -0.047 Br
BRANCH  23  29
ATOM     29  O   UNL A   1      45.026  19.766  25.154  1.00  0.00    -0.496 OA
ATOM     30  C   UNL A   1      44.983  19.293  23.807  1.00  0.00     0.278 C 
ENDBRANCH  23  29
ENDBRANCH  19  22
ENDBRANCH  16  18
ENDBRANCH  14  16
ENDBRANCH   8  14
ENDBRANCH   5   7
ENDBRANCH   4   5
ENDBRANCH   3   4
ENDBRANCH   2   3
ENDBRANCH   1   2
BRANCH   1  31
ATOM     31  C   UNL A   1      31.838  27.556  26.762  1.00  0.00     0.188 C 
BRANCH  31  32
ATOM     32  C   UNL A   1      32.455  28.940  27.058  1.00  0.00     0.188 C 
BRANCH  32  33
ATOM     33  O   UNL A   1      31.629  30.075  27.074  1.00  0.00    -0.376 OA
BRANCH  33  34
ATOM     34  C   UNL A   1      32.213  31.357  26.927  1.00  0.00     0.202 C 
BRANCH  34  35
ATOM     35  C   UNL A   1      33.591  31.769  27.493  1.00  0.00     0.261 C 
BRANCH  35  36
ATOM     36  O   UNL A   1      33.952  33.160  27.478  1.00  0.00    -0.460 OA
BRANCH  36  37
ATOM     37  C   UNL A   1      33.762  33.832  28.643  1.00  0.00     0.338 C 
ATOM     38  O   UNL A   1      32.756  34.424  28.994  1.00  0.00    -0.246 OA
BRANCH  37  39
ATOM     39  C   UNL A   1      34.898  33.589  29.558  1.00  0.00     0.060 A 
ATOM     40  C   UNL A   1      36.132  34.205  29.291  1.00  0.00     0.016 A 
ATOM     41  C   UNL A   1      34.776  32.700  30.622  1.00  0.00     0.016 A 
ATOM     42  C   UNL A   1      37.249  33.923  30.082  1.00  0.00     0.010 A 
ATOM     43  C   UNL A   1      35.903  32.395  31.395  1.00  0.00     0.010 A 
ATOM     44  C   UNL A   1      37.153  32.982  31.114  1.00  0.00    -0.014 A 
BRANCH  44  45
ATOM     45  C   UNL A   1      38.380  32.477  31.785  1.00  0.00     0.031 A 
ATOM     46  C   UNL A   1      38.692  32.961  33.177  1.00  0.00     0.074 A 
ATOM     47  C   UNL A   1      39.201  31.595  31.185  1.00  0.00     0.049 A 
ATOM     48  N   UNL A   1      39.752  32.753  33.916  1.00  0.00    -0.248 NA
ATOM     49  C   UNL A   1      37.665  33.797  33.821  1.00  0.00     0.031 C 
ATOM     50  C   UNL A   1      38.988  30.997  29.868  1.00  0.00     0.029 A 
ATOM     51  N   UNL A   1      40.397  31.061  31.606  1.00  0.00    -0.354 N 
ATOM     52  C   UNL A   1      39.522  33.431  35.106  1.00  0.00     0.074 A 
ATOM     53  C   UNL A   1      38.240  34.089  34.979  1.00  0.00     0.031 C 
ATOM     54  C   UNL A   1      40.028  30.195  29.580  1.00  0.00     0.029 A 
ATOM     55  C   UNL A   1      41.001  30.256  30.670  1.00  0.00     0.049 A 
ATOM     56  H   UNL A   1      40.783  31.238  32.494  1.00  0.00     0.167 HD
ATOM     57  C   UNL A   1      40.303  33.492  36.211  1.00  0.00     0.037 A 
ATOM     58  C   UNL A   1      42.217  29.670  30.680  1.00  0.00     0.037 A 
ATOM     59  C   UNL A   1      41.583  32.845  36.339  1.00  0.00     0.049 A 
ATOM     60  C   UNL A   1      43.117  29.852  31.881  1.00  0.00     0.074 A 
ATOM     61  C   UNL A   1      42.454  32.859  37.414  1.00  0.00     0.029 A 
ATOM     62  N   UNL A   1      42.176  32.066  35.356  1.00  0.00    -0.354 N 
ATOM     63  N   UNL A   1      42.891  30.488  33.005  1.00  0.00    -0.248 NA
ATOM     64  C   UNL A   1      44.448  29.227  31.813  1.00  0.00     0.031 C 
ATOM     65  C   UNL A   1      43.598  32.137  37.063  1.00  0.00     0.029 A 
ATOM     66  C   UNL A   1      43.410  31.613  35.794  1.00  0.00     0.049 A 
ATOM     67  H   UNL A   1      41.779  31.867  34.478  1.00  0.00     0.167 HD
ATOM     68  C   UNL A   1      44.023  30.298  33.789  1.00  0.00     0.074 A 
ATOM     69  C   UNL A   1      44.930  29.474  33.022  1.00  0.00     0.031 C 
ATOM     70  C   UNL A   1      44.291  30.765  35.034  1.00  0.00     0.037 A 
BRANCH  57  71
ATOM     71  C   UNL A   1      39.805  34.295  37.379  1.00  0.00     0.064 A 
ATOM     72  C   UNL A   1      39.004  33.720  38.377  1.00  0.00     0.173 A 
ATOM     73  C   UNL A   1      40.194  35.634  37.541  1.00  0.00     0.173 A 
ATOM     74  F   UNL A   1      38.596  32.447  38.264  1.00  0.00    -0.203 F 
ATOM     75  C   UNL A   1      38.598  34.460  39.484  1.00  0.00     0.198 A 
ATOM     76  C   UNL A   1      39.813  36.361  38.665  1.00  0.00     0.198 A 
ATOM     77  F   UNL A   1      40.964  36.230  36.618  1.00  0.00    -0.203 F 
ATOM     78  F   UNL A   1      37.804  33.900  40.407  1.00  0.00    -0.200 F 
ATOM     79  C   UNL A   1      39.012  35.775  39.634  1.00  0.00     0.200 A 
ATOM     80  F   UNL A   1      40.229  37.626  38.816  1.00  0.00    -0.200 F 
ATOM     81  F   UNL A   1      38.638  36.479  40.710  1.00  0.00    -0.200 F 
ENDBRANCH  57  71
BRANCH  58  82
ATOM     82  C   UNL A   1      42.693  28.880  29.509  1.00  0.00     0.064 A 
ATOM     83  C   UNL A   1      42.606  27.479  29.496  1.00  0.00     0.173 A 
ATOM     84  C   UNL A   1      43.329  29.498  28.422  1.00  0.00     0.173 A 
ATOM     85  F   UNL A   1      42.034  26.835  30.523  1.00  0.00    -0.203 F 
ATOM     86  C   UNL A   1      43.177  26.729  28.469  1.00  0.00     0.198 A 
ATOM     87  C   UNL A   1      43.863  28.749  27.374  1.00  0.00     0.198 A 
ATOM     88  F   UNL A   1      43.446  30.834  28.381  1.00  0.00    -0.203 F 
ATOM     89  F   UNL A   1      43.157  25.390  28.530  1.00  0.00    -0.200 F 
ATOM     90  C   UNL A   1      43.803  27.364  27.408  1.00  0.00     0.200 A 
ATOM     91  F   UNL A   1      44.456  29.368  26.345  1.00  0.00    -0.200 F 
ATOM     92  F   UNL A   1      44.367  26.643  26.430  1.00  0.00    -0.200 F 
ENDBRANCH  58  82
BRANCH  70  93
ATOM     93  C   UNL A   1      45.581  30.339  35.680  1.00  0.00     0.064 A 
ATOM     94  C   UNL A   1      45.676  29.173  36.456  1.00  0.00     0.173 A 
ATOM     95  C   UNL A   1      46.750  31.092  35.487  1.00  0.00     0.173 A 
ATOM     96  F   UNL A   1      44.588  28.422  36.683  1.00  0.00    -0.203 F 
ATOM     97  C   UNL A   1      46.884  28.798  37.041  1.00  0.00     0.198 A 
ATOM     98  C   UNL A   1      47.964  30.692  36.040  1.00  0.00     0.198 A 
ATOM     99  F   UNL A   1      46.721  32.209  34.745  1.00  0.00    -0.203 F 
ATOM    100  F   UNL A   1      46.936  27.714  37.826  1.00  0.00    -0.200 F 
ATOM    101  C   UNL A   1      48.028  29.552  36.826  1.00  0.00     0.200 A 
ATOM    102  F   UNL A   1      49.072  31.412  35.813  1.00  0.00    -0.200 F 
ATOM    103  F   UNL A   1      49.190  29.184  37.381  1.00  0.00    -0.200 F 
ENDBRANCH  70  93
ENDBRANCH  44  45
ENDBRANCH  37  39
ENDBRANCH  36  37
ENDBRANCH  35  36
ENDBRANCH  34  35
ENDBRANCH  33  34
ENDBRANCH  32  33
ENDBRANCH  31  32
ENDBRANCH   1  31
TORSDOF 22
ENDMDL
MODEL 2
REMARK VINA RESULT:     -10.4      0.504      7.037
REMARK SMILES COc1ccc(C(=O)NC(=S)Nc2ccc(Br)cc2C(=O)OCCOCCOCCOC(=O)c2ccc(-c3c4nc(c(-c5c(F)c(F)c(F)c(F)c5F)c5ccc([nH]5)c(-c5c(F)c(F)c(F)c(F)c5F)c5nc(c(-c6c(F)c(F)c(F)c(F)c6F)c6ccc3[nH]6)C=C5)C=C4)cc2)cc1Br
REMARK SMILES IDX 25 1 24 2 23 3 22 4 20 5 21 6 19 7 13 8 14 9 15 10 18 11
REMARK SMILES IDX 16 12 17 13 12 14 10 16 11 17 9 18 7 19 8 20 6 22 3 23 4 24
REMARK SMILES IDX 98 25 5 26 97 27 99 28 2 29 1 30 26 31 27 32 28 33 29 34
REMARK SMILES IDX 30 35 31 36 32 37 33 38 34 39 35 40 96 41 36 42 95 43 37 44
REMARK SMILES IDX 38 45 39 46 89 47 40 48 94 49 88 50 90 51 41 52 93 53 87 54
REMARK SMILES IDX 86 55 42 57 74 58 54 59 73 60 55 61 58 62 72 63 91 64 56 65
REMARK SMILES IDX 57 66 71 68 92 69 59 70 43 71 44 72 52 73 45 74 46 75 50 76
REMARK SMILES IDX 53 77 47 78 48 79 51 80 49 81 75 82 76 83 84 84 77 85 78 86
REMARK SMILES IDX 82 87 85 88 79 89 80 90 83 91 81 92 60 93 61 94 69 95 62 96
REMARK SMILES IDX 63 97 67 98 70 99 64 100 65 101 68 102 66 103
REMARK H PARENT 12 15 9 21 90 56 58 67
REMARK Flexibility Score: inf
ROOT
ATOM      1  O   UNL A   1      31.075  26.993  26.004  1.00  0.00    -0.376 OA
ENDROOT
BRANCH   1   2
ATOM      2  C   UNL A   1      31.059  27.106  24.590  1.00  0.00     0.202 C 
BRANCH   2   3
ATOM      3  C   UNL A   1      32.068  26.435  23.638  1.00  0.00     0.261 C 
BRANCH   3   4
ATOM      4  O   UNL A   1      32.370  25.051  23.871  1.00  0.00    -0.460 OA
BRANCH   4   5
ATOM      5  C   UNL A   1      33.549  24.644  23.353  1.00  0.00     0.340 C 
ATOM      6  O   UNL A   1      34.178  25.184  22.459  1.00  0.00    -0.246 OA
BRANCH   5   7
ATOM      7  C   UNL A   1      34.100  23.505  24.106  1.00  0.00     0.084 A 
ATOM      8  C   UNL A   1      34.652  23.847  25.711  1.00  0.00     0.055 A 
ATOM      9  C   UNL A   1      34.350  22.739  27.104  1.00  0.00     0.028 A 
ATOM     10  C   UNL A   1      33.701  21.081  26.912  1.00  0.00     0.018 A 
ATOM     11  C   UNL A   1      33.485  21.871  23.743  1.00  0.00     0.033 A 
ATOM     12  C   UNL A   1      33.293  20.503  25.230  1.00  0.00     0.018 A 
ATOM     13  Br  UNL A   1      32.773  18.585  25.494  1.00  0.00    -0.051 Br
BRANCH   8  14
ATOM     14  N   UNL A   1      36.099  24.098  25.580  1.00  0.00    -0.332 N 
ATOM     15  H   UNL A   1      36.297  24.989  25.211  1.00  0.00     0.169 HD
BRANCH  14  16
ATOM     16  C   UNL A   1      37.245  23.370  25.854  1.00  0.00     0.177 C 
ATOM     17  S   UNL A   1      37.402  21.929  24.990  1.00  0.00    -0.040 S 
BRANCH  16  18
ATOM     18  N   UNL A   1      38.360  23.678  26.695  1.00  0.00    -0.299 N 
ATOM     19  C   UNL A   1      39.757  23.514  27.173  1.00  0.00     0.257 C 
ATOM     20  O   UNL A   1      40.194  24.181  28.103  1.00  0.00    -0.269 OA
ATOM     21  H   UNL A   1      38.010  24.391  27.275  1.00  0.00     0.172 HD
BRANCH  19  22
ATOM     22  C   UNL A   1      40.627  22.533  26.515  1.00  0.00     0.041 A 
ATOM     23  C   UNL A   1      43.759  20.788  25.517  1.00  0.00     0.133 A 
ATOM     24  C   UNL A   1      42.324  19.939  26.161  1.00  0.00     0.048 A 
ATOM     25  C   UNL A   1      43.682  22.597  25.320  1.00  0.00     0.060 A 
ATOM     26  C   UNL A   1      40.824  20.803  26.655  1.00  0.00     0.018 A 
ATOM     27  C   UNL A   1      41.920  23.431  25.834  1.00  0.00     0.033 A 
ATOM     28  Br  UNL A   1      45.415  23.217  24.583  1.00  0.00    -0.047 Br
BRANCH  23  29
ATOM     29  O   UNL A   1      44.886  20.060  25.281  1.00  0.00    -0.496 OA
ATOM     30  C   UNL A   1      44.643  19.174  24.188  1.00  0.00     0.278 C 
ENDBRANCH  23  29
ENDBRANCH  19  22
ENDBRANCH  16  18
ENDBRANCH  14  16
ENDBRANCH   8  14
ENDBRANCH   5   7
ENDBRANCH   4   5
ENDBRANCH   3   4
ENDBRANCH   2   3
ENDBRANCH   1   2
BRANCH   1  31
ATOM     31  C   UNL A   1      32.225  27.321  26.748  1.00  0.00     0.188 C 
BRANCH  31  32
ATOM     32  C   UNL A   1      32.673  28.796  26.838  1.00  0.00     0.188 C 
BRANCH  32  33
ATOM     33  O   UNL A   1      31.724  29.790  27.121  1.00  0.00    -0.376 OA
BRANCH  33  34
ATOM     34  C   UNL A   1      32.090  31.152  26.991  1.00  0.00     0.202 C 
BRANCH  34  35
ATOM     35  C   UNL A   1      33.376  31.781  27.575  1.00  0.00     0.261 C 
BRANCH  35  36
ATOM     36  O   UNL A   1      33.479  33.213  27.625  1.00  0.00    -0.460 OA
BRANCH  36  37
ATOM     37  C   UNL A   1      33.665  33.749  28.860  1.00  0.00     0.338 C 
ATOM     38  O   UNL A   1      32.860  34.391  29.511  1.00  0.00    -0.246 OA
BRANCH  37  39
ATOM     39  C   UNL A   1      34.947  33.277  29.427  1.00  0.00     0.060 A 
ATOM     40  C   UNL A   1      34.930  32.254  30.390  1.00  0.00     0.016 A 
ATOM     41  C   UNL A   1      36.148  33.888  29.076  1.00  0.00     0.016 A 
ATOM     42  C   UNL A   1      36.114  31.850  31.013  1.00  0.00     0.010 A 
ATOM     43  C   UNL A   1      37.329  33.503  29.724  1.00  0.00     0.010 A 
ATOM     44  C   UNL A   1      37.316  32.502  30.715  1.00  0.00    -0.014 A 
BRANCH  44  45
ATOM     45  C   UNL A   1      38.523  32.270  31.553  1.00  0.00     0.031 A 
ATOM     46  C   UNL A   1      39.604  31.364  31.024  1.00  0.00     0.074 A 
ATOM     47  C   UNL A   1      38.672  32.857  32.755  1.00  0.00     0.049 A 
ATOM     48  N   UNL A   1      40.687  30.924  31.614  1.00  0.00    -0.248 NA
ATOM     49  C   UNL A   1      39.439  30.891  29.640  1.00  0.00     0.031 C 
ATOM     50  C   UNL A   1      37.734  33.802  33.360  1.00  0.00     0.029 A 
ATOM     51  N   UNL A   1      39.669  32.727  33.694  1.00  0.00    -0.354 N 
ATOM     52  C   UNL A   1      41.328  30.122  30.677  1.00  0.00     0.074 A 
ATOM     53  C   UNL A   1      40.496  30.105  29.493  1.00  0.00     0.031 C 
ATOM     54  C   UNL A   1      38.191  34.151  34.576  1.00  0.00     0.029 A 
ATOM     55  C   UNL A   1      39.427  33.420  34.856  1.00  0.00     0.049 A 
ATOM     56  H   UNL A   1      40.480  32.188  33.547  1.00  0.00     0.167 HD
ATOM     57  C   UNL A   1      42.508  29.468  30.788  1.00  0.00     0.037 A 
ATOM     58  C   UNL A   1      40.107  33.431  36.021  1.00  0.00     0.037 A 
ATOM     59  C   UNL A   1      43.335  29.476  31.967  1.00  0.00     0.049 A 
ATOM     60  C   UNL A   1      41.361  32.597  36.155  1.00  0.00     0.074 A 
ATOM     61  C   UNL A   1      44.542  28.833  32.179  1.00  0.00     0.029 A 
ATOM     62  N   UNL A   1      43.038  30.164  33.134  1.00  0.00    -0.354 N 
ATOM     63  N   UNL A   1      41.964  31.849  35.264  1.00  0.00    -0.248 NA
ATOM     64  C   UNL A   1      42.032  32.615  37.464  1.00  0.00     0.031 C 
ATOM     65  C   UNL A   1      44.948  29.085  33.492  1.00  0.00     0.029 A 
ATOM     66  C   UNL A   1      44.031  29.942  34.076  1.00  0.00     0.049 A 
ATOM     67  H   UNL A   1      42.242  30.724  33.273  1.00  0.00     0.167 HD
ATOM     68  C   UNL A   1      43.103  31.351  35.887  1.00  0.00     0.074 A 
ATOM     69  C   UNL A   1      43.118  31.894  37.227  1.00  0.00     0.031 C 
ATOM     70  C   UNL A   1      44.053  30.515  35.396  1.00  0.00     0.037 A 
BRANCH  57  71
ATOM     71  C   UNL A   1      42.983  28.673  29.605  1.00  0.00     0.064 A 
ATOM     72  C   UNL A   1      43.717  29.268  28.568  1.00  0.00     0.173 A 
ATOM     73  C   UNL A   1      42.766  27.288  29.544  1.00  0.00     0.173 A 
ATOM     74  F   UNL A   1      43.943  30.590  28.574  1.00  0.00    -0.203 F 
ATOM     75  C   UNL A   1      44.203  28.508  27.507  1.00  0.00     0.198 A 
ATOM     76  C   UNL A   1      43.280  26.526  28.497  1.00  0.00     0.198 A 
ATOM     77  F   UNL A   1      42.075  26.668  30.512  1.00  0.00    -0.203 F 
ATOM     78  F   UNL A   1      44.871  29.104  26.510  1.00  0.00    -0.200 F 
ATOM     79  C   UNL A   1      43.994  27.137  27.478  1.00  0.00     0.200 A 
ATOM     80  F   UNL A   1      43.093  25.199  28.481  1.00  0.00    -0.200 F 
ATOM     81  F   UNL A   1      44.480  26.405  26.467  1.00  0.00    -0.200 F 
ENDBRANCH  57  71
BRANCH  58  82
ATOM     82  C   UNL A   1      39.616  34.224  37.184  1.00  0.00     0.064 A 
ATOM     83  C   UNL A   1      39.966  35.575  37.340  1.00  0.00     0.173 A 
ATOM     84  C   UNL A   1      38.866  33.629  38.209  1.00  0.00     0.173 A 
ATOM     85  F   UNL A   1      40.707  36.186  36.404  1.00  0.00    -0.203 F 
ATOM     86  C   UNL A   1      39.629  36.280  38.495  1.00  0.00     0.198 A 
ATOM     87  C   UNL A   1      38.493  34.347  39.344  1.00  0.00     0.198 A 
ATOM     88  F   UNL A   1      38.504  32.340  38.117  1.00  0.00    -0.203 F 
ATOM     89  F   UNL A   1      40.056  37.541  38.655  1.00  0.00    -0.200 F 
ATOM     90  C   UNL A   1      38.891  35.667  39.495  1.00  0.00     0.200 A 
ATOM     91  F   UNL A   1      37.769  33.753  40.302  1.00  0.00    -0.200 F 
ATOM     92  F   UNL A   1      38.581  36.339  40.611  1.00  0.00    -0.200 F 
ENDBRANCH  58  82
BRANCH  70  93
ATOM     93  C   UNL A   1      45.228  30.195  36.279  1.00  0.00     0.064 A 
ATOM     94  C   UNL A   1      45.234  29.087  37.139  1.00  0.00     0.173 A 
ATOM     95  C   UNL A   1      46.383  30.992  36.233  1.00  0.00     0.173 A 
ATOM     96  F   UNL A   1      44.153  28.298  37.232  1.00  0.00    -0.203 F 
ATOM     97  C   UNL A   1      46.337  28.810  37.944  1.00  0.00     0.198 A 
ATOM     98  C   UNL A   1      47.499  30.690  37.010  1.00  0.00     0.198 A 
ATOM     99  F   UNL A   1      46.438  32.058  35.420  1.00  0.00    -0.203 F 
ATOM    100  F   UNL A   1      46.296  27.781  38.801  1.00  0.00    -0.200 F 
ATOM    101  C   UNL A   1      47.470  29.606  37.873  1.00  0.00     0.200 A 
ATOM    102  F   UNL A   1      48.600  31.449  36.923  1.00  0.00    -0.200 F 
ATOM    103  F   UNL A   1      48.534  29.332  38.641  1.00  0.00    -0.200 F 
ENDBRANCH  70  93
ENDBRANCH  44  45
ENDBRANCH  37  39
ENDBRANCH  36  37
ENDBRANCH  35  36
ENDBRANCH  34  35
ENDBRANCH  33  34
ENDBRANCH  32  33
ENDBRANCH  31  32
ENDBRANCH   1  31
TORSDOF 22
ENDMDL
MODEL 3
REMARK VINA RESULT:     -10.0      5.337     10.933
REMARK SMILES COc1ccc(C(=O)NC(=S)Nc2ccc(Br)cc2C(=O)OCCOCCOCCOC(=O)c2ccc(-c3c4nc(c(-c5c(F)c(F)c(F)c(F)c5F)c5ccc([nH]5)c(-c5c(F)c(F)c(F)c(F)c5F)c5nc(c(-c6c(F)c(F)c(F)c(F)c6F)c6ccc3[nH]6)C=C5)C=C4)cc2)cc1Br
REMARK SMILES IDX 25 1 24 2 23 3 22 4 20 5 21 6 19 7 13 8 14 9 15 10 18 11
REMARK SMILES IDX 16 12 17 13 12 14 10 16 11 17 9 18 7 19 8 20 6 22 3 23 4 24
REMARK SMILES IDX 98 25 5 26 97 27 99 28 2 29 1 30 26 31 27 32 28 33 29 34
REMARK SMILES IDX 30 35 31 36 32 37 33 38 34 39 35 40 96 41 36 42 95 43 37 44
REMARK SMILES IDX 38 45 39 46 89 47 40 48 94 49 88 50 90 51 41 52 93 53 87 54
REMARK SMILES IDX 86 55 42 57 74 58 54 59 73 60 55 61 58 62 72 63 91 64 56 65
REMARK SMILES IDX 57 66 71 68 92 69 59 70 43 71 44 72 52 73 45 74 46 75 50 76
REMARK SMILES IDX 53 77 47 78 48 79 51 80 49 81 75 82 76 83 84 84 77 85 78 86
REMARK SMILES IDX 82 87 85 88 79 89 80 90 83 91 81 92 60 93 61 94 69 95 62 96
REMARK SMILES IDX 63 97 67 98 70 99 64 100 65 101 68 102 66 103
REMARK H PARENT 12 15 9 21 90 56 58 67
REMARK Flexibility Score: inf
ROOT
ATOM      1  O   UNL A   1      46.410  26.462  24.484  1.00  0.00    -0.376 OA
ENDROOT
BRANCH   1   2
ATOM      2  C   UNL A   1      45.708  27.505  25.139  1.00  0.00     0.202 C 
BRANCH   2   3
ATOM      3  C   UNL A   1      46.356  28.762  25.751  1.00  0.00     0.261 C 
BRANCH   3   4
ATOM      4  O   UNL A   1      45.908  29.164  27.055  1.00  0.00    -0.460 OA
BRANCH   4   5
ATOM      5  C   UNL A   1      45.407  30.416  27.109  1.00  0.00     0.340 C 
ATOM      6  O   UNL A   1      45.086  31.115  26.162  1.00  0.00    -0.246 OA
BRANCH   5   7
ATOM      7  C   UNL A   1      45.140  30.827  28.497  1.00  0.00     0.084 A 
ATOM      8  C   UNL A   1      46.451  31.590  29.331  1.00  0.00     0.055 A 
ATOM      9  C   UNL A   1      46.222  33.022  30.408  1.00  0.00     0.028 A 
ATOM     10  C   UNL A   1      44.611  33.610  30.923  1.00  0.00     0.018 A 
ATOM     11  C   UNL A   1      43.470  31.262  28.947  1.00  0.00     0.033 A 
ATOM     12  C   UNL A   1      43.134  32.740  30.298  1.00  0.00     0.018 A 
ATOM     13  Br  UNL A   1      41.612  33.630  31.253  1.00  0.00    -0.051 Br
BRANCH   8  14
ATOM     14  N   UNL A   1      47.120  30.509  30.078  1.00  0.00    -0.332 N 
ATOM     15  H   UNL A   1      46.651  30.280  30.913  1.00  0.00     0.169 HD
BRANCH  14  16
ATOM     16  C   UNL A   1      48.255  29.742  29.878  1.00  0.00     0.177 C 
ATOM     17  S   UNL A   1      49.270  29.600  31.218  1.00  0.00    -0.040 S 
BRANCH  16  18
ATOM     18  N   UNL A   1      48.672  28.982  28.739  1.00  0.00    -0.299 N 
ATOM     19  C   UNL A   1      49.375  27.858  28.070  1.00  0.00     0.257 C 
ATOM     20  O   UNL A   1      49.372  27.741  26.850  1.00  0.00    -0.269 OA
ATOM     21  H   UNL A   1      48.272  29.473  27.986  1.00  0.00     0.172 HD
BRANCH  19  22
ATOM     22  C   UNL A   1      50.086  26.870  28.889  1.00  0.00     0.041 A 
ATOM     23  C   UNL A   1      52.409  25.521  31.464  1.00  0.00     0.133 A 
ATOM     24  C   UNL A   1      50.696  25.029  31.333  1.00  0.00     0.048 A 
ATOM     25  C   UNL A   1      53.060  26.729  30.266  1.00  0.00     0.060 A 
ATOM     26  C   UNL A   1      49.583  25.706  30.091  1.00  0.00     0.018 A 
ATOM     27  C   UNL A   1      51.733  27.348  28.881  1.00  0.00     0.033 A 
ATOM     28  Br  UNL A   1      54.973  27.047  30.680  1.00  0.00    -0.047 Br
BRANCH  23  29
ATOM     29  O   UNL A   1      53.139  25.040  32.508  1.00  0.00    -0.496 OA
ATOM     30  C   UNL A   1      52.267  24.820  33.618  1.00  0.00     0.278 C 
ENDBRANCH  23  29
ENDBRANCH  19  22
ENDBRANCH  16  18
ENDBRANCH  14  16
ENDBRANCH   8  14
ENDBRANCH   5   7
ENDBRANCH   4   5
ENDBRANCH   3   4
ENDBRANCH   2   3
ENDBRANCH   1   2
BRANCH   1  31
ATOM     31  C   UNL A   1      47.203  25.551  25.209  1.00  0.00     0.188 C 
BRANCH  31  32
ATOM     32  C   UNL A   1      46.586  24.799  26.408  1.00  0.00     0.188 C 
BRANCH  32  33
ATOM     33  O   UNL A   1      46.722  23.405  26.493  1.00  0.00    -0.376 OA
BRANCH  33  34
ATOM     34  C   UNL A   1      45.820  22.577  25.782  1.00  0.00     0.202 C 
BRANCH  34  35
ATOM     35  C   UNL A   1      45.149  22.950  24.440  1.00  0.00     0.261 C 
BRANCH  35  36
ATOM     36  O   UNL A   1      44.051  23.877  24.454  1.00  0.00    -0.460 OA
BRANCH  36  37
ATOM     37  C   UNL A   1      42.927  23.451  25.088  1.00  0.00     0.338 C 
ATOM     38  O   UNL A   1      42.490  22.314  25.123  1.00  0.00    -0.246 OA
BRANCH  37  39
ATOM     39  C   UNL A   1      42.377  24.538  25.927  1.00  0.00     0.060 A 
ATOM     40  C   UNL A   1      43.020  25.787  25.930  1.00  0.00     0.016 A 
ATOM     41  C   UNL A   1      41.288  24.309  26.763  1.00  0.00     0.016 A 
ATOM     42  C   UNL A   1      42.582  26.805  26.781  1.00  0.00     0.010 A 
ATOM     43  C   UNL A   1      40.870  25.321  27.637  1.00  0.00     0.010 A 
ATOM     44  C   UNL A   1      41.529  26.565  27.672  1.00  0.00    -0.014 A 
BRANCH  44  45
ATOM     45  C   UNL A   1      41.229  27.536  28.758  1.00  0.00     0.031 A 
ATOM     46  C   UNL A   1      42.062  27.494  30.013  1.00  0.00     0.074 A 
ATOM     47  C   UNL A   1      40.249  28.450  28.636  1.00  0.00     0.049 A 
ATOM     48  N   UNL A   1      41.918  28.157  31.132  1.00  0.00    -0.248 NA
ATOM     49  C   UNL A   1      43.212  26.575  30.002  1.00  0.00     0.031 C 
ATOM     50  C   UNL A   1      39.410  28.642  27.455  1.00  0.00     0.029 A 
ATOM     51  N   UNL A   1      39.783  29.381  29.535  1.00  0.00    -0.354 N 
ATOM     52  C   UNL A   1      42.955  27.735  31.956  1.00  0.00     0.074 A 
ATOM     53  C   UNL A   1      43.698  26.732  31.224  1.00  0.00     0.031 C 
ATOM     54  C   UNL A   1      38.517  29.616  27.709  1.00  0.00     0.029 A 
ATOM     55  C   UNL A   1      38.691  30.085  29.083  1.00  0.00     0.049 A 
ATOM     56  H   UNL A   1      40.192  29.530  30.418  1.00  0.00     0.167 HD
ATOM     57  C   UNL A   1      43.267  28.154  33.206  1.00  0.00     0.037 A 
ATOM     58  C   UNL A   1      37.904  30.975  29.722  1.00  0.00     0.037 A 
ATOM     59  C   UNL A   1      42.526  29.147  33.940  1.00  0.00     0.049 A 
ATOM     60  C   UNL A   1      38.208  31.337  31.158  1.00  0.00     0.074 A 
ATOM     61  C   UNL A   1      42.758  29.627  35.217  1.00  0.00     0.029 A 
ATOM     62  N   UNL A   1      41.408  29.812  33.460  1.00  0.00    -0.354 N 
ATOM     63  N   UNL A   1      39.192  30.940  31.928  1.00  0.00    -0.248 NA
ATOM     64  C   UNL A   1      37.287  32.278  31.814  1.00  0.00     0.031 C 
ATOM     65  C   UNL A   1      41.749  30.541  35.532  1.00  0.00     0.029 A 
ATOM     66  C   UNL A   1      40.928  30.683  34.425  1.00  0.00     0.049 A 
ATOM     67  H   UNL A   1      41.014  29.683  32.568  1.00  0.00     0.167 HD
ATOM     68  C   UNL A   1      39.036  31.617  33.132  1.00  0.00     0.074 A 
ATOM     69  C   UNL A   1      37.872  32.463  32.988  1.00  0.00     0.031 C 
ATOM     70  C   UNL A   1      39.787  31.545  34.260  1.00  0.00     0.037 A 
BRANCH  57  71
ATOM     71  C   UNL A   1      44.462  27.536  33.874  1.00  0.00     0.064 A 
ATOM     72  C   UNL A   1      44.325  26.500  34.810  1.00  0.00     0.173 A 
ATOM     73  C   UNL A   1      45.761  27.933  33.521  1.00  0.00     0.173 A 
ATOM     74  F   UNL A   1      43.105  26.091  35.191  1.00  0.00    -0.203 F 
ATOM     75  C   UNL A   1      45.444  25.896  35.379  1.00  0.00     0.198 A 
ATOM     76  C   UNL A   1      46.877  27.305  34.067  1.00  0.00     0.198 A 
ATOM     77  F   UNL A   1      45.948  28.915  32.626  1.00  0.00    -0.203 F 
ATOM     78  F   UNL A   1      45.288  24.933  36.297  1.00  0.00    -0.200 F 
ATOM     79  C   UNL A   1      46.718  26.290  34.998  1.00  0.00     0.200 A 
ATOM     80  F   UNL A   1      48.107  27.675  33.684  1.00  0.00    -0.200 F 
ATOM     81  F   UNL A   1      47.793  25.693  35.530  1.00  0.00    -0.200 F 
ENDBRANCH  57  71
BRANCH  58  82
ATOM     82  C   UNL A   1      36.721  31.575  29.041  1.00  0.00     0.064 A 
ATOM     83  C   UNL A   1      36.688  32.939  28.712  1.00  0.00     0.173 A 
ATOM     84  C   UNL A   1      35.565  30.822  28.789  1.00  0.00     0.173 A 
ATOM     85  F   UNL A   1      37.756  33.712  28.958  1.00  0.00    -0.203 F 
ATOM     86  C   UNL A   1      35.533  33.533  28.206  1.00  0.00     0.198 A 
ATOM     87  C   UNL A   1      34.424  31.408  28.243  1.00  0.00     0.198 A 
ATOM     88  F   UNL A   1      35.535  29.514  29.085  1.00  0.00    -0.203 F 
ATOM     89  F   UNL A   1      35.504  34.855  27.987  1.00  0.00    -0.200 F 
ATOM     90  C   UNL A   1      34.402  32.767  27.970  1.00  0.00     0.200 A 
ATOM     91  F   UNL A   1      33.338  30.661  28.006  1.00  0.00    -0.200 F 
ATOM     92  F   UNL A   1      33.287  33.341  27.499  1.00  0.00    -0.200 F 
ENDBRANCH  58  82
BRANCH  70  93
ATOM     93  C   UNL A   1      39.426  32.455  35.402  1.00  0.00     0.064 A 
ATOM     94  C   UNL A   1      38.482  32.091  36.375  1.00  0.00     0.173 A 
ATOM     95  C   UNL A   1      40.064  33.698  35.544  1.00  0.00     0.173 A 
ATOM     96  F   UNL A   1      37.834  30.921  36.282  1.00  0.00    -0.203 F 
ATOM     97  C   UNL A   1      38.168  32.951  37.425  1.00  0.00     0.198 A 
ATOM     98  C   UNL A   1      39.776  34.537  36.616  1.00  0.00     0.198 A 
ATOM     99  F   UNL A   1      40.983  34.093  34.650  1.00  0.00    -0.203 F 
ATOM    100  F   UNL A   1      37.221  32.607  38.308  1.00  0.00    -0.200 F 
ATOM    101  C   UNL A   1      38.820  34.168  37.550  1.00  0.00     0.200 A 
ATOM    102  F   UNL A   1      40.423  35.704  36.746  1.00  0.00    -0.200 F 
ATOM    103  F   UNL A   1      38.523  34.989  38.567  1.00  0.00    -0.200 F 
ENDBRANCH  70  93
ENDBRANCH  44  45
ENDBRANCH  37  39
ENDBRANCH  36  37
ENDBRANCH  35  36
ENDBRANCH  34  35
ENDBRANCH  33  34
ENDBRANCH  32  33
ENDBRANCH  31  32
ENDBRANCH   1  31
TORSDOF 22
ENDMDL
