MODEL 1
REMARK VINA RESULT:     -11.5      0.000      0.000
REMARK SMILES C=C1c2ccccc2C(=O)N1[C@](C)(C(=O)OCCOCCOCCOC(=O)c1ccc(-c2c3nc(c(-c4c(F)c(F)c(F)c(F)c4F)c4ccc([nH]4)c(-c4c(F)c(F)c(F)c(F)c4F)c4nc(c(-c5c(F)c(F)c(F)c(F)c5F)c5ccc2[nH]5)C=C4)C=C3)cc1)C(F)(F)F
REMARK SMILES IDX 21 1 20 2 19 3 18 4 17 5 16 6 14 7 15 8 12 9 13 10 11 11
REMARK SMILES IDX 1 12 2 13 3 14 4 15 8 16 9 17 5 18 7 19 10 20 6 21 91 22
REMARK SMILES IDX 92 23 93 24 94 25 22 26 23 27 24 28 25 29 26 30 27 31 28 32
REMARK SMILES IDX 29 33 90 34 30 35 89 36 31 37 32 38 33 39 83 40 34 41 88 42
REMARK SMILES IDX 82 43 84 44 35 45 87 46 81 47 80 48 36 50 68 51 48 52 67 53
REMARK SMILES IDX 49 54 52 55 66 56 85 57 50 58 51 59 65 61 86 62 53 63 37 64
REMARK SMILES IDX 38 65 46 66 39 67 40 68 44 69 47 70 41 71 42 72 45 73 43 74
REMARK SMILES IDX 69 75 70 76 78 77 71 78 72 79 76 80 79 81 73 82 74 83 77 84
REMARK SMILES IDX 75 85 54 86 55 87 63 88 56 89 57 90 61 91 64 92 58 93 59 94
REMARK SMILES IDX 62 95 60 96
REMARK H PARENT 84 49 52 60
REMARK Flexibility Score: inf
ROOT
ATOM      1  C   UNL A   1      40.404  20.646  26.169  1.00  0.00     0.188 C 
ENDROOT
BRANCH   1   2
ATOM      2  C   UNL A   1      39.370  21.783  26.112  1.00  0.00     0.188 C 
BRANCH   2   3
ATOM      3  O   UNL A   1      38.088  21.516  25.564  1.00  0.00    -0.376 OA
BRANCH   3   4
ATOM      4  C   UNL A   1      37.044  22.466  25.757  1.00  0.00     0.202 C 
BRANCH   4   5
ATOM      5  C   UNL A   1      35.623  21.979  26.095  1.00  0.00     0.261 C 
BRANCH   5   6
ATOM      6  O   UNL A   1      34.555  22.796  25.569  1.00  0.00    -0.461 OA
BRANCH   6   7
ATOM      7  C   UNL A   1      33.302  22.561  26.043  1.00  0.00     0.341 C 
ATOM      8  O   UNL A   1      33.093  22.050  27.140  1.00  0.00    -0.249 OA
BRANCH   7   9
ATOM      9  C   UNL A   1      32.161  22.909  25.056  1.00  0.00     0.238 C 
ATOM     10  C   UNL A   1      30.692  22.858  25.543  1.00  0.00     0.058 C 
BRANCH   9  11
ATOM     11  N   UNL A   1      32.470  24.313  24.714  1.00  0.00    -0.283 N 
ATOM     12  C   UNL A   1      33.073  24.372  22.321  1.00  0.00     0.038 C 
ATOM     13  C   UNL A   1      32.903  24.898  23.535  1.00  0.00     0.046 C 
ATOM     14  C   UNL A   1      33.147  26.314  23.839  1.00  0.00     0.010 A 
ATOM     15  C   UNL A   1      33.652  27.364  23.095  1.00  0.00     0.011 A 
ATOM     16  C   UNL A   1      32.799  26.533  25.169  1.00  0.00     0.049 A 
ATOM     17  C   UNL A   1      32.352  25.269  25.734  1.00  0.00     0.260 C 
ATOM     18  C   UNL A   1      33.790  28.614  23.716  1.00  0.00     0.001 A 
ATOM     19  C   UNL A   1      32.916  27.751  25.809  1.00  0.00     0.014 A 
ATOM     20  O   UNL A   1      31.985  25.125  26.880  1.00  0.00    -0.269 OA
ATOM     21  C   UNL A   1      33.423  28.806  25.061  1.00  0.00     0.001 A 
ENDBRANCH   9  11
BRANCH   9  22
ATOM     22  C   UNL A   1      32.313  21.802  24.002  1.00  0.00     0.422 C 
ATOM     23  F   UNL A   1      31.515  22.034  22.923  1.00  0.00    -0.168 F 
ATOM     24  F   UNL A   1      33.577  21.766  23.503  1.00  0.00    -0.168 F 
ATOM     25  F   UNL A   1      32.017  20.557  24.426  1.00  0.00    -0.168 F 
ENDBRANCH   9  22
ENDBRANCH   7   9
ENDBRANCH   6   7
ENDBRANCH   5   6
ENDBRANCH   4   5
ENDBRANCH   3   4
ENDBRANCH   2   3
ENDBRANCH   1   2
BRANCH   1  26
ATOM     26  O   UNL A   1      41.309  20.704  27.237  1.00  0.00    -0.376 OA
BRANCH  26  27
ATOM     27  C   UNL A   1      42.653  21.060  26.989  1.00  0.00     0.202 C 
BRANCH  27  28
ATOM     28  C   UNL A   1      43.163  21.564  25.622  1.00  0.00     0.261 C 
BRANCH  28  29
ATOM     29  O   UNL A   1      42.631  22.791  25.100  1.00  0.00    -0.460 OA
BRANCH  29  30
ATOM     30  C   UNL A   1      43.438  23.881  25.112  1.00  0.00     0.338 C 
ATOM     31  O   UNL A   1      44.375  24.106  24.368  1.00  0.00    -0.246 OA
BRANCH  30  32
ATOM     32  C   UNL A   1      42.839  24.882  26.030  1.00  0.00     0.060 A 
ATOM     33  C   UNL A   1      43.401  26.167  26.104  1.00  0.00     0.016 A 
ATOM     34  C   UNL A   1      41.720  24.564  26.801  1.00  0.00     0.016 A 
ATOM     35  C   UNL A   1      42.861  27.126  26.965  1.00  0.00     0.010 A 
ATOM     36  C   UNL A   1      41.200  25.516  27.685  1.00  0.00     0.010 A 
ATOM     37  C   UNL A   1      41.784  26.793  27.794  1.00  0.00    -0.014 A 
BRANCH  37  38
ATOM     38  C   UNL A   1      41.392  27.689  28.913  1.00  0.00     0.031 A 
ATOM     39  C   UNL A   1      42.167  27.602  30.200  1.00  0.00     0.074 A 
ATOM     40  C   UNL A   1      40.375  28.563  28.805  1.00  0.00     0.049 A 
ATOM     41  N   UNL A   1      41.958  28.199  31.346  1.00  0.00    -0.248 NA
ATOM     42  C   UNL A   1      43.339  26.712  30.190  1.00  0.00     0.031 C 
ATOM     43  C   UNL A   1      39.579  28.794  27.604  1.00  0.00     0.029 A 
ATOM     44  N   UNL A   1      39.830  29.411  29.741  1.00  0.00    -0.354 N 
ATOM     45  C   UNL A   1      42.963  27.750  32.193  1.00  0.00     0.074 A 
ATOM     46  C   UNL A   1      43.763  26.809  31.440  1.00  0.00     0.031 C 
ATOM     47  C   UNL A   1      38.630  29.707  27.880  1.00  0.00     0.029 A 
ATOM     48  C   UNL A   1      38.728  30.096  29.287  1.00  0.00     0.049 A 
ATOM     49  H   UNL A   1      40.194  29.518  30.649  1.00  0.00     0.167 HD
ATOM     50  C   UNL A   1      43.200  28.093  33.481  1.00  0.00     0.037 A 
ATOM     51  C   UNL A   1      37.881  30.914  29.944  1.00  0.00     0.037 A 
ATOM     52  C   UNL A   1      42.401  29.023  34.235  1.00  0.00     0.049 A 
ATOM     53  C   UNL A   1      38.108  31.206  31.409  1.00  0.00     0.074 A 
ATOM     54  C   UNL A   1      42.571  29.444  35.542  1.00  0.00     0.029 A 
ATOM     55  N   UNL A   1      41.271  29.668  33.752  1.00  0.00    -0.354 N 
ATOM     56  N   UNL A   1      39.070  30.795  32.200  1.00  0.00    -0.248 NA
ATOM     57  C   UNL A   1      37.127  32.079  32.072  1.00  0.00     0.031 C 
ATOM     58  C   UNL A   1      41.508  30.290  35.871  1.00  0.00     0.029 A 
ATOM     59  C   UNL A   1      40.716  30.456  34.747  1.00  0.00     0.049 A 
ATOM     60  H   UNL A   1      40.917  29.577  32.837  1.00  0.00     0.167 HD
ATOM     61  C   UNL A   1      38.831  31.386  33.436  1.00  0.00     0.074 A 
ATOM     62  C   UNL A   1      37.641  32.195  33.288  1.00  0.00     0.031 C 
ATOM     63  C   UNL A   1      39.536  31.269  34.589  1.00  0.00     0.037 A 
BRANCH  50  64
ATOM     64  C   UNL A   1      44.356  27.429  34.173  1.00  0.00     0.064 A 
ATOM     65  C   UNL A   1      45.638  28.001  34.191  1.00  0.00     0.173 A 
ATOM     66  C   UNL A   1      44.171  26.215  34.853  1.00  0.00     0.173 A 
ATOM     67  F   UNL A   1      45.872  29.153  33.545  1.00  0.00    -0.203 F 
ATOM     68  C   UNL A   1      46.695  27.368  34.838  1.00  0.00     0.198 A 
ATOM     69  C   UNL A   1      45.222  25.603  35.528  1.00  0.00     0.198 A 
ATOM     70  F   UNL A   1      42.965  25.627  34.871  1.00  0.00    -0.203 F 
ATOM     71  F   UNL A   1      47.922  27.905  34.797  1.00  0.00    -0.200 F 
ATOM     72  C   UNL A   1      46.485  26.175  35.513  1.00  0.00     0.200 A 
ATOM     73  F   UNL A   1      45.014  24.458  36.193  1.00  0.00    -0.200 F 
ATOM     74  F   UNL A   1      47.503  25.571  36.143  1.00  0.00    -0.200 F 
ENDBRANCH  50  64
BRANCH  51  75
ATOM     75  C   UNL A   1      36.713  31.508  29.235  1.00  0.00     0.064 A 
ATOM     76  C   UNL A   1      36.666  32.877  28.940  1.00  0.00     0.173 A 
ATOM     77  C   UNL A   1      35.602  30.728  28.881  1.00  0.00     0.173 A 
ATOM     78  F   UNL A   1      37.688  33.674  29.288  1.00  0.00    -0.203 F 
ATOM     79  C   UNL A   1      35.544  33.447  28.340  1.00  0.00     0.198 A 
ATOM     80  C   UNL A   1      34.495  31.293  28.251  1.00  0.00     0.198 A 
ATOM     81  F   UNL A   1      35.589  29.414  29.151  1.00  0.00    -0.203 F 
ATOM     82  F   UNL A   1      35.501  34.770  28.126  1.00  0.00    -0.200 F 
ATOM     83  C   UNL A   1      34.462  32.653  27.991  1.00  0.00     0.200 A 
ATOM     84  F   UNL A   1      33.455  30.520  27.909  1.00  0.00    -0.200 F 
ATOM     85  F   UNL A   1      33.382  33.203  27.417  1.00  0.00    -0.200 F 
ENDBRANCH  51  75
BRANCH  63  86
ATOM     86  C   UNL A   1      39.075  32.071  35.776  1.00  0.00     0.064 A 
ATOM     87  C   UNL A   1      38.233  31.529  36.758  1.00  0.00     0.173 A 
ATOM     88  C   UNL A   1      39.521  33.391  35.955  1.00  0.00     0.173 A 
ATOM     89  F   UNL A   1      37.766  30.278  36.632  1.00  0.00    -0.203 F 
ATOM     90  C   UNL A   1      37.832  32.286  37.857  1.00  0.00     0.198 A 
ATOM     91  C   UNL A   1      39.148  34.132  37.074  1.00  0.00     0.198 A 
ATOM     92  F   UNL A   1      40.337  33.958  35.053  1.00  0.00    -0.203 F 
ATOM     93  F   UNL A   1      36.984  31.764  38.755  1.00  0.00    -0.200 F 
ATOM     94  C   UNL A   1      38.297  33.583  38.019  1.00  0.00     0.200 A 
ATOM     95  F   UNL A   1      39.615  35.378  37.237  1.00  0.00    -0.200 F 
ATOM     96  F   UNL A   1      37.919  34.305  39.082  1.00  0.00    -0.200 F 
ENDBRANCH  63  86
ENDBRANCH  37  38
ENDBRANCH  30  32
ENDBRANCH  29  30
ENDBRANCH  28  29
ENDBRANCH  27  28
ENDBRANCH  26  27
ENDBRANCH   1  26
TORSDOF 19
ENDMDL
MODEL 2
REMARK VINA RESULT:     -11.4      2.828      8.081
REMARK SMILES C=C1c2ccccc2C(=O)N1[C@](C)(C(=O)OCCOCCOCCOC(=O)c1ccc(-c2c3nc(c(-c4c(F)c(F)c(F)c(F)c4F)c4ccc([nH]4)c(-c4c(F)c(F)c(F)c(F)c4F)c4nc(c(-c5c(F)c(F)c(F)c(F)c5F)c5ccc2[nH]5)C=C4)C=C3)cc1)C(F)(F)F
REMARK SMILES IDX 21 1 20 2 19 3 18 4 17 5 16 6 14 7 15 8 12 9 13 10 11 11
REMARK SMILES IDX 1 12 2 13 3 14 4 15 8 16 9 17 5 18 7 19 10 20 6 21 91 22
REMARK SMILES IDX 92 23 93 24 94 25 22 26 23 27 24 28 25 29 26 30 27 31 28 32
REMARK SMILES IDX 29 33 90 34 30 35 89 36 31 37 32 38 33 39 83 40 34 41 88 42
REMARK SMILES IDX 82 43 84 44 35 45 87 46 81 47 80 48 36 50 68 51 48 52 67 53
REMARK SMILES IDX 49 54 52 55 66 56 85 57 50 58 51 59 65 61 86 62 53 63 37 64
REMARK SMILES IDX 38 65 46 66 39 67 40 68 44 69 47 70 41 71 42 72 45 73 43 74
REMARK SMILES IDX 69 75 70 76 78 77 71 78 72 79 76 80 79 81 73 82 74 83 77 84
REMARK SMILES IDX 75 85 54 86 55 87 63 88 56 89 57 90 61 91 64 92 58 93 59 94
REMARK SMILES IDX 62 95 60 96
REMARK H PARENT 84 49 52 60
REMARK Flexibility Score: inf
ROOT
ATOM      1  C   UNL A   1      30.654  27.518  24.163  1.00  0.00     0.188 C 
ENDROOT
BRANCH   1   2
ATOM      2  C   UNL A   1      30.216  27.330  22.702  1.00  0.00     0.188 C 
BRANCH   2   3
ATOM      3  O   UNL A   1      31.207  27.089  21.714  1.00  0.00    -0.376 OA
BRANCH   3   4
ATOM      4  C   UNL A   1      32.501  26.662  22.128  1.00  0.00     0.202 C 
BRANCH   4   5
ATOM      5  C   UNL A   1      32.901  25.182  21.973  1.00  0.00     0.261 C 
BRANCH   5   6
ATOM      6  O   UNL A   1      32.803  24.393  23.178  1.00  0.00    -0.461 OA
BRANCH   6   7
ATOM      7  C   UNL A   1      33.816  23.521  23.434  1.00  0.00     0.341 C 
ATOM      8  O   UNL A   1      34.520  23.045  22.547  1.00  0.00    -0.249 OA
BRANCH   7   9
ATOM      9  C   UNL A   1      33.957  23.111  24.919  1.00  0.00     0.238 C 
ATOM     10  C   UNL A   1      32.811  23.433  25.911  1.00  0.00     0.058 C 
BRANCH   9  11
ATOM     11  N   UNL A   1      34.063  21.640  24.821  1.00  0.00    -0.283 N 
ATOM     12  C   UNL A   1      36.414  21.040  25.275  1.00  0.00     0.038 C 
ATOM     13  C   UNL A   1      35.149  20.787  24.937  1.00  0.00     0.046 C 
ATOM     14  C   UNL A   1      34.653  19.440  24.628  1.00  0.00     0.010 A 
ATOM     15  C   UNL A   1      35.275  18.211  24.510  1.00  0.00     0.011 A 
ATOM     16  C   UNL A   1      33.284  19.529  24.396  1.00  0.00     0.049 A 
ATOM     17  C   UNL A   1      32.892  20.925  24.530  1.00  0.00     0.260 C 
ATOM     18  C   UNL A   1      34.494  17.100  24.161  1.00  0.00     0.001 A 
ATOM     19  C   UNL A   1      32.484  18.456  24.056  1.00  0.00     0.014 A 
ATOM     20  O   UNL A   1      31.761  21.334  24.381  1.00  0.00    -0.269 OA
ATOM     21  C   UNL A   1      33.110  17.221  23.937  1.00  0.00     0.001 A 
ENDBRANCH   9  11
BRANCH   9  22
ATOM     22  C   UNL A   1      35.167  23.948  25.360  1.00  0.00     0.422 C 
ATOM     23  F   UNL A   1      34.827  25.255  25.532  1.00  0.00    -0.168 F 
ATOM     24  F   UNL A   1      35.632  23.544  26.572  1.00  0.00    -0.168 F 
ATOM     25  F   UNL A   1      36.213  23.942  24.511  1.00  0.00    -0.168 F 
ENDBRANCH   9  22
ENDBRANCH   7   9
ENDBRANCH   6   7
ENDBRANCH   5   6
ENDBRANCH   4   5
ENDBRANCH   3   4
ENDBRANCH   2   3
ENDBRANCH   1   2
BRANCH   1  26
ATOM     26  O   UNL A   1      30.714  28.845  24.612  1.00  0.00    -0.376 OA
BRANCH  26  27
ATOM     27  C   UNL A   1      31.893  29.594  24.404  1.00  0.00     0.202 C 
BRANCH  27  28
ATOM     28  C   UNL A   1      33.010  29.737  25.460  1.00  0.00     0.261 C 
BRANCH  28  29
ATOM     29  O   UNL A   1      32.663  30.221  26.766  1.00  0.00    -0.460 OA
BRANCH  29  30
ATOM     30  C   UNL A   1      33.212  31.393  27.167  1.00  0.00     0.338 C 
ATOM     31  O   UNL A   1      32.661  32.477  27.233  1.00  0.00    -0.246 OA
BRANCH  30  32
ATOM     32  C   UNL A   1      34.544  31.095  27.754  1.00  0.00     0.060 A 
ATOM     33  C   UNL A   1      34.857  29.772  28.105  1.00  0.00     0.016 A 
ATOM     34  C   UNL A   1      35.485  32.109  27.941  1.00  0.00     0.016 A 
ATOM     35  C   UNL A   1      36.100  29.465  28.666  1.00  0.00     0.010 A 
ATOM     36  C   UNL A   1      36.717  31.804  28.530  1.00  0.00     0.010 A 
ATOM     37  C   UNL A   1      37.022  30.486  28.923  1.00  0.00    -0.014 A 
BRANCH  37  38
ATOM     38  C   UNL A   1      38.209  30.228  29.778  1.00  0.00     0.031 A 
ATOM     39  C   UNL A   1      39.280  29.312  29.252  1.00  0.00     0.074 A 
ATOM     40  C   UNL A   1      38.347  30.786  30.995  1.00  0.00     0.049 A 
ATOM     41  N   UNL A   1      40.354  28.852  29.843  1.00  0.00    -0.248 NA
ATOM     42  C   UNL A   1      39.110  28.846  27.866  1.00  0.00     0.031 C 
ATOM     43  C   UNL A   1      37.419  31.734  31.604  1.00  0.00     0.029 A 
ATOM     44  N   UNL A   1      39.327  30.612  31.945  1.00  0.00    -0.354 N 
ATOM     45  C   UNL A   1      40.979  28.038  28.907  1.00  0.00     0.074 A 
ATOM     46  C   UNL A   1      40.151  28.042  27.721  1.00  0.00     0.031 C 
ATOM     47  C   UNL A   1      37.862  32.044  32.836  1.00  0.00     0.029 A 
ATOM     48  C   UNL A   1      39.081  31.286  33.117  1.00  0.00     0.049 A 
ATOM     49  H   UNL A   1      40.128  30.059  31.799  1.00  0.00     0.167 HD
ATOM     50  C   UNL A   1      42.141  27.352  29.023  1.00  0.00     0.037 A 
ATOM     51  C   UNL A   1      39.748  31.265  34.289  1.00  0.00     0.037 A 
ATOM     52  C   UNL A   1      42.963  27.340  30.204  1.00  0.00     0.049 A 
ATOM     53  C   UNL A   1      40.989  30.414  34.428  1.00  0.00     0.074 A 
ATOM     54  C   UNL A   1      44.164  26.685  30.413  1.00  0.00     0.029 A 
ATOM     55  N   UNL A   1      42.662  28.006  31.384  1.00  0.00    -0.354 N 
ATOM     56  N   UNL A   1      41.587  29.663  33.534  1.00  0.00    -0.248 NA
ATOM     57  C   UNL A   1      41.648  30.410  35.743  1.00  0.00     0.031 C 
ATOM     58  C   UNL A   1      44.555  26.900  31.737  1.00  0.00     0.029 A 
ATOM     59  C   UNL A   1      43.637  27.748  32.334  1.00  0.00     0.049 A 
ATOM     60  H   UNL A   1      41.871  28.576  31.525  1.00  0.00     0.167 HD
ATOM     61  C   UNL A   1      42.706  29.130  34.166  1.00  0.00     0.074 A 
ATOM     62  C   UNL A   1      42.712  29.655  35.515  1.00  0.00     0.031 C 
ATOM     63  C   UNL A   1      43.643  28.284  33.672  1.00  0.00     0.037 A 
BRANCH  50  64
ATOM     64  C   UNL A   1      42.576  26.524  27.849  1.00  0.00     0.064 A 
ATOM     65  C   UNL A   1      43.449  27.025  26.870  1.00  0.00     0.173 A 
ATOM     66  C   UNL A   1      42.136  25.198  27.716  1.00  0.00     0.173 A 
ATOM     67  F   UNL A   1      43.888  28.291  26.941  1.00  0.00    -0.203 F 
ATOM     68  C   UNL A   1      43.840  26.241  25.789  1.00  0.00     0.198 A 
ATOM     69  C   UNL A   1      42.557  24.404  26.653  1.00  0.00     0.198 A 
ATOM     70  F   UNL A   1      41.305  24.667  28.625  1.00  0.00    -0.203 F 
ATOM     71  F   UNL A   1      44.630  26.757  24.838  1.00  0.00    -0.200 F 
ATOM     72  C   UNL A   1      43.401  24.929  25.685  1.00  0.00     0.200 A 
ATOM     73  F   UNL A   1      42.144  23.133  26.562  1.00  0.00    -0.200 F 
ATOM     74  F   UNL A   1      43.785  24.171  24.648  1.00  0.00    -0.200 F 
ENDBRANCH  50  64
BRANCH  51  75
ATOM     75  C   UNL A   1      39.251  32.057  35.448  1.00  0.00     0.064 A 
ATOM     76  C   UNL A   1      39.624  33.397  35.622  1.00  0.00     0.173 A 
ATOM     77  C   UNL A   1      38.432  31.478  36.429  1.00  0.00     0.173 A 
ATOM     78  F   UNL A   1      40.434  33.989  34.731  1.00  0.00    -0.203 F 
ATOM     79  C   UNL A   1      39.217  34.119  36.743  1.00  0.00     0.198 A 
ATOM     80  C   UNL A   1      37.998  32.211  37.532  1.00  0.00     0.198 A 
ATOM     81  F   UNL A   1      38.054  30.196  36.318  1.00  0.00    -0.203 F 
ATOM     82  F   UNL A   1      39.640  35.379  36.915  1.00  0.00    -0.200 F 
ATOM     83  C   UNL A   1      38.399  33.527  37.694  1.00  0.00     0.200 A 
ATOM     84  F   UNL A   1      37.202  31.637  38.443  1.00  0.00    -0.200 F 
ATOM     85  F   UNL A   1      38.011  34.221  38.773  1.00  0.00    -0.200 F 
ENDBRANCH  51  75
BRANCH  63  86
ATOM     86  C   UNL A   1      44.788  27.905  34.572  1.00  0.00     0.064 A 
ATOM     87  C   UNL A   1      44.751  26.762  35.383  1.00  0.00     0.173 A 
ATOM     88  C   UNL A   1      45.962  28.677  34.587  1.00  0.00     0.173 A 
ATOM     89  F   UNL A   1      43.651  25.995  35.418  1.00  0.00    -0.203 F 
ATOM     90  C   UNL A   1      45.830  26.422  36.196  1.00  0.00     0.198 A 
ATOM     91  C   UNL A   1      47.053  28.314  35.373  1.00  0.00     0.198 A 
ATOM     92  F   UNL A   1      46.060  29.776  33.824  1.00  0.00    -0.203 F 
ATOM     93  F   UNL A   1      45.750  25.354  37.003  1.00  0.00    -0.200 F 
ATOM     94  C   UNL A   1      46.983  27.193  36.184  1.00  0.00     0.200 A 
ATOM     95  F   UNL A   1      48.173  29.051  35.344  1.00  0.00    -0.200 F 
ATOM     96  F   UNL A   1      48.024  26.858  36.958  1.00  0.00    -0.200 F 
ENDBRANCH  63  86
ENDBRANCH  37  38
ENDBRANCH  30  32
ENDBRANCH  29  30
ENDBRANCH  28  29
ENDBRANCH  27  28
ENDBRANCH  26  27
ENDBRANCH   1  26
TORSDOF 19
ENDMDL
MODEL 3
REMARK VINA RESULT:     -11.4      2.919      8.304
REMARK SMILES C=C1c2ccccc2C(=O)N1[C@](C)(C(=O)OCCOCCOCCOC(=O)c1ccc(-c2c3nc(c(-c4c(F)c(F)c(F)c(F)c4F)c4ccc([nH]4)c(-c4c(F)c(F)c(F)c(F)c4F)c4nc(c(-c5c(F)c(F)c(F)c(F)c5F)c5ccc2[nH]5)C=C4)C=C3)cc1)C(F)(F)F
REMARK SMILES IDX 21 1 20 2 19 3 18 4 17 5 16 6 14 7 15 8 12 9 13 10 11 11
REMARK SMILES IDX 1 12 2 13 3 14 4 15 8 16 9 17 5 18 7 19 10 20 6 21 91 22
REMARK SMILES IDX 92 23 93 24 94 25 22 26 23 27 24 28 25 29 26 30 27 31 28 32
REMARK SMILES IDX 29 33 90 34 30 35 89 36 31 37 32 38 33 39 83 40 34 41 88 42
REMARK SMILES IDX 82 43 84 44 35 45 87 46 81 47 80 48 36 50 68 51 48 52 67 53
REMARK SMILES IDX 49 54 52 55 66 56 85 57 50 58 51 59 65 61 86 62 53 63 37 64
REMARK SMILES IDX 38 65 46 66 39 67 40 68 44 69 47 70 41 71 42 72 45 73 43 74
REMARK SMILES IDX 69 75 70 76 78 77 71 78 72 79 76 80 79 81 73 82 74 83 77 84
REMARK SMILES IDX 75 85 54 86 55 87 63 88 56 89 57 90 61 91 64 92 58 93 59 94
REMARK SMILES IDX 62 95 60 96
REMARK H PARENT 84 49 52 60
REMARK Flexibility Score: inf
ROOT
ATOM      1  C   UNL A   1      31.334  28.325  23.134  1.00  0.00     0.188 C 
ENDROOT
BRANCH   1   2
ATOM      2  C   UNL A   1      31.770  26.980  23.738  1.00  0.00     0.188 C 
BRANCH   2   3
ATOM      3  O   UNL A   1      33.077  26.498  23.465  1.00  0.00    -0.376 OA
BRANCH   3   4
ATOM      4  C   UNL A   1      33.267  25.602  22.374  1.00  0.00     0.202 C 
BRANCH   4   5
ATOM      5  C   UNL A   1      32.689  24.176  22.450  1.00  0.00     0.261 C 
BRANCH   5   6
ATOM      6  O   UNL A   1      33.287  23.325  23.451  1.00  0.00    -0.461 OA
BRANCH   6   7
ATOM      7  C   UNL A   1      32.709  23.311  24.681  1.00  0.00     0.341 C 
ATOM      8  O   UNL A   1      31.581  23.752  24.889  1.00  0.00    -0.249 OA
BRANCH   7   9
ATOM      9  C   UNL A   1      33.615  22.776  25.817  1.00  0.00     0.238 C 
ATOM     10  C   UNL A   1      33.094  22.786  27.275  1.00  0.00     0.058 C 
BRANCH   9  11
ATOM     11  N   UNL A   1      33.802  21.366  25.419  1.00  0.00    -0.283 N 
ATOM     12  C   UNL A   1      36.233  20.945  25.325  1.00  0.00     0.038 C 
ATOM     13  C   UNL A   1      34.948  20.624  25.173  1.00  0.00     0.046 C 
ATOM     14  C   UNL A   1      34.497  19.309  24.702  1.00  0.00     0.010 A 
ATOM     15  C   UNL A   1      35.169  18.192  24.241  1.00  0.00     0.011 A 
ATOM     16  C   UNL A   1      33.105  19.294  24.737  1.00  0.00     0.049 A 
ATOM     17  C   UNL A   1      32.651  20.594  25.206  1.00  0.00     0.260 C 
ATOM     18  C   UNL A   1      34.414  17.085  23.826  1.00  0.00     0.001 A 
ATOM     19  C   UNL A   1      32.332  18.219  24.343  1.00  0.00     0.014 A 
ATOM     20  O   UNL A   1      31.486  20.902  25.340  1.00  0.00    -0.269 OA
ATOM     21  C   UNL A   1      33.008  17.098  23.879  1.00  0.00     0.001 A 
ENDBRANCH   9  11
BRANCH   9  22
ATOM     22  C   UNL A   1      34.793  23.761  25.765  1.00  0.00     0.422 C 
ATOM     23  F   UNL A   1      35.416  23.722  24.555  1.00  0.00    -0.168 F 
ATOM     24  F   UNL A   1      34.369  25.045  25.901  1.00  0.00    -0.168 F 
ATOM     25  F   UNL A   1      35.754  23.559  26.688  1.00  0.00    -0.168 F 
ENDBRANCH   9  22
ENDBRANCH   7   9
ENDBRANCH   6   7
ENDBRANCH   5   6
ENDBRANCH   4   5
ENDBRANCH   3   4
ENDBRANCH   2   3
ENDBRANCH   1   2
BRANCH   1  26
ATOM     26  O   UNL A   1      30.947  29.306  24.057  1.00  0.00    -0.376 OA
BRANCH  26  27
ATOM     27  C   UNL A   1      31.610  29.390  25.300  1.00  0.00     0.202 C 
BRANCH  27  28
ATOM     28  C   UNL A   1      31.832  30.713  26.062  1.00  0.00     0.261 C 
BRANCH  28  29
ATOM     29  O   UNL A   1      32.709  30.713  27.199  1.00  0.00    -0.460 OA
BRANCH  29  30
ATOM     30  C   UNL A   1      33.428  31.838  27.437  1.00  0.00     0.338 C 
ATOM     31  O   UNL A   1      33.026  32.986  27.401  1.00  0.00    -0.246 OA
BRANCH  30  32
ATOM     32  C   UNL A   1      34.742  31.428  27.995  1.00  0.00     0.060 A 
ATOM     33  C   UNL A   1      34.923  30.102  28.419  1.00  0.00     0.016 A 
ATOM     34  C   UNL A   1      35.795  32.340  28.085  1.00  0.00     0.016 A 
ATOM     35  C   UNL A   1      36.147  29.692  28.956  1.00  0.00     0.010 A 
ATOM     36  C   UNL A   1      37.010  31.935  28.650  1.00  0.00     0.010 A 
ATOM     37  C   UNL A   1      37.184  30.617  29.115  1.00  0.00    -0.014 A 
BRANCH  37  38
ATOM     38  C   UNL A   1      38.371  30.280  29.944  1.00  0.00     0.031 A 
ATOM     39  C   UNL A   1      39.376  29.310  29.386  1.00  0.00     0.074 A 
ATOM     40  C   UNL A   1      38.564  30.813  31.164  1.00  0.00     0.049 A 
ATOM     41  N   UNL A   1      40.433  28.781  29.950  1.00  0.00    -0.248 NA
ATOM     42  C   UNL A   1      39.153  28.872  27.999  1.00  0.00     0.031 C 
ATOM     43  C   UNL A   1      37.705  31.805  31.802  1.00  0.00     0.029 A 
ATOM     44  N   UNL A   1      39.550  30.571  32.093  1.00  0.00    -0.354 N 
ATOM     45  C   UNL A   1      40.992  27.944  28.993  1.00  0.00     0.074 A 
ATOM     46  C   UNL A   1      40.142  28.012  27.823  1.00  0.00     0.031 C 
ATOM     47  C   UNL A   1      38.188  32.073  33.029  1.00  0.00     0.029 A 
ATOM     48  C   UNL A   1      39.366  31.243  33.277  1.00  0.00     0.049 A 
ATOM     49  H   UNL A   1      40.314  29.974  31.925  1.00  0.00     0.167 HD
ATOM     50  C   UNL A   1      42.114  27.191  29.078  1.00  0.00     0.037 A 
ATOM     51  C   UNL A   1      40.053  31.168  34.435  1.00  0.00     0.037 A 
ATOM     52  C   UNL A   1      42.955  27.116  30.243  1.00  0.00     0.049 A 
ATOM     53  C   UNL A   1      41.244  30.244  34.540  1.00  0.00     0.074 A 
ATOM     54  C   UNL A   1      44.120  26.390  30.420  1.00  0.00     0.029 A 
ATOM     55  N   UNL A   1      42.716  27.782  31.436  1.00  0.00    -0.354 N 
ATOM     56  N   UNL A   1      41.781  29.471  33.626  1.00  0.00    -0.248 NA
ATOM     57  C   UNL A   1      41.926  30.186  35.842  1.00  0.00     0.031 C 
ATOM     58  C   UNL A   1      44.548  26.564  31.739  1.00  0.00     0.029 A 
ATOM     59  C   UNL A   1      43.692  27.457  32.363  1.00  0.00     0.049 A 
ATOM     60  H   UNL A   1      41.963  28.396  31.599  1.00  0.00     0.167 HD
ATOM     61  C   UNL A   1      42.878  28.867  34.230  1.00  0.00     0.074 A 
ATOM     62  C   UNL A   1      42.940  29.373  35.584  1.00  0.00     0.031 C 
ATOM     63  C   UNL A   1      43.755  27.974  33.707  1.00  0.00     0.037 A 
BRANCH  50  64
ATOM     64  C   UNL A   1      42.477  26.353  27.886  1.00  0.00     0.064 A 
ATOM     65  C   UNL A   1      41.889  25.100  27.653  1.00  0.00     0.173 A 
ATOM     66  C   UNL A   1      43.407  26.825  26.947  1.00  0.00     0.173 A 
ATOM     67  F   UNL A   1      41.005  24.595  28.527  1.00  0.00    -0.203 F 
ATOM     68  C   UNL A   1      42.241  24.339  26.541  1.00  0.00     0.198 A 
ATOM     69  C   UNL A   1      43.730  26.078  25.818  1.00  0.00     0.198 A 
ATOM     70  F   UNL A   1      43.996  28.018  27.118  1.00  0.00    -0.203 F 
ATOM     71  F   UNL A   1      41.707  23.123  26.367  1.00  0.00    -0.200 F 
ATOM     72  C   UNL A   1      43.154  24.832  25.620  1.00  0.00     0.200 A 
ATOM     73  F   UNL A   1      44.601  26.562  24.922  1.00  0.00    -0.200 F 
ATOM     74  F   UNL A   1      43.485  24.102  24.545  1.00  0.00    -0.200 F 
ENDBRANCH  50  64
BRANCH  51  75
ATOM     75  C   UNL A   1      39.624  31.973  35.613  1.00  0.00     0.064 A 
ATOM     76  C   UNL A   1      38.626  31.511  36.481  1.00  0.00     0.173 A 
ATOM     77  C   UNL A   1      40.170  33.241  35.866  1.00  0.00     0.173 A 
ATOM     78  F   UNL A   1      38.046  30.321  36.263  1.00  0.00    -0.203 F 
ATOM     79  C   UNL A   1      38.173  32.294  37.542  1.00  0.00     0.198 A 
ATOM     80  C   UNL A   1      39.741  34.008  36.948  1.00  0.00     0.198 A 
ATOM     81  F   UNL A   1      41.120  33.736  35.060  1.00  0.00    -0.203 F 
ATOM     82  F   UNL A   1      37.174  31.853  38.319  1.00  0.00    -0.200 F 
ATOM     83  C   UNL A   1      38.737  33.539  37.778  1.00  0.00     0.200 A 
ATOM     84  F   UNL A   1      40.293  35.207  37.175  1.00  0.00    -0.200 F 
ATOM     85  F   UNL A   1      38.299  34.292  38.797  1.00  0.00    -0.200 F 
ENDBRANCH  51  75
BRANCH  63  86
ATOM     86  C   UNL A   1      44.893  27.518  34.580  1.00  0.00     0.064 A 
ATOM     87  C   UNL A   1      44.806  26.366  35.375  1.00  0.00     0.173 A 
ATOM     88  C   UNL A   1      46.109  28.223  34.585  1.00  0.00     0.173 A 
ATOM     89  F   UNL A   1      43.666  25.661  35.419  1.00  0.00    -0.203 F 
ATOM     90  C   UNL A   1      45.879  25.954  36.163  1.00  0.00     0.198 A 
ATOM     91  C   UNL A   1      47.191  27.788  35.345  1.00  0.00     0.198 A 
ATOM     92  F   UNL A   1      46.254  29.326  33.836  1.00  0.00    -0.203 F 
ATOM     93  F   UNL A   1      45.753  24.879  36.955  1.00  0.00    -0.200 F 
ATOM     94  C   UNL A   1      47.073  26.659  36.140  1.00  0.00     0.200 A 
ATOM     95  F   UNL A   1      48.350  28.461  35.305  1.00  0.00    -0.200 F 
ATOM     96  F   UNL A   1      48.107  26.255  36.890  1.00  0.00    -0.200 F 
ENDBRANCH  63  86
ENDBRANCH  37  38
ENDBRANCH  30  32
ENDBRANCH  29  30
ENDBRANCH  28  29
ENDBRANCH  27  28
ENDBRANCH  26  27
ENDBRANCH   1  26
TORSDOF 19
ENDMDL
