MODEL 1
REMARK VINA RESULT:      -9.7      0.000      0.000
REMARK SMILES COc1cc([C@H]([NH3+])CC(=O)OCCOCCOCCOC(=O)c2ccc(-c3c4nc(c(-c5c(F)c(F)c(F)c(F)c5F)c5ccc([nH]5)c(-c5c(F)c(F)c(F)c(F)c5F)c5nc(c(-c6c(F)c(F)c(F)c(F)c6F)c6ccc3[nH]6)C=C5)C=C4)cc2)c([N+](=O)[O-])cc1OC
REMARK SMILES IDX 15 1 14 2 13 3 12 4 11 5 9 6 10 7 8 8 6 9 5 10 3 11 4 12
REMARK SMILES IDX 91 13 90 14 86 15 2 16 1 17 92 18 93 19 87 20 88 21 89 22
REMARK SMILES IDX 7 23 16 27 17 28 18 29 19 30 20 31 21 32 22 33 23 34 24 35
REMARK SMILES IDX 85 36 25 37 84 38 26 39 27 40 28 41 78 42 29 43 83 44 77 45
REMARK SMILES IDX 79 46 30 47 82 48 76 49 75 50 31 52 63 53 43 54 62 55 44 56
REMARK SMILES IDX 47 57 61 58 80 59 45 60 46 61 60 63 81 64 48 65 32 66 33 67
REMARK SMILES IDX 41 68 34 69 35 70 39 71 42 72 36 73 37 74 40 75 38 76 64 77
REMARK SMILES IDX 65 78 73 79 66 80 67 81 71 82 74 83 68 84 69 85 72 86 70 87
REMARK SMILES IDX 49 88 50 89 58 90 51 91 52 92 56 93 59 94 53 95 54 96 57 97
REMARK SMILES IDX 55 98
REMARK H PARENT 7 24 7 25 7 26 79 51 47 62
REMARK Flexibility Score: inf
ROOT
ATOM      1  C   UNL A   1      37.648  22.904  25.795  1.00  0.00     0.188 C 
ENDROOT
BRANCH   1   2
ATOM      2  O   UNL A   1      36.677  23.916  26.042  1.00  0.00    -0.376 OA
BRANCH   2   3
ATOM      3  C   UNL A   1      35.375  23.763  25.489  1.00  0.00     0.202 C 
BRANCH   3   4
ATOM      4  C   UNL A   1      34.437  22.788  26.211  1.00  0.00     0.261 C 
BRANCH   4   5
ATOM      5  O   UNL A   1      33.962  21.715  25.369  1.00  0.00    -0.463 OA
BRANCH   5   6
ATOM      6  C   UNL A   1      32.714  21.824  24.865  1.00  0.00     0.312 C 
ATOM      7  O   UNL A   1      31.726  21.298  25.376  1.00  0.00    -0.252 OA
BRANCH   6   8
ATOM      8  C   UNL A   1      32.547  22.768  23.678  1.00  0.00     0.193 C 
BRANCH   8   9
ATOM      9  C   UNL A   1      31.667  24.045  23.696  1.00  0.00     0.230 C 
BRANCH   9  10
ATOM     10  C   UNL A   1      32.277  25.233  24.463  1.00  0.00     0.091 A 
ATOM     11  C   UNL A   1      33.653  27.296  24.371  1.00  0.00     0.161 A 
ATOM     12  C   UNL A   1      33.152  26.114  23.777  1.00  0.00     0.067 A 
ATOM     13  C   UNL A   1      33.303  27.626  25.683  1.00  0.00     0.167 A 
ATOM     14  C   UNL A   1      32.460  26.759  26.383  1.00  0.00     0.136 A 
ATOM     15  C   UNL A   1      31.935  25.604  25.781  1.00  0.00     0.282 A 
BRANCH  11  16
ATOM     16  O   UNL A   1      34.299  28.182  23.548  1.00  0.00    -0.493 OA
ATOM     17  C   UNL A   1      33.411  28.954  22.740  1.00  0.00     0.278 C 
ENDBRANCH  11  16
BRANCH  13  18
ATOM     18  O   UNL A   1      33.599  28.741  26.412  1.00  0.00    -0.493 OA
ATOM     19  C   UNL A   1      32.753  29.875  26.350  1.00  0.00     0.278 C 
ENDBRANCH  13  18
BRANCH  15  20
ATOM     20  N   UNL A   1      30.946  24.878  26.574  1.00  0.00     0.063 N 
ATOM     21  O   UNL A   1      31.342  23.919  27.251  1.00  0.00    -0.258 OA
ATOM     22  O   UNL A   1      29.773  25.263  26.501  1.00  0.00    -0.258 OA
ENDBRANCH  15  20
ENDBRANCH   9  10
BRANCH   9  23
ATOM     23  N   UNL A   1      30.278  23.882  24.104  1.00  0.00    -0.351 N 
ATOM     24  H   UNL A   1      30.034  24.607  24.778  1.00  0.00     0.345 HD
ATOM     25  H   UNL A   1      30.156  22.964  24.534  1.00  0.00     0.345 HD
ATOM     26  H   UNL A   1      29.673  23.959  23.287  1.00  0.00     0.345 HD
ENDBRANCH   9  23
ENDBRANCH   8   9
ENDBRANCH   6   8
ENDBRANCH   5   6
ENDBRANCH   4   5
ENDBRANCH   3   4
ENDBRANCH   2   3
ENDBRANCH   1   2
BRANCH   1  27
ATOM     27  C   UNL A   1      37.402  21.862  24.695  1.00  0.00     0.188 C 
BRANCH  27  28
ATOM     28  O   UNL A   1      38.129  20.664  24.897  1.00  0.00    -0.376 OA
BRANCH  28  29
ATOM     29  C   UNL A   1      39.255  20.793  25.751  1.00  0.00     0.202 C 
BRANCH  29  30
ATOM     30  C   UNL A   1      39.809  19.395  26.024  1.00  0.00     0.261 C 
BRANCH  30  31
ATOM     31  O   UNL A   1      41.074  19.135  25.376  1.00  0.00    -0.460 OA
BRANCH  31  32
ATOM     32  C   UNL A   1      42.159  19.052  26.176  1.00  0.00     0.338 C 
ATOM     33  O   UNL A   1      42.745  18.037  26.516  1.00  0.00    -0.246 OA
BRANCH  32  34
ATOM     34  C   UNL A   1      42.680  20.419  26.405  1.00  0.00     0.060 A 
ATOM     35  C   UNL A   1      42.560  20.986  27.683  1.00  0.00     0.016 A 
ATOM     36  C   UNL A   1      43.280  21.140  25.371  1.00  0.00     0.016 A 
ATOM     37  C   UNL A   1      43.008  22.289  27.920  1.00  0.00     0.010 A 
ATOM     38  C   UNL A   1      43.713  22.449  25.605  1.00  0.00     0.010 A 
ATOM     39  C   UNL A   1      43.550  23.043  26.870  1.00  0.00    -0.014 A 
BRANCH  39  40
ATOM     40  C   UNL A   1      43.774  24.503  27.027  1.00  0.00     0.031 A 
ATOM     41  C   UNL A   1      45.154  25.047  26.769  1.00  0.00     0.074 A 
ATOM     42  C   UNL A   1      42.789  25.339  27.405  1.00  0.00     0.049 A 
ATOM     43  N   UNL A   1      45.619  26.259  26.931  1.00  0.00    -0.248 NA
ATOM     44  C   UNL A   1      46.147  24.084  26.263  1.00  0.00     0.031 C 
ATOM     45  C   UNL A   1      41.403  24.956  27.655  1.00  0.00     0.029 A 
ATOM     46  N   UNL A   1      42.820  26.689  27.666  1.00  0.00    -0.354 N 
ATOM     47  C   UNL A   1      46.958  26.201  26.566  1.00  0.00     0.074 A 
ATOM     48  C   UNL A   1      47.238  24.832  26.194  1.00  0.00     0.031 C 
ATOM     49  C   UNL A   1      40.717  26.042  28.054  1.00  0.00     0.029 A 
ATOM     50  C   UNL A   1      41.625  27.187  28.125  1.00  0.00     0.049 A 
ATOM     51  H   UNL A   1      43.622  27.245  27.536  1.00  0.00     0.167 HD
ATOM     52  C   UNL A   1      47.871  27.200  26.537  1.00  0.00     0.037 A 
ATOM     53  C   UNL A   1      41.311  28.418  28.580  1.00  0.00     0.037 A 
ATOM     54  C   UNL A   1      47.597  28.564  26.905  1.00  0.00     0.049 A 
ATOM     55  C   UNL A   1      42.366  29.498  28.605  1.00  0.00     0.074 A 
ATOM     56  C   UNL A   1      48.454  29.652  26.876  1.00  0.00     0.029 A 
ATOM     57  N   UNL A   1      46.380  29.027  27.380  1.00  0.00    -0.354 N 
ATOM     58  N   UNL A   1      43.619  29.446  28.222  1.00  0.00    -0.248 NA
ATOM     59  C   UNL A   1      41.959  30.812  29.127  1.00  0.00     0.031 C 
ATOM     60  C   UNL A   1      47.772  30.759  27.393  1.00  0.00     0.029 A 
ATOM     61  C   UNL A   1      46.471  30.378  27.677  1.00  0.00     0.049 A 
ATOM     62  H   UNL A   1      45.570  28.477  27.490  1.00  0.00     0.167 HD
ATOM     63  C   UNL A   1      44.136  30.721  28.423  1.00  0.00     0.074 A 
ATOM     64  C   UNL A   1      43.059  31.530  28.950  1.00  0.00     0.031 C 
ATOM     65  C   UNL A   1      45.391  31.180  28.189  1.00  0.00     0.037 A 
BRANCH  52  66
ATOM     66  C   UNL A   1      49.270  26.850  26.121  1.00  0.00     0.064 A 
ATOM     67  C   UNL A   1      49.707  26.999  24.797  1.00  0.00     0.173 A 
ATOM     68  C   UNL A   1      50.199  26.401  27.072  1.00  0.00     0.173 A 
ATOM     69  F   UNL A   1      48.855  27.412  23.846  1.00  0.00    -0.203 F 
ATOM     70  C   UNL A   1      51.016  26.691  24.436  1.00  0.00     0.198 A 
ATOM     71  C   UNL A   1      51.514  26.123  26.715  1.00  0.00     0.198 A 
ATOM     72  F   UNL A   1      49.833  26.244  28.353  1.00  0.00    -0.203 F 
ATOM     73  F   UNL A   1      51.399  26.797  23.156  1.00  0.00    -0.200 F 
ATOM     74  C   UNL A   1      51.920  26.261  25.396  1.00  0.00     0.200 A 
ATOM     75  F   UNL A   1      52.391  25.722  27.646  1.00  0.00    -0.200 F 
ATOM     76  F   UNL A   1      53.183  25.975  25.049  1.00  0.00    -0.200 F 
ENDBRANCH  52  66
BRANCH  53  77
ATOM     77  C   UNL A   1      39.938  28.701  29.079  1.00  0.00     0.064 A 
ATOM     78  C   UNL A   1      39.578  28.429  30.407  1.00  0.00     0.173 A 
ATOM     79  C   UNL A   1      38.945  29.207  28.228  1.00  0.00     0.173 A 
ATOM     80  F   UNL A   1      40.483  27.912  31.253  1.00  0.00    -0.203 F 
ATOM     81  C   UNL A   1      38.275  28.629  30.857  1.00  0.00     0.198 A 
ATOM     82  C   UNL A   1      37.649  29.437  28.687  1.00  0.00     0.198 A 
ATOM     83  F   UNL A   1      39.232  29.477  26.946  1.00  0.00    -0.203 F 
ATOM     84  F   UNL A   1      37.945  28.303  32.114  1.00  0.00    -0.200 F 
ATOM     85  C   UNL A   1      37.313  29.139  29.998  1.00  0.00     0.200 A 
ATOM     86  F   UNL A   1      36.725  29.937  27.856  1.00  0.00    -0.200 F 
ATOM     87  F   UNL A   1      36.059  29.328  30.431  1.00  0.00    -0.200 F 
ENDBRANCH  53  77
BRANCH  65  88
ATOM     88  C   UNL A   1      45.664  32.637  28.450  1.00  0.00     0.064 A 
ATOM     89  C   UNL A   1      45.445  33.619  27.474  1.00  0.00     0.173 A 
ATOM     90  C   UNL A   1      46.105  33.057  29.715  1.00  0.00     0.173 A 
ATOM     91  F   UNL A   1      45.034  33.271  26.244  1.00  0.00    -0.203 F 
ATOM     92  C   UNL A   1      45.682  34.966  27.746  1.00  0.00     0.198 A 
ATOM     93  C   UNL A   1      46.308  34.406  29.994  1.00  0.00     0.198 A 
ATOM     94  F   UNL A   1      46.321  32.161  30.689  1.00  0.00    -0.203 F 
ATOM     95  F   UNL A   1      45.512  35.882  26.782  1.00  0.00    -0.200 F 
ATOM     96  C   UNL A   1      46.105  35.358  29.007  1.00  0.00     0.200 A 
ATOM     97  F   UNL A   1      46.699  34.784  31.218  1.00  0.00    -0.200 F 
ATOM     98  F   UNL A   1      46.322  36.655  29.269  1.00  0.00    -0.200 F 
ENDBRANCH  65  88
ENDBRANCH  39  40
ENDBRANCH  32  34
ENDBRANCH  31  32
ENDBRANCH  30  31
ENDBRANCH  29  30
ENDBRANCH  28  29
ENDBRANCH  27  28
ENDBRANCH   1  27
TORSDOF 23
ENDMDL
MODEL 2
REMARK VINA RESULT:      -9.6      4.698      7.242
REMARK SMILES COc1cc([C@H]([NH3+])CC(=O)OCCOCCOCCOC(=O)c2ccc(-c3c4nc(c(-c5c(F)c(F)c(F)c(F)c5F)c5ccc([nH]5)c(-c5c(F)c(F)c(F)c(F)c5F)c5nc(c(-c6c(F)c(F)c(F)c(F)c6F)c6ccc3[nH]6)C=C5)C=C4)cc2)c([N+](=O)[O-])cc1OC
REMARK SMILES IDX 15 1 14 2 13 3 12 4 11 5 9 6 10 7 8 8 6 9 5 10 3 11 4 12
REMARK SMILES IDX 91 13 90 14 86 15 2 16 1 17 92 18 93 19 87 20 88 21 89 22
REMARK SMILES IDX 7 23 16 27 17 28 18 29 19 30 20 31 21 32 22 33 23 34 24 35
REMARK SMILES IDX 85 36 25 37 84 38 26 39 27 40 28 41 78 42 29 43 83 44 77 45
REMARK SMILES IDX 79 46 30 47 82 48 76 49 75 50 31 52 63 53 43 54 62 55 44 56
REMARK SMILES IDX 47 57 61 58 80 59 45 60 46 61 60 63 81 64 48 65 32 66 33 67
REMARK SMILES IDX 41 68 34 69 35 70 39 71 42 72 36 73 37 74 40 75 38 76 64 77
REMARK SMILES IDX 65 78 73 79 66 80 67 81 71 82 74 83 68 84 69 85 72 86 70 87
REMARK SMILES IDX 49 88 50 89 58 90 51 91 52 92 56 93 59 94 53 95 54 96 57 97
REMARK SMILES IDX 55 98
REMARK H PARENT 7 24 7 25 7 26 79 51 47 62
REMARK Flexibility Score: inf
ROOT
ATOM      1  C   UNL A   1      41.498  21.059  27.109  1.00  0.00     0.188 C 
ENDROOT
BRANCH   1   2
ATOM      2  O   UNL A   1      40.079  21.115  26.992  1.00  0.00    -0.376 OA
BRANCH   2   3
ATOM      3  C   UNL A   1      39.493  22.221  26.318  1.00  0.00     0.202 C 
BRANCH   3   4
ATOM      4  C   UNL A   1      38.233  21.928  25.493  1.00  0.00     0.261 C 
BRANCH   4   5
ATOM      5  O   UNL A   1      37.055  22.608  25.977  1.00  0.00    -0.463 OA
BRANCH   5   6
ATOM      6  C   UNL A   1      36.332  23.317  25.084  1.00  0.00     0.312 C 
ATOM      7  O   UNL A   1      36.401  23.149  23.868  1.00  0.00    -0.252 OA
BRANCH   6   8
ATOM      8  C   UNL A   1      35.290  24.269  25.665  1.00  0.00     0.193 C 
BRANCH   8   9
ATOM      9  C   UNL A   1      33.818  23.877  25.957  1.00  0.00     0.230 C 
BRANCH   9  10
ATOM     10  C   UNL A   1      32.787  24.976  25.638  1.00  0.00     0.091 A 
ATOM     11  C   UNL A   1      32.353  27.218  24.667  1.00  0.00     0.161 A 
ATOM     12  C   UNL A   1      33.242  26.208  25.103  1.00  0.00     0.067 A 
ATOM     13  C   UNL A   1      30.972  27.029  24.766  1.00  0.00     0.167 A 
ATOM     14  C   UNL A   1      30.504  25.830  25.311  1.00  0.00     0.136 A 
ATOM     15  C   UNL A   1      31.387  24.815  25.712  1.00  0.00     0.282 A 
BRANCH  11  16
ATOM     16  O   UNL A   1      32.893  28.263  23.962  1.00  0.00    -0.493 OA
ATOM     17  C   UNL A   1      33.074  29.441  24.747  1.00  0.00     0.278 C 
ENDBRANCH  11  16
BRANCH  13  18
ATOM     18  O   UNL A   1      29.948  27.822  24.337  1.00  0.00    -0.493 OA
ATOM     19  C   UNL A   1      29.692  27.962  22.951  1.00  0.00     0.278 C 
ENDBRANCH  13  18
BRANCH  15  20
ATOM     20  N   UNL A   1      30.757  23.559  26.114  1.00  0.00     0.063 N 
ATOM     21  O   UNL A   1      30.673  22.659  25.267  1.00  0.00    -0.258 OA
ATOM     22  O   UNL A   1      30.334  23.488  27.275  1.00  0.00    -0.258 OA
ENDBRANCH  15  20
ENDBRANCH   9  10
BRANCH   9  23
ATOM     23  N   UNL A   1      33.531  23.329  27.276  1.00  0.00    -0.351 N 
ATOM     24  H   UNL A   1      33.309  22.337  27.190  1.00  0.00     0.345 HD
ATOM     25  H   UNL A   1      32.735  23.821  27.683  1.00  0.00     0.345 HD
ATOM     26  H   UNL A   1      34.347  23.444  27.876  1.00  0.00     0.345 HD
ENDBRANCH   9  23
ENDBRANCH   8   9
ENDBRANCH   6   8
ENDBRANCH   5   6
ENDBRANCH   4   5
ENDBRANCH   3   4
ENDBRANCH   2   3
ENDBRANCH   1   2
BRANCH   1  27
ATOM     27  C   UNL A   1      42.276  19.918  26.438  1.00  0.00     0.188 C 
BRANCH  27  28
ATOM     28  O   UNL A   1      43.099  20.361  25.376  1.00  0.00    -0.376 OA
BRANCH  28  29
ATOM     29  C   UNL A   1      43.847  21.533  25.659  1.00  0.00     0.202 C 
BRANCH  29  30
ATOM     30  C   UNL A   1      43.696  22.492  24.477  1.00  0.00     0.261 C 
BRANCH  30  31
ATOM     31  O   UNL A   1      43.400  23.851  24.867  1.00  0.00    -0.460 OA
BRANCH  31  32
ATOM     32  C   UNL A   1      44.454  24.634  25.184  1.00  0.00     0.338 C 
ATOM     33  O   UNL A   1      45.457  24.824  24.515  1.00  0.00    -0.246 OA
BRANCH  32  34
ATOM     34  C   UNL A   1      44.106  25.423  26.389  1.00  0.00     0.060 A 
ATOM     35  C   UNL A   1      43.265  24.850  27.355  1.00  0.00     0.016 A 
ATOM     36  C   UNL A   1      44.602  26.715  26.567  1.00  0.00     0.016 A 
ATOM     37  C   UNL A   1      42.890  25.583  28.484  1.00  0.00     0.010 A 
ATOM     38  C   UNL A   1      44.212  27.454  27.688  1.00  0.00     0.010 A 
ATOM     39  C   UNL A   1      43.328  26.906  28.636  1.00  0.00    -0.014 A 
BRANCH  39  40
ATOM     40  C   UNL A   1      42.727  27.786  29.671  1.00  0.00     0.031 A 
ATOM     41  C   UNL A   1      43.404  27.879  31.013  1.00  0.00     0.074 A 
ATOM     42  C   UNL A   1      41.598  28.482  29.446  1.00  0.00     0.049 A 
ATOM     43  N   UNL A   1      43.023  28.497  32.100  1.00  0.00    -0.248 NA
ATOM     44  C   UNL A   1      44.686  27.167  31.143  1.00  0.00     0.031 C 
ATOM     45  C   UNL A   1      40.858  28.512  28.187  1.00  0.00     0.029 A 
ATOM     46  N   UNL A   1      40.864  29.284  30.289  1.00  0.00    -0.354 N 
ATOM     47  C   UNL A   1      44.005  28.236  33.046  1.00  0.00     0.074 A 
ATOM     48  C   UNL A   1      44.989  27.386  32.413  1.00  0.00     0.031 C 
ATOM     49  C   UNL A   1      39.762  29.276  28.345  1.00  0.00     0.029 A 
ATOM     50  C   UNL A   1      39.703  29.757  29.726  1.00  0.00     0.049 A 
ATOM     51  H   UNL A   1      41.144  29.498  31.208  1.00  0.00     0.167 HD
ATOM     52  C   UNL A   1      44.084  28.671  34.327  1.00  0.00     0.037 A 
ATOM     53  C   UNL A   1      38.696  30.468  30.273  1.00  0.00     0.037 A 
ATOM     54  C   UNL A   1      43.109  29.517  34.961  1.00  0.00     0.049 A 
ATOM     55  C   UNL A   1      38.774  30.881  31.724  1.00  0.00     0.074 A 
ATOM     56  C   UNL A   1      43.123  30.034  36.245  1.00  0.00     0.029 A 
ATOM     57  N   UNL A   1      41.940  29.963  34.364  1.00  0.00    -0.354 N 
ATOM     58  N   UNL A   1      39.724  30.663  32.601  1.00  0.00    -0.248 NA
ATOM     59  C   UNL A   1      37.634  31.642  32.260  1.00  0.00     0.031 C 
ATOM     60  C   UNL A   1      41.932  30.740  36.445  1.00  0.00     0.029 A 
ATOM     61  C   UNL A   1      41.209  30.723  35.264  1.00  0.00     0.049 A 
ATOM     62  H   UNL A   1      41.669  29.768  33.437  1.00  0.00     0.167 HD
ATOM     63  C   UNL A   1      39.314  31.287  33.775  1.00  0.00     0.074 A 
ATOM     64  C   UNL A   1      38.035  31.903  33.496  1.00  0.00     0.031 C 
ATOM     65  C   UNL A   1      39.943  31.345  34.975  1.00  0.00     0.037 A 
BRANCH  52  66
ATOM     66  C   UNL A   1      45.256  28.210  35.145  1.00  0.00     0.064 A 
ATOM     67  C   UNL A   1      46.459  28.929  35.183  1.00  0.00     0.173 A 
ATOM     68  C   UNL A   1      45.155  27.056  35.937  1.00  0.00     0.173 A 
ATOM     69  F   UNL A   1      46.612  30.032  34.434  1.00  0.00    -0.203 F 
ATOM     70  C   UNL A   1      47.526  28.497  35.967  1.00  0.00     0.198 A 
ATOM     71  C   UNL A   1      46.211  26.644  36.742  1.00  0.00     0.198 A 
ATOM     72  F   UNL A   1      44.024  26.334  35.938  1.00  0.00    -0.203 F 
ATOM     73  F   UNL A   1      48.683  29.174  35.952  1.00  0.00    -0.200 F 
ATOM     74  C   UNL A   1      47.399  27.361  36.752  1.00  0.00     0.200 A 
ATOM     75  F   UNL A   1      46.082  25.554  37.511  1.00  0.00    -0.200 F 
ATOM     76  F   UNL A   1      48.423  26.953  37.513  1.00  0.00    -0.200 F 
ENDBRANCH  52  66
BRANCH  53  77
ATOM     77  C   UNL A   1      37.502  30.821  29.458  1.00  0.00     0.064 A 
ATOM     78  C   UNL A   1      36.529  29.861  29.144  1.00  0.00     0.173 A 
ATOM     79  C   UNL A   1      37.334  32.113  28.937  1.00  0.00     0.173 A 
ATOM     80  F   UNL A   1      36.662  28.603  29.590  1.00  0.00    -0.203 F 
ATOM     81  C   UNL A   1      35.447  30.173  28.323  1.00  0.00     0.198 A 
ATOM     82  C   UNL A   1      36.234  32.432  28.143  1.00  0.00     0.198 A 
ATOM     83  F   UNL A   1      38.239  33.066  29.199  1.00  0.00    -0.203 F 
ATOM     84  F   UNL A   1      34.565  29.222  27.990  1.00  0.00    -0.200 F 
ATOM     85  C   UNL A   1      35.297  31.461  27.828  1.00  0.00     0.200 A 
ATOM     86  F   UNL A   1      36.089  33.679  27.673  1.00  0.00    -0.200 F 
ATOM     87  F   UNL A   1      34.258  31.759  27.036  1.00  0.00    -0.200 F 
ENDBRANCH  53  77
BRANCH  65  88
ATOM     88  C   UNL A   1      39.290  32.143  36.071  1.00  0.00     0.064 A 
ATOM     89  C   UNL A   1      38.353  31.574  36.946  1.00  0.00     0.173 A 
ATOM     90  C   UNL A   1      39.647  33.485  36.276  1.00  0.00     0.173 A 
ATOM     91  F   UNL A   1      37.968  30.298  36.787  1.00  0.00    -0.203 F 
ATOM     92  C   UNL A   1      37.779  32.326  37.969  1.00  0.00     0.198 A 
ATOM     93  C   UNL A   1      39.097  34.224  37.321  1.00  0.00     0.198 A 
ATOM     94  F   UNL A   1      40.545  34.077  35.476  1.00  0.00    -0.203 F 
ATOM     95  F   UNL A   1      36.850  31.775  38.763  1.00  0.00    -0.200 F 
ATOM     96  C   UNL A   1      38.157  33.647  38.161  1.00  0.00     0.200 A 
ATOM     97  F   UNL A   1      39.478  35.494  37.514  1.00  0.00    -0.200 F 
ATOM     98  F   UNL A   1      37.611  34.365  39.152  1.00  0.00    -0.200 F 
ENDBRANCH  65  88
ENDBRANCH  39  40
ENDBRANCH  32  34
ENDBRANCH  31  32
ENDBRANCH  30  31
ENDBRANCH  29  30
ENDBRANCH  28  29
ENDBRANCH  27  28
ENDBRANCH   1  27
TORSDOF 23
ENDMDL
MODEL 3
REMARK VINA RESULT:      -9.4      3.780      6.482
REMARK SMILES COc1cc([C@H]([NH3+])CC(=O)OCCOCCOCCOC(=O)c2ccc(-c3c4nc(c(-c5c(F)c(F)c(F)c(F)c5F)c5ccc([nH]5)c(-c5c(F)c(F)c(F)c(F)c5F)c5nc(c(-c6c(F)c(F)c(F)c(F)c6F)c6ccc3[nH]6)C=C5)C=C4)cc2)c([N+](=O)[O-])cc1OC
REMARK SMILES IDX 15 1 14 2 13 3 12 4 11 5 9 6 10 7 8 8 6 9 5 10 3 11 4 12
REMARK SMILES IDX 91 13 90 14 86 15 2 16 1 17 92 18 93 19 87 20 88 21 89 22
REMARK SMILES IDX 7 23 16 27 17 28 18 29 19 30 20 31 21 32 22 33 23 34 24 35
REMARK SMILES IDX 85 36 25 37 84 38 26 39 27 40 28 41 78 42 29 43 83 44 77 45
REMARK SMILES IDX 79 46 30 47 82 48 76 49 75 50 31 52 63 53 43 54 62 55 44 56
REMARK SMILES IDX 47 57 61 58 80 59 45 60 46 61 60 63 81 64 48 65 32 66 33 67
REMARK SMILES IDX 41 68 34 69 35 70 39 71 42 72 36 73 37 74 40 75 38 76 64 77
REMARK SMILES IDX 65 78 73 79 66 80 67 81 71 82 74 83 68 84 69 85 72 86 70 87
REMARK SMILES IDX 49 88 50 89 58 90 51 91 52 92 56 93 59 94 53 95 54 96 57 97
REMARK SMILES IDX 55 98
REMARK H PARENT 7 24 7 25 7 26 79 51 47 62
REMARK Flexibility Score: inf
ROOT
ATOM      1  C   UNL A   1      32.965  26.826  24.766  1.00  0.00     0.188 C 
ENDROOT
BRANCH   1   2
ATOM      2  O   UNL A   1      31.598  27.174  24.570  1.00  0.00    -0.376 OA
BRANCH   2   3
ATOM      3  C   UNL A   1      30.788  26.330  23.759  1.00  0.00     0.202 C 
BRANCH   3   4
ATOM      4  C   UNL A   1      31.173  24.846  23.721  1.00  0.00     0.261 C 
BRANCH   4   5
ATOM      5  O   UNL A   1      31.614  24.398  22.420  1.00  0.00    -0.463 OA
BRANCH   5   6
ATOM      6  C   UNL A   1      32.880  23.943  22.314  1.00  0.00     0.312 C 
ATOM      7  O   UNL A   1      33.848  24.671  22.099  1.00  0.00    -0.252 OA
BRANCH   6   8
ATOM      8  C   UNL A   1      33.092  22.462  22.618  1.00  0.00     0.193 C 
BRANCH   8   9
ATOM      9  C   UNL A   1      31.991  21.379  22.485  1.00  0.00     0.230 C 
BRANCH   9  10
ATOM     10  C   UNL A   1      32.198  20.140  23.376  1.00  0.00     0.091 A 
ATOM     11  C   UNL A   1      32.823  17.742  23.511  1.00  0.00     0.161 A 
ATOM     12  C   UNL A   1      32.495  18.897  22.762  1.00  0.00     0.067 A 
ATOM     13  C   UNL A   1      32.849  17.795  24.907  1.00  0.00     0.167 A 
ATOM     14  C   UNL A   1      32.538  19.006  25.532  1.00  0.00     0.136 A 
ATOM     15  C   UNL A   1      32.246  20.160  24.786  1.00  0.00     0.282 A 
BRANCH  11  16
ATOM     16  O   UNL A   1      33.312  16.666  22.817  1.00  0.00    -0.493 OA
ATOM     17  C   UNL A   1      34.710  16.454  23.013  1.00  0.00     0.278 C 
ENDBRANCH  11  16
BRANCH  13  18
ATOM     18  O   UNL A   1      33.214  16.840  25.811  1.00  0.00    -0.493 OA
ATOM     19  C   UNL A   1      32.452  15.653  25.935  1.00  0.00     0.278 C 
ENDBRANCH  13  18
BRANCH  15  20
ATOM     20  N   UNL A   1      32.095  21.387  25.564  1.00  0.00     0.063 N 
ATOM     21  O   UNL A   1      30.953  21.844  25.704  1.00  0.00    -0.258 OA
ATOM     22  O   UNL A   1      33.127  21.896  26.018  1.00  0.00    -0.258 OA
ENDBRANCH  15  20
ENDBRANCH   9  10
BRANCH   9  23
ATOM     23  N   UNL A   1      31.657  20.940  21.136  1.00  0.00    -0.351 N 
ATOM     24  H   UNL A   1      31.198  21.701  20.635  1.00  0.00     0.345 HD
ATOM     25  H   UNL A   1      31.028  20.139  21.186  1.00  0.00     0.345 HD
ATOM     26  H   UNL A   1      32.510  20.674  20.645  1.00  0.00     0.345 HD
ENDBRANCH   9  23
ENDBRANCH   8   9
ENDBRANCH   6   8
ENDBRANCH   5   6
ENDBRANCH   4   5
ENDBRANCH   3   4
ENDBRANCH   2   3
ENDBRANCH   1   2
BRANCH   1  27
ATOM     27  C   UNL A   1      33.328  25.623  25.648  1.00  0.00     0.188 C 
BRANCH  27  28
ATOM     28  O   UNL A   1      34.725  25.453  25.803  1.00  0.00    -0.376 OA
BRANCH  28  29
ATOM     29  C   UNL A   1      35.251  24.293  25.178  1.00  0.00     0.202 C 
BRANCH  29  30
ATOM     30  C   UNL A   1      36.372  23.744  26.061  1.00  0.00     0.261 C 
BRANCH  30  31
ATOM     31  O   UNL A   1      37.683  23.843  25.462  1.00  0.00    -0.460 OA
BRANCH  31  32
ATOM     32  C   UNL A   1      38.721  23.383  26.195  1.00  0.00     0.338 C 
ATOM     33  O   UNL A   1      39.210  22.265  26.157  1.00  0.00    -0.246 OA
BRANCH  32  34
ATOM     34  C   UNL A   1      39.337  24.528  26.906  1.00  0.00     0.060 A 
ATOM     35  C   UNL A   1      39.126  24.661  28.287  1.00  0.00     0.016 A 
ATOM     36  C   UNL A   1      40.114  25.463  26.221  1.00  0.00     0.016 A 
ATOM     37  C   UNL A   1      39.663  25.751  28.978  1.00  0.00     0.010 A 
ATOM     38  C   UNL A   1      40.636  26.561  26.910  1.00  0.00     0.010 A 
ATOM     39  C   UNL A   1      40.387  26.730  28.285  1.00  0.00    -0.014 A 
BRANCH  39  40
ATOM     40  C   UNL A   1      40.726  28.021  28.937  1.00  0.00     0.031 A 
ATOM     41  C   UNL A   1      42.121  28.209  29.470  1.00  0.00     0.074 A 
ATOM     42  C   UNL A   1      39.823  29.009  29.075  1.00  0.00     0.049 A 
ATOM     43  N   UNL A   1      42.627  29.199  30.160  1.00  0.00    -0.248 NA
ATOM     44  C   UNL A   1      43.075  27.122  29.190  1.00  0.00     0.031 C 
ATOM     45  C   UNL A   1      38.450  28.976  28.578  1.00  0.00     0.029 A 
ATOM     46  N   UNL A   1      39.927  30.229  29.700  1.00  0.00    -0.354 N 
ATOM     47  C   UNL A   1      43.947  28.848  30.411  1.00  0.00     0.074 A 
ATOM     48  C   UNL A   1      44.160  27.546  29.819  1.00  0.00     0.031 C 
ATOM     49  C   UNL A   1      37.831  30.116  28.936  1.00  0.00     0.029 A 
ATOM     50  C   UNL A   1      38.752  30.940  29.720  1.00  0.00     0.049 A 
ATOM     51  H   UNL A   1      40.765  30.561  30.096  1.00  0.00     0.167 HD
ATOM     52  C   UNL A   1      44.899  29.551  31.069  1.00  0.00     0.037 A 
ATOM     53  C   UNL A   1      38.448  32.106  30.327  1.00  0.00     0.037 A 
ATOM     54  C   UNL A   1      44.692  30.847  31.658  1.00  0.00     0.049 A 
ATOM     55  C   UNL A   1      39.508  32.836  31.116  1.00  0.00     0.074 A 
ATOM     56  C   UNL A   1      45.608  31.649  32.318  1.00  0.00     0.029 A 
ATOM     57  N   UNL A   1      43.484  31.529  31.671  1.00  0.00    -0.354 N 
ATOM     58  N   UNL A   1      40.764  32.518  31.316  1.00  0.00    -0.248 NA
ATOM     59  C   UNL A   1      39.104  34.094  31.764  1.00  0.00     0.031 C 
ATOM     60  C   UNL A   1      44.939  32.786  32.783  1.00  0.00     0.029 A 
ATOM     61  C   UNL A   1      43.624  32.726  32.353  1.00  0.00     0.049 A 
ATOM     62  H   UNL A   1      42.651  31.207  31.255  1.00  0.00     0.167 HD
ATOM     63  C   UNL A   1      41.305  33.547  32.079  1.00  0.00     0.074 A 
ATOM     64  C   UNL A   1      40.245  34.507  32.297  1.00  0.00     0.031 C 
ATOM     65  C   UNL A   1      42.568  33.684  32.555  1.00  0.00     0.037 A 
BRANCH  52  66
ATOM     66  C   UNL A   1      46.252  28.917  31.218  1.00  0.00     0.064 A 
ATOM     67  C   UNL A   1      46.575  28.114  32.321  1.00  0.00     0.173 A 
ATOM     68  C   UNL A   1      47.223  29.081  30.218  1.00  0.00     0.173 A 
ATOM     69  F   UNL A   1      45.687  27.937  33.312  1.00  0.00    -0.203 F 
ATOM     70  C   UNL A   1      47.828  27.517  32.429  1.00  0.00     0.198 A 
ATOM     71  C   UNL A   1      48.462  28.458  30.314  1.00  0.00     0.198 A 
ATOM     72  F   UNL A   1      46.963  29.837  29.141  1.00  0.00    -0.203 F 
ATOM     73  F   UNL A   1      48.131  26.791  33.514  1.00  0.00    -0.200 F 
ATOM     74  C   UNL A   1      48.767  27.681  31.422  1.00  0.00     0.200 A 
ATOM     75  F   UNL A   1      49.364  28.606  29.333  1.00  0.00    -0.200 F 
ATOM     76  F   UNL A   1      49.969  27.097  31.522  1.00  0.00    -0.200 F 
ENDBRANCH  52  66
BRANCH  53  77
ATOM     77  C   UNL A   1      37.067  32.654  30.241  1.00  0.00     0.064 A 
ATOM     78  C   UNL A   1      36.691  33.509  29.194  1.00  0.00     0.173 A 
ATOM     79  C   UNL A   1      36.110  32.374  31.227  1.00  0.00     0.173 A 
ATOM     80  F   UNL A   1      37.580  33.835  28.243  1.00  0.00    -0.203 F 
ATOM     81  C   UNL A   1      35.419  34.079  29.150  1.00  0.00     0.198 A 
ATOM     82  C   UNL A   1      34.829  32.919  31.165  1.00  0.00     0.198 A 
ATOM     83  F   UNL A   1      36.420  31.570  32.254  1.00  0.00    -0.203 F 
ATOM     84  F   UNL A   1      35.107  34.939  28.172  1.00  0.00    -0.200 F 
ATOM     85  C   UNL A   1      34.488  33.778  30.132  1.00  0.00     0.200 A 
ATOM     86  F   UNL A   1      33.930  32.620  32.112  1.00  0.00    -0.200 F 
ATOM     87  F   UNL A   1      33.267  34.329  30.091  1.00  0.00    -0.200 F 
ENDBRANCH  53  77
BRANCH  65  88
ATOM     88  C   UNL A   1      42.898  34.940  33.315  1.00  0.00     0.064 A 
ATOM     89  C   UNL A   1      42.831  34.998  34.715  1.00  0.00     0.173 A 
ATOM     90  C   UNL A   1      43.336  36.085  32.632  1.00  0.00     0.173 A 
ATOM     91  F   UNL A   1      42.407  33.935  35.417  1.00  0.00    -0.203 F 
ATOM     92  C   UNL A   1      43.164  36.165  35.400  1.00  0.00     0.198 A 
ATOM     93  C   UNL A   1      43.701  37.238  33.322  1.00  0.00     0.198 A 
ATOM     94  F   UNL A   1      43.428  36.082  31.295  1.00  0.00    -0.203 F 
ATOM     95  F   UNL A   1      43.046  36.213  36.735  1.00  0.00    -0.200 F 
ATOM     96  C   UNL A   1      43.607  37.280  34.705  1.00  0.00     0.200 A 
ATOM     97  F   UNL A   1      44.145  38.308  32.649  1.00  0.00    -0.200 F 
ATOM     98  F   UNL A   1      43.938  38.398  35.368  1.00  0.00    -0.200 F 
ENDBRANCH  65  88
ENDBRANCH  39  40
ENDBRANCH  32  34
ENDBRANCH  31  32
ENDBRANCH  30  31
ENDBRANCH  29  30
ENDBRANCH  28  29
ENDBRANCH  27  28
ENDBRANCH   1  27
TORSDOF 23
ENDMDL
