MODEL 1
REMARK VINA RESULT:      -9.5      0.000      0.000
REMARK SMILES C[C@@H](C(=O)OCCOCCOCCOC(=O)c1ccc(-c2c3nc(c(-c4c(F)c(F)c(F)c(F)c4F)c4ccc([nH]4)c(-c4c(F)c(F)c(F)c(F)c4F)c4nc(c(-c5c(F)c(F)c(F)c(F)c5F)c5ccc2[nH]5)C=C4)C=C3)cc1)c1ccc(=O)n(C(F)F)c1
REMARK SMILES IDX 9 1 8 2 7 3 6 4 5 5 3 6 4 7 2 8 1 9 80 10 81 11 89 12 82 13
REMARK SMILES IDX 85 14 83 15 84 16 86 17 87 18 88 19 10 20 11 21 12 22 13 23
REMARK SMILES IDX 14 24 15 25 16 26 17 27 18 28 79 29 19 30 78 31 20 32 21 33
REMARK SMILES IDX 22 34 72 35 23 36 77 37 71 38 73 39 24 40 76 41 70 42 69 43
REMARK SMILES IDX 25 45 57 46 37 47 56 48 38 49 41 50 55 51 74 52 39 53 40 54
REMARK SMILES IDX 54 56 75 57 42 58 26 59 27 60 35 61 28 62 29 63 33 64 36 65
REMARK SMILES IDX 30 66 31 67 34 68 32 69 58 70 59 71 67 72 60 73 61 74 65 75
REMARK SMILES IDX 68 76 62 77 63 78 66 79 64 80 43 81 44 82 52 83 45 84 46 85
REMARK SMILES IDX 50 86 53 87 47 88 48 89 51 90 49 91
REMARK H PARENT 73 44 41 55
REMARK Flexibility Score: inf
ROOT
ATOM      1  C   UNL A   1      32.874  36.283  30.725  1.00  0.00     0.188 C 
ENDROOT
BRANCH   1   2
ATOM      2  O   UNL A   1      34.018  35.932  31.495  1.00  0.00    -0.376 OA
BRANCH   2   3
ATOM      3  C   UNL A   1      33.997  36.145  32.903  1.00  0.00     0.202 C 
BRANCH   3   4
ATOM      4  C   UNL A   1      34.772  35.158  33.782  1.00  0.00     0.261 C 
BRANCH   4   5
ATOM      5  O   UNL A   1      34.361  33.779  33.636  1.00  0.00    -0.463 OA
BRANCH   5   6
ATOM      6  C   UNL A   1      34.871  33.123  32.560  1.00  0.00     0.313 C 
ATOM      7  O   UNL A   1      34.181  32.477  31.775  1.00  0.00    -0.252 OA
BRANCH   6   8
ATOM      8  C   UNL A   1      36.402  33.260  32.383  1.00  0.00     0.127 C 
ATOM      9  C   UNL A   1      36.919  33.072  30.950  1.00  0.00     0.025 C 
BRANCH   8  10
ATOM     10  C   UNL A   1      37.173  32.509  33.482  1.00  0.00    -0.017 A 
ATOM     11  C   UNL A   1      37.377  31.084  33.259  1.00  0.00     0.012 A 
ATOM     12  C   UNL A   1      37.595  33.012  34.662  1.00  0.00     0.099 A 
ATOM     13  C   UNL A   1      37.973  30.301  34.161  1.00  0.00     0.072 A 
ATOM     14  N   UNL A   1      38.202  32.215  35.631  1.00  0.00    -0.258 N 
ATOM     15  C   UNL A   1      38.415  30.856  35.460  1.00  0.00     0.254 A 
ATOM     16  O   UNL A   1      38.913  30.091  36.279  1.00  0.00    -0.269 OA
BRANCH  14  17
ATOM     17  C   UNL A   1      38.470  32.740  36.950  1.00  0.00     0.451 C 
ATOM     18  F   UNL A   1      38.893  34.023  36.875  1.00  0.00    -0.185 F 
ATOM     19  F   UNL A   1      37.375  32.711  37.748  1.00  0.00    -0.185 F 
ENDBRANCH  14  17
ENDBRANCH   8  10
ENDBRANCH   6   8
ENDBRANCH   5   6
ENDBRANCH   4   5
ENDBRANCH   3   4
ENDBRANCH   2   3
ENDBRANCH   1   2
BRANCH   1  20
ATOM     20  C   UNL A   1      32.914  36.076  29.202  1.00  0.00     0.188 C 
BRANCH  20  21
ATOM     21  O   UNL A   1      34.210  35.883  28.681  1.00  0.00    -0.376 OA
BRANCH  21  22
ATOM     22  C   UNL A   1      34.399  34.796  27.794  1.00  0.00     0.202 C 
BRANCH  22  23
ATOM     23  C   UNL A   1      34.324  33.381  28.389  1.00  0.00     0.261 C 
BRANCH  23  24
ATOM     24  O   UNL A   1      35.055  32.357  27.688  1.00  0.00    -0.460 OA
BRANCH  24  25
ATOM     25  C   UNL A   1      34.765  31.074  27.982  1.00  0.00     0.338 C 
ATOM     26  O   UNL A   1      33.674  30.523  27.898  1.00  0.00    -0.246 OA
BRANCH  25  27
ATOM     27  C   UNL A   1      36.036  30.368  28.229  1.00  0.00     0.060 A 
ATOM     28  C   UNL A   1      36.216  29.717  29.454  1.00  0.00     0.016 A 
ATOM     29  C   UNL A   1      37.049  30.351  27.268  1.00  0.00     0.016 A 
ATOM     30  C   UNL A   1      37.409  29.047  29.714  1.00  0.00     0.010 A 
ATOM     31  C   UNL A   1      38.262  29.707  27.554  1.00  0.00     0.010 A 
ATOM     32  C   UNL A   1      38.458  29.069  28.791  1.00  0.00    -0.014 A 
BRANCH  32  33
ATOM     33  C   UNL A   1      39.802  28.603  29.221  1.00  0.00     0.031 A 
ATOM     34  C   UNL A   1      40.546  29.411  30.250  1.00  0.00     0.074 A 
ATOM     35  C   UNL A   1      40.320  27.433  28.803  1.00  0.00     0.049 A 
ATOM     36  N   UNL A   1      41.767  29.276  30.699  1.00  0.00    -0.248 NA
ATOM     37  C   UNL A   1      39.799  30.520  30.863  1.00  0.00     0.031 C 
ATOM     38  C   UNL A   1      39.654  26.477  27.922  1.00  0.00     0.029 A 
ATOM     39  N   UNL A   1      41.532  26.846  29.082  1.00  0.00    -0.354 N 
ATOM     40  C   UNL A   1      41.945  30.299  31.622  1.00  0.00     0.074 A 
ATOM     41  C   UNL A   1      40.710  31.051  31.665  1.00  0.00     0.031 C 
ATOM     42  C   UNL A   1      40.463  25.419  27.736  1.00  0.00     0.029 A 
ATOM     43  C   UNL A   1      41.728  25.653  28.432  1.00  0.00     0.049 A 
ATOM     44  H   UNL A   1      42.196  27.243  29.691  1.00  0.00     0.167 HD
ATOM     45  C   UNL A   1      43.040  30.585  32.365  1.00  0.00     0.037 A 
ATOM     46  C   UNL A   1      42.819  24.862  28.372  1.00  0.00     0.037 A 
ATOM     47  C   UNL A   1      44.257  29.819  32.346  1.00  0.00     0.049 A 
ATOM     48  C   UNL A   1      44.066  25.260  29.122  1.00  0.00     0.074 A 
ATOM     49  C   UNL A   1      45.433  30.050  33.037  1.00  0.00     0.029 A 
ATOM     50  N   UNL A   1      44.449  28.663  31.605  1.00  0.00    -0.354 N 
ATOM     51  N   UNL A   1      44.265  26.280  29.923  1.00  0.00    -0.248 NA
ATOM     52  C   UNL A   1      45.250  24.406  28.943  1.00  0.00     0.031 C 
ATOM     53  C   UNL A   1      46.354  29.061  32.677  1.00  0.00     0.029 A 
ATOM     54  C   UNL A   1      45.733  28.181  31.804  1.00  0.00     0.049 A 
ATOM     55  H   UNL A   1      43.773  28.245  31.023  1.00  0.00     0.167 HD
ATOM     56  C   UNL A   1      45.579  26.174  30.361  1.00  0.00     0.074 A 
ATOM     57  C   UNL A   1      46.130  24.985  29.747  1.00  0.00     0.031 C 
ATOM     58  C   UNL A   1      46.268  26.992  31.194  1.00  0.00     0.037 A 
BRANCH  45  59
ATOM     59  C   UNL A   1      42.989  31.818  33.217  1.00  0.00     0.064 A 
ATOM     60  C   UNL A   1      43.498  33.048  32.780  1.00  0.00     0.173 A 
ATOM     61  C   UNL A   1      42.401  31.764  34.490  1.00  0.00     0.173 A 
ATOM     62  F   UNL A   1      44.091  33.148  31.580  1.00  0.00    -0.203 F 
ATOM     63  C   UNL A   1      43.443  34.175  33.597  1.00  0.00     0.198 A 
ATOM     64  C   UNL A   1      42.322  32.898  35.293  1.00  0.00     0.198 A 
ATOM     65  F   UNL A   1      41.900  30.610  34.956  1.00  0.00    -0.203 F 
ATOM     66  F   UNL A   1      43.983  35.329  33.182  1.00  0.00    -0.200 F 
ATOM     67  C   UNL A   1      42.850  34.101  34.848  1.00  0.00     0.200 A 
ATOM     68  F   UNL A   1      41.739  32.825  36.497  1.00  0.00    -0.200 F 
ATOM     69  F   UNL A   1      42.795  35.187  35.632  1.00  0.00    -0.200 F 
ENDBRANCH  45  59
BRANCH  46  70
ATOM     70  C   UNL A   1      42.811  23.642  27.518  1.00  0.00     0.064 A 
ATOM     71  C   UNL A   1      42.378  22.404  28.012  1.00  0.00     0.173 A 
ATOM     72  C   UNL A   1      43.283  23.684  26.196  1.00  0.00     0.173 A 
ATOM     73  F   UNL A   1      41.960  22.299  29.283  1.00  0.00    -0.203 F 
ATOM     74  C   UNL A   1      42.430  21.255  27.224  1.00  0.00     0.198 A 
ATOM     75  C   UNL A   1      43.304  22.542  25.400  1.00  0.00     0.198 A 
ATOM     76  F   UNL A   1      43.728  24.838  25.677  1.00  0.00    -0.203 F 
ATOM     77  F   UNL A   1      42.065  20.074  27.740  1.00  0.00    -0.200 F 
ATOM     78  C   UNL A   1      42.886  21.327  25.917  1.00  0.00     0.200 A 
ATOM     79  F   UNL A   1      43.742  22.618  24.135  1.00  0.00    -0.200 F 
ATOM     80  F   UNL A   1      42.938  20.222  25.161  1.00  0.00    -0.200 F 
ENDBRANCH  46  70
BRANCH  58  81
ATOM     81  C   UNL A   1      47.684  26.615  31.523  1.00  0.00     0.064 A 
ATOM     82  C   UNL A   1      47.984  25.671  32.516  1.00  0.00     0.173 A 
ATOM     83  C   UNL A   1      48.752  27.170  30.800  1.00  0.00     0.173 A 
ATOM     84  F   UNL A   1      47.001  25.120  33.243  1.00  0.00    -0.203 F 
ATOM     85  C   UNL A   1      49.302  25.314  32.789  1.00  0.00     0.198 A 
ATOM     86  C   UNL A   1      50.066  26.789  31.056  1.00  0.00     0.198 A 
ATOM     87  F   UNL A   1      48.519  28.070  29.833  1.00  0.00    -0.203 F 
ATOM     88  F   UNL A   1      49.569  24.441  33.772  1.00  0.00    -0.200 F 
ATOM     89  C   UNL A   1      50.341  25.866  32.054  1.00  0.00     0.200 A 
ATOM     90  F   UNL A   1      51.067  27.311  30.334  1.00  0.00    -0.200 F 
ATOM     91  F   UNL A   1      51.608  25.513  32.312  1.00  0.00    -0.200 F 
ENDBRANCH  58  81
ENDBRANCH  32  33
ENDBRANCH  25  27
ENDBRANCH  24  25
ENDBRANCH  23  24
ENDBRANCH  22  23
ENDBRANCH  21  22
ENDBRANCH  20  21
ENDBRANCH   1  20
TORSDOF 19
ENDMDL
MODEL 2
REMARK VINA RESULT:      -9.2      5.712     11.991
REMARK SMILES C[C@@H](C(=O)OCCOCCOCCOC(=O)c1ccc(-c2c3nc(c(-c4c(F)c(F)c(F)c(F)c4F)c4ccc([nH]4)c(-c4c(F)c(F)c(F)c(F)c4F)c4nc(c(-c5c(F)c(F)c(F)c(F)c5F)c5ccc2[nH]5)C=C4)C=C3)cc1)c1ccc(=O)n(C(F)F)c1
REMARK SMILES IDX 9 1 8 2 7 3 6 4 5 5 3 6 4 7 2 8 1 9 80 10 81 11 89 12 82 13
REMARK SMILES IDX 85 14 83 15 84 16 86 17 87 18 88 19 10 20 11 21 12 22 13 23
REMARK SMILES IDX 14 24 15 25 16 26 17 27 18 28 79 29 19 30 78 31 20 32 21 33
REMARK SMILES IDX 22 34 72 35 23 36 77 37 71 38 73 39 24 40 76 41 70 42 69 43
REMARK SMILES IDX 25 45 57 46 37 47 56 48 38 49 41 50 55 51 74 52 39 53 40 54
REMARK SMILES IDX 54 56 75 57 42 58 26 59 27 60 35 61 28 62 29 63 33 64 36 65
REMARK SMILES IDX 30 66 31 67 34 68 32 69 58 70 59 71 67 72 60 73 61 74 65 75
REMARK SMILES IDX 68 76 62 77 63 78 66 79 64 80 43 81 44 82 52 83 45 84 46 85
REMARK SMILES IDX 50 86 53 87 47 88 48 89 51 90 49 91
REMARK H PARENT 73 44 41 55
REMARK Flexibility Score: inf
ROOT
ATOM      1  C   UNL A   1      39.424  21.497  26.482  1.00  0.00     0.188 C 
ENDROOT
BRANCH   1   2
ATOM      2  O   UNL A   1      38.911  21.312  25.167  1.00  0.00    -0.376 OA
BRANCH   2   3
ATOM      3  C   UNL A   1      37.618  20.736  25.004  1.00  0.00     0.202 C 
BRANCH   3   4
ATOM      4  C   UNL A   1      36.410  21.573  25.437  1.00  0.00     0.261 C 
BRANCH   4   5
ATOM      5  O   UNL A   1      35.913  22.472  24.419  1.00  0.00    -0.463 OA
BRANCH   5   6
ATOM      6  C   UNL A   1      34.760  23.126  24.721  1.00  0.00     0.313 C 
ATOM      7  O   UNL A   1      34.687  24.006  25.576  1.00  0.00    -0.252 OA
BRANCH   6   8
ATOM      8  C   UNL A   1      33.530  22.687  23.890  1.00  0.00     0.127 C 
ATOM      9  C   UNL A   1      32.392  23.714  23.806  1.00  0.00     0.025 C 
BRANCH   8  10
ATOM     10  C   UNL A   1      33.111  21.242  24.210  1.00  0.00    -0.017 A 
ATOM     11  C   UNL A   1      32.981  20.912  25.623  1.00  0.00     0.012 A 
ATOM     12  C   UNL A   1      32.944  20.235  23.326  1.00  0.00     0.099 A 
ATOM     13  C   UNL A   1      32.687  19.678  26.041  1.00  0.00     0.072 A 
ATOM     14  N   UNL A   1      32.656  18.933  23.733  1.00  0.00    -0.258 N 
ATOM     15  C   UNL A   1      32.524  18.576  25.067  1.00  0.00     0.254 A 
ATOM     16  O   UNL A   1      32.303  17.450  25.497  1.00  0.00    -0.269 OA
BRANCH  14  17
ATOM     17  C   UNL A   1      32.669  17.846  22.783  1.00  0.00     0.451 C 
ATOM     18  F   UNL A   1      32.288  18.281  21.558  1.00  0.00    -0.185 F 
ATOM     19  F   UNL A   1      33.896  17.285  22.658  1.00  0.00    -0.185 F 
ENDBRANCH  14  17
ENDBRANCH   8  10
ENDBRANCH   6   8
ENDBRANCH   5   6
ENDBRANCH   4   5
ENDBRANCH   3   4
ENDBRANCH   2   3
ENDBRANCH   1   2
BRANCH   1  20
ATOM     20  C   UNL A   1      40.896  21.149  26.758  1.00  0.00     0.188 C 
BRANCH  20  21
ATOM     21  O   UNL A   1      41.559  20.546  25.670  1.00  0.00    -0.376 OA
BRANCH  21  22
ATOM     22  C   UNL A   1      42.964  20.398  25.764  1.00  0.00     0.202 C 
BRANCH  22  23
ATOM     23  C   UNL A   1      43.818  21.662  25.573  1.00  0.00     0.261 C 
BRANCH  23  24
ATOM     24  O   UNL A   1      43.122  22.834  25.109  1.00  0.00    -0.460 OA
BRANCH  24  25
ATOM     25  C   UNL A   1      43.801  23.998  25.102  1.00  0.00     0.338 C 
ATOM     26  O   UNL A   1      44.703  24.326  24.340  1.00  0.00    -0.246 OA
BRANCH  25  27
ATOM     27  C   UNL A   1      43.135  24.916  26.045  1.00  0.00     0.060 A 
ATOM     28  C   UNL A   1      43.595  26.234  26.139  1.00  0.00     0.016 A 
ATOM     29  C   UNL A   1      42.069  24.486  26.838  1.00  0.00     0.016 A 
ATOM     30  C   UNL A   1      42.986  27.120  27.025  1.00  0.00     0.010 A 
ATOM     31  C   UNL A   1      41.487  25.373  27.755  1.00  0.00     0.010 A 
ATOM     32  C   UNL A   1      41.959  26.692  27.870  1.00  0.00    -0.014 A 
BRANCH  32  33
ATOM     33  C   UNL A   1      41.542  27.572  28.994  1.00  0.00     0.031 A 
ATOM     34  C   UNL A   1      42.369  27.571  30.251  1.00  0.00     0.074 A 
ATOM     35  C   UNL A   1      40.520  28.442  28.879  1.00  0.00     0.049 A 
ATOM     36  N   UNL A   1      42.150  28.158  31.399  1.00  0.00    -0.248 NA
ATOM     37  C   UNL A   1      43.624  26.805  30.197  1.00  0.00     0.031 C 
ATOM     38  C   UNL A   1      39.722  28.658  27.675  1.00  0.00     0.029 A 
ATOM     39  N   UNL A   1      39.991  29.319  29.796  1.00  0.00    -0.354 N 
ATOM     40  C   UNL A   1      43.221  27.809  32.211  1.00  0.00     0.074 A 
ATOM     41  C   UNL A   1      44.086  26.953  31.430  1.00  0.00     0.031 C 
ATOM     42  C   UNL A   1      38.807  29.611  27.925  1.00  0.00     0.029 A 
ATOM     43  C   UNL A   1      38.913  30.024  29.323  1.00  0.00     0.049 A 
ATOM     44  H   UNL A   1      40.352  29.431  30.705  1.00  0.00     0.167 HD
ATOM     45  C   UNL A   1      43.459  28.169  33.494  1.00  0.00     0.037 A 
ATOM     46  C   UNL A   1      38.081  30.875  29.959  1.00  0.00     0.037 A 
ATOM     47  C   UNL A   1      42.616  29.045  34.263  1.00  0.00     0.049 A 
ATOM     48  C   UNL A   1      38.303  31.175  31.421  1.00  0.00     0.074 A 
ATOM     49  C   UNL A   1      42.755  29.440  35.581  1.00  0.00     0.029 A 
ATOM     50  N   UNL A   1      41.479  29.672  33.775  1.00  0.00    -0.354 N 
ATOM     51  N   UNL A   1      39.264  30.771  32.217  1.00  0.00    -0.248 NA
ATOM     52  C   UNL A   1      37.310  32.037  32.081  1.00  0.00     0.031 C 
ATOM     53  C   UNL A   1      41.677  30.270  35.906  1.00  0.00     0.029 A 
ATOM     54  C   UNL A   1      40.896  30.435  34.774  1.00  0.00     0.049 A 
ATOM     55  H   UNL A   1      41.138  29.589  32.855  1.00  0.00     0.167 HD
ATOM     56  C   UNL A   1      39.008  31.347  33.455  1.00  0.00     0.074 A 
ATOM     57  C   UNL A   1      37.806  32.140  33.306  1.00  0.00     0.031 C 
ATOM     58  C   UNL A   1      39.704  31.226  34.612  1.00  0.00     0.037 A 
BRANCH  45  59
ATOM     59  C   UNL A   1      44.654  27.562  34.167  1.00  0.00     0.064 A 
ATOM     60  C   UNL A   1      44.585  26.341  34.853  1.00  0.00     0.173 A 
ATOM     61  C   UNL A   1      45.897  28.212  34.107  1.00  0.00     0.173 A 
ATOM     62  F   UNL A   1      43.415  25.691  34.960  1.00  0.00    -0.203 F 
ATOM     63  C   UNL A   1      45.710  25.806  35.475  1.00  0.00     0.198 A 
ATOM     64  C   UNL A   1      47.025  27.660  34.704  1.00  0.00     0.198 A 
ATOM     65  F   UNL A   1      46.016  29.384  33.464  1.00  0.00    -0.203 F 
ATOM     66  F   UNL A   1      45.611  24.664  36.169  1.00  0.00    -0.200 F 
ATOM     67  C   UNL A   1      46.929  26.461  35.394  1.00  0.00     0.200 A 
ATOM     68  F   UNL A   1      48.204  28.291  34.616  1.00  0.00    -0.200 F 
ATOM     69  F   UNL A   1      48.013  25.943  35.990  1.00  0.00    -0.200 F 
ENDBRANCH  45  59
BRANCH  46  70
ATOM     70  C   UNL A   1      36.916  31.458  29.239  1.00  0.00     0.064 A 
ATOM     71  C   UNL A   1      36.859  32.822  28.921  1.00  0.00     0.173 A 
ATOM     72  C   UNL A   1      35.810  30.664  28.896  1.00  0.00     0.173 A 
ATOM     73  F   UNL A   1      37.869  33.634  29.267  1.00  0.00    -0.203 F 
ATOM     74  C   UNL A   1      35.737  33.371  28.300  1.00  0.00     0.198 A 
ATOM     75  C   UNL A   1      34.704  31.208  28.247  1.00  0.00     0.198 A 
ATOM     76  F   UNL A   1      35.801  29.357  29.195  1.00  0.00    -0.203 F 
ATOM     77  F   UNL A   1      35.684  34.687  28.058  1.00  0.00    -0.200 F 
ATOM     78  C   UNL A   1      34.664  32.562  27.957  1.00  0.00     0.200 A 
ATOM     79  F   UNL A   1      33.671  30.420  27.915  1.00  0.00    -0.200 F 
ATOM     80  F   UNL A   1      33.586  33.090  27.363  1.00  0.00    -0.200 F 
ENDBRANCH  46  70
BRANCH  58  81
ATOM     81  C   UNL A   1      39.208  31.994  35.804  1.00  0.00     0.064 A 
ATOM     82  C   UNL A   1      39.586  33.326  36.032  1.00  0.00     0.173 A 
ATOM     83  C   UNL A   1      38.305  31.405  36.701  1.00  0.00     0.173 A 
ATOM     84  F   UNL A   1      40.456  33.931  35.210  1.00  0.00    -0.203 F 
ATOM     85  C   UNL A   1      39.095  34.031  37.128  1.00  0.00     0.198 A 
ATOM     86  C   UNL A   1      37.793  32.122  37.779  1.00  0.00     0.198 A 
ATOM     87  F   UNL A   1      37.904  30.137  36.523  1.00  0.00    -0.203 F 
ATOM     88  F   UNL A   1      39.502  35.289  37.351  1.00  0.00    -0.200 F 
ATOM     89  C   UNL A   1      38.193  33.432  37.996  1.00  0.00     0.200 A 
ATOM     90  F   UNL A   1      36.909  31.547  38.607  1.00  0.00    -0.200 F 
ATOM     91  F   UNL A   1      37.715  34.116  39.044  1.00  0.00    -0.200 F 
ENDBRANCH  58  81
ENDBRANCH  32  33
ENDBRANCH  25  27
ENDBRANCH  24  25
ENDBRANCH  23  24
ENDBRANCH  22  23
ENDBRANCH  21  22
ENDBRANCH  20  21
ENDBRANCH   1  20
TORSDOF 19
ENDMDL
MODEL 3
REMARK VINA RESULT:      -9.1      5.597     10.719
REMARK SMILES C[C@@H](C(=O)OCCOCCOCCOC(=O)c1ccc(-c2c3nc(c(-c4c(F)c(F)c(F)c(F)c4F)c4ccc([nH]4)c(-c4c(F)c(F)c(F)c(F)c4F)c4nc(c(-c5c(F)c(F)c(F)c(F)c5F)c5ccc2[nH]5)C=C4)C=C3)cc1)c1ccc(=O)n(C(F)F)c1
REMARK SMILES IDX 9 1 8 2 7 3 6 4 5 5 3 6 4 7 2 8 1 9 80 10 81 11 89 12 82 13
REMARK SMILES IDX 85 14 83 15 84 16 86 17 87 18 88 19 10 20 11 21 12 22 13 23
REMARK SMILES IDX 14 24 15 25 16 26 17 27 18 28 79 29 19 30 78 31 20 32 21 33
REMARK SMILES IDX 22 34 72 35 23 36 77 37 71 38 73 39 24 40 76 41 70 42 69 43
REMARK SMILES IDX 25 45 57 46 37 47 56 48 38 49 41 50 55 51 74 52 39 53 40 54
REMARK SMILES IDX 54 56 75 57 42 58 26 59 27 60 35 61 28 62 29 63 33 64 36 65
REMARK SMILES IDX 30 66 31 67 34 68 32 69 58 70 59 71 67 72 60 73 61 74 65 75
REMARK SMILES IDX 68 76 62 77 63 78 66 79 64 80 43 81 44 82 52 83 45 84 46 85
REMARK SMILES IDX 50 86 53 87 47 88 48 89 51 90 49 91
REMARK H PARENT 73 44 41 55
REMARK Flexibility Score: inf
ROOT
ATOM      1  C   UNL A   1      37.341  23.305  25.242  1.00  0.00     0.188 C 
ENDROOT
BRANCH   1   2
ATOM      2  O   UNL A   1      36.172  24.102  25.398  1.00  0.00    -0.376 OA
BRANCH   2   3
ATOM      3  C   UNL A   1      34.940  23.465  25.724  1.00  0.00     0.202 C 
BRANCH   3   4
ATOM      4  C   UNL A   1      33.692  24.348  25.830  1.00  0.00     0.261 C 
BRANCH   4   5
ATOM      5  O   UNL A   1      33.962  25.768  25.796  1.00  0.00    -0.463 OA
BRANCH   5   6
ATOM      6  C   UNL A   1      32.898  26.578  26.043  1.00  0.00     0.313 C 
ATOM      7  O   UNL A   1      31.896  26.208  26.651  1.00  0.00    -0.252 OA
BRANCH   6   8
ATOM      8  C   UNL A   1      33.047  28.023  25.510  1.00  0.00     0.127 C 
ATOM      9  C   UNL A   1      33.440  29.074  26.558  1.00  0.00     0.025 C 
BRANCH   8  10
ATOM     10  C   UNL A   1      31.891  28.407  24.572  1.00  0.00    -0.017 A 
ATOM     11  C   UNL A   1      31.718  27.567  23.394  1.00  0.00     0.012 A 
ATOM     12  C   UNL A   1      31.087  29.487  24.678  1.00  0.00     0.099 A 
ATOM     13  C   UNL A   1      30.795  27.826  22.465  1.00  0.00     0.072 A 
ATOM     14  N   UNL A   1      30.129  29.794  23.715  1.00  0.00    -0.258 N 
ATOM     15  C   UNL A   1      29.931  29.022  22.579  1.00  0.00     0.254 A 
ATOM     16  O   UNL A   1      29.131  29.249  21.679  1.00  0.00    -0.269 OA
BRANCH  14  17
ATOM     17  C   UNL A   1      29.418  31.051  23.760  1.00  0.00     0.451 C 
ATOM     18  F   UNL A   1      28.092  30.841  23.934  1.00  0.00    -0.185 F 
ATOM     19  F   UNL A   1      29.846  31.849  24.768  1.00  0.00    -0.185 F 
ENDBRANCH  14  17
ENDBRANCH   8  10
ENDBRANCH   6   8
ENDBRANCH   5   6
ENDBRANCH   4   5
ENDBRANCH   3   4
ENDBRANCH   2   3
ENDBRANCH   1   2
BRANCH   1  20
ATOM     20  C   UNL A   1      38.320  23.189  26.422  1.00  0.00     0.188 C 
BRANCH  20  21
ATOM     21  O   UNL A   1      39.349  22.245  26.224  1.00  0.00    -0.376 OA
BRANCH  21  22
ATOM     22  C   UNL A   1      39.014  21.050  25.541  1.00  0.00     0.202 C 
BRANCH  22  23
ATOM     23  C   UNL A   1      39.658  19.749  26.044  1.00  0.00     0.261 C 
BRANCH  23  24
ATOM     24  O   UNL A   1      40.863  19.335  25.373  1.00  0.00    -0.460 OA
BRANCH  24  25
ATOM     25  C   UNL A   1      41.976  19.200  26.120  1.00  0.00     0.338 C 
ATOM     26  O   UNL A   1      42.553  18.158  26.409  1.00  0.00    -0.246 OA
BRANCH  25  27
ATOM     27  C   UNL A   1      42.520  20.548  26.369  1.00  0.00     0.060 A 
ATOM     28  C   UNL A   1      42.494  21.053  27.673  1.00  0.00     0.016 A 
ATOM     29  C   UNL A   1      43.047  21.316  25.328  1.00  0.00     0.016 A 
ATOM     30  C   UNL A   1      42.998  22.325  27.934  1.00  0.00     0.010 A 
ATOM     31  C   UNL A   1      43.517  22.611  25.593  1.00  0.00     0.010 A 
ATOM     32  C   UNL A   1      43.473  23.133  26.897  1.00  0.00    -0.014 A 
BRANCH  32  33
ATOM     33  C   UNL A   1      43.722  24.573  27.167  1.00  0.00     0.031 A 
ATOM     34  C   UNL A   1      45.095  25.127  26.899  1.00  0.00     0.074 A 
ATOM     35  C   UNL A   1      42.735  25.412  27.534  1.00  0.00     0.049 A 
ATOM     36  N   UNL A   1      45.588  26.310  27.159  1.00  0.00    -0.248 NA
ATOM     37  C   UNL A   1      46.041  24.214  26.237  1.00  0.00     0.031 C 
ATOM     38  C   UNL A   1      41.328  25.051  27.690  1.00  0.00     0.029 A 
ATOM     39  N   UNL A   1      42.772  26.754  27.830  1.00  0.00    -0.354 N 
ATOM     40  C   UNL A   1      46.905  26.275  26.721  1.00  0.00     0.074 A 
ATOM     41  C   UNL A   1      47.140  24.952  26.185  1.00  0.00     0.031 C 
ATOM     42  C   UNL A   1      40.634  26.145  28.048  1.00  0.00     0.029 A 
ATOM     43  C   UNL A   1      41.557  27.268  28.209  1.00  0.00     0.049 A 
ATOM     44  H   UNL A   1      43.592  27.296  27.774  1.00  0.00     0.167 HD
ATOM     45  C   UNL A   1      47.835  27.258  26.763  1.00  0.00     0.037 A 
ATOM     46  C   UNL A   1      41.234  28.493  28.673  1.00  0.00     0.037 A 
ATOM     47  C   UNL A   1      47.594  28.583  27.266  1.00  0.00     0.049 A 
ATOM     48  C   UNL A   1      42.312  29.539  28.816  1.00  0.00     0.074 A 
ATOM     49  C   UNL A   1      48.483  29.637  27.383  1.00  0.00     0.029 A 
ATOM     50  N   UNL A   1      46.368  29.041  27.726  1.00  0.00    -0.354 N 
ATOM     51  N   UNL A   1      43.580  29.477  28.488  1.00  0.00    -0.248 NA
ATOM     52  C   UNL A   1      41.916  30.824  29.413  1.00  0.00     0.031 C 
ATOM     53  C   UNL A   1      47.807  30.719  27.958  1.00  0.00     0.029 A 
ATOM     54  C   UNL A   1      46.483  30.356  28.148  1.00  0.00     0.049 A 
ATOM     55  H   UNL A   1      45.539  28.511  27.749  1.00  0.00     0.167 HD
ATOM     56  C   UNL A   1      44.123  30.714  28.812  1.00  0.00     0.074 A 
ATOM     57  C   UNL A   1      43.046  31.514  29.353  1.00  0.00     0.031 C 
ATOM     58  C   UNL A   1      45.402  31.145  28.677  1.00  0.00     0.037 A 
BRANCH  45  59
ATOM     59  C   UNL A   1      49.221  26.912  26.305  1.00  0.00     0.064 A 
ATOM     60  C   UNL A   1      50.185  26.388  27.176  1.00  0.00     0.173 A 
ATOM     61  C   UNL A   1      49.580  27.096  24.961  1.00  0.00     0.173 A 
ATOM     62  F   UNL A   1      49.900  26.215  28.476  1.00  0.00    -0.203 F 
ATOM     63  C   UNL A   1      51.467  26.083  26.724  1.00  0.00     0.198 A 
ATOM     64  C   UNL A   1      50.852  26.764  24.506  1.00  0.00     0.198 A 
ATOM     65  F   UNL A   1      48.693  27.597  24.087  1.00  0.00    -0.203 F 
ATOM     66  F   UNL A   1      52.390  25.632  27.584  1.00  0.00    -0.200 F 
ATOM     67  C   UNL A   1      51.796  26.265  25.389  1.00  0.00     0.200 A 
ATOM     68  F   UNL A   1      51.164  26.932  23.214  1.00  0.00    -0.200 F 
ATOM     69  F   UNL A   1      53.029  25.968  24.954  1.00  0.00    -0.200 F 
ENDBRANCH  45  59
BRANCH  46  70
ATOM     70  C   UNL A   1      39.839  28.785  29.103  1.00  0.00     0.064 A 
ATOM     71  C   UNL A   1      39.408  28.529  30.412  1.00  0.00     0.173 A 
ATOM     72  C   UNL A   1      38.894  29.285  28.194  1.00  0.00     0.173 A 
ATOM     73  F   UNL A   1      40.258  28.008  31.309  1.00  0.00    -0.203 F 
ATOM     74  C   UNL A   1      38.083  28.750  30.790  1.00  0.00     0.198 A 
ATOM     75  C   UNL A   1      37.580  29.536  28.581  1.00  0.00     0.198 A 
ATOM     76  F   UNL A   1      39.247  29.530  26.923  1.00  0.00    -0.203 F 
ATOM     77  F   UNL A   1      37.683  28.442  32.031  1.00  0.00    -0.200 F 
ATOM     78  C   UNL A   1      37.173  29.260  29.877  1.00  0.00     0.200 A 
ATOM     79  F   UNL A   1      36.706  30.032  27.696  1.00  0.00    -0.200 F 
ATOM     80  F   UNL A   1      35.901  29.469  30.240  1.00  0.00    -0.200 F 
ENDBRANCH  46  70
BRANCH  58  81
ATOM     81  C   UNL A   1      45.704  32.558  29.087  1.00  0.00     0.064 A 
ATOM     82  C   UNL A   1      46.188  32.867  30.367  1.00  0.00     0.173 A 
ATOM     83  C   UNL A   1      45.554  33.611  28.171  1.00  0.00     0.173 A 
ATOM     84  F   UNL A   1      46.338  31.898  31.284  1.00  0.00    -0.203 F 
ATOM     85  C   UNL A   1      46.488  34.179  30.722  1.00  0.00     0.198 A 
ATOM     86  C   UNL A   1      45.883  34.918  28.519  1.00  0.00     0.198 A 
ATOM     87  F   UNL A   1      45.105  33.369  26.931  1.00  0.00    -0.203 F 
ATOM     88  F   UNL A   1      46.909  34.457  31.965  1.00  0.00    -0.200 F 
ATOM     89  C   UNL A   1      46.343  35.202  29.796  1.00  0.00     0.200 A 
ATOM     90  F   UNL A   1      45.759  35.902  27.619  1.00  0.00    -0.200 F 
ATOM     91  F   UNL A   1      46.643  36.463  30.137  1.00  0.00    -0.200 F 
ENDBRANCH  58  81
ENDBRANCH  32  33
ENDBRANCH  25  27
ENDBRANCH  24  25
ENDBRANCH  23  24
ENDBRANCH  22  23
ENDBRANCH  21  22
ENDBRANCH  20  21
ENDBRANCH   1  20
TORSDOF 19
ENDMDL
