MODEL 1
REMARK VINA RESULT:     -11.2      0.000      0.000
REMARK SMILES COc1ccc2c(c1)[C@@](NC=O)(C(=O)OCCOCCOCCOC(=O)c1ccc(-c3c4nc(c(-c5c(F)c(F)c(F)c(F)c5F)c5ccc([nH]5)c(-c5c(F)c(F)c(F)c(F)c5F)c5nc(c(-c6c(F)c(F)c(F)c(F)c6F)c6ccc3[nH]6)C=C5)C=C4)cc1)CCC2
REMARK SMILES IDX 20 1 19 2 18 3 17 4 16 5 15 6 13 7 14 8 9 9 3 10 4 11 8 12
REMARK SMILES IDX 5 13 7 14 6 15 92 16 90 17 91 18 2 19 1 20 10 21 11 22 12 24
REMARK SMILES IDX 21 25 22 26 23 27 24 28 25 29 26 30 27 31 28 32 89 33 29 34
REMARK SMILES IDX 88 35 30 36 31 37 32 38 82 39 33 40 87 41 81 42 83 43 34 44
REMARK SMILES IDX 86 45 80 46 79 47 35 49 67 50 47 51 66 52 48 53 51 54 65 55
REMARK SMILES IDX 84 56 49 57 50 58 64 60 85 61 52 62 36 63 37 64 45 65 38 66
REMARK SMILES IDX 39 67 43 68 46 69 40 70 41 71 44 72 42 73 68 74 69 75 77 76
REMARK SMILES IDX 70 77 71 78 75 79 78 80 72 81 73 82 76 83 74 84 53 85 54 86
REMARK SMILES IDX 62 87 55 88 56 89 60 90 63 91 57 92 58 93 61 94 59 95
REMARK H PARENT 10 23 83 48 51 59
REMARK Flexibility Score: inf
ROOT
ATOM      1  C   UNL A   1      35.163  33.574  28.099  1.00  0.00     0.188 C 
ENDROOT
BRANCH   1   2
ATOM      2  C   UNL A   1      34.145  32.442  28.302  1.00  0.00     0.188 C 
BRANCH   2   3
ATOM      3  O   UNL A   1      34.275  31.225  27.576  1.00  0.00    -0.376 OA
BRANCH   3   4
ATOM      4  C   UNL A   1      33.149  30.662  26.923  1.00  0.00     0.202 C 
BRANCH   4   5
ATOM      5  C   UNL A   1      33.376  29.457  25.999  1.00  0.00     0.261 C 
BRANCH   5   6
ATOM      6  O   UNL A   1      32.228  28.941  25.292  1.00  0.00    -0.461 OA
BRANCH   6   7
ATOM      7  C   UNL A   1      32.396  28.712  23.956  1.00  0.00     0.336 C 
ATOM      8  O   UNL A   1      33.210  29.324  23.267  1.00  0.00    -0.249 OA
BRANCH   7   9
ATOM      9  C   UNL A   1      31.336  27.706  23.354  1.00  0.00     0.164 C 
ATOM     10  C   UNL A   1      28.881  30.474  22.354  1.00  0.00     0.119 A 
ATOM     11  C   UNL A   1      27.654  29.894  22.651  1.00  0.00     0.047 A 
ATOM     12  C   UNL A   1      30.046  29.755  22.596  1.00  0.00     0.053 A 
ATOM     13  C   UNL A   1      27.591  28.583  23.125  1.00  0.00     0.008 A 
ATOM     14  C   UNL A   1      30.015  28.432  23.077  1.00  0.00    -0.004 A 
ATOM     15  C   UNL A   1      28.761  27.831  23.318  1.00  0.00    -0.042 A 
ATOM     16  C   UNL A   1      28.622  26.430  23.863  1.00  0.00     0.036 C 
ATOM     17  C   UNL A   1      31.065  26.501  24.291  1.00  0.00     0.046 C 
ATOM     18  C   UNL A   1      29.917  25.634  23.776  1.00  0.00     0.008 C 
BRANCH  10  19
ATOM     19  O   UNL A   1      28.853  31.749  21.860  1.00  0.00    -0.497 OA
ATOM     20  C   UNL A   1      28.027  31.933  20.711  1.00  0.00     0.278 C 
ENDBRANCH  10  19
BRANCH   9  21
ATOM     21  N   UNL A   1      31.947  27.126  22.131  1.00  0.00    -0.339 N 
ATOM     22  C   UNL A   1      33.008  26.282  22.047  1.00  0.00     0.338 C 
ATOM     23  H   UNL A   1      31.531  27.383  21.277  1.00  0.00     0.164 HD
ATOM     24  O   UNL A   1      33.278  25.690  21.010  1.00  0.00    -0.279 OA
ENDBRANCH   9  21
ENDBRANCH   7   9
ENDBRANCH   6   7
ENDBRANCH   5   6
ENDBRANCH   4   5
ENDBRANCH   3   4
ENDBRANCH   2   3
ENDBRANCH   1   2
BRANCH   1  25
ATOM     25  O   UNL A   1      34.922  34.713  28.890  1.00  0.00    -0.376 OA
BRANCH  25  26
ATOM     26  C   UNL A   1      34.007  35.664  28.392  1.00  0.00     0.202 C 
BRANCH  26  27
ATOM     27  C   UNL A   1      33.023  36.233  29.423  1.00  0.00     0.261 C 
BRANCH  27  28
ATOM     28  O   UNL A   1      32.528  35.307  30.411  1.00  0.00    -0.460 OA
BRANCH  28  29
ATOM     29  C   UNL A   1      32.600  35.683  31.712  1.00  0.00     0.338 C 
ATOM     30  O   UNL A   1      31.769  36.310  32.334  1.00  0.00    -0.246 OA
BRANCH  29  31
ATOM     31  C   UNL A   1      33.761  34.985  32.328  1.00  0.00     0.060 A 
ATOM     32  C   UNL A   1      35.020  35.609  32.309  1.00  0.00     0.016 A 
ATOM     33  C   UNL A   1      33.613  33.736  32.931  1.00  0.00     0.016 A 
ATOM     34  C   UNL A   1      36.135  34.973  32.868  1.00  0.00     0.010 A 
ATOM     35  C   UNL A   1      34.735  33.089  33.466  1.00  0.00     0.010 A 
ATOM     36  C   UNL A   1      36.008  33.688  33.412  1.00  0.00    -0.014 A 
BRANCH  36  37
ATOM     37  C   UNL A   1      37.216  32.882  33.738  1.00  0.00     0.031 A 
ATOM     38  C   UNL A   1      37.929  33.160  35.034  1.00  0.00     0.074 A 
ATOM     39  C   UNL A   1      37.689  31.930  32.914  1.00  0.00     0.049 A 
ATOM     40  N   UNL A   1      39.058  32.677  35.492  1.00  0.00    -0.248 NA
ATOM     41  C   UNL A   1      37.278  34.124  35.934  1.00  0.00     0.031 C 
ATOM     42  C   UNL A   1      37.075  31.515  31.657  1.00  0.00     0.029 A 
ATOM     43  N   UNL A   1      38.819  31.150  33.013  1.00  0.00    -0.354 N 
ATOM     44  C   UNL A   1      39.258  33.291  36.722  1.00  0.00     0.074 A 
ATOM     45  C   UNL A   1      38.152  34.201  36.925  1.00  0.00     0.031 C 
ATOM     46  C   UNL A   1      37.845  30.568  31.090  1.00  0.00     0.029 A 
ATOM     47  C   UNL A   1      39.027  30.342  31.921  1.00  0.00     0.049 A 
ATOM     48  H   UNL A   1      39.420  31.169  33.792  1.00  0.00     0.167 HD
ATOM     49  C   UNL A   1      40.271  33.111  37.605  1.00  0.00     0.037 A 
ATOM     50  C   UNL A   1      40.068  29.540  31.614  1.00  0.00     0.037 A 
ATOM     51  C   UNL A   1      41.375  32.210  37.403  1.00  0.00     0.049 A 
ATOM     52  C   UNL A   1      41.230  29.420  32.570  1.00  0.00     0.074 A 
ATOM     53  C   UNL A   1      42.438  31.947  38.249  1.00  0.00     0.029 A 
ATOM     54  N   UNL A   1      41.568  31.436  36.268  1.00  0.00    -0.354 N 
ATOM     55  N   UNL A   1      41.409  29.990  33.738  1.00  0.00    -0.248 NA
ATOM     56  C   UNL A   1      42.338  28.543  32.163  1.00  0.00     0.031 C 
ATOM     57  C   UNL A   1      43.309  31.066  37.599  1.00  0.00     0.029 A 
ATOM     58  C   UNL A   1      42.751  30.721  36.378  1.00  0.00     0.049 A 
ATOM     59  H   UNL A   1      40.955  31.400  35.499  1.00  0.00     0.167 HD
ATOM     60  C   UNL A   1      42.626  29.517  34.217  1.00  0.00     0.074 A 
ATOM     61  C   UNL A   1      43.140  28.605  33.218  1.00  0.00     0.031 C 
ATOM     62  C   UNL A   1      43.256  29.810  35.382  1.00  0.00     0.037 A 
BRANCH  49  63
ATOM     63  C   UNL A   1      40.250  33.945  38.855  1.00  0.00     0.064 A 
ATOM     64  C   UNL A   1      40.909  35.183  38.934  1.00  0.00     0.173 A 
ATOM     65  C   UNL A   1      39.552  33.502  39.988  1.00  0.00     0.173 A 
ATOM     66  F   UNL A   1      41.603  35.647  37.884  1.00  0.00    -0.203 F 
ATOM     67  C   UNL A   1      40.901  35.924  40.113  1.00  0.00     0.198 A 
ATOM     68  C   UNL A   1      39.515  34.264  41.153  1.00  0.00     0.198 A 
ATOM     69  F   UNL A   1      38.900  32.329  39.968  1.00  0.00    -0.203 F 
ATOM     70  F   UNL A   1      41.591  37.071  40.185  1.00  0.00    -0.200 F 
ATOM     71  C   UNL A   1      40.199  35.468  41.218  1.00  0.00     0.200 A 
ATOM     72  F   UNL A   1      38.824  33.828  42.215  1.00  0.00    -0.200 F 
ATOM     73  F   UNL A   1      40.191  36.184  42.351  1.00  0.00    -0.200 F 
ENDBRANCH  49  63
BRANCH  50  74
ATOM     74  C   UNL A   1      40.073  28.795  30.326  1.00  0.00     0.064 A 
ATOM     75  C   UNL A   1      40.663  29.335  29.175  1.00  0.00     0.173 A 
ATOM     76  C   UNL A   1      39.465  27.534  30.214  1.00  0.00     0.173 A 
ATOM     77  F   UNL A   1      41.221  30.554  29.220  1.00  0.00    -0.203 F 
ATOM     78  C   UNL A   1      40.639  28.650  27.962  1.00  0.00     0.198 A 
ATOM     79  C   UNL A   1      39.469  26.836  29.007  1.00  0.00     0.198 A 
ATOM     80  F   UNL A   1      38.871  26.977  31.279  1.00  0.00    -0.203 F 
ATOM     81  F   UNL A   1      41.164  29.214  26.865  1.00  0.00    -0.200 F 
ATOM     82  C   UNL A   1      40.050  27.397  27.881  1.00  0.00     0.200 A 
ATOM     83  F   UNL A   1      38.901  25.624  28.935  1.00  0.00    -0.200 F 
ATOM     84  F   UNL A   1      40.027  26.738  26.714  1.00  0.00    -0.200 F 
ENDBRANCH  50  74
BRANCH  62  85
ATOM     85  C   UNL A   1      44.556  29.107  35.671  1.00  0.00     0.064 A 
ATOM     86  C   UNL A   1      45.795  29.657  35.311  1.00  0.00     0.173 A 
ATOM     87  C   UNL A   1      44.560  27.885  36.363  1.00  0.00     0.173 A 
ATOM     88  F   UNL A   1      45.851  30.816  34.639  1.00  0.00    -0.203 F 
ATOM     89  C   UNL A   1      46.986  28.997  35.609  1.00  0.00     0.198 A 
ATOM     90  C   UNL A   1      45.754  27.246  36.690  1.00  0.00     0.198 A 
ATOM     91  F   UNL A   1      43.406  27.317  36.743  1.00  0.00    -0.203 F 
ATOM     92  F   UNL A   1      48.156  29.518  35.211  1.00  0.00    -0.200 F 
ATOM     93  C   UNL A   1      46.965  27.798  36.305  1.00  0.00     0.200 A 
ATOM     94  F   UNL A   1      45.731  26.098  37.380  1.00  0.00    -0.200 F 
ATOM     95  F   UNL A   1      48.113  27.171  36.600  1.00  0.00    -0.200 F 
ENDBRANCH  62  85
ENDBRANCH  36  37
ENDBRANCH  29  31
ENDBRANCH  28  29
ENDBRANCH  27  28
ENDBRANCH  26  27
ENDBRANCH  25  26
ENDBRANCH   1  25
TORSDOF 19
ENDMDL
MODEL 2
REMARK VINA RESULT:     -11.1      7.443     12.987
REMARK SMILES COc1ccc2c(c1)[C@@](NC=O)(C(=O)OCCOCCOCCOC(=O)c1ccc(-c3c4nc(c(-c5c(F)c(F)c(F)c(F)c5F)c5ccc([nH]5)c(-c5c(F)c(F)c(F)c(F)c5F)c5nc(c(-c6c(F)c(F)c(F)c(F)c6F)c6ccc3[nH]6)C=C5)C=C4)cc1)CCC2
REMARK SMILES IDX 20 1 19 2 18 3 17 4 16 5 15 6 13 7 14 8 9 9 3 10 4 11 8 12
REMARK SMILES IDX 5 13 7 14 6 15 92 16 90 17 91 18 2 19 1 20 10 21 11 22 12 24
REMARK SMILES IDX 21 25 22 26 23 27 24 28 25 29 26 30 27 31 28 32 89 33 29 34
REMARK SMILES IDX 88 35 30 36 31 37 32 38 82 39 33 40 87 41 81 42 83 43 34 44
REMARK SMILES IDX 86 45 80 46 79 47 35 49 67 50 47 51 66 52 48 53 51 54 65 55
REMARK SMILES IDX 84 56 49 57 50 58 64 60 85 61 52 62 36 63 37 64 45 65 38 66
REMARK SMILES IDX 39 67 43 68 46 69 40 70 41 71 44 72 42 73 68 74 69 75 77 76
REMARK SMILES IDX 70 77 71 78 75 79 78 80 72 81 73 82 76 83 74 84 53 85 54 86
REMARK SMILES IDX 62 87 55 88 56 89 60 90 63 91 57 92 58 93 61 94 59 95
REMARK H PARENT 10 23 83 48 51 59
REMARK Flexibility Score: inf
ROOT
ATOM      1  C   UNL A   1      41.437  21.127  27.358  1.00  0.00     0.188 C 
ENDROOT
BRANCH   1   2
ATOM      2  C   UNL A   1      40.536  21.535  26.183  1.00  0.00     0.188 C 
BRANCH   2   3
ATOM      3  O   UNL A   1      39.176  21.885  26.413  1.00  0.00    -0.376 OA
BRANCH   3   4
ATOM      4  C   UNL A   1      38.183  21.547  25.457  1.00  0.00     0.202 C 
BRANCH   4   5
ATOM      5  C   UNL A   1      36.956  22.460  25.336  1.00  0.00     0.261 C 
BRANCH   5   6
ATOM      6  O   UNL A   1      35.739  21.869  24.833  1.00  0.00    -0.461 OA
BRANCH   6   7
ATOM      7  C   UNL A   1      34.731  21.700  25.738  1.00  0.00     0.336 C 
ATOM      8  O   UNL A   1      34.929  21.504  26.936  1.00  0.00    -0.249 OA
BRANCH   7   9
ATOM      9  C   UNL A   1      33.299  21.620  25.075  1.00  0.00     0.164 C 
ATOM     10  C   UNL A   1      33.465  17.829  24.541  1.00  0.00     0.119 A 
ATOM     11  C   UNL A   1      32.858  17.683  23.300  1.00  0.00     0.047 A 
ATOM     12  C   UNL A   1      33.601  19.101  25.084  1.00  0.00     0.053 A 
ATOM     13  C   UNL A   1      32.334  18.795  22.639  1.00  0.00     0.008 A 
ATOM     14  C   UNL A   1      33.086  20.242  24.439  1.00  0.00    -0.004 A 
ATOM     15  C   UNL A   1      32.417  20.076  23.207  1.00  0.00    -0.042 A 
ATOM     16  C   UNL A   1      31.857  21.238  22.423  1.00  0.00     0.036 C 
ATOM     17  C   UNL A   1      33.083  22.713  23.997  1.00  0.00     0.046 C 
ATOM     18  C   UNL A   1      31.766  22.515  23.248  1.00  0.00     0.008 C 
BRANCH  10  19
ATOM     19  O   UNL A   1      33.920  16.685  25.138  1.00  0.00    -0.497 OA
ATOM     20  C   UNL A   1      32.996  15.598  25.142  1.00  0.00     0.278 C 
ENDBRANCH  10  19
BRANCH   9  21
ATOM     21  N   UNL A   1      32.316  21.923  26.146  1.00  0.00    -0.339 N 
ATOM     22  C   UNL A   1      31.992  23.135  26.664  1.00  0.00     0.338 C 
ATOM     23  H   UNL A   1      31.839  21.150  26.526  1.00  0.00     0.164 HD
ATOM     24  O   UNL A   1      31.008  23.288  27.377  1.00  0.00    -0.279 OA
ENDBRANCH   9  21
ENDBRANCH   7   9
ENDBRANCH   6   7
ENDBRANCH   5   6
ENDBRANCH   4   5
ENDBRANCH   3   4
ENDBRANCH   2   3
ENDBRANCH   1   2
BRANCH   1  25
ATOM     25  O   UNL A   1      41.904  19.800  27.290  1.00  0.00    -0.376 OA
BRANCH  25  26
ATOM     26  C   UNL A   1      41.939  19.192  26.018  1.00  0.00     0.202 C 
BRANCH  26  27
ATOM     27  C   UNL A   1      43.280  18.555  25.629  1.00  0.00     0.261 C 
BRANCH  27  28
ATOM     28  O   UNL A   1      43.770  18.858  24.307  1.00  0.00    -0.460 OA
BRANCH  28  29
ATOM     29  C   UNL A   1      44.979  19.465  24.212  1.00  0.00     0.338 C 
ATOM     30  O   UNL A   1      45.962  19.043  23.641  1.00  0.00    -0.246 OA
BRANCH  29  31
ATOM     31  C   UNL A   1      44.835  20.858  24.718  1.00  0.00     0.060 A 
ATOM     32  C   UNL A   1      44.447  21.870  23.825  1.00  0.00     0.016 A 
ATOM     33  C   UNL A   1      45.066  21.164  26.059  1.00  0.00     0.016 A 
ATOM     34  C   UNL A   1      44.316  23.193  24.266  1.00  0.00     0.010 A 
ATOM     35  C   UNL A   1      44.961  22.493  26.493  1.00  0.00     0.010 A 
ATOM     36  C   UNL A   1      44.614  23.520  25.595  1.00  0.00    -0.014 A 
BRANCH  36  37
ATOM     37  C   UNL A   1      44.769  24.942  26.007  1.00  0.00     0.031 A 
ATOM     38  C   UNL A   1      46.134  25.567  25.910  1.00  0.00     0.074 A 
ATOM     39  C   UNL A   1      43.737  25.674  26.467  1.00  0.00     0.049 A 
ATOM     40  N   UNL A   1      46.549  26.744  26.308  1.00  0.00    -0.248 NA
ATOM     41  C   UNL A   1      47.178  24.743  25.281  1.00  0.00     0.031 C 
ATOM     42  C   UNL A   1      42.353  25.221  26.564  1.00  0.00     0.029 A 
ATOM     43  N   UNL A   1      43.708  26.959  26.957  1.00  0.00    -0.354 N 
ATOM     44  C   UNL A   1      47.901  26.793  25.994  1.00  0.00     0.074 A 
ATOM     45  C   UNL A   1      48.243  25.519  25.400  1.00  0.00     0.031 C 
ATOM     46  C   UNL A   1      41.611  26.206  27.100  1.00  0.00     0.029 A 
ATOM     47  C   UNL A   1      42.475  27.342  27.424  1.00  0.00     0.049 A 
ATOM     48  H   UNL A   1      44.497  27.548  26.971  1.00  0.00     0.167 HD
ATOM     49  C   UNL A   1      48.780  27.808  26.180  1.00  0.00     0.037 A 
ATOM     50  C   UNL A   1      42.095  28.465  28.068  1.00  0.00     0.037 A 
ATOM     51  C   UNL A   1      48.444  29.075  26.777  1.00  0.00     0.049 A 
ATOM     52  C   UNL A   1      43.108  29.550  28.347  1.00  0.00     0.074 A 
ATOM     53  C   UNL A   1      49.262  30.171  26.990  1.00  0.00     0.029 A 
ATOM     54  N   UNL A   1      47.191  29.411  27.269  1.00  0.00    -0.354 N 
ATOM     55  N   UNL A   1      44.381  29.598  28.035  1.00  0.00    -0.248 NA
ATOM     56  C   UNL A   1      42.630  30.738  29.069  1.00  0.00     0.031 C 
ATOM     57  C   UNL A   1      48.523  31.143  27.672  1.00  0.00     0.029 A 
ATOM     58  C   UNL A   1      47.224  30.684  27.817  1.00  0.00     0.049 A 
ATOM     59  H   UNL A   1      46.397  28.831  27.234  1.00  0.00     0.167 HD
ATOM     60  C   UNL A   1      44.845  30.828  28.491  1.00  0.00     0.074 A 
ATOM     61  C   UNL A   1      43.714  31.501  29.093  1.00  0.00     0.031 C 
ATOM     62  C   UNL A   1      46.093  31.352  28.412  1.00  0.00     0.037 A 
BRANCH  49  63
ATOM     63  C   UNL A   1      50.206  27.568  25.773  1.00  0.00     0.064 A 
ATOM     64  C   UNL A   1      50.632  27.700  24.441  1.00  0.00     0.173 A 
ATOM     65  C   UNL A   1      51.164  27.208  26.732  1.00  0.00     0.173 A 
ATOM     66  F   UNL A   1      49.754  28.029  23.480  1.00  0.00    -0.203 F 
ATOM     67  C   UNL A   1      51.952  27.443  24.081  1.00  0.00     0.198 A 
ATOM     68  C   UNL A   1      52.492  26.988  26.375  1.00  0.00     0.198 A 
ATOM     69  F   UNL A   1      50.815  27.071  28.020  1.00  0.00    -0.203 F 
ATOM     70  F   UNL A   1      52.320  27.513  22.795  1.00  0.00    -0.200 F 
ATOM     71  C   UNL A   1      52.882  27.094  25.049  1.00  0.00     0.200 A 
ATOM     72  F   UNL A   1      53.392  26.665  27.315  1.00  0.00    -0.200 F 
ATOM     73  F   UNL A   1      54.153  26.849  24.702  1.00  0.00    -0.200 F 
ENDBRANCH  49  63
BRANCH  50  74
ATOM     74  C   UNL A   1      40.685  28.620  28.519  1.00  0.00     0.064 A 
ATOM     75  C   UNL A   1      40.290  28.253  29.813  1.00  0.00     0.173 A 
ATOM     76  C   UNL A   1      39.696  29.116  27.654  1.00  0.00     0.173 A 
ATOM     77  F   UNL A   1      41.189  27.736  30.664  1.00  0.00    -0.203 F 
ATOM     78  C   UNL A   1      38.963  28.368  30.223  1.00  0.00     0.198 A 
ATOM     79  C   UNL A   1      38.376  29.259  28.075  1.00  0.00     0.198 A 
ATOM     80  F   UNL A   1      40.015  29.466  26.399  1.00  0.00    -0.203 F 
ATOM     81  F   UNL A   1      38.605  27.960  31.448  1.00  0.00    -0.200 F 
ATOM     82  C   UNL A   1      38.009  28.880  29.357  1.00  0.00     0.200 A 
ATOM     83  F   UNL A   1      37.457  29.758  27.235  1.00  0.00    -0.200 F 
ATOM     84  F   UNL A   1      36.732  28.991  29.751  1.00  0.00    -0.200 F 
ENDBRANCH  50  74
BRANCH  62  85
ATOM     85  C   UNL A   1      46.305  32.741  28.950  1.00  0.00     0.064 A 
ATOM     86  C   UNL A   1      46.715  32.973  30.271  1.00  0.00     0.173 A 
ATOM     87  C   UNL A   1      46.140  33.857  28.113  1.00  0.00     0.173 A 
ATOM     88  F   UNL A   1      46.878  31.947  31.118  1.00  0.00    -0.203 F 
ATOM     89  C   UNL A   1      46.926  34.269  30.740  1.00  0.00     0.198 A 
ATOM     90  C   UNL A   1      46.386  35.148  28.575  1.00  0.00     0.198 A 
ATOM     91  F   UNL A   1      45.760  33.696  26.836  1.00  0.00    -0.203 F 
ATOM     92  F   UNL A   1      47.269  34.469  32.021  1.00  0.00    -0.200 F 
ATOM     93  C   UNL A   1      46.769  35.354  29.890  1.00  0.00     0.200 A 
ATOM     94  F   UNL A   1      46.253  36.192  27.746  1.00  0.00    -0.200 F 
ATOM     95  F   UNL A   1      46.983  36.598  30.341  1.00  0.00    -0.200 F 
ENDBRANCH  62  85
ENDBRANCH  36  37
ENDBRANCH  29  31
ENDBRANCH  28  29
ENDBRANCH  27  28
ENDBRANCH  26  27
ENDBRANCH  25  26
ENDBRANCH   1  25
TORSDOF 19
ENDMDL
MODEL 3
REMARK VINA RESULT:     -10.9      5.202      7.607
REMARK SMILES COc1ccc2c(c1)[C@@](NC=O)(C(=O)OCCOCCOCCOC(=O)c1ccc(-c3c4nc(c(-c5c(F)c(F)c(F)c(F)c5F)c5ccc([nH]5)c(-c5c(F)c(F)c(F)c(F)c5F)c5nc(c(-c6c(F)c(F)c(F)c(F)c6F)c6ccc3[nH]6)C=C5)C=C4)cc1)CCC2
REMARK SMILES IDX 20 1 19 2 18 3 17 4 16 5 15 6 13 7 14 8 9 9 3 10 4 11 8 12
REMARK SMILES IDX 5 13 7 14 6 15 92 16 90 17 91 18 2 19 1 20 10 21 11 22 12 24
REMARK SMILES IDX 21 25 22 26 23 27 24 28 25 29 26 30 27 31 28 32 89 33 29 34
REMARK SMILES IDX 88 35 30 36 31 37 32 38 82 39 33 40 87 41 81 42 83 43 34 44
REMARK SMILES IDX 86 45 80 46 79 47 35 49 67 50 47 51 66 52 48 53 51 54 65 55
REMARK SMILES IDX 84 56 49 57 50 58 64 60 85 61 52 62 36 63 37 64 45 65 38 66
REMARK SMILES IDX 39 67 43 68 46 69 40 70 41 71 44 72 42 73 68 74 69 75 77 76
REMARK SMILES IDX 70 77 71 78 75 79 78 80 72 81 73 82 76 83 74 84 53 85 54 86
REMARK SMILES IDX 62 87 55 88 56 89 60 90 63 91 57 92 58 93 61 94 59 95
REMARK H PARENT 10 23 83 48 51 59
REMARK Flexibility Score: inf
ROOT
ATOM      1  C   UNL A   1      34.203  33.481  28.589  1.00  0.00     0.188 C 
ENDROOT
BRANCH   1   2
ATOM      2  C   UNL A   1      34.019  31.962  28.460  1.00  0.00     0.188 C 
BRANCH   2   3
ATOM      3  O   UNL A   1      33.739  31.382  27.191  1.00  0.00    -0.376 OA
BRANCH   3   4
ATOM      4  C   UNL A   1      33.318  30.029  27.106  1.00  0.00     0.202 C 
BRANCH   4   5
ATOM      5  C   UNL A   1      33.471  29.309  25.759  1.00  0.00     0.261 C 
BRANCH   5   6
ATOM      6  O   UNL A   1      32.336  29.327  24.867  1.00  0.00    -0.461 OA
BRANCH   6   7
ATOM      7  C   UNL A   1      32.555  28.855  23.604  1.00  0.00     0.336 C 
ATOM      8  O   UNL A   1      33.421  29.308  22.858  1.00  0.00    -0.249 OA
BRANCH   7   9
ATOM      9  C   UNL A   1      31.485  27.789  23.139  1.00  0.00     0.164 C 
ATOM     10  C   UNL A   1      28.944  30.431  22.021  1.00  0.00     0.119 A 
ATOM     11  C   UNL A   1      27.740  29.864  22.423  1.00  0.00     0.047 A 
ATOM     12  C   UNL A   1      30.130  29.750  22.269  1.00  0.00     0.053 A 
ATOM     13  C   UNL A   1      27.720  28.598  23.009  1.00  0.00     0.008 A 
ATOM     14  C   UNL A   1      30.141  28.472  22.862  1.00  0.00    -0.004 A 
ATOM     15  C   UNL A   1      28.908  27.879  23.211  1.00  0.00    -0.042 A 
ATOM     16  C   UNL A   1      28.816  26.528  23.879  1.00  0.00     0.036 C 
ATOM     17  C   UNL A   1      31.275  26.665  24.186  1.00  0.00     0.046 C 
ATOM     18  C   UNL A   1      30.119  25.743  23.801  1.00  0.00     0.008 C 
BRANCH  10  19
ATOM     19  O   UNL A   1      28.874  31.659  21.423  1.00  0.00    -0.497 OA
ATOM     20  C   UNL A   1      28.403  32.713  22.263  1.00  0.00     0.278 C 
ENDBRANCH  10  19
BRANCH   9  21
ATOM     21  N   UNL A   1      32.049  27.113  21.943  1.00  0.00    -0.339 N 
ATOM     22  C   UNL A   1      33.053  26.200  21.896  1.00  0.00     0.338 C 
ATOM     23  H   UNL A   1      31.645  27.356  21.079  1.00  0.00     0.164 HD
ATOM     24  O   UNL A   1      33.278  25.542  20.887  1.00  0.00    -0.279 OA
ENDBRANCH   9  21
ENDBRANCH   7   9
ENDBRANCH   6   7
ENDBRANCH   5   6
ENDBRANCH   4   5
ENDBRANCH   3   4
ENDBRANCH   2   3
ENDBRANCH   1   2
BRANCH   1  25
ATOM     25  O   UNL A   1      33.378  34.080  29.560  1.00  0.00    -0.376 OA
BRANCH  25  26
ATOM     26  C   UNL A   1      33.948  35.096  30.355  1.00  0.00     0.202 C 
BRANCH  26  27
ATOM     27  C   UNL A   1      34.293  34.689  31.794  1.00  0.00     0.261 C 
BRANCH  27  28
ATOM     28  O   UNL A   1      35.585  34.080  31.992  1.00  0.00    -0.460 OA
BRANCH  28  29
ATOM     29  C   UNL A   1      35.649  32.726  31.969  1.00  0.00     0.338 C 
ATOM     30  O   UNL A   1      34.729  31.952  32.129  1.00  0.00    -0.246 OA
BRANCH  29  31
ATOM     31  C   UNL A   1      36.996  32.337  31.468  1.00  0.00     0.060 A 
ATOM     32  C   UNL A   1      37.301  32.532  30.111  1.00  0.00     0.016 A 
ATOM     33  C   UNL A   1      37.955  31.798  32.326  1.00  0.00     0.016 A 
ATOM     34  C   UNL A   1      38.554  32.163  29.606  1.00  0.00     0.010 A 
ATOM     35  C   UNL A   1      39.199  31.406  31.814  1.00  0.00     0.010 A 
ATOM     36  C   UNL A   1      39.497  31.557  30.446  1.00  0.00    -0.014 A 
BRANCH  36  37
ATOM     37  C   UNL A   1      40.703  30.897  29.877  1.00  0.00     0.031 A 
ATOM     38  C   UNL A   1      41.948  31.723  29.693  1.00  0.00     0.074 A 
ATOM     39  C   UNL A   1      40.711  29.600  29.518  1.00  0.00     0.049 A 
ATOM     40  N   UNL A   1      43.084  31.413  29.121  1.00  0.00    -0.248 NA
ATOM     41  C   UNL A   1      41.896  33.093  30.226  1.00  0.00     0.031 C 
ATOM     42  C   UNL A   1      39.603  28.666  29.688  1.00  0.00     0.029 A 
ATOM     43  N   UNL A   1      41.695  28.851  28.915  1.00  0.00    -0.354 N 
ATOM     44  C   UNL A   1      43.873  32.553  29.209  1.00  0.00     0.074 A 
ATOM     45  C   UNL A   1      43.077  33.568  29.864  1.00  0.00     0.031 C 
ATOM     46  C   UNL A   1      39.960  27.472  29.183  1.00  0.00     0.029 A 
ATOM     47  C   UNL A   1      41.305  27.569  28.615  1.00  0.00     0.049 A 
ATOM     48  H   UNL A   1      42.594  29.201  28.718  1.00  0.00     0.167 HD
ATOM     49  C   UNL A   1      45.147  32.738  28.786  1.00  0.00     0.037 A 
ATOM     50  C   UNL A   1      41.946  26.597  27.932  1.00  0.00     0.037 A 
ATOM     51  C   UNL A   1      45.940  31.732  28.129  1.00  0.00     0.049 A 
ATOM     52  C   UNL A   1      43.333  26.851  27.391  1.00  0.00     0.074 A 
ATOM     53  C   UNL A   1      47.247  31.820  27.682  1.00  0.00     0.029 A 
ATOM     54  N   UNL A   1      45.496  30.456  27.812  1.00  0.00    -0.354 N 
ATOM     55  N   UNL A   1      44.080  27.924  27.489  1.00  0.00    -0.248 NA
ATOM     56  C   UNL A   1      43.965  25.756  26.640  1.00  0.00     0.031 C 
ATOM     57  C   UNL A   1      47.570  30.624  27.034  1.00  0.00     0.029 A 
ATOM     58  C   UNL A   1      46.492  29.761  27.144  1.00  0.00     0.049 A 
ATOM     59  H   UNL A   1      44.605  30.098  28.030  1.00  0.00     0.167 HD
ATOM     60  C   UNL A   1      45.276  27.623  26.847  1.00  0.00     0.074 A 
ATOM     61  C   UNL A   1      45.160  26.262  26.369  1.00  0.00     0.031 C 
ATOM     62  C   UNL A   1      46.373  28.403  26.674  1.00  0.00     0.037 A 
BRANCH  49  63
ATOM     63  C   UNL A   1      45.747  34.102  28.983  1.00  0.00     0.064 A 
ATOM     64  C   UNL A   1      45.635  35.110  28.012  1.00  0.00     0.173 A 
ATOM     65  C   UNL A   1      46.437  34.406  30.166  1.00  0.00     0.173 A 
ATOM     66  F   UNL A   1      44.999  34.868  26.856  1.00  0.00    -0.203 F 
ATOM     67  C   UNL A   1      46.225  36.358  28.203  1.00  0.00     0.198 A 
ATOM     68  C   UNL A   1      46.992  35.667  30.370  1.00  0.00     0.198 A 
ATOM     69  F   UNL A   1      46.570  33.483  31.130  1.00  0.00    -0.203 F 
ATOM     70  F   UNL A   1      46.160  37.283  27.236  1.00  0.00    -0.200 F 
ATOM     71  C   UNL A   1      46.897  36.637  29.384  1.00  0.00     0.200 A 
ATOM     72  F   UNL A   1      47.628  35.939  31.518  1.00  0.00    -0.200 F 
ATOM     73  F   UNL A   1      47.462  37.838  29.567  1.00  0.00    -0.200 F 
ENDBRANCH  49  63
BRANCH  50  74
ATOM     74  C   UNL A   1      41.275  25.289  27.699  1.00  0.00     0.064 A 
ATOM     75  C   UNL A   1      41.701  24.127  28.356  1.00  0.00     0.173 A 
ATOM     76  C   UNL A   1      40.207  25.171  26.796  1.00  0.00     0.173 A 
ATOM     77  F   UNL A   1      42.744  24.179  29.198  1.00  0.00    -0.203 F 
ATOM     78  C   UNL A   1      41.094  22.896  28.113  1.00  0.00     0.198 A 
ATOM     79  C   UNL A   1      39.579  23.946  26.578  1.00  0.00     0.198 A 
ATOM     80  F   UNL A   1      39.769  26.249  26.129  1.00  0.00    -0.203 F 
ATOM     81  F   UNL A   1      41.556  21.792  28.715  1.00  0.00    -0.200 F 
ATOM     82  C   UNL A   1      40.027  22.809  27.231  1.00  0.00     0.200 A 
ATOM     83  F   UNL A   1      38.546  23.868  25.727  1.00  0.00    -0.200 F 
ATOM     84  F   UNL A   1      39.441  21.626  26.998  1.00  0.00    -0.200 F 
ENDBRANCH  50  74
BRANCH  62  85
ATOM     85  C   UNL A   1      47.560  27.797  25.975  1.00  0.00     0.064 A 
ATOM     86  C   UNL A   1      48.632  27.235  26.682  1.00  0.00     0.173 A 
ATOM     87  C   UNL A   1      47.601  27.738  24.572  1.00  0.00     0.173 A 
ATOM     88  F   UNL A   1      48.652  27.272  28.023  1.00  0.00    -0.203 F 
ATOM     89  C   UNL A   1      49.712  26.660  26.013  1.00  0.00     0.198 A 
ATOM     90  C   UNL A   1      48.664  27.132  23.907  1.00  0.00     0.198 A 
ATOM     91  F   UNL A   1      46.598  28.250  23.843  1.00  0.00    -0.203 F 
ATOM     92  F   UNL A   1      50.749  26.174  26.709  1.00  0.00    -0.200 F 
ATOM     93  C   UNL A   1      49.723  26.602  24.627  1.00  0.00     0.200 A 
ATOM     94  F   UNL A   1      48.662  27.059  22.569  1.00  0.00    -0.200 F 
ATOM     95  F   UNL A   1      50.757  26.039  23.986  1.00  0.00    -0.200 F 
ENDBRANCH  62  85
ENDBRANCH  36  37
ENDBRANCH  29  31
ENDBRANCH  28  29
ENDBRANCH  27  28
ENDBRANCH  26  27
ENDBRANCH  25  26
ENDBRANCH   1  25
TORSDOF 19
ENDMDL
