MODEL 1
REMARK VINA RESULT:     -11.4      0.000      0.000
REMARK SMILES O=C(OCCOCCOCCOC(=O)[C@H]1CC(=O)N(Cc2ccccc2CN2CCCC2=O)C1)c1ccc(-c2c3nc(c(-c4c(F)c(F)c(F)c(F)c4F)c4ccc([nH]4)c(-c4c(F)c(F)c(F)c(F)c4F)c4nc(c(-c5c(F)c(F)c(F)c(F)c5F)c5ccc2[nH]5)C=C4)C=C3)cc1
REMARK SMILES IDX 8 1 7 2 6 3 5 4 4 5 3 6 2 7 1 8 35 9 36 10 97 11 37 12 96 13
REMARK SMILES IDX 38 14 39 15 40 16 90 17 41 18 95 19 89 20 91 21 42 22 94 23
REMARK SMILES IDX 88 24 87 25 43 27 75 28 55 29 74 30 56 31 59 32 73 33 92 34
REMARK SMILES IDX 57 35 58 36 72 38 93 39 60 40 44 41 45 42 53 43 46 44 47 45
REMARK SMILES IDX 51 46 54 47 48 48 49 49 52 50 50 51 76 52 77 53 85 54 78 55
REMARK SMILES IDX 79 56 83 57 86 58 80 59 81 60 84 61 82 62 61 63 62 64 70 65
REMARK SMILES IDX 63 66 64 67 68 68 71 69 65 70 66 71 69 72 67 73 9 74 10 75
REMARK SMILES IDX 11 76 12 77 13 78 14 79 15 80 16 81 34 82 17 83 19 84 18 85
REMARK SMILES IDX 20 86 21 87 22 88 26 89 23 90 25 91 24 92 27 93 28 94 29 95
REMARK SMILES IDX 32 96 30 97 31 98 33 99
REMARK H PARENT 91 26 59 37
REMARK Flexibility Score: inf
ROOT
ATOM      1  C   UNL A   1      35.695  20.868  25.420  1.00  0.00     0.188 C 
ENDROOT
BRANCH   1   2
ATOM      2  C   UNL A   1      37.086  20.465  24.931  1.00  0.00     0.188 C 
BRANCH   2   3
ATOM      3  O   UNL A   1      38.067  21.461  25.228  1.00  0.00    -0.376 OA
BRANCH   3   4
ATOM      4  C   UNL A   1      39.261  20.978  25.855  1.00  0.00     0.202 C 
BRANCH   4   5
ATOM      5  C   UNL A   1      39.517  19.460  25.799  1.00  0.00     0.261 C 
BRANCH   5   6
ATOM      6  O   UNL A   1      40.886  19.085  25.566  1.00  0.00    -0.460 OA
BRANCH   6   7
ATOM      7  C   UNL A   1      41.989  19.386  26.295  1.00  0.00     0.338 C 
ATOM      8  O   UNL A   1      42.686  18.468  26.725  1.00  0.00    -0.246 OA
BRANCH   7   9
ATOM      9  C   UNL A   1      42.380  20.778  26.662  1.00  0.00     0.060 A 
ATOM     10  C   UNL A   1      42.389  21.273  27.962  1.00  0.00     0.016 A 
ATOM     11  C   UNL A   1      42.893  21.602  25.646  1.00  0.00     0.016 A 
ATOM     12  C   UNL A   1      42.828  22.550  28.261  1.00  0.00     0.010 A 
ATOM     13  C   UNL A   1      43.382  22.881  25.938  1.00  0.00     0.010 A 
ATOM     14  C   UNL A   1      43.339  23.356  27.252  1.00  0.00    -0.014 A 
BRANCH  14  15
ATOM     15  C   UNL A   1      43.745  24.719  27.626  1.00  0.00     0.031 A 
ATOM     16  C   UNL A   1      42.693  25.685  28.045  1.00  0.00     0.074 A 
ATOM     17  C   UNL A   1      45.053  25.015  27.718  1.00  0.00     0.049 A 
ATOM     18  N   UNL A   1      42.821  26.940  28.375  1.00  0.00    -0.248 NA
ATOM     19  C   UNL A   1      41.314  25.173  28.113  1.00  0.00     0.031 C 
ATOM     20  C   UNL A   1      46.140  24.083  27.418  1.00  0.00     0.029 A 
ATOM     21  N   UNL A   1      45.695  26.163  28.102  1.00  0.00    -0.354 N 
ATOM     22  C   UNL A   1      41.535  27.384  28.635  1.00  0.00     0.074 A 
ATOM     23  C   UNL A   1      40.642  26.261  28.456  1.00  0.00     0.031 C 
ATOM     24  C   UNL A   1      47.309  24.699  27.638  1.00  0.00     0.029 A 
ATOM     25  C   UNL A   1      47.064  26.072  28.031  1.00  0.00     0.049 A 
ATOM     26  H   UNL A   1      45.221  26.973  28.401  1.00  0.00     0.167 HD
ATOM     27  C   UNL A   1      41.154  28.637  28.962  1.00  0.00     0.037 A 
ATOM     28  C   UNL A   1      48.016  27.006  28.207  1.00  0.00     0.037 A 
ATOM     29  C   UNL A   1      42.080  29.722  29.137  1.00  0.00     0.049 A 
ATOM     30  C   UNL A   1      47.558  28.397  28.524  1.00  0.00     0.074 A 
ATOM     31  C   UNL A   1      41.812  31.042  29.448  1.00  0.00     0.029 A 
ATOM     32  N   UNL A   1      43.459  29.609  29.007  1.00  0.00    -0.354 N 
ATOM     33  N   UNL A   1      46.335  28.831  28.724  1.00  0.00    -0.248 NA
ATOM     34  C   UNL A   1      48.590  29.436  28.601  1.00  0.00     0.031 C 
ATOM     35  C   UNL A   1      43.023  31.741  29.439  1.00  0.00     0.029 A 
ATOM     36  C   UNL A   1      44.053  30.846  29.188  1.00  0.00     0.049 A 
ATOM     37  H   UNL A   1      43.942  28.773  28.814  1.00  0.00     0.167 HD
ATOM     38  C   UNL A   1      46.446  30.194  28.931  1.00  0.00     0.074 A 
ATOM     39  C   UNL A   1      47.862  30.507  28.886  1.00  0.00     0.031 C 
ATOM     40  C   UNL A   1      45.467  31.112  29.118  1.00  0.00     0.037 A 
BRANCH  27  41
ATOM     41  C   UNL A   1      39.686  28.911  29.043  1.00  0.00     0.064 A 
ATOM     42  C   UNL A   1      38.931  29.316  27.934  1.00  0.00     0.173 A 
ATOM     43  C   UNL A   1      39.023  28.759  30.271  1.00  0.00     0.173 A 
ATOM     44  F   UNL A   1      39.525  29.514  26.748  1.00  0.00    -0.203 F 
ATOM     45  C   UNL A   1      37.566  29.564  28.053  1.00  0.00     0.198 A 
ATOM     46  C   UNL A   1      37.655  28.982  30.381  1.00  0.00     0.198 A 
ATOM     47  F   UNL A   1      39.707  28.395  31.366  1.00  0.00    -0.203 F 
ATOM     48  F   UNL A   1      36.868  29.993  26.991  1.00  0.00    -0.200 F 
ATOM     49  C   UNL A   1      36.927  29.387  29.273  1.00  0.00     0.200 A 
ATOM     50  F   UNL A   1      37.043  28.810  31.561  1.00  0.00    -0.200 F 
ATOM     51  F   UNL A   1      35.612  29.618  29.383  1.00  0.00    -0.200 F 
ENDBRANCH  27  41
BRANCH  28  52
ATOM     52  C   UNL A   1      49.456  26.686  27.984  1.00  0.00     0.064 A 
ATOM     53  C   UNL A   1      50.317  26.401  29.052  1.00  0.00     0.173 A 
ATOM     54  C   UNL A   1      50.011  26.703  26.693  1.00  0.00     0.173 A 
ATOM     55  F   UNL A   1      49.849  26.405  30.309  1.00  0.00    -0.203 F 
ATOM     56  C   UNL A   1      51.677  26.169  28.840  1.00  0.00     0.198 A 
ATOM     57  C   UNL A   1      51.363  26.439  26.479  1.00  0.00     0.198 A 
ATOM     58  F   UNL A   1      49.236  26.984  25.634  1.00  0.00    -0.203 F 
ATOM     59  F   UNL A   1      52.490  25.976  29.888  1.00  0.00    -0.200 F 
ATOM     60  C   UNL A   1      52.198  26.184  27.555  1.00  0.00     0.200 A 
ATOM     61  F   UNL A   1      51.859  26.464  25.234  1.00  0.00    -0.200 F 
ATOM     62  F   UNL A   1      53.509  25.986  27.358  1.00  0.00    -0.200 F 
ENDBRANCH  28  52
BRANCH  40  63
ATOM     63  C   UNL A   1      45.910  32.533  29.274  1.00  0.00     0.064 A 
ATOM     64  C   UNL A   1      46.012  33.389  28.167  1.00  0.00     0.173 A 
ATOM     65  C   UNL A   1      46.198  33.049  30.544  1.00  0.00     0.173 A 
ATOM     66  F   UNL A   1      45.766  32.929  26.931  1.00  0.00    -0.203 F 
ATOM     67  C   UNL A   1      46.409  34.711  28.328  1.00  0.00     0.198 A 
ATOM     68  C   UNL A   1      46.560  34.382  30.704  1.00  0.00     0.198 A 
ATOM     69  F   UNL A   1      46.110  32.265  31.629  1.00  0.00    -0.203 F 
ATOM     70  F   UNL A   1      46.549  35.501  27.255  1.00  0.00    -0.200 F 
ATOM     71  C   UNL A   1      46.671  35.209  29.596  1.00  0.00     0.200 A 
ATOM     72  F   UNL A   1      46.797  34.865  31.930  1.00  0.00    -0.200 F 
ATOM     73  F   UNL A   1      47.041  36.488  29.751  1.00  0.00    -0.200 F 
ENDBRANCH  40  63
ENDBRANCH  14  15
ENDBRANCH   7   9
ENDBRANCH   6   7
ENDBRANCH   5   6
ENDBRANCH   4   5
ENDBRANCH   3   4
ENDBRANCH   2   3
ENDBRANCH   1   2
BRANCH   1  74
ATOM     74  O   UNL A   1      34.586  20.440  24.634  1.00  0.00    -0.376 OA
BRANCH  74  75
ATOM     75  C   UNL A   1      33.388  20.094  25.317  1.00  0.00     0.202 C 
BRANCH  75  76
ATOM     76  C   UNL A   1      32.175  21.017  25.141  1.00  0.00     0.261 C 
BRANCH  76  77
ATOM     77  O   UNL A   1      32.302  22.003  24.104  1.00  0.00    -0.463 OA
BRANCH  77  78
ATOM     78  C   UNL A   1      32.664  23.241  24.531  1.00  0.00     0.311 C 
ATOM     79  O   UNL A   1      32.307  23.762  25.579  1.00  0.00    -0.252 OA
BRANCH  78  80
ATOM     80  C   UNL A   1      33.604  23.900  23.555  1.00  0.00     0.128 C 
ATOM     81  C   UNL A   1      32.989  23.923  22.164  1.00  0.00     0.117 C 
ATOM     82  C   UNL A   1      33.755  25.358  23.935  1.00  0.00     0.135 C 
ATOM     83  C   UNL A   1      33.197  25.333  21.667  1.00  0.00     0.223 C 
ATOM     84  N   UNL A   1      33.663  26.106  22.710  1.00  0.00    -0.337 N 
ATOM     85  O   UNL A   1      32.987  25.693  20.519  1.00  0.00    -0.275 OA
BRANCH  84  86
ATOM     86  C   UNL A   1      33.810  27.560  22.657  1.00  0.00     0.155 C 
BRANCH  86  87
ATOM     87  C   UNL A   1      33.044  28.268  23.762  1.00  0.00    -0.024 A 
ATOM     88  C   UNL A   1      33.774  28.645  24.911  1.00  0.00     0.006 A 
ATOM     89  C   UNL A   1      31.674  28.630  23.671  1.00  0.00    -0.024 A 
ATOM     90  C   UNL A   1      33.191  29.395  25.932  1.00  0.00     0.000 A 
ATOM     91  C   UNL A   1      31.125  29.421  24.700  1.00  0.00     0.006 A 
ATOM     92  C   UNL A   1      31.871  29.799  25.817  1.00  0.00     0.000 A 
BRANCH  89  93
ATOM     93  C   UNL A   1      30.804  28.334  22.465  1.00  0.00     0.155 C 
BRANCH  93  94
ATOM     94  N   UNL A   1      29.406  28.691  22.559  1.00  0.00    -0.338 N 
ATOM     95  C   UNL A   1      28.924  29.995  22.169  1.00  0.00     0.120 C 
ATOM     96  C   UNL A   1      28.439  27.951  23.217  1.00  0.00     0.222 C 
ATOM     97  C   UNL A   1      27.650  30.154  22.979  1.00  0.00     0.031 C 
ATOM     98  C   UNL A   1      27.151  28.726  23.141  1.00  0.00     0.102 C 
ATOM     99  O   UNL A   1      28.571  26.862  23.757  1.00  0.00    -0.275 OA
ENDBRANCH  93  94
ENDBRANCH  89  93
ENDBRANCH  86  87
ENDBRANCH  84  86
ENDBRANCH  78  80
ENDBRANCH  77  78
ENDBRANCH  76  77
ENDBRANCH  75  76
ENDBRANCH  74  75
ENDBRANCH   1  74
TORSDOF 21
ENDMDL
MODEL 2
REMARK VINA RESULT:     -11.4      6.237     11.009
REMARK SMILES O=C(OCCOCCOCCOC(=O)[C@H]1CC(=O)N(Cc2ccccc2CN2CCCC2=O)C1)c1ccc(-c2c3nc(c(-c4c(F)c(F)c(F)c(F)c4F)c4ccc([nH]4)c(-c4c(F)c(F)c(F)c(F)c4F)c4nc(c(-c5c(F)c(F)c(F)c(F)c5F)c5ccc2[nH]5)C=C4)C=C3)cc1
REMARK SMILES IDX 8 1 7 2 6 3 5 4 4 5 3 6 2 7 1 8 35 9 36 10 97 11 37 12 96 13
REMARK SMILES IDX 38 14 39 15 40 16 90 17 41 18 95 19 89 20 91 21 42 22 94 23
REMARK SMILES IDX 88 24 87 25 43 27 75 28 55 29 74 30 56 31 59 32 73 33 92 34
REMARK SMILES IDX 57 35 58 36 72 38 93 39 60 40 44 41 45 42 53 43 46 44 47 45
REMARK SMILES IDX 51 46 54 47 48 48 49 49 52 50 50 51 76 52 77 53 85 54 78 55
REMARK SMILES IDX 79 56 83 57 86 58 80 59 81 60 84 61 82 62 61 63 62 64 70 65
REMARK SMILES IDX 63 66 64 67 68 68 71 69 65 70 66 71 69 72 67 73 9 74 10 75
REMARK SMILES IDX 11 76 12 77 13 78 14 79 15 80 16 81 34 82 17 83 19 84 18 85
REMARK SMILES IDX 20 86 21 87 22 88 26 89 23 90 25 91 24 92 27 93 28 94 29 95
REMARK SMILES IDX 32 96 30 97 31 98 33 99
REMARK H PARENT 91 26 59 37
REMARK Flexibility Score: inf
ROOT
ATOM      1  C   UNL A   1      34.125  32.129  28.402  1.00  0.00     0.188 C 
ENDROOT
BRANCH   1   2
ATOM      2  C   UNL A   1      35.099  33.306  28.442  1.00  0.00     0.188 C 
BRANCH   2   3
ATOM      3  O   UNL A   1      34.608  34.380  29.248  1.00  0.00    -0.376 OA
BRANCH   3   4
ATOM      4  C   UNL A   1      33.310  34.870  28.891  1.00  0.00     0.202 C 
BRANCH   4   5
ATOM      5  C   UNL A   1      32.855  36.189  29.544  1.00  0.00     0.261 C 
BRANCH   5   6
ATOM      6  O   UNL A   1      32.193  36.040  30.812  1.00  0.00    -0.460 OA
BRANCH   6   7
ATOM      7  C   UNL A   1      32.732  35.984  32.054  1.00  0.00     0.338 C 
ATOM      8  O   UNL A   1      32.221  36.648  32.955  1.00  0.00    -0.246 OA
BRANCH   7   9
ATOM      9  C   UNL A   1      33.958  35.201  32.385  1.00  0.00     0.060 A 
ATOM     10  C   UNL A   1      35.248  35.722  32.375  1.00  0.00     0.016 A 
ATOM     11  C   UNL A   1      33.788  33.889  32.861  1.00  0.00     0.016 A 
ATOM     12  C   UNL A   1      36.347  34.976  32.759  1.00  0.00     0.010 A 
ATOM     13  C   UNL A   1      34.885  33.136  33.295  1.00  0.00     0.010 A 
ATOM     14  C   UNL A   1      36.170  33.683  33.233  1.00  0.00    -0.014 A 
BRANCH  14  15
ATOM     15  C   UNL A   1      37.382  32.927  33.581  1.00  0.00     0.031 A 
ATOM     16  C   UNL A   1      37.996  33.144  34.920  1.00  0.00     0.074 A 
ATOM     17  C   UNL A   1      37.820  31.964  32.751  1.00  0.00     0.049 A 
ATOM     18  N   UNL A   1      39.081  32.619  35.416  1.00  0.00    -0.248 NA
ATOM     19  C   UNL A   1      37.295  34.068  35.827  1.00  0.00     0.031 C 
ATOM     20  C   UNL A   1      37.204  31.630  31.467  1.00  0.00     0.029 A 
ATOM     21  N   UNL A   1      38.862  31.081  32.861  1.00  0.00    -0.354 N 
ATOM     22  C   UNL A   1      39.224  33.188  36.670  1.00  0.00     0.074 A 
ATOM     23  C   UNL A   1      38.103  34.077  36.876  1.00  0.00     0.031 C 
ATOM     24  C   UNL A   1      37.879  30.611  30.918  1.00  0.00     0.029 A 
ATOM     25  C   UNL A   1      38.999  30.262  31.768  1.00  0.00     0.049 A 
ATOM     26  H   UNL A   1      39.453  31.038  33.647  1.00  0.00     0.167 HD
ATOM     27  C   UNL A   1      40.234  32.994  37.545  1.00  0.00     0.037 A 
ATOM     28  C   UNL A   1      39.954  29.367  31.456  1.00  0.00     0.037 A 
ATOM     29  C   UNL A   1      41.327  32.093  37.301  1.00  0.00     0.049 A 
ATOM     30  C   UNL A   1      41.085  29.208  32.426  1.00  0.00     0.074 A 
ATOM     31  C   UNL A   1      42.420  31.827  38.103  1.00  0.00     0.029 A 
ATOM     32  N   UNL A   1      41.464  31.313  36.158  1.00  0.00    -0.354 N 
ATOM     33  N   UNL A   1      41.247  29.784  33.595  1.00  0.00    -0.248 NA
ATOM     34  C   UNL A   1      42.182  28.319  32.030  1.00  0.00     0.031 C 
ATOM     35  C   UNL A   1      43.253  30.939  37.415  1.00  0.00     0.029 A 
ATOM     36  C   UNL A   1      42.648  30.599  36.213  1.00  0.00     0.049 A 
ATOM     37  H   UNL A   1      40.816  31.276  35.418  1.00  0.00     0.167 HD
ATOM     38  C   UNL A   1      42.470  29.343  34.067  1.00  0.00     0.074 A 
ATOM     39  C   UNL A   1      42.984  28.409  33.081  1.00  0.00     0.031 C 
ATOM     40  C   UNL A   1      43.126  29.694  35.200  1.00  0.00     0.037 A 
BRANCH  27  41
ATOM     41  C   UNL A   1      40.250  33.842  38.777  1.00  0.00     0.064 A 
ATOM     42  C   UNL A   1      40.945  35.057  38.849  1.00  0.00     0.173 A 
ATOM     43  C   UNL A   1      39.544  33.419  39.914  1.00  0.00     0.173 A 
ATOM     44  F   UNL A   1      41.667  35.485  37.802  1.00  0.00    -0.203 F 
ATOM     45  C   UNL A   1      40.937  35.815  40.017  1.00  0.00     0.198 A 
ATOM     46  C   UNL A   1      39.516  34.191  41.070  1.00  0.00     0.198 A 
ATOM     47  F   UNL A   1      38.882  32.252  39.902  1.00  0.00    -0.203 F 
ATOM     48  F   UNL A   1      41.643  36.953  40.081  1.00  0.00    -0.200 F 
ATOM     49  C   UNL A   1      40.214  35.388  41.122  1.00  0.00     0.200 A 
ATOM     50  F   UNL A   1      38.818  33.774  42.135  1.00  0.00    -0.200 F 
ATOM     51  F   UNL A   1      40.201  36.123  42.242  1.00  0.00    -0.200 F 
ENDBRANCH  27  41
BRANCH  28  52
ATOM     52  C   UNL A   1      39.937  28.650  30.148  1.00  0.00     0.064 A 
ATOM     53  C   UNL A   1      39.322  27.399  30.005  1.00  0.00     0.173 A 
ATOM     54  C   UNL A   1      40.578  29.186  29.018  1.00  0.00     0.173 A 
ATOM     55  F   UNL A   1      38.725  26.823  31.059  1.00  0.00    -0.203 F 
ATOM     56  C   UNL A   1      39.370  26.705  28.795  1.00  0.00     0.198 A 
ATOM     57  C   UNL A   1      40.598  28.508  27.801  1.00  0.00     0.198 A 
ATOM     58  F   UNL A   1      41.197  30.376  29.101  1.00  0.00    -0.203 F 
ATOM     59  F   UNL A   1      38.840  25.477  28.711  1.00  0.00    -0.200 F 
ATOM     60  C   UNL A   1      40.003  27.261  27.693  1.00  0.00     0.200 A 
ATOM     61  F   UNL A   1      41.219  29.050  26.744  1.00  0.00    -0.200 F 
ATOM     62  F   UNL A   1      40.068  26.580  26.540  1.00  0.00    -0.200 F 
ENDBRANCH  28  52
BRANCH  40  63
ATOM     63  C   UNL A   1      44.468  29.067  35.412  1.00  0.00     0.064 A 
ATOM     64  C   UNL A   1      44.598  27.824  36.049  1.00  0.00     0.173 A 
ATOM     65  C   UNL A   1      45.626  29.698  34.941  1.00  0.00     0.173 A 
ATOM     66  F   UNL A   1      43.516  27.196  36.534  1.00  0.00    -0.203 F 
ATOM     67  C   UNL A   1      45.850  27.245  36.226  1.00  0.00     0.198 A 
ATOM     68  C   UNL A   1      46.872  29.099  35.088  1.00  0.00     0.198 A 
ATOM     69  F   UNL A   1      45.546  30.886  34.323  1.00  0.00    -0.203 F 
ATOM     70  F   UNL A   1      45.960  26.082  36.881  1.00  0.00    -0.200 F 
ATOM     71  C   UNL A   1      46.983  27.877  35.736  1.00  0.00     0.200 A 
ATOM     72  F   UNL A   1      47.964  29.702  34.600  1.00  0.00    -0.200 F 
ATOM     73  F   UNL A   1      48.187  27.312  35.895  1.00  0.00    -0.200 F 
ENDBRANCH  40  63
ENDBRANCH  14  15
ENDBRANCH   7   9
ENDBRANCH   6   7
ENDBRANCH   5   6
ENDBRANCH   4   5
ENDBRANCH   3   4
ENDBRANCH   2   3
ENDBRANCH   1   2
BRANCH   1  74
ATOM     74  O   UNL A   1      34.322  31.165  27.372  1.00  0.00    -0.376 OA
BRANCH  74  75
ATOM     75  C   UNL A   1      33.225  30.321  27.040  1.00  0.00     0.202 C 
BRANCH  75  76
ATOM     76  C   UNL A   1      33.293  29.554  25.713  1.00  0.00     0.261 C 
BRANCH  76  77
ATOM     77  O   UNL A   1      32.336  28.493  25.570  1.00  0.00    -0.463 OA
BRANCH  77  78
ATOM     78  C   UNL A   1      32.871  27.257  25.394  1.00  0.00     0.311 C 
ATOM     79  O   UNL A   1      33.756  26.763  26.081  1.00  0.00    -0.252 OA
BRANCH  78  80
ATOM     80  C   UNL A   1      32.213  26.536  24.246  1.00  0.00     0.128 C 
ATOM     81  C   UNL A   1      32.858  26.942  22.929  1.00  0.00     0.117 C 
ATOM     82  C   UNL A   1      32.497  25.054  24.375  1.00  0.00     0.135 C 
ATOM     83  C   UNL A   1      33.106  25.645  22.198  1.00  0.00     0.223 C 
ATOM     84  N   UNL A   1      32.858  24.596  23.061  1.00  0.00    -0.337 N 
ATOM     85  O   UNL A   1      33.458  25.571  21.032  1.00  0.00    -0.275 OA
BRANCH  84  86
ATOM     86  C   UNL A   1      33.161  23.197  22.765  1.00  0.00     0.155 C 
BRANCH  86  87
ATOM     87  C   UNL A   1      34.402  22.700  23.487  1.00  0.00    -0.024 A 
ATOM     88  C   UNL A   1      35.610  23.389  23.239  1.00  0.00     0.006 A 
ATOM     89  C   UNL A   1      34.399  21.644  24.435  1.00  0.00    -0.024 A 
ATOM     90  C   UNL A   1      36.781  23.084  23.932  1.00  0.00     0.000 A 
ATOM     91  C   UNL A   1      35.587  21.384  25.147  1.00  0.00     0.006 A 
ATOM     92  C   UNL A   1      36.763  22.093  24.901  1.00  0.00     0.000 A 
BRANCH  89  93
ATOM     93  C   UNL A   1      33.156  20.869  24.827  1.00  0.00     0.155 C 
BRANCH  93  94
ATOM     94  N   UNL A   1      32.945  19.592  24.182  1.00  0.00    -0.338 N 
ATOM     95  C   UNL A   1      33.540  18.377  24.685  1.00  0.00     0.120 C 
ATOM     96  C   UNL A   1      32.370  19.416  22.936  1.00  0.00     0.222 C 
ATOM     97  C   UNL A   1      33.609  17.487  23.458  1.00  0.00     0.031 C 
ATOM     98  C   UNL A   1      32.427  17.947  22.618  1.00  0.00     0.102 C 
ATOM     99  O   UNL A   1      31.885  20.273  22.211  1.00  0.00    -0.275 OA
ENDBRANCH  93  94
ENDBRANCH  89  93
ENDBRANCH  86  87
ENDBRANCH  84  86
ENDBRANCH  78  80
ENDBRANCH  77  78
ENDBRANCH  76  77
ENDBRANCH  75  76
ENDBRANCH  74  75
ENDBRANCH   1  74
TORSDOF 21
ENDMDL
MODEL 3
REMARK VINA RESULT:     -10.8      0.709      2.089
REMARK SMILES O=C(OCCOCCOCCOC(=O)[C@H]1CC(=O)N(Cc2ccccc2CN2CCCC2=O)C1)c1ccc(-c2c3nc(c(-c4c(F)c(F)c(F)c(F)c4F)c4ccc([nH]4)c(-c4c(F)c(F)c(F)c(F)c4F)c4nc(c(-c5c(F)c(F)c(F)c(F)c5F)c5ccc2[nH]5)C=C4)C=C3)cc1
REMARK SMILES IDX 8 1 7 2 6 3 5 4 4 5 3 6 2 7 1 8 35 9 36 10 97 11 37 12 96 13
REMARK SMILES IDX 38 14 39 15 40 16 90 17 41 18 95 19 89 20 91 21 42 22 94 23
REMARK SMILES IDX 88 24 87 25 43 27 75 28 55 29 74 30 56 31 59 32 73 33 92 34
REMARK SMILES IDX 57 35 58 36 72 38 93 39 60 40 44 41 45 42 53 43 46 44 47 45
REMARK SMILES IDX 51 46 54 47 48 48 49 49 52 50 50 51 76 52 77 53 85 54 78 55
REMARK SMILES IDX 79 56 83 57 86 58 80 59 81 60 84 61 82 62 61 63 62 64 70 65
REMARK SMILES IDX 63 66 64 67 68 68 71 69 65 70 66 71 69 72 67 73 9 74 10 75
REMARK SMILES IDX 11 76 12 77 13 78 14 79 15 80 16 81 34 82 17 83 19 84 18 85
REMARK SMILES IDX 20 86 21 87 22 88 26 89 23 90 25 91 24 92 27 93 28 94 29 95
REMARK SMILES IDX 32 96 30 97 31 98 33 99
REMARK H PARENT 91 26 59 37
REMARK Flexibility Score: inf
ROOT
ATOM      1  C   UNL A   1      35.573  20.665  25.359  1.00  0.00     0.188 C 
ENDROOT
BRANCH   1   2
ATOM      2  C   UNL A   1      36.938  20.369  24.737  1.00  0.00     0.188 C 
BRANCH   2   3
ATOM      3  O   UNL A   1      37.874  21.422  24.975  1.00  0.00    -0.376 OA
BRANCH   3   4
ATOM      4  C   UNL A   1      39.024  21.058  25.747  1.00  0.00     0.202 C 
BRANCH   4   5
ATOM      5  C   UNL A   1      39.389  19.562  25.799  1.00  0.00     0.261 C 
BRANCH   5   6
ATOM      6  O   UNL A   1      40.728  19.250  25.376  1.00  0.00    -0.460 OA
BRANCH   6   7
ATOM      7  C   UNL A   1      41.901  19.493  26.010  1.00  0.00     0.338 C 
ATOM      8  O   UNL A   1      42.612  18.542  26.330  1.00  0.00    -0.246 OA
BRANCH   7   9
ATOM      9  C   UNL A   1      42.359  20.859  26.401  1.00  0.00     0.060 A 
ATOM     10  C   UNL A   1      42.646  21.877  25.497  1.00  0.00     0.016 A 
ATOM     11  C   UNL A   1      42.380  21.175  27.770  1.00  0.00     0.016 A 
ATOM     12  C   UNL A   1      42.999  23.149  25.909  1.00  0.00     0.010 A 
ATOM     13  C   UNL A   1      42.692  22.469  28.201  1.00  0.00     0.010 A 
ATOM     14  C   UNL A   1      43.011  23.456  27.263  1.00  0.00    -0.014 A 
BRANCH  14  15
ATOM     15  C   UNL A   1      43.440  24.811  27.638  1.00  0.00     0.031 A 
ATOM     16  C   UNL A   1      42.406  25.789  28.077  1.00  0.00     0.074 A 
ATOM     17  C   UNL A   1      44.753  25.091  27.714  1.00  0.00     0.049 A 
ATOM     18  N   UNL A   1      42.553  27.040  28.410  1.00  0.00    -0.248 NA
ATOM     19  C   UNL A   1      41.022  25.293  28.160  1.00  0.00     0.031 C 
ATOM     20  C   UNL A   1      45.824  24.147  27.395  1.00  0.00     0.029 A 
ATOM     21  N   UNL A   1      45.414  26.229  28.095  1.00  0.00    -0.354 N 
ATOM     22  C   UNL A   1      41.277  27.498  28.689  1.00  0.00     0.074 A 
ATOM     23  C   UNL A   1      40.367  26.388  28.518  1.00  0.00     0.031 C 
ATOM     24  C   UNL A   1      47.003  24.747  27.602  1.00  0.00     0.029 A 
ATOM     25  C   UNL A   1      46.780  26.122  28.005  1.00  0.00     0.049 A 
ATOM     26  H   UNL A   1      44.954  27.043  28.404  1.00  0.00     0.167 HD
ATOM     27  C   UNL A   1      40.916  28.754  29.028  1.00  0.00     0.037 A 
ATOM     28  C   UNL A   1      47.746  27.042  28.172  1.00  0.00     0.037 A 
ATOM     29  C   UNL A   1      41.857  29.827  29.196  1.00  0.00     0.049 A 
ATOM     30  C   UNL A   1      47.310  28.438  28.502  1.00  0.00     0.074 A 
ATOM     31  C   UNL A   1      41.610  31.148  29.517  1.00  0.00     0.029 A 
ATOM     32  N   UNL A   1      43.234  29.698  29.047  1.00  0.00    -0.354 N 
ATOM     33  N   UNL A   1      46.095  28.885  28.721  1.00  0.00    -0.248 NA
ATOM     34  C   UNL A   1      48.355  29.463  28.570  1.00  0.00     0.031 C 
ATOM     35  C   UNL A   1      42.830  31.833  29.495  1.00  0.00     0.029 A 
ATOM     36  C   UNL A   1      43.845  30.926  29.226  1.00  0.00     0.049 A 
ATOM     37  H   UNL A   1      43.703  28.857  28.843  1.00  0.00     0.167 HD
ATOM     38  C   UNL A   1      46.226  30.246  28.933  1.00  0.00     0.074 A 
ATOM     39  C   UNL A   1      47.645  30.541  28.870  1.00  0.00     0.031 C 
ATOM     40  C   UNL A   1      45.261  31.175  29.137  1.00  0.00     0.037 A 
BRANCH  27  41
ATOM     41  C   UNL A   1      39.452  29.046  29.131  1.00  0.00     0.064 A 
ATOM     42  C   UNL A   1      38.764  29.038  30.352  1.00  0.00     0.173 A 
ATOM     43  C   UNL A   1      38.726  29.345  27.968  1.00  0.00     0.173 A 
ATOM     44  F   UNL A   1      39.405  28.719  31.487  1.00  0.00    -0.203 F 
ATOM     45  C   UNL A   1      37.400  29.312  30.403  1.00  0.00     0.198 A 
ATOM     46  C   UNL A   1      37.369  29.644  28.025  1.00  0.00     0.198 A 
ATOM     47  F   UNL A   1      39.335  29.343  26.773  1.00  0.00    -0.203 F 
ATOM     48  F   UNL A   1      36.750  29.257  31.575  1.00  0.00    -0.200 F 
ATOM     49  C   UNL A   1      36.706  29.626  29.243  1.00  0.00     0.200 A 
ATOM     50  F   UNL A   1      36.704  29.945  26.902  1.00  0.00    -0.200 F 
ATOM     51  F   UNL A   1      35.395  29.898  29.296  1.00  0.00    -0.200 F 
ENDBRANCH  27  41
BRANCH  28  52
ATOM     52  C   UNL A   1      49.179  26.706  27.929  1.00  0.00     0.064 A 
ATOM     53  C   UNL A   1      49.684  26.548  26.632  1.00  0.00     0.173 A 
ATOM     54  C   UNL A   1      50.066  26.494  28.997  1.00  0.00     0.173 A 
ATOM     55  F   UNL A   1      48.874  26.705  25.574  1.00  0.00    -0.203 F 
ATOM     56  C   UNL A   1      51.010  26.168  26.414  1.00  0.00     0.198 A 
ATOM     57  C   UNL A   1      51.398  26.147  28.780  1.00  0.00     0.198 A 
ATOM     58  F   UNL A   1      49.633  26.618  30.262  1.00  0.00    -0.203 F 
ATOM     59  F   UNL A   1      51.443  25.949  25.165  1.00  0.00    -0.200 F 
ATOM     60  C   UNL A   1      51.866  25.973  27.487  1.00  0.00     0.200 A 
ATOM     61  F   UNL A   1      52.217  25.951  29.823  1.00  0.00    -0.200 F 
ATOM     62  F   UNL A   1      53.131  25.583  27.275  1.00  0.00    -0.200 F 
ENDBRANCH  28  52
BRANCH  40  63
ATOM     63  C   UNL A   1      45.724  32.590  29.294  1.00  0.00     0.064 A 
ATOM     64  C   UNL A   1      46.088  33.102  30.548  1.00  0.00     0.173 A 
ATOM     65  C   UNL A   1      45.839  33.424  28.175  1.00  0.00     0.173 A 
ATOM     66  F   UNL A   1      45.971  32.342  31.648  1.00  0.00    -0.203 F 
ATOM     67  C   UNL A   1      46.531  34.413  30.678  1.00  0.00     0.198 A 
ATOM     68  C   UNL A   1      46.318  34.724  28.304  1.00  0.00     0.198 A 
ATOM     69  F   UNL A   1      45.506  32.973  26.956  1.00  0.00    -0.203 F 
ATOM     70  F   UNL A   1      46.825  34.901  31.890  1.00  0.00    -0.200 F 
ATOM     71  C   UNL A   1      46.656  35.218  29.555  1.00  0.00     0.200 A 
ATOM     72  F   UNL A   1      46.454  35.495  27.217  1.00  0.00    -0.200 F 
ATOM     73  F   UNL A   1      47.096  36.478  29.680  1.00  0.00    -0.200 F 
ENDBRANCH  40  63
ENDBRANCH  14  15
ENDBRANCH   7   9
ENDBRANCH   6   7
ENDBRANCH   5   6
ENDBRANCH   4   5
ENDBRANCH   3   4
ENDBRANCH   2   3
ENDBRANCH   1   2
BRANCH   1  74
ATOM     74  O   UNL A   1      34.430  20.157  24.678  1.00  0.00    -0.376 OA
BRANCH  74  75
ATOM     75  C   UNL A   1      33.271  19.876  25.453  1.00  0.00     0.202 C 
BRANCH  75  76
ATOM     76  C   UNL A   1      32.783  20.959  26.424  1.00  0.00     0.261 C 
BRANCH  76  77
ATOM     77  O   UNL A   1      32.204  22.118  25.807  1.00  0.00    -0.463 OA
BRANCH  77  78
ATOM     78  C   UNL A   1      32.309  23.265  26.529  1.00  0.00     0.311 C 
ATOM     79  O   UNL A   1      31.596  23.575  27.473  1.00  0.00    -0.252 OA
BRANCH  78  80
ATOM     80  C   UNL A   1      33.452  24.116  26.038  1.00  0.00     0.128 C 
ATOM     81  C   UNL A   1      34.045  23.521  24.769  1.00  0.00     0.117 C 
ATOM     82  C   UNL A   1      32.908  25.464  25.614  1.00  0.00     0.135 C 
ATOM     83  C   UNL A   1      34.179  24.684  23.816  1.00  0.00     0.223 C 
ATOM     84  N   UNL A   1      33.536  25.777  24.359  1.00  0.00    -0.337 N 
ATOM     85  O   UNL A   1      34.774  24.633  22.751  1.00  0.00    -0.275 OA
BRANCH  84  86
ATOM     86  C   UNL A   1      33.301  27.033  23.647  1.00  0.00     0.155 C 
BRANCH  86  87
ATOM     87  C   UNL A   1      32.741  28.122  24.546  1.00  0.00    -0.024 A 
ATOM     88  C   UNL A   1      33.348  28.286  25.812  1.00  0.00     0.006 A 
ATOM     89  C   UNL A   1      31.708  29.015  24.162  1.00  0.00    -0.024 A 
ATOM     90  C   UNL A   1      32.983  29.326  26.666  1.00  0.00     0.000 A 
ATOM     91  C   UNL A   1      31.388  30.078  25.030  1.00  0.00     0.006 A 
ATOM     92  C   UNL A   1      32.016  30.234  26.266  1.00  0.00     0.000 A 
BRANCH  89  93
ATOM     93  C   UNL A   1      31.022  28.975  22.810  1.00  0.00     0.155 C 
BRANCH  93  94
ATOM     94  N   UNL A   1      29.591  29.187  22.791  1.00  0.00    -0.338 N 
ATOM     95  C   UNL A   1      29.017  30.494  22.578  1.00  0.00     0.120 C 
ATOM     96  C   UNL A   1      28.645  28.258  23.186  1.00  0.00     0.222 C 
ATOM     97  C   UNL A   1      27.655  30.390  23.239  1.00  0.00     0.031 C 
ATOM     98  C   UNL A   1      27.297  28.920  23.088  1.00  0.00     0.102 C 
ATOM     99  O   UNL A   1      28.835  27.103  23.540  1.00  0.00    -0.275 OA
ENDBRANCH  93  94
ENDBRANCH  89  93
ENDBRANCH  86  87
ENDBRANCH  84  86
ENDBRANCH  78  80
ENDBRANCH  77  78
ENDBRANCH  76  77
ENDBRANCH  75  76
ENDBRANCH  74  75
ENDBRANCH   1  74
TORSDOF 21
ENDMDL
