MODEL 1
REMARK VINA RESULT:     -11.6      0.000      0.000
REMARK SMILES NS(=O)(=O)c1ccc(-n2nc(C(=O)NCCCC(=O)OCCOCCOCCOC(=O)c3ccc(-c4c5nc(c(-c6c(F)c(F)c(F)c(F)c6F)c6ccc([nH]6)c(-c6c(F)c(F)c(F)c(F)c6F)c6nc(c(-c7c(F)c(F)c(F)c(F)c7F)c7ccc4[nH]7)C=C6)C=C5)cc3)cc2-c2ccccc2)cc1
REMARK SMILES IDX 22 1 21 2 20 3 18 4 19 5 17 6 16 7 15 8 14 9 12 10 13 11
REMARK SMILES IDX 11 13 9 14 10 15 96 16 95 17 8 18 5 19 6 20 104 21 7 22
REMARK SMILES IDX 103 23 2 24 3 25 4 26 1 27 97 30 98 31 102 32 99 33 101 34
REMARK SMILES IDX 100 35 23 36 24 37 25 38 26 39 27 40 28 41 29 42 30 43 31 44
REMARK SMILES IDX 32 45 33 46 94 47 34 48 93 49 35 50 36 51 37 52 87 53 38 54
REMARK SMILES IDX 92 55 86 56 88 57 39 58 91 59 85 60 84 61 40 63 72 64 52 65
REMARK SMILES IDX 71 66 53 67 56 68 70 69 89 70 54 71 55 72 69 74 90 75 57 76
REMARK SMILES IDX 41 77 42 78 50 79 43 80 44 81 48 82 51 83 45 84 46 85 49 86
REMARK SMILES IDX 47 87 73 88 74 89 82 90 75 91 76 92 80 93 83 94 77 95 78 96
REMARK SMILES IDX 81 97 79 98 58 99 59 100 67 101 60 102 61 103 65 104 68 105
REMARK SMILES IDX 62 106 63 107 66 108 64 109
REMARK H PARENT 14 12 1 28 1 29 88 62 56 73
REMARK Flexibility Score: inf
ROOT
ATOM      1  C   UNL A   1      36.304  22.427  26.483  1.00  0.00     0.202 C 
ENDROOT
BRANCH   1   2
ATOM      2  C   UNL A   1      35.095  23.367  26.385  1.00  0.00     0.261 C 
BRANCH   2   3
ATOM      3  O   UNL A   1      33.950  22.890  27.117  1.00  0.00    -0.463 OA
BRANCH   3   4
ATOM      4  C   UNL A   1      32.848  22.552  26.408  1.00  0.00     0.305 C 
ATOM      5  O   UNL A   1      31.862  23.266  26.271  1.00  0.00    -0.252 OA
BRANCH   4   6
ATOM      6  C   UNL A   1      32.950  21.194  25.731  1.00  0.00     0.124 C 
BRANCH   6   7
ATOM      7  C   UNL A   1      33.278  21.110  24.240  1.00  0.00     0.033 C 
BRANCH   7   8
ATOM      8  C   UNL A   1      32.183  21.569  23.285  1.00  0.00     0.117 C 
BRANCH   8   9
ATOM      9  N   UNL A   1      32.718  22.222  22.114  1.00  0.00    -0.351 N 
ATOM     10  C   UNL A   1      32.902  23.536  21.752  1.00  0.00     0.271 C 
ATOM     11  O   UNL A   1      33.418  23.690  20.640  1.00  0.00    -0.267 OA
ATOM     12  H   UNL A   1      33.017  21.588  21.422  1.00  0.00     0.163 HD
BRANCH  10  13
ATOM     13  C   UNL A   1      32.553  24.687  22.619  1.00  0.00     0.151 A 
ATOM     14  N   UNL A   1      31.501  26.499  23.127  1.00  0.00    -0.232 N 
ATOM     15  N   UNL A   1      31.453  25.416  22.324  1.00  0.00    -0.162 NA
ATOM     16  C   UNL A   1      32.460  26.368  24.113  1.00  0.00     0.075 A 
ATOM     17  C   UNL A   1      33.162  25.229  23.778  1.00  0.00     0.065 A 
BRANCH  14  18
ATOM     18  C   UNL A   1      30.633  27.598  22.913  1.00  0.00     0.065 A 
ATOM     19  C   UNL A   1      29.019  29.847  22.723  1.00  0.00     0.082 A 
ATOM     20  C   UNL A   1      30.314  29.888  22.202  1.00  0.00     0.024 A 
ATOM     21  C   UNL A   1      28.505  28.672  23.288  1.00  0.00     0.024 A 
ATOM     22  C   UNL A   1      31.127  28.764  22.309  1.00  0.00     0.030 A 
ATOM     23  C   UNL A   1      29.307  27.530  23.355  1.00  0.00     0.030 A 
BRANCH  19  24
ATOM     24  S   UNL A   1      28.050  31.322  22.714  1.00  0.00     0.238 S 
ATOM     25  O   UNL A   1      27.019  31.230  23.710  1.00  0.00    -0.207 OA
ATOM     26  O   UNL A   1      27.788  31.692  21.336  1.00  0.00    -0.207 OA
BRANCH  24  27
ATOM     27  N   UNL A   1      29.133  32.468  23.303  1.00  0.00    -0.225 NA
ATOM     28  H   UNL A   1      29.805  32.014  23.922  1.00  0.00     0.137 HD
ATOM     29  H   UNL A   1      28.623  33.183  23.822  1.00  0.00     0.137 HD
ENDBRANCH  24  27
ENDBRANCH  19  24
ENDBRANCH  14  18
BRANCH  16  30
ATOM     30  C   UNL A   1      32.614  27.225  25.284  1.00  0.00     0.000 A 
ATOM     31  C   UNL A   1      31.621  27.265  26.273  1.00  0.00     0.010 A 
ATOM     32  C   UNL A   1      33.761  28.011  25.434  1.00  0.00     0.010 A 
ATOM     33  C   UNL A   1      31.759  28.103  27.379  1.00  0.00     0.001 A 
ATOM     34  C   UNL A   1      33.898  28.850  26.540  1.00  0.00     0.001 A 
ATOM     35  C   UNL A   1      32.896  28.899  27.509  1.00  0.00     0.000 A 
ENDBRANCH  16  30
ENDBRANCH  10  13
ENDBRANCH   8   9
ENDBRANCH   7   8
ENDBRANCH   6   7
ENDBRANCH   4   6
ENDBRANCH   3   4
ENDBRANCH   2   3
ENDBRANCH   1   2
BRANCH   1  36
ATOM     36  O   UNL A   1      37.346  22.673  25.542  1.00  0.00    -0.376 OA
BRANCH  36  37
ATOM     37  C   UNL A   1      38.674  22.379  25.982  1.00  0.00     0.188 C 
BRANCH  37  38
ATOM     38  C   UNL A   1      39.080  20.915  25.814  1.00  0.00     0.188 C 
BRANCH  38  39
ATOM     39  O   UNL A   1      40.466  20.618  25.868  1.00  0.00    -0.376 OA
BRANCH  39  40
ATOM     40  C   UNL A   1      41.412  21.546  26.418  1.00  0.00     0.202 C 
BRANCH  40  41
ATOM     41  C   UNL A   1      42.779  21.957  25.825  1.00  0.00     0.261 C 
BRANCH  41  42
ATOM     42  O   UNL A   1      43.409  23.085  26.383  1.00  0.00    -0.460 OA
BRANCH  42  43
ATOM     43  C   UNL A   1      43.085  24.269  25.828  1.00  0.00     0.338 C 
ATOM     44  O   UNL A   1      43.534  24.754  24.807  1.00  0.00    -0.246 OA
BRANCH  43  45
ATOM     45  C   UNL A   1      42.019  24.840  26.673  1.00  0.00     0.060 A 
ATOM     46  C   UNL A   1      41.026  25.557  26.020  1.00  0.00     0.016 A 
ATOM     47  C   UNL A   1      42.143  24.837  28.081  1.00  0.00     0.016 A 
ATOM     48  C   UNL A   1      40.446  26.580  26.722  1.00  0.00     0.010 A 
ATOM     49  C   UNL A   1      41.543  25.835  28.790  1.00  0.00     0.010 A 
ATOM     50  C   UNL A   1      40.871  26.784  28.040  1.00  0.00    -0.014 A 
BRANCH  50  51
ATOM     51  C   UNL A   1      40.847  28.134  28.532  1.00  0.00     0.031 A 
ATOM     52  C   UNL A   1      41.968  28.950  28.073  1.00  0.00     0.074 A 
ATOM     53  C   UNL A   1      39.853  28.551  29.338  1.00  0.00     0.049 A 
ATOM     54  N   UNL A   1      42.988  29.316  28.771  1.00  0.00    -0.248 NA
ATOM     55  C   UNL A   1      42.063  29.227  26.637  1.00  0.00     0.031 C 
ATOM     56  C   UNL A   1      38.586  27.895  29.685  1.00  0.00     0.029 A 
ATOM     57  N   UNL A   1      39.768  29.738  29.987  1.00  0.00    -0.354 N 
ATOM     58  C   UNL A   1      43.790  30.025  27.894  1.00  0.00     0.074 A 
ATOM     59  C   UNL A   1      43.274  29.779  26.570  1.00  0.00     0.031 C 
ATOM     60  C   UNL A   1      37.776  28.788  30.299  1.00  0.00     0.029 A 
ATOM     61  C   UNL A   1      38.512  30.022  30.500  1.00  0.00     0.049 A 
ATOM     62  H   UNL A   1      40.534  30.347  30.086  1.00  0.00     0.167 HD
ATOM     63  C   UNL A   1      44.673  30.948  28.349  1.00  0.00     0.037 A 
ATOM     64  C   UNL A   1      38.124  31.243  30.943  1.00  0.00     0.037 A 
ATOM     65  C   UNL A   1      44.908  30.813  29.763  1.00  0.00     0.049 A 
ATOM     66  C   UNL A   1      39.368  31.988  31.295  1.00  0.00     0.074 A 
ATOM     67  C   UNL A   1      45.459  29.826  30.556  1.00  0.00     0.029 A 
ATOM     68  N   UNL A   1      44.196  31.624  30.616  1.00  0.00    -0.354 N 
ATOM     69  N   UNL A   1      40.141  31.650  32.294  1.00  0.00    -0.248 NA
ATOM     70  C   UNL A   1      40.019  32.768  30.248  1.00  0.00     0.031 C 
ATOM     71  C   UNL A   1      44.681  29.823  31.750  1.00  0.00     0.029 A 
ATOM     72  C   UNL A   1      43.727  30.836  31.639  1.00  0.00     0.049 A 
ATOM     73  H   UNL A   1      44.048  32.592  30.513  1.00  0.00     0.167 HD
ATOM     74  C   UNL A   1      41.438  31.811  31.821  1.00  0.00     0.074 A 
ATOM     75  C   UNL A   1      41.300  32.569  30.579  1.00  0.00     0.031 C 
ATOM     76  C   UNL A   1      42.469  31.061  32.313  1.00  0.00     0.037 A 
BRANCH  63  77
ATOM     77  C   UNL A   1      45.047  32.174  27.575  1.00  0.00     0.064 A 
ATOM     78  C   UNL A   1      46.328  32.265  27.007  1.00  0.00     0.173 A 
ATOM     79  C   UNL A   1      44.295  33.370  27.603  1.00  0.00     0.173 A 
ATOM     80  F   UNL A   1      47.129  31.190  26.956  1.00  0.00    -0.203 F 
ATOM     81  C   UNL A   1      46.841  33.482  26.556  1.00  0.00     0.198 A 
ATOM     82  C   UNL A   1      44.786  34.567  27.096  1.00  0.00     0.198 A 
ATOM     83  F   UNL A   1      43.110  33.451  28.222  1.00  0.00    -0.203 F 
ATOM     84  F   UNL A   1      48.110  33.551  26.132  1.00  0.00    -0.200 F 
ATOM     85  C   UNL A   1      46.070  34.631  26.602  1.00  0.00     0.200 A 
ATOM     86  F   UNL A   1      44.029  35.671  27.167  1.00  0.00    -0.200 F 
ATOM     87  F   UNL A   1      46.580  35.809  26.222  1.00  0.00    -0.200 F 
ENDBRANCH  63  77
BRANCH  64  88
ATOM     88  C   UNL A   1      36.809  31.883  30.701  1.00  0.00     0.064 A 
ATOM     89  C   UNL A   1      36.058  32.434  31.749  1.00  0.00     0.173 A 
ATOM     90  C   UNL A   1      36.369  32.186  29.394  1.00  0.00     0.173 A 
ATOM     91  F   UNL A   1      36.436  32.243  33.021  1.00  0.00    -0.203 F 
ATOM     92  C   UNL A   1      34.937  33.239  31.505  1.00  0.00     0.198 A 
ATOM     93  C   UNL A   1      35.249  32.980  29.152  1.00  0.00     0.198 A 
ATOM     94  F   UNL A   1      37.068  31.790  28.321  1.00  0.00    -0.203 F 
ATOM     95  F   UNL A   1      34.271  33.787  32.531  1.00  0.00    -0.200 F 
ATOM     96  C   UNL A   1      34.538  33.515  30.207  1.00  0.00     0.200 A 
ATOM     97  F   UNL A   1      34.900  33.266  27.889  1.00  0.00    -0.200 F 
ATOM     98  F   UNL A   1      33.496  34.324  29.972  1.00  0.00    -0.200 F 
ENDBRANCH  64  88
BRANCH  76  99
ATOM     99  C   UNL A   1      42.178  30.198  33.510  1.00  0.00     0.064 A 
ATOM    100  C   UNL A   1      41.733  28.867  33.409  1.00  0.00     0.173 A 
ATOM    101  C   UNL A   1      42.497  30.672  34.787  1.00  0.00     0.173 A 
ATOM    102  F   UNL A   1      41.522  28.305  32.214  1.00  0.00    -0.203 F 
ATOM    103  C   UNL A   1      41.561  28.069  34.538  1.00  0.00     0.198 A 
ATOM    104  C   UNL A   1      42.359  29.861  35.912  1.00  0.00     0.198 A 
ATOM    105  F   UNL A   1      42.995  31.908  34.939  1.00  0.00    -0.203 F 
ATOM    106  F   UNL A   1      41.122  26.807  34.410  1.00  0.00    -0.200 F 
ATOM    107  C   UNL A   1      41.878  28.566  35.789  1.00  0.00     0.200 A 
ATOM    108  F   UNL A   1      42.721  30.325  37.116  1.00  0.00    -0.200 F 
ATOM    109  F   UNL A   1      41.753  27.787  36.873  1.00  0.00    -0.200 F 
ENDBRANCH  76  99
ENDBRANCH  50  51
ENDBRANCH  43  45
ENDBRANCH  42  43
ENDBRANCH  41  42
ENDBRANCH  40  41
ENDBRANCH  39  40
ENDBRANCH  38  39
ENDBRANCH  37  38
ENDBRANCH  36  37
ENDBRANCH   1  36
TORSDOF 25
ENDMDL
MODEL 2
REMARK VINA RESULT:     -11.4      2.465      3.498
REMARK SMILES NS(=O)(=O)c1ccc(-n2nc(C(=O)NCCCC(=O)OCCOCCOCCOC(=O)c3ccc(-c4c5nc(c(-c6c(F)c(F)c(F)c(F)c6F)c6ccc([nH]6)c(-c6c(F)c(F)c(F)c(F)c6F)c6nc(c(-c7c(F)c(F)c(F)c(F)c7F)c7ccc4[nH]7)C=C6)C=C5)cc3)cc2-c2ccccc2)cc1
REMARK SMILES IDX 22 1 21 2 20 3 18 4 19 5 17 6 16 7 15 8 14 9 12 10 13 11
REMARK SMILES IDX 11 13 9 14 10 15 96 16 95 17 8 18 5 19 6 20 104 21 7 22
REMARK SMILES IDX 103 23 2 24 3 25 4 26 1 27 97 30 98 31 102 32 99 33 101 34
REMARK SMILES IDX 100 35 23 36 24 37 25 38 26 39 27 40 28 41 29 42 30 43 31 44
REMARK SMILES IDX 32 45 33 46 94 47 34 48 93 49 35 50 36 51 37 52 87 53 38 54
REMARK SMILES IDX 92 55 86 56 88 57 39 58 91 59 85 60 84 61 40 63 72 64 52 65
REMARK SMILES IDX 71 66 53 67 56 68 70 69 89 70 54 71 55 72 69 74 90 75 57 76
REMARK SMILES IDX 41 77 42 78 50 79 43 80 44 81 48 82 51 83 45 84 46 85 49 86
REMARK SMILES IDX 47 87 73 88 74 89 82 90 75 91 76 92 80 93 83 94 77 95 78 96
REMARK SMILES IDX 81 97 79 98 58 99 59 100 67 101 60 102 61 103 65 104 68 105
REMARK SMILES IDX 62 106 63 107 66 108 64 109
REMARK H PARENT 14 12 1 28 1 29 88 62 56 73
REMARK Flexibility Score: inf
ROOT
ATOM      1  C   UNL A   1      35.295  21.685  26.408  1.00  0.00     0.202 C 
ENDROOT
BRANCH   1   2
ATOM      2  C   UNL A   1      34.235  22.069  27.448  1.00  0.00     0.261 C 
BRANCH   2   3
ATOM      3  O   UNL A   1      32.916  21.603  27.108  1.00  0.00    -0.463 OA
BRANCH   3   4
ATOM      4  C   UNL A   1      31.978  22.532  26.810  1.00  0.00     0.305 C 
ATOM      5  O   UNL A   1      31.395  23.222  27.638  1.00  0.00    -0.252 OA
BRANCH   4   6
ATOM      6  C   UNL A   1      31.732  22.696  25.318  1.00  0.00     0.124 C 
BRANCH   6   7
ATOM      7  C   UNL A   1      32.252  21.640  24.342  1.00  0.00     0.033 C 
BRANCH   7   8
ATOM      8  C   UNL A   1      31.585  21.607  22.972  1.00  0.00     0.117 C 
BRANCH   8   9
ATOM      9  N   UNL A   1      32.411  22.205  21.949  1.00  0.00    -0.351 N 
ATOM     10  C   UNL A   1      32.885  23.477  21.725  1.00  0.00     0.271 C 
ATOM     11  O   UNL A   1      33.593  23.586  20.718  1.00  0.00    -0.267 OA
ATOM     12  H   UNL A   1      32.698  21.561  21.261  1.00  0.00     0.163 HD
BRANCH  10  13
ATOM     13  C   UNL A   1      32.614  24.628  22.620  1.00  0.00     0.151 A 
ATOM     14  N   UNL A   1      31.669  26.481  23.183  1.00  0.00    -0.232 N 
ATOM     15  N   UNL A   1      31.548  25.417  22.362  1.00  0.00    -0.162 NA
ATOM     16  C   UNL A   1      32.640  26.282  24.145  1.00  0.00     0.075 A 
ATOM     17  C   UNL A   1      33.274  25.115  23.775  1.00  0.00     0.065 A 
BRANCH  14  18
ATOM     18  C   UNL A   1      30.855  27.627  23.008  1.00  0.00     0.065 A 
ATOM     19  C   UNL A   1      29.187  29.769  22.436  1.00  0.00     0.082 A 
ATOM     20  C   UNL A   1      28.674  28.667  23.122  1.00  0.00     0.024 A 
ATOM     21  C   UNL A   1      30.541  29.833  22.081  1.00  0.00     0.024 A 
ATOM     22  C   UNL A   1      29.508  27.588  23.398  1.00  0.00     0.030 A 
ATOM     23  C   UNL A   1      31.388  28.769  22.398  1.00  0.00     0.030 A 
BRANCH  19  24
ATOM     24  S   UNL A   1      28.086  31.066  21.963  1.00  0.00     0.238 S 
ATOM     25  O   UNL A   1      27.168  31.336  23.034  1.00  0.00    -0.207 OA
ATOM     26  O   UNL A   1      27.660  30.832  20.596  1.00  0.00    -0.207 OA
BRANCH  24  27
ATOM     27  N   UNL A   1      29.108  32.403  21.907  1.00  0.00    -0.225 NA
ATOM     28  H   UNL A   1      28.777  33.111  22.563  1.00  0.00     0.137 HD
ATOM     29  H   UNL A   1      29.111  32.789  20.963  1.00  0.00     0.137 HD
ENDBRANCH  24  27
ENDBRANCH  19  24
ENDBRANCH  14  18
BRANCH  16  30
ATOM     30  C   UNL A   1      32.862  27.107  25.329  1.00  0.00     0.000 A 
ATOM     31  C   UNL A   1      31.951  27.085  26.394  1.00  0.00     0.010 A 
ATOM     32  C   UNL A   1      33.993  27.925  25.413  1.00  0.00     0.010 A 
ATOM     33  C   UNL A   1      32.153  27.893  27.513  1.00  0.00     0.001 A 
ATOM     34  C   UNL A   1      34.194  28.735  26.531  1.00  0.00     0.001 A 
ATOM     35  C   UNL A   1      33.273  28.721  27.578  1.00  0.00     0.000 A 
ENDBRANCH  16  30
ENDBRANCH  10  13
ENDBRANCH   8   9
ENDBRANCH   7   8
ENDBRANCH   6   7
ENDBRANCH   4   6
ENDBRANCH   3   4
ENDBRANCH   2   3
ENDBRANCH   1   2
BRANCH   1  36
ATOM     36  O   UNL A   1      36.352  22.625  26.238  1.00  0.00    -0.376 OA
BRANCH  36  37
ATOM     37  C   UNL A   1      37.206  22.416  25.110  1.00  0.00     0.188 C 
BRANCH  37  38
ATOM     38  C   UNL A   1      38.651  22.072  25.473  1.00  0.00     0.188 C 
BRANCH  38  39
ATOM     39  O   UNL A   1      38.855  20.960  26.329  1.00  0.00    -0.376 OA
BRANCH  39  40
ATOM     40  C   UNL A   1      39.829  19.950  26.029  1.00  0.00     0.202 C 
BRANCH  40  41
ATOM     41  C   UNL A   1      41.347  19.993  26.319  1.00  0.00     0.261 C 
BRANCH  41  42
ATOM     42  O   UNL A   1      42.119  20.901  25.569  1.00  0.00    -0.460 OA
BRANCH  42  43
ATOM     43  C   UNL A   1      43.454  20.737  25.649  1.00  0.00     0.338 C 
ATOM     44  O   UNL A   1      44.062  19.699  25.827  1.00  0.00    -0.246 OA
BRANCH  43  45
ATOM     45  C   UNL A   1      44.044  22.068  25.411  1.00  0.00     0.060 A 
ATOM     46  C   UNL A   1      45.168  22.391  26.158  1.00  0.00     0.016 A 
ATOM     47  C   UNL A   1      43.358  23.027  24.631  1.00  0.00     0.016 A 
ATOM     48  C   UNL A   1      45.344  23.716  26.460  1.00  0.00     0.010 A 
ATOM     49  C   UNL A   1      43.552  24.348  24.904  1.00  0.00     0.010 A 
ATOM     50  C   UNL A   1      44.407  24.625  25.955  1.00  0.00    -0.014 A 
BRANCH  50  51
ATOM     51  C   UNL A   1      44.142  25.795  26.747  1.00  0.00     0.031 A 
ATOM     52  C   UNL A   1      45.135  26.853  26.590  1.00  0.00     0.074 A 
ATOM     53  C   UNL A   1      43.056  25.850  27.542  1.00  0.00     0.049 A 
ATOM     54  N   UNL A   1      46.049  27.181  27.438  1.00  0.00    -0.248 NA
ATOM     55  C   UNL A   1      45.251  27.486  25.273  1.00  0.00     0.031 C 
ATOM     56  C   UNL A   1      41.898  24.951  27.616  1.00  0.00     0.029 A 
ATOM     57  N   UNL A   1      42.750  26.816  28.443  1.00  0.00    -0.354 N 
ATOM     58  C   UNL A   1      46.765  28.193  26.824  1.00  0.00     0.074 A 
ATOM     59  C   UNL A   1      46.358  28.207  25.441  1.00  0.00     0.031 C 
ATOM     60  C   UNL A   1      40.926  25.538  28.353  1.00  0.00     0.029 A 
ATOM     61  C   UNL A   1      41.443  26.778  28.900  1.00  0.00     0.049 A 
ATOM     62  H   UNL A   1      43.402  27.487  28.747  1.00  0.00     0.167 HD
ATOM     63  C   UNL A   1      47.465  29.095  27.557  1.00  0.00     0.037 A 
ATOM     64  C   UNL A   1      40.842  27.782  29.584  1.00  0.00     0.037 A 
ATOM     65  C   UNL A   1      47.652  28.652  28.914  1.00  0.00     0.049 A 
ATOM     66  C   UNL A   1      41.930  28.592  30.205  1.00  0.00     0.074 A 
ATOM     67  C   UNL A   1      48.319  27.591  29.495  1.00  0.00     0.029 A 
ATOM     68  N   UNL A   1      46.779  29.115  29.871  1.00  0.00    -0.354 N 
ATOM     69  N   UNL A   1      42.700  28.135  31.158  1.00  0.00    -0.248 NA
ATOM     70  C   UNL A   1      42.494  29.692  29.431  1.00  0.00     0.031 C 
ATOM     71  C   UNL A   1      47.496  27.181  30.585  1.00  0.00     0.029 A 
ATOM     72  C   UNL A   1      46.397  28.040  30.636  1.00  0.00     0.049 A 
ATOM     73  H   UNL A   1      46.482  30.046  29.986  1.00  0.00     0.167 HD
ATOM     74  C   UNL A   1      43.975  28.595  30.848  1.00  0.00     0.074 A 
ATOM     75  C   UNL A   1      43.773  29.606  29.813  1.00  0.00     0.031 C 
ATOM     76  C   UNL A   1      45.090  27.905  31.234  1.00  0.00     0.037 A 
BRANCH  63  77
ATOM     77  C   UNL A   1      47.671  30.514  27.128  1.00  0.00     0.064 A 
ATOM     78  C   UNL A   1      48.977  31.019  27.025  1.00  0.00     0.173 A 
ATOM     79  C   UNL A   1      46.631  31.470  27.080  1.00  0.00     0.173 A 
ATOM     80  F   UNL A   1      50.033  30.194  27.084  1.00  0.00    -0.203 F 
ATOM     81  C   UNL A   1      49.224  32.390  26.942  1.00  0.00     0.198 A 
ATOM     82  C   UNL A   1      46.879  32.829  26.935  1.00  0.00     0.198 A 
ATOM     83  F   UNL A   1      45.350  31.138  27.287  1.00  0.00    -0.203 F 
ATOM     84  F   UNL A   1      50.486  32.839  26.966  1.00  0.00    -0.200 F 
ATOM     85  C   UNL A   1      48.176  33.293  26.898  1.00  0.00     0.200 A 
ATOM     86  F   UNL A   1      45.849  33.687  26.913  1.00  0.00    -0.200 F 
ATOM     87  F   UNL A   1      48.412  34.610  26.875  1.00  0.00    -0.200 F 
ENDBRANCH  63  77
BRANCH  64  88
ATOM     88  C   UNL A   1      39.452  28.264  29.390  1.00  0.00     0.064 A 
ATOM     89  C   UNL A   1      38.555  28.366  30.462  1.00  0.00     0.173 A 
ATOM     90  C   UNL A   1      39.047  28.867  28.180  1.00  0.00     0.173 A 
ATOM     91  F   UNL A   1      38.883  27.869  31.664  1.00  0.00    -0.203 F 
ATOM     92  C   UNL A   1      37.329  29.032  30.332  1.00  0.00     0.198 A 
ATOM     93  C   UNL A   1      37.823  29.522  28.049  1.00  0.00     0.198 A 
ATOM     94  F   UNL A   1      39.868  28.910  27.120  1.00  0.00    -0.203 F 
ATOM     95  F   UNL A   1      36.517  29.152  31.392  1.00  0.00    -0.200 F 
ATOM     96  C   UNL A   1      36.968  29.614  29.128  1.00  0.00     0.200 A 
ATOM     97  F   UNL A   1      37.507  30.110  26.886  1.00  0.00    -0.200 F 
ATOM     98  F   UNL A   1      35.818  30.292  29.016  1.00  0.00    -0.200 F 
ENDBRANCH  64  88
BRANCH  76  99
ATOM     99  C   UNL A   1      44.887  26.742  32.166  1.00  0.00     0.064 A 
ATOM    100  C   UNL A   1      44.647  25.431  31.716  1.00  0.00     0.173 A 
ATOM    101  C   UNL A   1      45.088  26.922  33.539  1.00  0.00     0.173 A 
ATOM    102  F   UNL A   1      44.563  25.159  30.409  1.00  0.00    -0.203 F 
ATOM    103  C   UNL A   1      44.554  24.361  32.606  1.00  0.00     0.198 A 
ATOM    104  C   UNL A   1      45.031  25.847  34.423  1.00  0.00     0.198 A 
ATOM    105  F   UNL A   1      45.392  28.138  34.017  1.00  0.00    -0.203 F 
ATOM    106  F   UNL A   1      44.311  23.124  32.147  1.00  0.00    -0.200 F 
ATOM    107  C   UNL A   1      44.751  24.570  33.958  1.00  0.00     0.200 A 
ATOM    108  F   UNL A   1      45.278  26.042  35.726  1.00  0.00    -0.200 F 
ATOM    109  F   UNL A   1      44.703  23.537  34.812  1.00  0.00    -0.200 F 
ENDBRANCH  76  99
ENDBRANCH  50  51
ENDBRANCH  43  45
ENDBRANCH  42  43
ENDBRANCH  41  42
ENDBRANCH  40  41
ENDBRANCH  39  40
ENDBRANCH  38  39
ENDBRANCH  37  38
ENDBRANCH  36  37
ENDBRANCH   1  36
TORSDOF 25
ENDMDL
MODEL 3
REMARK VINA RESULT:     -10.1      4.551     10.474
REMARK SMILES NS(=O)(=O)c1ccc(-n2nc(C(=O)NCCCC(=O)OCCOCCOCCOC(=O)c3ccc(-c4c5nc(c(-c6c(F)c(F)c(F)c(F)c6F)c6ccc([nH]6)c(-c6c(F)c(F)c(F)c(F)c6F)c6nc(c(-c7c(F)c(F)c(F)c(F)c7F)c7ccc4[nH]7)C=C6)C=C5)cc3)cc2-c2ccccc2)cc1
REMARK SMILES IDX 22 1 21 2 20 3 18 4 19 5 17 6 16 7 15 8 14 9 12 10 13 11
REMARK SMILES IDX 11 13 9 14 10 15 96 16 95 17 8 18 5 19 6 20 104 21 7 22
REMARK SMILES IDX 103 23 2 24 3 25 4 26 1 27 97 30 98 31 102 32 99 33 101 34
REMARK SMILES IDX 100 35 23 36 24 37 25 38 26 39 27 40 28 41 29 42 30 43 31 44
REMARK SMILES IDX 32 45 33 46 94 47 34 48 93 49 35 50 36 51 37 52 87 53 38 54
REMARK SMILES IDX 92 55 86 56 88 57 39 58 91 59 85 60 84 61 40 63 72 64 52 65
REMARK SMILES IDX 71 66 53 67 56 68 70 69 89 70 54 71 55 72 69 74 90 75 57 76
REMARK SMILES IDX 41 77 42 78 50 79 43 80 44 81 48 82 51 83 45 84 46 85 49 86
REMARK SMILES IDX 47 87 73 88 74 89 82 90 75 91 76 92 80 93 83 94 77 95 78 96
REMARK SMILES IDX 81 97 79 98 58 99 59 100 67 101 60 102 61 103 65 104 68 105
REMARK SMILES IDX 62 106 63 107 66 108 64 109
REMARK H PARENT 14 12 1 28 1 29 88 62 56 73
REMARK Flexibility Score: inf
ROOT
ATOM      1  C   UNL A   1      31.985  24.381  26.326  1.00  0.00     0.202 C 
ENDROOT
BRANCH   1   2
ATOM      2  C   UNL A   1      32.639  25.517  25.529  1.00  0.00     0.261 C 
BRANCH   2   3
ATOM      3  O   UNL A   1      32.824  26.716  26.304  1.00  0.00    -0.463 OA
BRANCH   3   4
ATOM      4  C   UNL A   1      31.741  27.500  26.518  1.00  0.00     0.305 C 
ATOM      5  O   UNL A   1      30.983  27.394  27.475  1.00  0.00    -0.252 OA
BRANCH   4   6
ATOM      6  C   UNL A   1      31.559  28.589  25.472  1.00  0.00     0.124 C 
BRANCH   6   7
ATOM      7  C   UNL A   1      32.051  30.008  25.759  1.00  0.00     0.033 C 
BRANCH   7   8
ATOM      8  C   UNL A   1      33.369  30.121  26.515  1.00  0.00     0.117 C 
BRANCH   8   9
ATOM      9  N   UNL A   1      33.501  31.387  27.197  1.00  0.00    -0.351 N 
ATOM     10  C   UNL A   1      34.398  31.893  28.108  1.00  0.00     0.271 C 
ATOM     11  O   UNL A   1      34.171  33.058  28.452  1.00  0.00    -0.267 OA
ATOM     12  H   UNL A   1      32.794  32.029  26.956  1.00  0.00     0.163 HD
BRANCH  10  13
ATOM     13  C   UNL A   1      35.566  31.139  28.623  1.00  0.00     0.151 A 
ATOM     14  N   UNL A   1      37.073  30.631  30.078  1.00  0.00    -0.232 N 
ATOM     15  N   UNL A   1      35.871  31.228  29.937  1.00  0.00    -0.162 NA
ATOM     16  C   UNL A   1      37.438  29.933  28.943  1.00  0.00     0.075 A 
ATOM     17  C   UNL A   1      36.499  30.278  27.994  1.00  0.00     0.065 A 
BRANCH  14  18
ATOM     18  C   UNL A   1      37.808  30.758  31.282  1.00  0.00     0.065 A 
ATOM     19  C   UNL A   1      39.367  30.782  33.578  1.00  0.00     0.082 A 
ATOM     20  C   UNL A   1      39.850  31.389  32.416  1.00  0.00     0.024 A 
ATOM     21  C   UNL A   1      38.087  30.213  33.616  1.00  0.00     0.024 A 
ATOM     22  C   UNL A   1      39.073  31.366  31.263  1.00  0.00     0.030 A 
ATOM     23  C   UNL A   1      37.290  30.229  32.470  1.00  0.00     0.030 A 
BRANCH  19  24
ATOM     24  S   UNL A   1      40.420  30.689  34.991  1.00  0.00     0.238 S 
ATOM     25  O   UNL A   1      39.887  29.741  35.930  1.00  0.00    -0.207 OA
ATOM     26  O   UNL A   1      40.813  32.035  35.362  1.00  0.00    -0.207 OA
BRANCH  24  27
ATOM     27  N   UNL A   1      41.802  29.960  34.363  1.00  0.00    -0.225 NA
ATOM     28  H   UNL A   1      41.867  29.002  34.707  1.00  0.00     0.137 HD
ATOM     29  H   UNL A   1      42.626  30.484  34.657  1.00  0.00     0.137 HD
ENDBRANCH  24  27
ENDBRANCH  19  24
ENDBRANCH  14  18
BRANCH  16  30
ATOM     30  C   UNL A   1      38.541  28.982  28.834  1.00  0.00     0.000 A 
ATOM     31  C   UNL A   1      38.537  27.798  29.584  1.00  0.00     0.010 A 
ATOM     32  C   UNL A   1      39.611  29.242  27.972  1.00  0.00     0.010 A 
ATOM     33  C   UNL A   1      39.603  26.903  29.496  1.00  0.00     0.001 A 
ATOM     34  C   UNL A   1      40.678  28.348  27.886  1.00  0.00     0.001 A 
ATOM     35  C   UNL A   1      40.675  27.181  28.651  1.00  0.00     0.000 A 
ENDBRANCH  16  30
ENDBRANCH  10  13
ENDBRANCH   8   9
ENDBRANCH   7   8
ENDBRANCH   6   7
ENDBRANCH   4   6
ENDBRANCH   3   4
ENDBRANCH   2   3
ENDBRANCH   1   2
BRANCH   1  36
ATOM     36  O   UNL A   1      32.823  23.258  26.587  1.00  0.00    -0.376 OA
BRANCH  36  37
ATOM     37  C   UNL A   1      34.126  23.294  25.999  1.00  0.00     0.188 C 
BRANCH  37  38
ATOM     38  C   UNL A   1      34.587  21.957  25.416  1.00  0.00     0.188 C 
BRANCH  38  39
ATOM     39  O   UNL A   1      35.780  21.964  24.650  1.00  0.00    -0.376 OA
BRANCH  39  40
ATOM     40  C   UNL A   1      36.987  22.559  25.146  1.00  0.00     0.202 C 
BRANCH  40  41
ATOM     41  C   UNL A   1      38.210  21.836  25.757  1.00  0.00     0.261 C 
BRANCH  41  42
ATOM     42  O   UNL A   1      39.055  22.594  26.589  1.00  0.00    -0.460 OA
BRANCH  42  43
ATOM     43  C   UNL A   1      40.231  22.018  26.908  1.00  0.00     0.338 C 
ATOM     44  O   UNL A   1      40.403  20.964  27.490  1.00  0.00    -0.246 OA
BRANCH  43  45
ATOM     45  C   UNL A   1      41.280  22.893  26.350  1.00  0.00     0.060 A 
ATOM     46  C   UNL A   1      42.498  22.293  26.060  1.00  0.00     0.016 A 
ATOM     47  C   UNL A   1      41.108  24.295  26.332  1.00  0.00     0.016 A 
ATOM     48  C   UNL A   1      43.612  23.083  26.174  1.00  0.00     0.010 A 
ATOM     49  C   UNL A   1      42.214  25.088  26.414  1.00  0.00     0.010 A 
ATOM     50  C   UNL A   1      43.422  24.424  26.527  1.00  0.00    -0.014 A 
BRANCH  50  51
ATOM     51  C   UNL A   1      44.464  25.049  27.295  1.00  0.00     0.031 A 
ATOM     52  C   UNL A   1      44.398  24.762  28.725  1.00  0.00     0.074 A 
ATOM     53  C   UNL A   1      45.390  25.818  26.692  1.00  0.00     0.049 A 
ATOM     54  N   UNL A   1      44.009  25.567  29.653  1.00  0.00    -0.248 NA
ATOM     55  C   UNL A   1      44.599  23.373  29.148  1.00  0.00     0.031 C 
ATOM     56  C   UNL A   1      45.676  26.000  25.264  1.00  0.00     0.029 A 
ATOM     57  N   UNL A   1      46.339  26.578  27.291  1.00  0.00    -0.354 N 
ATOM     58  C   UNL A   1      44.077  24.831  30.822  1.00  0.00     0.074 A 
ATOM     59  C   UNL A   1      44.258  23.454  30.434  1.00  0.00     0.031 C 
ATOM     60  C   UNL A   1      46.859  26.642  25.124  1.00  0.00     0.029 A 
ATOM     61  C   UNL A   1      47.338  27.023  26.440  1.00  0.00     0.049 A 
ATOM     62  H   UNL A   1      46.319  26.797  28.250  1.00  0.00     0.167 HD
ATOM     63  C   UNL A   1      44.214  25.443  32.025  1.00  0.00     0.037 A 
ATOM     64  C   UNL A   1      48.512  27.560  26.853  1.00  0.00     0.037 A 
ATOM     65  C   UNL A   1      43.914  26.849  31.947  1.00  0.00     0.049 A 
ATOM     66  C   UNL A   1      48.287  28.079  28.234  1.00  0.00     0.074 A 
ATOM     67  C   UNL A   1      42.776  27.574  31.654  1.00  0.00     0.029 A 
ATOM     68  N   UNL A   1      44.964  27.726  31.803  1.00  0.00    -0.354 N 
ATOM     69  N   UNL A   1      47.502  29.092  28.494  1.00  0.00    -0.248 NA
ATOM     70  C   UNL A   1      48.510  27.170  29.352  1.00  0.00     0.031 C 
ATOM     71  C   UNL A   1      43.228  28.700  30.907  1.00  0.00     0.029 A 
ATOM     72  C   UNL A   1      44.619  28.625  30.822  1.00  0.00     0.049 A 
ATOM     73  H   UNL A   1      45.808  27.713  32.309  1.00  0.00     0.167 HD
ATOM     74  C   UNL A   1      46.819  28.736  29.650  1.00  0.00     0.074 A 
ATOM     75  C   UNL A   1      47.532  27.573  30.171  1.00  0.00     0.031 C 
ATOM     76  C   UNL A   1      45.569  29.222  29.912  1.00  0.00     0.037 A 
BRANCH  63  77
ATOM     77  C   UNL A   1      44.949  24.830  33.176  1.00  0.00     0.064 A 
ATOM     78  C   UNL A   1      44.260  24.573  34.373  1.00  0.00     0.173 A 
ATOM     79  C   UNL A   1      46.358  24.740  33.239  1.00  0.00     0.173 A 
ATOM     80  F   UNL A   1      42.923  24.657  34.421  1.00  0.00    -0.203 F 
ATOM     81  C   UNL A   1      44.941  24.305  35.562  1.00  0.00     0.198 A 
ATOM     82  C   UNL A   1      47.028  24.411  34.411  1.00  0.00     0.198 A 
ATOM     83  F   UNL A   1      47.139  25.077  32.205  1.00  0.00    -0.203 F 
ATOM     84  F   UNL A   1      44.254  24.183  36.706  1.00  0.00    -0.200 F 
ATOM     85  C   UNL A   1      46.322  24.226  35.580  1.00  0.00     0.200 A 
ATOM     86  F   UNL A   1      48.367  24.358  34.410  1.00  0.00    -0.200 F 
ATOM     87  F   UNL A   1      46.978  24.025  36.729  1.00  0.00    -0.200 F 
ENDBRANCH  63  77
BRANCH  64  88
ATOM     88  C   UNL A   1      49.849  27.290  26.273  1.00  0.00     0.064 A 
ATOM     89  C   UNL A   1      50.754  28.326  25.999  1.00  0.00     0.173 A 
ATOM     90  C   UNL A   1      50.365  25.978  26.198  1.00  0.00     0.173 A 
ATOM     91  F   UNL A   1      50.363  29.604  26.101  1.00  0.00    -0.203 F 
ATOM     92  C   UNL A   1      52.092  28.065  25.674  1.00  0.00     0.198 A 
ATOM     93  C   UNL A   1      51.694  25.719  25.865  1.00  0.00     0.198 A 
ATOM     94  F   UNL A   1      49.612  24.919  26.531  1.00  0.00    -0.203 F 
ATOM     95  F   UNL A   1      52.940  29.082  25.465  1.00  0.00    -0.200 F 
ATOM     96  C   UNL A   1      52.561  26.763  25.612  1.00  0.00     0.200 A 
ATOM     97  F   UNL A   1      52.138  24.454  25.847  1.00  0.00    -0.200 F 
ATOM     98  F   UNL A   1      53.850  26.514  25.349  1.00  0.00    -0.200 F 
ENDBRANCH  64  88
BRANCH  76  99
ATOM     99  C   UNL A   1      45.048  30.300  29.000  1.00  0.00     0.064 A 
ATOM    100  C   UNL A   1      45.441  31.647  29.100  1.00  0.00     0.173 A 
ATOM    101  C   UNL A   1      44.251  29.944  27.907  1.00  0.00     0.173 A 
ATOM    102  F   UNL A   1      46.298  32.042  30.048  1.00  0.00    -0.203 F 
ATOM    103  C   UNL A   1      45.009  32.602  28.181  1.00  0.00     0.198 A 
ATOM    104  C   UNL A   1      43.849  30.892  26.968  1.00  0.00     0.198 A 
ATOM    105  F   UNL A   1      43.905  28.661  27.719  1.00  0.00    -0.203 F 
ATOM    106  F   UNL A   1      45.391  33.881  28.310  1.00  0.00    -0.200 F 
ATOM    107  C   UNL A   1      44.217  32.222  27.113  1.00  0.00     0.200 A 
ATOM    108  F   UNL A   1      43.129  30.512  25.904  1.00  0.00    -0.200 F 
ATOM    109  F   UNL A   1      43.833  33.130  26.204  1.00  0.00    -0.200 F 
ENDBRANCH  76  99
ENDBRANCH  50  51
ENDBRANCH  43  45
ENDBRANCH  42  43
ENDBRANCH  41  42
ENDBRANCH  40  41
ENDBRANCH  39  40
ENDBRANCH  38  39
ENDBRANCH  37  38
ENDBRANCH  36  37
ENDBRANCH   1  36
TORSDOF 25
ENDMDL
