MODEL 1
REMARK VINA RESULT:      -9.2      0.000      0.000
REMARK SMILES COc1ccc(CC(=O)Nc2ccc(N3CC[NH+](C)CC3)cc2C(=O)OCCOCCOCCOC(=O)c2ccc(-c3c4nc(c(-c5c(F)c(F)c(F)c(F)c5F)c5ccc([nH]5)c(-c5c(F)c(F)c(F)c(F)c5F)c5nc(c(-c6c(F)c(F)c(F)c(F)c6F)c6ccc3[nH]6)C=C5)C=C4)cc2)cc1
REMARK SMILES IDX 30 1 29 2 28 3 27 4 26 5 24 6 25 7 23 8 11 9 12 10 13 11
REMARK SMILES IDX 22 12 14 13 10 14 8 15 9 16 7 18 6 19 3 20 4 21 102 22 5 23
REMARK SMILES IDX 101 24 2 25 1 26 15 27 16 28 21 29 17 30 20 31 18 32 19 33
REMARK SMILES IDX 31 35 32 36 33 37 34 38 35 39 36 40 37 41 38 42 39 43 100 44
REMARK SMILES IDX 40 45 99 46 41 47 42 48 43 49 93 50 44 51 98 52 92 53 94 54
REMARK SMILES IDX 45 55 97 56 91 57 90 58 46 60 78 61 58 62 77 63 59 64 62 65
REMARK SMILES IDX 76 66 95 67 60 68 61 69 75 71 96 72 63 73 47 74 48 75 56 76
REMARK SMILES IDX 49 77 50 78 54 79 57 80 51 81 52 82 55 83 53 84 79 85 80 86
REMARK SMILES IDX 88 87 81 88 82 89 86 90 89 91 83 92 84 93 87 94 85 95 64 96
REMARK SMILES IDX 65 97 73 98 66 99 67 100 71 101 74 102 68 103 69 104 72 105
REMARK SMILES IDX 70 106
REMARK H PARENT 10 17 18 34 94 59 62 70
REMARK Flexibility Score: inf
ROOT
ATOM      1  C   UNL A   1      34.281  33.499  33.311  1.00  0.00     0.188 C 
ENDROOT
BRANCH   1   2
ATOM      2  O   UNL A   1      34.840  32.457  32.533  1.00  0.00    -0.376 OA
BRANCH   2   3
ATOM      3  C   UNL A   1      36.252  32.495  32.458  1.00  0.00     0.202 C 
BRANCH   3   4
ATOM      4  C   UNL A   1      36.999  31.609  33.447  1.00  0.00     0.261 C 
BRANCH   4   5
ATOM      5  O   UNL A   1      37.355  32.017  34.808  1.00  0.00    -0.460 OA
BRANCH   5   6
ATOM      6  C   UNL A   1      38.479  32.090  35.550  1.00  0.00     0.340 C 
ATOM      7  O   UNL A   1      39.598  31.747  35.263  1.00  0.00    -0.246 OA
BRANCH   6   8
ATOM      8  C   UNL A   1      38.231  32.825  36.825  1.00  0.00     0.085 A 
ATOM      9  C   UNL A   1      38.846  34.030  37.168  1.00  0.00     0.055 A 
ATOM     10  C   UNL A   1      38.873  34.386  38.515  1.00  0.00     0.029 A 
ATOM     11  C   UNL A   1      38.041  33.729  39.431  1.00  0.00     0.028 A 
ATOM     12  C   UNL A   1      37.385  32.181  37.758  1.00  0.00     0.043 A 
ATOM     13  C   UNL A   1      37.193  32.684  39.043  1.00  0.00     0.038 A 
BRANCH   9  14
ATOM     14  N   UNL A   1      39.471  34.896  36.255  1.00  0.00    -0.325 N 
ATOM     15  C   UNL A   1      39.982  36.160  36.466  1.00  0.00     0.228 C 
ATOM     16  O   UNL A   1      40.102  36.900  35.481  1.00  0.00    -0.274 OA
ATOM     17  H   UNL A   1      39.554  34.553  35.335  1.00  0.00     0.169 HD
BRANCH  15  18
ATOM     18  C   UNL A   1      40.598  36.563  37.818  1.00  0.00     0.135 C 
BRANCH  18  19
ATOM     19  C   UNL A   1      42.062  36.311  38.124  1.00  0.00    -0.038 A 
ATOM     20  C   UNL A   1      44.825  35.701  38.364  1.00  0.00     0.118 A 
ATOM     21  C   UNL A   1      43.853  34.887  38.943  1.00  0.00     0.047 A 
ATOM     22  C   UNL A   1      44.425  36.901  37.789  1.00  0.00     0.047 A 
ATOM     23  C   UNL A   1      42.484  35.176  38.821  1.00  0.00     0.008 A 
ATOM     24  C   UNL A   1      43.053  37.216  37.699  1.00  0.00     0.008 A 
BRANCH  20  25
ATOM     25  O   UNL A   1      46.061  35.124  38.313  1.00  0.00    -0.497 OA
ATOM     26  C   UNL A   1      46.785  35.096  37.098  1.00  0.00     0.278 C 
ENDBRANCH  20  25
ENDBRANCH  18  19
ENDBRANCH  15  18
ENDBRANCH   9  14
BRANCH  13  27
ATOM     27  N   UNL A   1      36.191  32.223  39.867  1.00  0.00    -0.360 N 
ATOM     28  C   UNL A   1      34.812  32.737  39.883  1.00  0.00     0.178 C 
ATOM     29  C   UNL A   1      36.511  31.245  40.923  1.00  0.00     0.178 C 
ATOM     30  C   UNL A   1      34.372  33.165  41.308  1.00  0.00     0.283 C 
ATOM     31  C   UNL A   1      36.053  31.766  42.307  1.00  0.00     0.283 C 
ATOM     32  N   UNL A   1      34.619  32.114  42.321  1.00  0.00    -0.334 N 
ATOM     33  C   UNL A   1      34.190  32.542  43.650  1.00  0.00     0.332 C 
ATOM     34  H   UNL A   1      34.067  31.288  42.090  1.00  0.00     0.347 HD
ENDBRANCH  13  27
ENDBRANCH   6   8
ENDBRANCH   5   6
ENDBRANCH   4   5
ENDBRANCH   3   4
ENDBRANCH   2   3
ENDBRANCH   1   2
BRANCH   1  35
ATOM     35  C   UNL A   1      33.939  34.749  32.466  1.00  0.00     0.188 C 
BRANCH  35  36
ATOM     36  O   UNL A   1      33.250  34.592  31.230  1.00  0.00    -0.376 OA
BRANCH  36  37
ATOM     37  C   UNL A   1      33.964  34.878  30.046  1.00  0.00     0.202 C 
BRANCH  37  38
ATOM     38  C   UNL A   1      34.013  33.768  28.982  1.00  0.00     0.261 C 
BRANCH  38  39
ATOM     39  O   UNL A   1      34.919  32.666  29.230  1.00  0.00    -0.460 OA
BRANCH  39  40
ATOM     40  C   UNL A   1      34.671  31.504  28.575  1.00  0.00     0.338 C 
ATOM     41  O   UNL A   1      33.695  31.259  27.885  1.00  0.00    -0.246 OA
BRANCH  40  42
ATOM     42  C   UNL A   1      35.832  30.565  28.658  1.00  0.00     0.060 A 
ATOM     43  C   UNL A   1      36.065  29.882  29.865  1.00  0.00     0.016 A 
ATOM     44  C   UNL A   1      36.756  30.442  27.619  1.00  0.00     0.016 A 
ATOM     45  C   UNL A   1      37.239  29.147  30.068  1.00  0.00     0.010 A 
ATOM     46  C   UNL A   1      37.950  29.731  27.834  1.00  0.00     0.010 A 
ATOM     47  C   UNL A   1      38.226  29.127  29.079  1.00  0.00    -0.014 A 
BRANCH  47  48
ATOM     48  C   UNL A   1      39.622  28.717  29.417  1.00  0.00     0.031 A 
ATOM     49  C   UNL A   1      40.465  29.670  30.230  1.00  0.00     0.074 A 
ATOM     50  C   UNL A   1      40.152  27.536  29.047  1.00  0.00     0.049 A 
ATOM     51  N   UNL A   1      41.735  29.609  30.541  1.00  0.00    -0.248 NA
ATOM     52  C   UNL A   1      39.769  30.849  30.769  1.00  0.00     0.031 C 
ATOM     53  C   UNL A   1      39.441  26.469  28.354  1.00  0.00     0.029 A 
ATOM     54  N   UNL A   1      41.435  27.052  29.179  1.00  0.00    -0.354 N 
ATOM     55  C   UNL A   1      41.992  30.745  31.301  1.00  0.00     0.074 A 
ATOM     56  C   UNL A   1      40.755  31.491  31.377  1.00  0.00     0.031 C 
ATOM     57  C   UNL A   1      40.307  25.481  28.063  1.00  0.00     0.029 A 
ATOM     58  C   UNL A   1      41.641  25.858  28.530  1.00  0.00     0.049 A 
ATOM     59  H   UNL A   1      42.136  27.517  29.691  1.00  0.00     0.167 HD
ATOM     60  C   UNL A   1      43.148  31.127  31.894  1.00  0.00     0.037 A 
ATOM     61  C   UNL A   1      42.780  25.170  28.305  1.00  0.00     0.037 A 
ATOM     62  C   UNL A   1      44.383  30.390  31.827  1.00  0.00     0.049 A 
ATOM     63  C   UNL A   1      44.088  25.678  28.867  1.00  0.00     0.074 A 
ATOM     64  C   UNL A   1      45.601  30.694  32.410  1.00  0.00     0.029 A 
ATOM     65  N   UNL A   1      44.558  29.207  31.126  1.00  0.00    -0.354 N 
ATOM     66  N   UNL A   1      44.321  26.743  29.593  1.00  0.00    -0.248 NA
ATOM     67  C   UNL A   1      45.290  24.875  28.588  1.00  0.00     0.031 C 
ATOM     68  C   UNL A   1      46.530  29.729  32.010  1.00  0.00     0.029 A 
ATOM     69  C   UNL A   1      45.874  28.785  31.236  1.00  0.00     0.049 A 
ATOM     70  H   UNL A   1      43.854  28.737  30.625  1.00  0.00     0.167 HD
ATOM     71  C   UNL A   1      45.678  26.713  29.898  1.00  0.00     0.074 A 
ATOM     72  C   UNL A   1      46.218  25.523  29.278  1.00  0.00     0.031 C 
ATOM     73  C   UNL A   1      46.406  27.588  30.634  1.00  0.00     0.037 A 
BRANCH  60  74
ATOM     74  C   UNL A   1      43.142  32.426  32.648  1.00  0.00     0.064 A 
ATOM     75  C   UNL A   1      43.393  33.652  32.013  1.00  0.00     0.173 A 
ATOM     76  C   UNL A   1      42.843  32.448  34.020  1.00  0.00     0.173 A 
ATOM     77  F   UNL A   1      43.695  33.687  30.707  1.00  0.00    -0.203 F 
ATOM     78  C   UNL A   1      43.373  34.848  32.729  1.00  0.00     0.198 A 
ATOM     79  C   UNL A   1      42.791  33.647  34.723  1.00  0.00     0.198 A 
ATOM     80  F   UNL A   1      42.588  31.305  34.674  1.00  0.00    -0.203 F 
ATOM     81  F   UNL A   1      43.664  36.001  32.112  1.00  0.00    -0.200 F 
ATOM     82  C   UNL A   1      43.064  34.844  34.081  1.00  0.00     0.200 A 
ATOM     83  F   UNL A   1      42.476  33.643  36.027  1.00  0.00    -0.200 F 
ATOM     84  F   UNL A   1      43.035  35.996  34.765  1.00  0.00    -0.200 F 
ENDBRANCH  60  74
BRANCH  61  85
ATOM     85  C   UNL A   1      42.754  23.926  27.488  1.00  0.00     0.064 A 
ATOM     86  C   UNL A   1      42.446  22.686  28.063  1.00  0.00     0.173 A 
ATOM     87  C   UNL A   1      43.083  23.946  26.124  1.00  0.00     0.173 A 
ATOM     88  F   UNL A   1      42.150  22.608  29.369  1.00  0.00    -0.203 F 
ATOM     89  C   UNL A   1      42.492  21.511  27.313  1.00  0.00     0.198 A 
ATOM     90  C   UNL A   1      43.100  22.775  25.368  1.00  0.00     0.198 A 
ATOM     91  F   UNL A   1      43.389  25.106  25.524  1.00  0.00    -0.203 F 
ATOM     92  F   UNL A   1      42.245  20.333  27.902  1.00  0.00    -0.200 F 
ATOM     93  C   UNL A   1      42.814  21.556  25.966  1.00  0.00     0.200 A 
ATOM     94  F   UNL A   1      43.399  22.826  24.063  1.00  0.00    -0.200 F 
ATOM     95  F   UNL A   1      42.856  20.428  25.245  1.00  0.00    -0.200 F 
ENDBRANCH  61  85
BRANCH  73  96
ATOM     96  C   UNL A   1      47.856  27.269  30.873  1.00  0.00     0.064 A 
ATOM     97  C   UNL A   1      48.271  26.414  31.905  1.00  0.00     0.173 A 
ATOM     98  C   UNL A   1      48.844  27.794  30.023  1.00  0.00     0.173 A 
ATOM     99  F   UNL A   1      47.372  25.895  32.755  1.00  0.00    -0.203 F 
ATOM    100  C   UNL A   1      49.620  26.120  32.094  1.00  0.00     0.198 A 
ATOM    101  C   UNL A   1      50.187  27.470  30.193  1.00  0.00     0.198 A 
ATOM    102  F   UNL A   1      48.504  28.610  29.015  1.00  0.00    -0.203 F 
ATOM    103  F   UNL A   1      49.997  25.341  33.117  1.00  0.00    -0.200 F 
ATOM    104  C   UNL A   1      50.575  26.640  31.233  1.00  0.00     0.200 A 
ATOM    105  F   UNL A   1      51.106  27.960  29.350  1.00  0.00    -0.200 F 
ATOM    106  F   UNL A   1      51.871  26.347  31.411  1.00  0.00    -0.200 F 
ENDBRANCH  73  96
ENDBRANCH  47  48
ENDBRANCH  40  42
ENDBRANCH  39  40
ENDBRANCH  38  39
ENDBRANCH  37  38
ENDBRANCH  36  37
ENDBRANCH  35  36
ENDBRANCH   1  35
TORSDOF 22
ENDMDL
MODEL 2
REMARK VINA RESULT:      -8.9      5.477     12.002
REMARK SMILES COc1ccc(CC(=O)Nc2ccc(N3CC[NH+](C)CC3)cc2C(=O)OCCOCCOCCOC(=O)c2ccc(-c3c4nc(c(-c5c(F)c(F)c(F)c(F)c5F)c5ccc([nH]5)c(-c5c(F)c(F)c(F)c(F)c5F)c5nc(c(-c6c(F)c(F)c(F)c(F)c6F)c6ccc3[nH]6)C=C5)C=C4)cc2)cc1
REMARK SMILES IDX 30 1 29 2 28 3 27 4 26 5 24 6 25 7 23 8 11 9 12 10 13 11
REMARK SMILES IDX 22 12 14 13 10 14 8 15 9 16 7 18 6 19 3 20 4 21 102 22 5 23
REMARK SMILES IDX 101 24 2 25 1 26 15 27 16 28 21 29 17 30 20 31 18 32 19 33
REMARK SMILES IDX 31 35 32 36 33 37 34 38 35 39 36 40 37 41 38 42 39 43 100 44
REMARK SMILES IDX 40 45 99 46 41 47 42 48 43 49 93 50 44 51 98 52 92 53 94 54
REMARK SMILES IDX 45 55 97 56 91 57 90 58 46 60 78 61 58 62 77 63 59 64 62 65
REMARK SMILES IDX 76 66 95 67 60 68 61 69 75 71 96 72 63 73 47 74 48 75 56 76
REMARK SMILES IDX 49 77 50 78 54 79 57 80 51 81 52 82 55 83 53 84 79 85 80 86
REMARK SMILES IDX 88 87 81 88 82 89 86 90 89 91 83 92 84 93 87 94 85 95 64 96
REMARK SMILES IDX 65 97 73 98 66 99 67 100 71 101 74 102 68 103 69 104 72 105
REMARK SMILES IDX 70 106
REMARK H PARENT 10 17 18 34 94 59 62 70
REMARK Flexibility Score: inf
ROOT
ATOM      1  C   UNL A   1      35.674  31.619  29.402  1.00  0.00     0.188 C 
ENDROOT
BRANCH   1   2
ATOM      2  O   UNL A   1      35.946  30.233  29.310  1.00  0.00    -0.376 OA
BRANCH   2   3
ATOM      3  C   UNL A   1      36.004  29.749  27.982  1.00  0.00     0.202 C 
BRANCH   3   4
ATOM      4  C   UNL A   1      34.672  29.645  27.249  1.00  0.00     0.261 C 
BRANCH   4   5
ATOM      5  O   UNL A   1      33.827  28.449  27.249  1.00  0.00    -0.460 OA
BRANCH   5   6
ATOM      6  C   UNL A   1      32.532  28.161  27.006  1.00  0.00     0.340 C 
ATOM      7  O   UNL A   1      31.633  27.999  27.793  1.00  0.00    -0.246 OA
BRANCH   6   8
ATOM      8  C   UNL A   1      32.241  28.196  25.542  1.00  0.00     0.085 A 
ATOM      9  C   UNL A   1      33.024  27.569  24.572  1.00  0.00     0.055 A 
ATOM     10  C   UNL A   1      32.912  28.015  23.257  1.00  0.00     0.029 A 
ATOM     11  C   UNL A   1      31.833  28.827  22.882  1.00  0.00     0.028 A 
ATOM     12  C   UNL A   1      31.149  29.001  25.146  1.00  0.00     0.043 A 
ATOM     13  C   UNL A   1      30.864  29.242  23.804  1.00  0.00     0.038 A 
BRANCH   9  14
ATOM     14  N   UNL A   1      33.944  26.538  24.831  1.00  0.00    -0.325 N 
ATOM     15  C   UNL A   1      33.704  25.225  25.180  1.00  0.00     0.228 C 
ATOM     16  O   UNL A   1      34.610  24.612  25.758  1.00  0.00    -0.274 OA
ATOM     17  H   UNL A   1      34.894  26.789  24.755  1.00  0.00     0.169 HD
BRANCH  15  18
ATOM     18  C   UNL A   1      32.461  24.473  24.672  1.00  0.00     0.135 C 
BRANCH  18  19
ATOM     19  C   UNL A   1      32.526  23.004  24.299  1.00  0.00    -0.038 A 
ATOM     20  C   UNL A   1      32.286  20.258  23.616  1.00  0.00     0.118 A 
ATOM     21  C   UNL A   1      32.624  20.654  24.909  1.00  0.00     0.047 A 
ATOM     22  C   UNL A   1      32.211  21.231  22.626  1.00  0.00     0.047 A 
ATOM     23  C   UNL A   1      32.735  22.009  25.258  1.00  0.00     0.008 A 
ATOM     24  C   UNL A   1      32.362  22.591  22.963  1.00  0.00     0.008 A 
BRANCH  20  25
ATOM     25  O   UNL A   1      31.924  18.945  23.523  1.00  0.00    -0.497 OA
ATOM     26  C   UNL A   1      32.633  18.068  22.671  1.00  0.00     0.278 C 
ENDBRANCH  20  25
ENDBRANCH  18  19
ENDBRANCH  15  18
ENDBRANCH   9  14
BRANCH  13  27
ATOM     27  N   UNL A   1      29.674  29.804  23.397  1.00  0.00    -0.360 N 
ATOM     28  C   UNL A   1      28.793  29.247  22.357  1.00  0.00     0.178 C 
ATOM     29  C   UNL A   1      29.285  31.130  23.909  1.00  0.00     0.178 C 
ATOM     30  C   UNL A   1      28.471  30.290  21.256  1.00  0.00     0.283 C 
ATOM     31  C   UNL A   1      29.001  32.105  22.740  1.00  0.00     0.283 C 
ATOM     32  N   UNL A   1      27.986  31.574  21.809  1.00  0.00    -0.334 N 
ATOM     33  C   UNL A   1      27.685  32.532  20.750  1.00  0.00     0.332 C 
ATOM     34  H   UNL A   1      27.114  31.414  22.313  1.00  0.00     0.347 HD
ENDBRANCH  13  27
ENDBRANCH   6   8
ENDBRANCH   5   6
ENDBRANCH   4   5
ENDBRANCH   3   4
ENDBRANCH   2   3
ENDBRANCH   1   2
BRANCH   1  35
ATOM     35  C   UNL A   1      35.560  32.103  30.867  1.00  0.00     0.188 C 
BRANCH  35  36
ATOM     36  O   UNL A   1      34.492  32.969  31.237  1.00  0.00    -0.376 OA
BRANCH  36  37
ATOM     37  C   UNL A   1      34.563  33.584  32.506  1.00  0.00     0.202 C 
BRANCH  37  38
ATOM     38  C   UNL A   1      35.924  33.537  33.222  1.00  0.00     0.261 C 
BRANCH  38  39
ATOM     39  O   UNL A   1      36.415  32.229  33.605  1.00  0.00    -0.460 OA
BRANCH  39  40
ATOM     40  C   UNL A   1      37.231  32.170  34.687  1.00  0.00     0.338 C 
ATOM     41  O   UNL A   1      36.987  32.608  35.800  1.00  0.00    -0.246 OA
BRANCH  40  42
ATOM     42  C   UNL A   1      38.447  31.344  34.417  1.00  0.00     0.060 A 
ATOM     43  C   UNL A   1      39.701  31.831  34.830  1.00  0.00     0.016 A 
ATOM     44  C   UNL A   1      38.390  30.171  33.664  1.00  0.00     0.016 A 
ATOM     45  C   UNL A   1      40.889  31.205  34.434  1.00  0.00     0.010 A 
ATOM     46  C   UNL A   1      39.584  29.560  33.239  1.00  0.00     0.010 A 
ATOM     47  C   UNL A   1      40.841  30.106  33.573  1.00  0.00    -0.014 A 
BRANCH  47  48
ATOM     48  C   UNL A   1      42.060  29.687  32.819  1.00  0.00     0.031 A 
ATOM     49  C   UNL A   1      42.863  28.525  33.354  1.00  0.00     0.074 A 
ATOM     50  C   UNL A   1      42.462  30.283  31.681  1.00  0.00     0.049 A 
ATOM     51  N   UNL A   1      44.020  28.055  32.962  1.00  0.00    -0.248 NA
ATOM     52  C   UNL A   1      42.267  27.794  34.484  1.00  0.00     0.031 C 
ATOM     53  C   UNL A   1      41.745  31.341  30.981  1.00  0.00     0.029 A 
ATOM     54  N   UNL A   1      43.601  30.096  30.928  1.00  0.00    -0.354 N 
ATOM     55  C   UNL A   1      44.295  26.982  33.803  1.00  0.00     0.074 A 
ATOM     56  C   UNL A   1      43.200  26.892  34.745  1.00  0.00     0.031 C 
ATOM     57  C   UNL A   1      42.486  31.759  29.938  1.00  0.00     0.029 A 
ATOM     58  C   UNL A   1      43.743  31.010  29.911  1.00  0.00     0.049 A 
ATOM     59  H   UNL A   1      44.249  29.376  31.103  1.00  0.00     0.167 HD
ATOM     60  C   UNL A   1      45.355  26.139  33.787  1.00  0.00     0.037 A 
ATOM     61  C   UNL A   1      44.781  31.240  29.081  1.00  0.00     0.037 A 
ATOM     62  C   UNL A   1      46.447  26.218  32.853  1.00  0.00     0.049 A 
ATOM     63  C   UNL A   1      46.015  30.369  29.160  1.00  0.00     0.074 A 
ATOM     64  C   UNL A   1      47.557  25.397  32.752  1.00  0.00     0.029 A 
ATOM     65  N   UNL A   1      46.572  27.183  31.865  1.00  0.00    -0.354 N 
ATOM     66  N   UNL A   1      46.262  29.352  29.948  1.00  0.00    -0.248 NA
ATOM     67  C   UNL A   1      47.107  30.674  28.221  1.00  0.00     0.031 C 
ATOM     68  C   UNL A   1      48.385  25.902  31.744  1.00  0.00     0.029 A 
ATOM     69  C   UNL A   1      47.757  26.995  31.169  1.00  0.00     0.049 A 
ATOM     70  H   UNL A   1      45.917  27.894  31.684  1.00  0.00     0.167 HD
ATOM     71  C   UNL A   1      47.509  28.866  29.568  1.00  0.00     0.074 A 
ATOM     72  C   UNL A   1      47.969  29.699  28.480  1.00  0.00     0.031 C 
ATOM     73  C   UNL A   1      48.203  27.816  30.072  1.00  0.00     0.037 A 
BRANCH  60  74
ATOM     74  C   UNL A   1      45.403  25.066  34.838  1.00  0.00     0.064 A 
ATOM     75  C   UNL A   1      45.891  25.317  36.130  1.00  0.00     0.173 A 
ATOM     76  C   UNL A   1      44.916  23.780  34.559  1.00  0.00     0.173 A 
ATOM     77  F   UNL A   1      46.378  26.526  36.445  1.00  0.00    -0.203 F 
ATOM     78  C   UNL A   1      45.918  24.310  37.093  1.00  0.00     0.198 A 
ATOM     79  C   UNL A   1      44.913  22.787  35.534  1.00  0.00     0.198 A 
ATOM     80  F   UNL A   1      44.431  23.489  33.343  1.00  0.00    -0.203 F 
ATOM     81  F   UNL A   1      46.434  24.559  38.304  1.00  0.00    -0.200 F 
ATOM     82  C   UNL A   1      45.421  23.050  36.797  1.00  0.00     0.200 A 
ATOM     83  F   UNL A   1      44.418  21.574  35.251  1.00  0.00    -0.200 F 
ATOM     84  F   UNL A   1      45.437  22.087  37.729  1.00  0.00    -0.200 F 
ENDBRANCH  60  74
BRANCH  61  85
ATOM     85  C   UNL A   1      44.724  32.362  28.103  1.00  0.00     0.064 A 
ATOM     86  C   UNL A   1      44.208  32.176  26.814  1.00  0.00     0.173 A 
ATOM     87  C   UNL A   1      45.228  33.632  28.425  1.00  0.00     0.173 A 
ATOM     88  F   UNL A   1      43.738  30.975  26.448  1.00  0.00    -0.203 F 
ATOM     89  C   UNL A   1      44.221  33.208  25.876  1.00  0.00     0.198 A 
ATOM     90  C   UNL A   1      45.214  34.670  27.497  1.00  0.00     0.198 A 
ATOM     91  F   UNL A   1      45.737  33.863  29.645  1.00  0.00    -0.203 F 
ATOM     92  F   UNL A   1      43.769  32.987  24.634  1.00  0.00    -0.200 F 
ATOM     93  C   UNL A   1      44.719  34.456  26.219  1.00  0.00     0.200 A 
ATOM     94  F   UNL A   1      45.685  35.878  27.837  1.00  0.00    -0.200 F 
ATOM     95  F   UNL A   1      44.729  35.447  25.319  1.00  0.00    -0.200 F 
ENDBRANCH  61  85
BRANCH  73  96
ATOM     96  C   UNL A   1      49.509  27.457  29.417  1.00  0.00     0.064 A 
ATOM     97  C   UNL A   1      49.568  26.683  28.249  1.00  0.00     0.173 A 
ATOM     98  C   UNL A   1      50.719  27.939  29.944  1.00  0.00     0.173 A 
ATOM     99  F   UNL A   1      48.444  26.185  27.710  1.00  0.00    -0.203 F 
ATOM    100  C   UNL A   1      50.790  26.380  27.650  1.00  0.00     0.198 A 
ATOM    101  C   UNL A   1      51.934  27.664  29.323  1.00  0.00     0.198 A 
ATOM    102  F   UNL A   1      50.721  28.692  31.053  1.00  0.00    -0.203 F 
ATOM    103  F   UNL A   1      50.825  25.595  26.564  1.00  0.00    -0.200 F 
ATOM    104  C   UNL A   1      51.970  26.878  28.182  1.00  0.00     0.200 A 
ATOM    105  F   UNL A   1      53.072  28.160  29.829  1.00  0.00    -0.200 F 
ATOM    106  F   UNL A   1      53.143  26.593  27.598  1.00  0.00    -0.200 F 
ENDBRANCH  73  96
ENDBRANCH  47  48
ENDBRANCH  40  42
ENDBRANCH  39  40
ENDBRANCH  38  39
ENDBRANCH  37  38
ENDBRANCH  36  37
ENDBRANCH  35  36
ENDBRANCH   1  35
TORSDOF 22
ENDMDL
MODEL 3
REMARK VINA RESULT:      -8.9      8.232     14.715
REMARK SMILES COc1ccc(CC(=O)Nc2ccc(N3CC[NH+](C)CC3)cc2C(=O)OCCOCCOCCOC(=O)c2ccc(-c3c4nc(c(-c5c(F)c(F)c(F)c(F)c5F)c5ccc([nH]5)c(-c5c(F)c(F)c(F)c(F)c5F)c5nc(c(-c6c(F)c(F)c(F)c(F)c6F)c6ccc3[nH]6)C=C5)C=C4)cc2)cc1
REMARK SMILES IDX 30 1 29 2 28 3 27 4 26 5 24 6 25 7 23 8 11 9 12 10 13 11
REMARK SMILES IDX 22 12 14 13 10 14 8 15 9 16 7 18 6 19 3 20 4 21 102 22 5 23
REMARK SMILES IDX 101 24 2 25 1 26 15 27 16 28 21 29 17 30 20 31 18 32 19 33
REMARK SMILES IDX 31 35 32 36 33 37 34 38 35 39 36 40 37 41 38 42 39 43 100 44
REMARK SMILES IDX 40 45 99 46 41 47 42 48 43 49 93 50 44 51 98 52 92 53 94 54
REMARK SMILES IDX 45 55 97 56 91 57 90 58 46 60 78 61 58 62 77 63 59 64 62 65
REMARK SMILES IDX 76 66 95 67 60 68 61 69 75 71 96 72 63 73 47 74 48 75 56 76
REMARK SMILES IDX 49 77 50 78 54 79 57 80 51 81 52 82 55 83 53 84 79 85 80 86
REMARK SMILES IDX 88 87 81 88 82 89 86 90 89 91 83 92 84 93 87 94 85 95 64 96
REMARK SMILES IDX 65 97 73 98 66 99 67 100 71 101 74 102 68 103 69 104 72 105
REMARK SMILES IDX 70 106
REMARK H PARENT 10 17 18 34 94 59 62 70
REMARK Flexibility Score: inf
ROOT
ATOM      1  C   UNL A   1      40.657  24.654  26.375  1.00  0.00     0.188 C 
ENDROOT
BRANCH   1   2
ATOM      2  O   UNL A   1      39.347  25.100  26.670  1.00  0.00    -0.376 OA
BRANCH   2   3
ATOM      3  C   UNL A   1      38.445  24.056  26.981  1.00  0.00     0.202 C 
BRANCH   3   4
ATOM      4  C   UNL A   1      37.454  23.680  25.886  1.00  0.00     0.261 C 
BRANCH   4   5
ATOM      5  O   UNL A   1      35.999  23.719  26.047  1.00  0.00    -0.460 OA
BRANCH   5   6
ATOM      6  C   UNL A   1      35.023  22.852  26.386  1.00  0.00     0.340 C 
ATOM      7  O   UNL A   1      34.602  22.578  27.482  1.00  0.00    -0.246 OA
BRANCH   6   8
ATOM      8  C   UNL A   1      34.346  22.307  25.172  1.00  0.00     0.085 A 
ATOM      9  C   UNL A   1      33.849  23.094  24.132  1.00  0.00     0.055 A 
ATOM     10  C   UNL A   1      32.886  22.533  23.295  1.00  0.00     0.029 A 
ATOM     11  C   UNL A   1      32.674  21.147  23.301  1.00  0.00     0.028 A 
ATOM     12  C   UNL A   1      34.133  20.910  25.156  1.00  0.00     0.043 A 
ATOM     13  C   UNL A   1      33.381  20.294  24.158  1.00  0.00     0.038 A 
BRANCH   9  14
ATOM     14  N   UNL A   1      34.224  24.425  23.888  1.00  0.00    -0.325 N 
ATOM     15  C   UNL A   1      33.437  25.558  23.846  1.00  0.00     0.228 C 
ATOM     16  O   UNL A   1      33.871  26.533  23.220  1.00  0.00    -0.274 OA
ATOM     17  H   UNL A   1      35.185  24.571  23.720  1.00  0.00     0.169 HD
BRANCH  15  18
ATOM     18  C   UNL A   1      32.184  25.698  24.728  1.00  0.00     0.135 C 
BRANCH  18  19
ATOM     19  C   UNL A   1      31.045  26.622  24.340  1.00  0.00    -0.038 A 
ATOM     20  C   UNL A   1      28.978  28.250  23.272  1.00  0.00     0.118 A 
ATOM     21  C   UNL A   1      30.209  28.792  23.635  1.00  0.00     0.047 A 
ATOM     22  C   UNL A   1      28.726  26.918  23.579  1.00  0.00     0.047 A 
ATOM     23  C   UNL A   1      31.240  27.993  24.155  1.00  0.00     0.008 A 
ATOM     24  C   UNL A   1      29.746  26.120  24.138  1.00  0.00     0.008 A 
BRANCH  20  25
ATOM     25  O   UNL A   1      28.214  29.088  22.512  1.00  0.00    -0.497 OA
ATOM     26  C   UNL A   1      27.555  30.189  23.107  1.00  0.00     0.278 C 
ENDBRANCH  20  25
ENDBRANCH  18  19
ENDBRANCH  15  18
ENDBRANCH   9  14
BRANCH  13  27
ATOM     27  N   UNL A   1      33.374  18.928  23.983  1.00  0.00    -0.360 N 
ATOM     28  C   UNL A   1      32.188  18.132  23.627  1.00  0.00     0.178 C 
ATOM     29  C   UNL A   1      34.584  18.149  24.303  1.00  0.00     0.178 C 
ATOM     30  C   UNL A   1      31.956  16.967  24.624  1.00  0.00     0.283 C 
ATOM     31  C   UNL A   1      34.258  17.025  25.316  1.00  0.00     0.283 C 
ATOM     32  N   UNL A   1      33.170  16.148  24.839  1.00  0.00    -0.334 N 
ATOM     33  C   UNL A   1      32.919  15.057  25.777  1.00  0.00     0.332 C 
ATOM     34  H   UNL A   1      33.444  15.716  23.957  1.00  0.00     0.347 HD
ENDBRANCH  13  27
ENDBRANCH   6   8
ENDBRANCH   5   6
ENDBRANCH   4   5
ENDBRANCH   3   4
ENDBRANCH   2   3
ENDBRANCH   1   2
BRANCH   1  35
ATOM     35  C   UNL A   1      40.985  23.297  27.042  1.00  0.00     0.188 C 
BRANCH  35  36
ATOM     36  O   UNL A   1      41.227  22.157  26.225  1.00  0.00    -0.376 OA
BRANCH  36  37
ATOM     37  C   UNL A   1      42.202  21.236  26.666  1.00  0.00     0.202 C 
BRANCH  37  38
ATOM     38  C   UNL A   1      43.432  21.045  25.761  1.00  0.00     0.261 C 
BRANCH  38  39
ATOM     39  O   UNL A   1      44.074  22.247  25.271  1.00  0.00    -0.460 OA
BRANCH  39  40
ATOM     40  C   UNL A   1      45.325  22.508  25.726  1.00  0.00     0.338 C 
ATOM     41  O   UNL A   1      46.254  21.718  25.777  1.00  0.00    -0.246 OA
BRANCH  40  42
ATOM     42  C   UNL A   1      45.511  23.960  26.030  1.00  0.00     0.060 A 
ATOM     43  C   UNL A   1      45.114  24.908  25.069  1.00  0.00     0.016 A 
ATOM     44  C   UNL A   1      46.176  24.393  27.177  1.00  0.00     0.016 A 
ATOM     45  C   UNL A   1      45.441  26.262  25.208  1.00  0.00     0.010 A 
ATOM     46  C   UNL A   1      46.533  25.749  27.302  1.00  0.00     0.010 A 
ATOM     47  C   UNL A   1      46.218  26.682  26.291  1.00  0.00    -0.014 A 
BRANCH  47  48
ATOM     48  C   UNL A   1      46.917  28.001  26.250  1.00  0.00     0.031 A 
ATOM     49  C   UNL A   1      48.407  28.007  26.007  1.00  0.00     0.074 A 
ATOM     50  C   UNL A   1      46.280  29.177  26.400  1.00  0.00     0.049 A 
ATOM     51  N   UNL A   1      49.261  28.999  26.056  1.00  0.00    -0.248 NA
ATOM     52  C   UNL A   1      49.010  26.711  25.656  1.00  0.00     0.031 C 
ATOM     53  C   UNL A   1      44.838  29.347  26.535  1.00  0.00     0.029 A 
ATOM     54  N   UNL A   1      46.778  30.458  26.494  1.00  0.00    -0.354 N 
ATOM     55  C   UNL A   1      50.500  28.446  25.751  1.00  0.00     0.074 A 
ATOM     56  C   UNL A   1      50.292  27.028  25.554  1.00  0.00     0.031 C 
ATOM     57  C   UNL A   1      44.569  30.646  26.760  1.00  0.00     0.029 A 
ATOM     58  C   UNL A   1      45.824  31.397  26.807  1.00  0.00     0.049 A 
ATOM     59  H   UNL A   1      47.727  30.678  26.350  1.00  0.00     0.167 HD
ATOM     60  C   UNL A   1      51.700  29.062  25.635  1.00  0.00     0.037 A 
ATOM     61  C   UNL A   1      45.953  32.700  27.131  1.00  0.00     0.037 A 
ATOM     62  C   UNL A   1      51.916  30.472  25.827  1.00  0.00     0.049 A 
ATOM     63  C   UNL A   1      47.320  33.346  27.122  1.00  0.00     0.074 A 
ATOM     64  C   UNL A   1      53.096  31.187  25.715  1.00  0.00     0.029 A 
ATOM     65  N   UNL A   1      50.931  31.380  26.183  1.00  0.00    -0.354 N 
ATOM     66  N   UNL A   1      48.483  32.821  26.823  1.00  0.00    -0.248 NA
ATOM     67  C   UNL A   1      47.387  34.772  27.481  1.00  0.00     0.031 C 
ATOM     68  C   UNL A   1      52.838  32.516  26.064  1.00  0.00     0.029 A 
ATOM     69  C   UNL A   1      51.483  32.644  26.324  1.00  0.00     0.049 A 
ATOM     70  H   UNL A   1      49.981  31.161  26.314  1.00  0.00     0.167 HD
ATOM     71  C   UNL A   1      49.407  33.857  26.908  1.00  0.00     0.074 A 
ATOM     72  C   UNL A   1      48.670  35.043  27.287  1.00  0.00     0.031 C 
ATOM     73  C   UNL A   1      50.743  33.828  26.683  1.00  0.00     0.037 A 
BRANCH  60  74
ATOM     74  C   UNL A   1      52.890  28.204  25.311  1.00  0.00     0.064 A 
ATOM     75  C   UNL A   1      53.258  27.918  23.987  1.00  0.00     0.173 A 
ATOM     76  C   UNL A   1      53.696  27.693  26.341  1.00  0.00     0.173 A 
ATOM     77  F   UNL A   1      52.516  28.372  22.967  1.00  0.00    -0.203 F 
ATOM     78  C   UNL A   1      54.371  27.128  23.708  1.00  0.00     0.198 A 
ATOM     79  C   UNL A   1      54.826  26.933  26.056  1.00  0.00     0.198 A 
ATOM     80  F   UNL A   1      53.393  27.943  27.623  1.00  0.00    -0.203 F 
ATOM     81  F   UNL A   1      54.675  26.827  22.438  1.00  0.00    -0.200 F 
ATOM     82  C   UNL A   1      55.158  26.644  24.743  1.00  0.00     0.200 A 
ATOM     83  F   UNL A   1      55.595  26.479  27.057  1.00  0.00    -0.200 F 
ATOM     84  F   UNL A   1      56.235  25.893  24.471  1.00  0.00    -0.200 F 
ENDBRANCH  60  74
BRANCH  61  85
ATOM     85  C   UNL A   1      44.757  33.497  27.520  1.00  0.00     0.064 A 
ATOM     86  C   UNL A   1      44.066  34.274  26.581  1.00  0.00     0.173 A 
ATOM     87  C   UNL A   1      44.309  33.533  28.850  1.00  0.00     0.173 A 
ATOM     88  F   UNL A   1      44.470  34.295  25.302  1.00  0.00    -0.203 F 
ATOM     89  C   UNL A   1      42.990  35.076  26.960  1.00  0.00     0.198 A 
ATOM     90  C   UNL A   1      43.215  34.311  29.222  1.00  0.00     0.198 A 
ATOM     91  F   UNL A   1      44.936  32.810  29.789  1.00  0.00    -0.203 F 
ATOM     92  F   UNL A   1      42.382  35.850  26.050  1.00  0.00    -0.200 F 
ATOM     93  C   UNL A   1      42.562  35.091  28.278  1.00  0.00     0.200 A 
ATOM     94  F   UNL A   1      42.797  34.313  30.495  1.00  0.00    -0.200 F 
ATOM     95  F   UNL A   1      41.527  35.859  28.641  1.00  0.00    -0.200 F 
ENDBRANCH  61  85
BRANCH  73  96
ATOM     96  C   UNL A   1      51.500  35.125  26.773  1.00  0.00     0.064 A 
ATOM     97  C   UNL A   1      52.078  35.569  27.971  1.00  0.00     0.173 A 
ATOM     98  C   UNL A   1      51.688  35.913  25.625  1.00  0.00     0.173 A 
ATOM     99  F   UNL A   1      51.918  34.862  29.101  1.00  0.00    -0.203 F 
ATOM    100  C   UNL A   1      52.790  36.765  28.024  1.00  0.00     0.198 A 
ATOM    101  C   UNL A   1      52.429  37.090  25.675  1.00  0.00     0.198 A 
ATOM    102  F   UNL A   1      51.165  35.533  24.451  1.00  0.00    -0.203 F 
ATOM    103  F   UNL A   1      53.290  37.195  29.191  1.00  0.00    -0.200 F 
ATOM    104  C   UNL A   1      52.973  37.520  26.875  1.00  0.00     0.200 A 
ATOM    105  F   UNL A   1      52.619  37.809  24.559  1.00  0.00    -0.200 F 
ATOM    106  F   UNL A   1      53.667  38.666  26.926  1.00  0.00    -0.200 F 
ENDBRANCH  73  96
ENDBRANCH  47  48
ENDBRANCH  40  42
ENDBRANCH  39  40
ENDBRANCH  38  39
ENDBRANCH  37  38
ENDBRANCH  36  37
ENDBRANCH  35  36
ENDBRANCH   1  35
TORSDOF 22
ENDMDL
