MODEL 1
REMARK VINA RESULT:     -10.2      0.000      0.000
REMARK SMILES CS(=O)(=O)c1ccc(C2=NN(c3ccc(C(=O)OCCOCCOCCOC(=O)c4ccc(-c5c6nc(c(-c7c(F)c(F)c(F)c(F)c7F)c7ccc([nH]7)c(-c7c(F)c(F)c(F)c(F)c7F)c7nc(c(-c8c(F)c(F)c(F)c(F)c8F)c8ccc5[nH]8)C=C7)C=C6)cc4)cc3)[C@H](c3cccs3)C2)cc1
REMARK SMILES IDX 22 1 21 2 20 3 19 4 18 5 16 6 17 7 15 8 12 9 13 10 94 11
REMARK SMILES IDX 14 12 93 13 11 14 9 15 10 16 101 17 95 18 8 19 5 20 6 21
REMARK SMILES IDX 103 22 7 23 102 24 2 25 1 26 3 27 4 28 96 29 97 30 100 31
REMARK SMILES IDX 98 32 99 33 23 34 24 35 25 36 26 37 27 38 28 39 29 40 30 41
REMARK SMILES IDX 31 42 92 43 32 44 91 45 33 46 34 47 35 48 85 49 36 50 90 51
REMARK SMILES IDX 84 52 86 53 37 54 89 55 83 56 82 57 38 59 70 60 50 61 69 62
REMARK SMILES IDX 51 63 54 64 68 65 87 66 52 67 53 68 67 70 88 71 55 72 39 73
REMARK SMILES IDX 40 74 48 75 41 76 42 77 46 78 49 79 43 80 44 81 47 82 45 83
REMARK SMILES IDX 71 84 72 85 80 86 73 87 74 88 78 89 81 90 75 91 76 92 79 93
REMARK SMILES IDX 77 94 56 95 57 96 65 97 58 98 59 99 63 100 66 101 60 102
REMARK SMILES IDX 61 103 64 104 62 105
REMARK H PARENT 86 58 54 69
REMARK Flexibility Score: inf
ROOT
ATOM      1  C   UNL A   1      35.468  23.065  25.273  1.00  0.00     0.188 C 
ENDROOT
BRANCH   1   2
ATOM      2  O   UNL A   1      34.203  23.472  24.772  1.00  0.00    -0.376 OA
BRANCH   2   3
ATOM      3  C   UNL A   1      34.121  24.426  23.720  1.00  0.00     0.202 C 
BRANCH   3   4
ATOM      4  C   UNL A   1      32.894  25.341  23.568  1.00  0.00     0.261 C 
BRANCH   4   5
ATOM      5  O   UNL A   1      32.316  25.807  24.795  1.00  0.00    -0.460 OA
BRANCH   5   6
ATOM      6  C   UNL A   1      31.717  27.022  24.740  1.00  0.00     0.338 C 
ATOM      7  O   UNL A   1      30.596  27.265  24.326  1.00  0.00    -0.246 OA
BRANCH   6   8
ATOM      8  C   UNL A   1      32.560  28.044  25.410  1.00  0.00     0.060 A 
ATOM      9  C   UNL A   1      34.101  29.883  26.873  1.00  0.00     0.060 A 
ATOM     10  C   UNL A   1      34.420  28.522  26.900  1.00  0.00     0.029 A 
ATOM     11  C   UNL A   1      33.087  30.318  26.005  1.00  0.00     0.029 A 
ATOM     12  C   UNL A   1      33.646  27.604  26.181  1.00  0.00     0.018 A 
ATOM     13  C   UNL A   1      32.308  29.410  25.285  1.00  0.00     0.018 A 
BRANCH   9  14
ATOM     14  N   UNL A   1      34.632  30.775  27.806  1.00  0.00    -0.257 N 
ATOM     15  C   UNL A   1      34.678  32.614  28.868  1.00  0.00     0.071 C 
ATOM     16  N   UNL A   1      33.867  31.684  28.464  1.00  0.00    -0.176 NA
ATOM     17  C   UNL A   1      36.089  32.529  28.354  1.00  0.00     0.091 C 
ATOM     18  C   UNL A   1      36.050  31.153  27.685  1.00  0.00     0.154 C 
BRANCH  15  19
ATOM     19  C   UNL A   1      34.281  33.693  29.790  1.00  0.00    -0.002 A 
ATOM     20  C   UNL A   1      33.450  35.745  31.484  1.00  0.00     0.067 A 
ATOM     21  C   UNL A   1      32.901  35.638  30.202  1.00  0.00     0.021 A 
ATOM     22  C   UNL A   1      34.408  34.826  31.927  1.00  0.00     0.021 A 
ATOM     23  C   UNL A   1      33.327  34.617  29.350  1.00  0.00     0.011 A 
ATOM     24  C   UNL A   1      34.812  33.786  31.080  1.00  0.00     0.011 A 
BRANCH  20  25
ATOM     25  S   UNL A   1      32.930  37.096  32.521  1.00  0.00     0.175 S 
ATOM     26  C   UNL A   1      33.929  37.019  33.981  1.00  0.00     0.163 C 
ATOM     27  O   UNL A   1      31.567  36.815  32.932  1.00  0.00    -0.224 OA
ATOM     28  O   UNL A   1      33.265  38.313  31.808  1.00  0.00    -0.224 OA
ENDBRANCH  20  25
ENDBRANCH  15  19
BRANCH  18  29
ATOM     29  C   UNL A   1      37.017  30.107  28.209  1.00  0.00     0.030 A 
ATOM     30  C   UNL A   1      38.100  29.581  27.520  1.00  0.00     0.017 A 
ATOM     31  S   UNL A   1      36.829  29.327  29.723  1.00  0.00    -0.147 S 
ATOM     32  C   UNL A   1      38.727  28.506  28.208  1.00  0.00     0.012 A 
ATOM     33  C   UNL A   1      38.155  28.289  29.439  1.00  0.00     0.065 A 
ENDBRANCH  18  29
ENDBRANCH   9  14
ENDBRANCH   6   8
ENDBRANCH   5   6
ENDBRANCH   4   5
ENDBRANCH   3   4
ENDBRANCH   2   3
ENDBRANCH   1   2
BRANCH   1  34
ATOM     34  C   UNL A   1      36.020  21.659  24.949  1.00  0.00     0.188 C 
BRANCH  34  35
ATOM     35  O   UNL A   1      37.151  21.288  25.698  1.00  0.00    -0.376 OA
BRANCH  35  36
ATOM     36  C   UNL A   1      38.351  22.029  25.562  1.00  0.00     0.202 C 
BRANCH  36  37
ATOM     37  C   UNL A   1      39.368  22.291  26.694  1.00  0.00     0.261 C 
BRANCH  37  38
ATOM     38  O   UNL A   1      40.117  21.187  27.215  1.00  0.00    -0.460 OA
BRANCH  38  39
ATOM     39  C   UNL A   1      41.272  20.882  26.583  1.00  0.00     0.338 C 
ATOM     40  O   UNL A   1      41.477  19.944  25.823  1.00  0.00    -0.246 OA
BRANCH  39  41
ATOM     41  C   UNL A   1      42.239  21.970  26.818  1.00  0.00     0.060 A 
ATOM     42  C   UNL A   1      42.813  22.107  28.088  1.00  0.00     0.016 A 
ATOM     43  C   UNL A   1      42.564  22.863  25.794  1.00  0.00     0.016 A 
ATOM     44  C   UNL A   1      43.701  23.153  28.345  1.00  0.00     0.010 A 
ATOM     45  C   UNL A   1      43.439  23.922  26.059  1.00  0.00     0.010 A 
ATOM     46  C   UNL A   1      43.991  24.087  27.343  1.00  0.00    -0.014 A 
BRANCH  46  47
ATOM     47  C   UNL A   1      44.752  25.316  27.679  1.00  0.00     0.031 A 
ATOM     48  C   UNL A   1      44.070  26.407  28.455  1.00  0.00     0.074 A 
ATOM     49  C   UNL A   1      46.037  25.460  27.307  1.00  0.00     0.049 A 
ATOM     50  N   UNL A   1      44.526  27.577  28.827  1.00  0.00    -0.248 NA
ATOM     51  C   UNL A   1      42.680  26.145  28.855  1.00  0.00     0.031 C 
ATOM     52  C   UNL A   1      46.815  24.471  26.567  1.00  0.00     0.029 A 
ATOM     53  N   UNL A   1      46.904  26.509  27.490  1.00  0.00    -0.354 N 
ATOM     54  C   UNL A   1      43.476  28.192  29.497  1.00  0.00     0.074 A 
ATOM     55  C   UNL A   1      42.352  27.282  29.447  1.00  0.00     0.031 C 
ATOM     56  C   UNL A   1      48.042  24.969  26.338  1.00  0.00     0.029 A 
ATOM     57  C   UNL A   1      48.123  26.321  26.889  1.00  0.00     0.049 A 
ATOM     58  H   UNL A   1      46.673  27.317  28.003  1.00  0.00     0.167 HD
ATOM     59  C   UNL A   1      43.454  29.405  30.103  1.00  0.00     0.037 A 
ATOM     60  C   UNL A   1      49.174  27.157  26.772  1.00  0.00     0.037 A 
ATOM     61  C   UNL A   1      44.574  30.309  30.145  1.00  0.00     0.049 A 
ATOM     62  C   UNL A   1      49.114  28.520  27.410  1.00  0.00     0.074 A 
ATOM     63  C   UNL A   1      44.668  31.538  30.775  1.00  0.00     0.029 A 
ATOM     64  N   UNL A   1      45.791  30.092  29.513  1.00  0.00    -0.354 N 
ATOM     65  N   UNL A   1      48.140  29.077  28.089  1.00  0.00    -0.248 NA
ATOM     66  C   UNL A   1      50.307  29.368  27.275  1.00  0.00     0.031 C 
ATOM     67  C   UNL A   1      45.913  32.096  30.463  1.00  0.00     0.029 A 
ATOM     68  C   UNL A   1      46.626  31.184  29.701  1.00  0.00     0.049 A 
ATOM     69  H   UNL A   1      46.027  29.282  29.007  1.00  0.00     0.167 HD
ATOM     70  C   UNL A   1      48.605  30.328  28.475  1.00  0.00     0.074 A 
ATOM     71  C   UNL A   1      49.959  30.440  27.973  1.00  0.00     0.031 C 
ATOM     72  C   UNL A   1      47.967  31.295  29.183  1.00  0.00     0.037 A 
BRANCH  59  73
ATOM     73  C   UNL A   1      42.156  29.838  30.727  1.00  0.00     0.064 A 
ATOM     74  C   UNL A   1      41.778  29.438  32.018  1.00  0.00     0.173 A 
ATOM     75  C   UNL A   1      41.276  30.669  30.016  1.00  0.00     0.173 A 
ATOM     76  F   UNL A   1      42.576  28.636  32.738  1.00  0.00    -0.203 F 
ATOM     77  C   UNL A   1      40.548  29.814  32.554  1.00  0.00     0.198 A 
ATOM     78  C   UNL A   1      40.064  31.074  30.570  1.00  0.00     0.198 A 
ATOM     79  F   UNL A   1      41.589  31.088  28.781  1.00  0.00    -0.203 F 
ATOM     80  F   UNL A   1      40.178  29.361  33.760  1.00  0.00    -0.200 F 
ATOM     81  C   UNL A   1      39.694  30.635  31.832  1.00  0.00     0.200 A 
ATOM     82  F   UNL A   1      39.249  31.880  29.877  1.00  0.00    -0.200 F 
ATOM     83  F   UNL A   1      38.511  30.994  32.349  1.00  0.00    -0.200 F 
ENDBRANCH  59  73
BRANCH  60  84
ATOM     84  C   UNL A   1      50.367  26.724  25.998  1.00  0.00     0.064 A 
ATOM     85  C   UNL A   1      50.546  27.101  24.662  1.00  0.00     0.173 A 
ATOM     86  C   UNL A   1      51.363  25.932  26.594  1.00  0.00     0.173 A 
ATOM     87  F   UNL A   1      49.611  27.832  24.040  1.00  0.00    -0.203 F 
ATOM     88  C   UNL A   1      51.674  26.699  23.947  1.00  0.00     0.198 A 
ATOM     89  C   UNL A   1      52.503  25.556  25.887  1.00  0.00     0.198 A 
ATOM     90  F   UNL A   1      51.235  25.540  27.870  1.00  0.00    -0.203 F 
ATOM     91  F   UNL A   1      51.804  27.043  22.658  1.00  0.00    -0.200 F 
ATOM     92  C   UNL A   1      52.655  25.936  24.563  1.00  0.00     0.200 A 
ATOM     93  F   UNL A   1      53.452  24.830  26.490  1.00  0.00    -0.200 F 
ATOM     94  F   UNL A   1      53.744  25.562  23.878  1.00  0.00    -0.200 F 
ENDBRANCH  60  84
BRANCH  72  95
ATOM     95  C   UNL A   1      48.735  32.557  29.474  1.00  0.00     0.064 A 
ATOM     96  C   UNL A   1      49.572  32.673  30.595  1.00  0.00     0.173 A 
ATOM     97  C   UNL A   1      48.653  33.656  28.605  1.00  0.00     0.173 A 
ATOM     98  F   UNL A   1      49.679  31.658  31.466  1.00  0.00    -0.203 F 
ATOM     99  C   UNL A   1      50.269  33.852  30.852  1.00  0.00     0.198 A 
ATOM    100  C   UNL A   1      49.380  34.820  28.846  1.00  0.00     0.198 A 
ATOM    101  F   UNL A   1      47.875  33.600  27.514  1.00  0.00    -0.203 F 
ATOM    102  F   UNL A   1      51.014  33.958  31.960  1.00  0.00    -0.200 F 
ATOM    103  C   UNL A   1      50.178  34.921  29.974  1.00  0.00     0.200 A 
ATOM    104  F   UNL A   1      49.303  35.845  27.986  1.00  0.00    -0.200 F 
ATOM    105  F   UNL A   1      50.852  36.053  30.221  1.00  0.00    -0.200 F 
ENDBRANCH  72  95
ENDBRANCH  46  47
ENDBRANCH  39  41
ENDBRANCH  38  39
ENDBRANCH  37  38
ENDBRANCH  36  37
ENDBRANCH  35  36
ENDBRANCH  34  35
ENDBRANCH   1  34
TORSDOF 21
ENDMDL
MODEL 2
REMARK VINA RESULT:     -10.0      3.572      8.430
REMARK SMILES CS(=O)(=O)c1ccc(C2=NN(c3ccc(C(=O)OCCOCCOCCOC(=O)c4ccc(-c5c6nc(c(-c7c(F)c(F)c(F)c(F)c7F)c7ccc([nH]7)c(-c7c(F)c(F)c(F)c(F)c7F)c7nc(c(-c8c(F)c(F)c(F)c(F)c8F)c8ccc5[nH]8)C=C7)C=C6)cc4)cc3)[C@H](c3cccs3)C2)cc1
REMARK SMILES IDX 22 1 21 2 20 3 19 4 18 5 16 6 17 7 15 8 12 9 13 10 94 11
REMARK SMILES IDX 14 12 93 13 11 14 9 15 10 16 101 17 95 18 8 19 5 20 6 21
REMARK SMILES IDX 103 22 7 23 102 24 2 25 1 26 3 27 4 28 96 29 97 30 100 31
REMARK SMILES IDX 98 32 99 33 23 34 24 35 25 36 26 37 27 38 28 39 29 40 30 41
REMARK SMILES IDX 31 42 92 43 32 44 91 45 33 46 34 47 35 48 85 49 36 50 90 51
REMARK SMILES IDX 84 52 86 53 37 54 89 55 83 56 82 57 38 59 70 60 50 61 69 62
REMARK SMILES IDX 51 63 54 64 68 65 87 66 52 67 53 68 67 70 88 71 55 72 39 73
REMARK SMILES IDX 40 74 48 75 41 76 42 77 46 78 49 79 43 80 44 81 47 82 45 83
REMARK SMILES IDX 71 84 72 85 80 86 73 87 74 88 78 89 81 90 75 91 76 92 79 93
REMARK SMILES IDX 77 94 56 95 57 96 65 97 58 98 59 99 63 100 66 101 60 102
REMARK SMILES IDX 61 103 64 104 62 105
REMARK H PARENT 86 58 54 69
REMARK Flexibility Score: inf
ROOT
ATOM      1  C   UNL A   1      35.893  23.658  25.789  1.00  0.00     0.188 C 
ENDROOT
BRANCH   1   2
ATOM      2  O   UNL A   1      34.828  23.559  24.854  1.00  0.00    -0.376 OA
BRANCH   2   3
ATOM      3  C   UNL A   1      34.682  24.532  23.828  1.00  0.00     0.202 C 
BRANCH   3   4
ATOM      4  C   UNL A   1      33.336  25.234  23.580  1.00  0.00     0.261 C 
BRANCH   4   5
ATOM      5  O   UNL A   1      32.589  25.570  24.758  1.00  0.00    -0.460 OA
BRANCH   5   6
ATOM      6  C   UNL A   1      31.929  26.754  24.719  1.00  0.00     0.338 C 
ATOM      7  O   UNL A   1      30.792  26.943  24.319  1.00  0.00    -0.246 OA
BRANCH   6   8
ATOM      8  C   UNL A   1      32.727  27.811  25.389  1.00  0.00     0.060 A 
ATOM      9  C   UNL A   1      34.188  29.716  26.850  1.00  0.00     0.060 A 
ATOM     10  C   UNL A   1      34.570  28.371  26.871  1.00  0.00     0.029 A 
ATOM     11  C   UNL A   1      33.151  30.106  25.988  1.00  0.00     0.029 A 
ATOM     12  C   UNL A   1      33.836  27.421  26.153  1.00  0.00     0.018 A 
ATOM     13  C   UNL A   1      32.411  29.165  25.269  1.00  0.00     0.018 A 
BRANCH   9  14
ATOM     14  N   UNL A   1      34.682  30.628  27.783  1.00  0.00    -0.257 N 
ATOM     15  C   UNL A   1      34.685  32.490  28.806  1.00  0.00     0.071 C 
ATOM     16  N   UNL A   1      33.891  31.550  28.391  1.00  0.00    -0.176 NA
ATOM     17  C   UNL A   1      36.115  32.396  28.349  1.00  0.00     0.091 C 
ATOM     18  C   UNL A   1      36.103  31.007  27.708  1.00  0.00     0.154 C 
BRANCH  15  19
ATOM     19  C   UNL A   1      34.251  33.589  29.688  1.00  0.00    -0.002 A 
ATOM     20  C   UNL A   1      33.356  35.679  31.301  1.00  0.00     0.067 A 
ATOM     21  C   UNL A   1      32.906  35.578  29.981  1.00  0.00     0.021 A 
ATOM     22  C   UNL A   1      34.247  34.733  31.822  1.00  0.00     0.021 A 
ATOM     23  C   UNL A   1      33.365  34.538  29.170  1.00  0.00     0.011 A 
ATOM     24  C   UNL A   1      34.683  33.674  31.015  1.00  0.00     0.011 A 
BRANCH  20  25
ATOM     25  S   UNL A   1      32.800  37.053  32.287  1.00  0.00     0.175 S 
ATOM     26  C   UNL A   1      33.852  37.106  33.710  1.00  0.00     0.163 C 
ATOM     27  O   UNL A   1      31.469  36.722  32.763  1.00  0.00    -0.224 OA
ATOM     28  O   UNL A   1      33.043  38.246  31.501  1.00  0.00    -0.224 OA
ENDBRANCH  20  25
ENDBRANCH  15  19
BRANCH  18  29
ATOM     29  C   UNL A   1      37.050  29.974  28.293  1.00  0.00     0.030 A 
ATOM     30  C   UNL A   1      36.966  29.419  29.561  1.00  0.00     0.017 A 
ATOM     31  S   UNL A   1      38.459  29.426  27.485  1.00  0.00    -0.147 S 
ATOM     32  C   UNL A   1      38.083  28.599  29.883  1.00  0.00     0.012 A 
ATOM     33  C   UNL A   1      38.954  28.489  28.825  1.00  0.00     0.065 A 
ENDBRANCH  18  29
ENDBRANCH   9  14
ENDBRANCH   6   8
ENDBRANCH   5   6
ENDBRANCH   4   5
ENDBRANCH   3   4
ENDBRANCH   2   3
ENDBRANCH   1   2
BRANCH   1  34
ATOM     34  C   UNL A   1      37.056  22.641  25.757  1.00  0.00     0.188 C 
BRANCH  34  35
ATOM     35  O   UNL A   1      38.204  23.045  26.462  1.00  0.00    -0.376 OA
BRANCH  35  36
ATOM     36  C   UNL A   1      38.696  24.364  26.297  1.00  0.00     0.202 C 
BRANCH  36  37
ATOM     37  C   UNL A   1      39.366  25.208  27.403  1.00  0.00     0.261 C 
BRANCH  37  38
ATOM     38  O   UNL A   1      40.790  25.351  27.391  1.00  0.00    -0.460 OA
BRANCH  38  39
ATOM     39  C   UNL A   1      41.323  26.068  26.377  1.00  0.00     0.338 C 
ATOM     40  O   UNL A   1      41.254  25.824  25.179  1.00  0.00    -0.246 OA
BRANCH  39  41
ATOM     41  C   UNL A   1      41.877  27.320  26.925  1.00  0.00     0.060 A 
ATOM     42  C   UNL A   1      42.528  27.289  28.164  1.00  0.00     0.016 A 
ATOM     43  C   UNL A   1      41.739  28.522  26.228  1.00  0.00     0.016 A 
ATOM     44  C   UNL A   1      43.027  28.467  28.722  1.00  0.00     0.010 A 
ATOM     45  C   UNL A   1      42.222  29.705  26.797  1.00  0.00     0.010 A 
ATOM     46  C   UNL A   1      42.846  29.687  28.059  1.00  0.00    -0.014 A 
BRANCH  46  47
ATOM     47  C   UNL A   1      43.174  30.958  28.751  1.00  0.00     0.031 A 
ATOM     48  C   UNL A   1      44.413  31.708  28.352  1.00  0.00     0.074 A 
ATOM     49  C   UNL A   1      42.377  31.446  29.719  1.00  0.00     0.049 A 
ATOM     50  N   UNL A   1      44.914  32.814  28.841  1.00  0.00    -0.248 NA
ATOM     51  C   UNL A   1      45.199  31.122  27.256  1.00  0.00     0.031 C 
ATOM     52  C   UNL A   1      41.142  30.824  30.186  1.00  0.00     0.029 A 
ATOM     53  N   UNL A   1      42.506  32.573  30.493  1.00  0.00    -0.354 N 
ATOM     54  C   UNL A   1      46.077  33.050  28.120  1.00  0.00     0.074 A 
ATOM     55  C   UNL A   1      46.225  31.955  27.186  1.00  0.00     0.031 C 
ATOM     56  C   UNL A   1      40.634  31.567  31.185  1.00  0.00     0.029 A 
ATOM     57  C   UNL A   1      41.525  32.697  31.444  1.00  0.00     0.049 A 
ATOM     58  H   UNL A   1      43.232  33.228  30.376  1.00  0.00     0.167 HD
ATOM     59  C   UNL A   1      46.940  34.091  28.223  1.00  0.00     0.037 A 
ATOM     60  C   UNL A   1      41.379  33.604  32.430  1.00  0.00     0.037 A 
ATOM     61  C   UNL A   1      46.791  35.177  29.158  1.00  0.00     0.049 A 
ATOM     62  C   UNL A   1      42.374  34.727  32.562  1.00  0.00     0.074 A 
ATOM     63  C   UNL A   1      47.583  36.302  29.308  1.00  0.00     0.029 A 
ATOM     64  N   UNL A   1      45.792  35.264  30.117  1.00  0.00    -0.354 N 
ATOM     65  N   UNL A   1      43.443  34.977  31.844  1.00  0.00    -0.248 NA
ATOM     66  C   UNL A   1      42.138  35.701  33.637  1.00  0.00     0.031 C 
ATOM     67  C   UNL A   1      47.107  37.030  30.404  1.00  0.00     0.029 A 
ATOM     68  C   UNL A   1      45.972  36.400  30.892  1.00  0.00     0.049 A 
ATOM     69  H   UNL A   1      45.060  34.614  30.231  1.00  0.00     0.167 HD
ATOM     70  C   UNL A   1      43.995  36.141  32.365  1.00  0.00     0.074 A 
ATOM     71  C   UNL A   1      43.129  36.561  33.449  1.00  0.00     0.031 C 
ATOM     72  C   UNL A   1      45.116  36.802  31.980  1.00  0.00     0.037 A 
BRANCH  59  73
ATOM     73  C   UNL A   1      48.150  34.072  27.331  1.00  0.00     0.064 A 
ATOM     74  C   UNL A   1      49.265  33.262  27.601  1.00  0.00     0.173 A 
ATOM     75  C   UNL A   1      48.194  34.882  26.185  1.00  0.00     0.173 A 
ATOM     76  F   UNL A   1      49.281  32.477  28.688  1.00  0.00    -0.203 F 
ATOM     77  C   UNL A   1      50.393  33.300  26.785  1.00  0.00     0.198 A 
ATOM     78  C   UNL A   1      49.308  34.888  25.351  1.00  0.00     0.198 A 
ATOM     79  F   UNL A   1      47.154  35.671  25.874  1.00  0.00    -0.203 F 
ATOM     80  F   UNL A   1      51.473  32.571  27.103  1.00  0.00    -0.200 F 
ATOM     81  C   UNL A   1      50.413  34.109  25.658  1.00  0.00     0.200 A 
ATOM     82  F   UNL A   1      49.318  35.658  24.254  1.00  0.00    -0.200 F 
ATOM     83  F   UNL A   1      51.500  34.144  24.876  1.00  0.00    -0.200 F 
ENDBRANCH  59  73
BRANCH  60  84
ATOM     84  C   UNL A   1      40.246  33.469  33.383  1.00  0.00     0.064 A 
ATOM     85  C   UNL A   1      40.365  32.714  34.556  1.00  0.00     0.173 A 
ATOM     86  C   UNL A   1      39.020  34.111  33.141  1.00  0.00     0.173 A 
ATOM     87  F   UNL A   1      41.505  32.058  34.819  1.00  0.00    -0.203 F 
ATOM     88  C   UNL A   1      39.301  32.601  35.449  1.00  0.00     0.198 A 
ATOM     89  C   UNL A   1      37.968  34.021  34.049  1.00  0.00     0.198 A 
ATOM     90  F   UNL A   1      38.854  34.842  32.029  1.00  0.00    -0.203 F 
ATOM     91  F   UNL A   1      39.428  31.842  36.547  1.00  0.00    -0.200 F 
ATOM     92  C   UNL A   1      38.107  33.262  35.200  1.00  0.00     0.200 A 
ATOM     93  F   UNL A   1      36.822  34.672  33.809  1.00  0.00    -0.200 F 
ATOM     94  F   UNL A   1      37.090  33.163  36.066  1.00  0.00    -0.200 F 
ENDBRANCH  60  84
BRANCH  72  95
ATOM     95  C   UNL A   1      45.464  38.064  32.724  1.00  0.00     0.064 A 
ATOM     96  C   UNL A   1      46.330  38.056  33.829  1.00  0.00     0.173 A 
ATOM     97  C   UNL A   1      44.946  39.300  32.310  1.00  0.00     0.173 A 
ATOM     98  F   UNL A   1      46.845  36.901  34.276  1.00  0.00    -0.203 F 
ATOM     99  C   UNL A   1      46.635  39.233  34.510  1.00  0.00     0.198 A 
ATOM    100  C   UNL A   1      45.282  40.479  32.971  1.00  0.00     0.198 A 
ATOM    101  F   UNL A   1      44.119  39.370  31.256  1.00  0.00    -0.203 F 
ATOM    102  F   UNL A   1      47.416  39.191  35.598  1.00  0.00    -0.200 F 
ATOM    103  C   UNL A   1      46.116  40.444  34.077  1.00  0.00     0.200 A 
ATOM    104  F   UNL A   1      44.793  41.650  32.539  1.00  0.00    -0.200 F 
ATOM    105  F   UNL A   1      46.413  41.575  34.731  1.00  0.00    -0.200 F 
ENDBRANCH  72  95
ENDBRANCH  46  47
ENDBRANCH  39  41
ENDBRANCH  38  39
ENDBRANCH  37  38
ENDBRANCH  36  37
ENDBRANCH  35  36
ENDBRANCH  34  35
ENDBRANCH   1  34
TORSDOF 21
ENDMDL
MODEL 3
REMARK VINA RESULT:     -10.0      2.520      7.295
REMARK SMILES CS(=O)(=O)c1ccc(C2=NN(c3ccc(C(=O)OCCOCCOCCOC(=O)c4ccc(-c5c6nc(c(-c7c(F)c(F)c(F)c(F)c7F)c7ccc([nH]7)c(-c7c(F)c(F)c(F)c(F)c7F)c7nc(c(-c8c(F)c(F)c(F)c(F)c8F)c8ccc5[nH]8)C=C7)C=C6)cc4)cc3)[C@H](c3cccs3)C2)cc1
REMARK SMILES IDX 22 1 21 2 20 3 19 4 18 5 16 6 17 7 15 8 12 9 13 10 94 11
REMARK SMILES IDX 14 12 93 13 11 14 9 15 10 16 101 17 95 18 8 19 5 20 6 21
REMARK SMILES IDX 103 22 7 23 102 24 2 25 1 26 3 27 4 28 96 29 97 30 100 31
REMARK SMILES IDX 98 32 99 33 23 34 24 35 25 36 26 37 27 38 28 39 29 40 30 41
REMARK SMILES IDX 31 42 92 43 32 44 91 45 33 46 34 47 35 48 85 49 36 50 90 51
REMARK SMILES IDX 84 52 86 53 37 54 89 55 83 56 82 57 38 59 70 60 50 61 69 62
REMARK SMILES IDX 51 63 54 64 68 65 87 66 52 67 53 68 67 70 88 71 55 72 39 73
REMARK SMILES IDX 40 74 48 75 41 76 42 77 46 78 49 79 43 80 44 81 47 82 45 83
REMARK SMILES IDX 71 84 72 85 80 86 73 87 74 88 78 89 81 90 75 91 76 92 79 93
REMARK SMILES IDX 77 94 56 95 57 96 65 97 58 98 59 99 63 100 66 101 60 102
REMARK SMILES IDX 61 103 64 104 62 105
REMARK H PARENT 86 58 54 69
REMARK Flexibility Score: inf
ROOT
ATOM      1  C   UNL A   1      34.590  22.491  25.832  1.00  0.00     0.188 C 
ENDROOT
BRANCH   1   2
ATOM      2  O   UNL A   1      33.853  22.703  24.637  1.00  0.00    -0.376 OA
BRANCH   2   3
ATOM      3  C   UNL A   1      33.507  24.021  24.232  1.00  0.00     0.202 C 
BRANCH   3   4
ATOM      4  C   UNL A   1      32.088  24.575  24.448  1.00  0.00     0.261 C 
BRANCH   4   5
ATOM      5  O   UNL A   1      31.996  25.704  25.329  1.00  0.00    -0.460 OA
BRANCH   5   6
ATOM      6  C   UNL A   1      31.857  26.911  24.727  1.00  0.00     0.338 C 
ATOM      7  O   UNL A   1      31.074  27.197  23.835  1.00  0.00    -0.246 OA
BRANCH   6   8
ATOM      8  C   UNL A   1      32.695  27.928  25.410  1.00  0.00     0.060 A 
ATOM      9  C   UNL A   1      34.203  29.776  26.896  1.00  0.00     0.060 A 
ATOM     10  C   UNL A   1      34.426  28.404  27.048  1.00  0.00     0.029 A 
ATOM     11  C   UNL A   1      33.312  30.205  25.900  1.00  0.00     0.029 A 
ATOM     12  C   UNL A   1      33.668  27.483  26.317  1.00  0.00     0.018 A 
ATOM     13  C   UNL A   1      32.548  29.294  25.167  1.00  0.00     0.018 A 
BRANCH   9  14
ATOM     14  N   UNL A   1      34.698  30.701  27.816  1.00  0.00    -0.257 N 
ATOM     15  C   UNL A   1      34.670  32.556  28.851  1.00  0.00     0.071 C 
ATOM     16  N   UNL A   1      33.897  31.589  28.460  1.00  0.00    -0.176 NA
ATOM     17  C   UNL A   1      36.084  32.519  28.339  1.00  0.00     0.091 C 
ATOM     18  C   UNL A   1      36.100  31.133  27.690  1.00  0.00     0.154 C 
BRANCH  15  19
ATOM     19  C   UNL A   1      34.229  33.633  29.756  1.00  0.00    -0.002 A 
ATOM     20  C   UNL A   1      33.325  35.686  31.410  1.00  0.00     0.067 A 
ATOM     21  C   UNL A   1      32.933  35.651  30.068  1.00  0.00     0.021 A 
ATOM     22  C   UNL A   1      34.161  34.693  31.933  1.00  0.00     0.021 A 
ATOM     23  C   UNL A   1      33.397  34.630  29.237  1.00  0.00     0.011 A 
ATOM     24  C   UNL A   1      34.602  33.653  31.103  1.00  0.00     0.011 A 
BRANCH  20  25
ATOM     25  S   UNL A   1      32.765  37.038  32.425  1.00  0.00     0.175 S 
ATOM     26  C   UNL A   1      33.866  37.112  33.810  1.00  0.00     0.163 C 
ATOM     27  O   UNL A   1      31.463  36.666  32.947  1.00  0.00    -0.224 OA
ATOM     28  O   UNL A   1      32.946  38.242  31.639  1.00  0.00    -0.224 OA
ENDBRANCH  20  25
ENDBRANCH  15  19
BRANCH  18  29
ATOM     29  C   UNL A   1      37.106  30.133  28.231  1.00  0.00     0.030 A 
ATOM     30  C   UNL A   1      38.162  29.578  27.523  1.00  0.00     0.017 A 
ATOM     31  S   UNL A   1      37.003  29.448  29.798  1.00  0.00    -0.147 S 
ATOM     32  C   UNL A   1      38.837  28.556  28.245  1.00  0.00     0.012 A 
ATOM     33  C   UNL A   1      38.329  28.410  29.514  1.00  0.00     0.065 A 
ENDBRANCH  18  29
ENDBRANCH   9  14
ENDBRANCH   6   8
ENDBRANCH   5   6
ENDBRANCH   4   5
ENDBRANCH   3   4
ENDBRANCH   2   3
ENDBRANCH   1   2
BRANCH   1  34
ATOM     34  C   UNL A   1      36.123  22.307  25.782  1.00  0.00     0.188 C 
BRANCH  34  35
ATOM     35  O   UNL A   1      36.860  23.420  26.227  1.00  0.00    -0.376 OA
BRANCH  35  36
ATOM     36  C   UNL A   1      38.268  23.431  26.071  1.00  0.00     0.202 C 
BRANCH  36  37
ATOM     37  C   UNL A   1      39.237  24.374  26.817  1.00  0.00     0.261 C 
BRANCH  37  38
ATOM     38  O   UNL A   1      40.521  24.636  26.240  1.00  0.00    -0.460 OA
BRANCH  38  39
ATOM     39  C   UNL A   1      41.598  24.173  26.913  1.00  0.00     0.338 C 
ATOM     40  O   UNL A   1      41.727  23.076  27.442  1.00  0.00    -0.246 OA
BRANCH  39  41
ATOM     41  C   UNL A   1      42.695  25.148  26.774  1.00  0.00     0.060 A 
ATOM     42  C   UNL A   1      43.537  25.384  27.868  1.00  0.00     0.016 A 
ATOM     43  C   UNL A   1      42.882  25.840  25.575  1.00  0.00     0.016 A 
ATOM     44  C   UNL A   1      44.558  26.330  27.773  1.00  0.00     0.010 A 
ATOM     45  C   UNL A   1      43.894  26.801  25.488  1.00  0.00     0.010 A 
ATOM     46  C   UNL A   1      44.720  27.070  26.595  1.00  0.00    -0.014 A 
BRANCH  46  47
ATOM     47  C   UNL A   1      45.654  28.224  26.571  1.00  0.00     0.031 A 
ATOM     48  C   UNL A   1      47.118  27.973  26.347  1.00  0.00     0.074 A 
ATOM     49  C   UNL A   1      45.207  29.481  26.741  1.00  0.00     0.049 A 
ATOM     50  N   UNL A   1      48.116  28.820  26.323  1.00  0.00    -0.248 NA
ATOM     51  C   UNL A   1      47.509  26.573  26.129  1.00  0.00     0.031 C 
ATOM     52  C   UNL A   1      43.812  29.857  26.951  1.00  0.00     0.029 A 
ATOM     53  N   UNL A   1      45.891  30.671  26.779  1.00  0.00    -0.354 N 
ATOM     54  C   UNL A   1      49.253  28.054  26.097  1.00  0.00     0.074 A 
ATOM     55  C   UNL A   1      48.825  26.674  26.028  1.00  0.00     0.031 C 
ATOM     56  C   UNL A   1      43.743  31.189  27.118  1.00  0.00     0.029 A 
ATOM     57  C   UNL A   1      45.092  31.751  27.058  1.00  0.00     0.049 A 
ATOM     58  H   UNL A   1      46.860  30.741  26.621  1.00  0.00     0.167 HD
ATOM     59  C   UNL A   1      50.536  28.468  25.955  1.00  0.00     0.037 A 
ATOM     60  C   UNL A   1      45.417  33.042  27.267  1.00  0.00     0.037 A 
ATOM     61  C   UNL A   1      50.958  29.842  26.030  1.00  0.00     0.049 A 
ATOM     62  C   UNL A   1      46.855  33.475  27.154  1.00  0.00     0.074 A 
ATOM     63  C   UNL A   1      52.226  30.368  25.852  1.00  0.00     0.029 A 
ATOM     64  N   UNL A   1      50.123  30.911  26.328  1.00  0.00    -0.354 N 
ATOM     65  N   UNL A   1      47.920  32.758  26.887  1.00  0.00    -0.248 NA
ATOM     66  C   UNL A   1      47.136  34.903  27.361  1.00  0.00     0.031 C 
ATOM     67  C   UNL A   1      52.172  31.741  26.113  1.00  0.00     0.029 A 
ATOM     68  C   UNL A   1      50.856  32.088  26.381  1.00  0.00     0.049 A 
ATOM     69  H   UNL A   1      49.152  30.844  26.478  1.00  0.00     0.167 HD
ATOM     70  C   UNL A   1      48.990  33.643  26.876  1.00  0.00     0.074 A 
ATOM     71  C   UNL A   1      48.442  34.958  27.143  1.00  0.00     0.031 C 
ATOM     72  C   UNL A   1      50.307  33.390  26.664  1.00  0.00     0.037 A 
BRANCH  59  73
ATOM     73  C   UNL A   1      51.582  27.406  25.753  1.00  0.00     0.064 A 
ATOM     74  C   UNL A   1      51.939  26.942  24.477  1.00  0.00     0.173 A 
ATOM     75  C   UNL A   1      52.236  26.841  26.859  1.00  0.00     0.173 A 
ATOM     76  F   UNL A   1      51.338  27.439  23.386  1.00  0.00    -0.203 F 
ATOM     77  C   UNL A   1      52.876  25.923  24.320  1.00  0.00     0.198 A 
ATOM     78  C   UNL A   1      53.200  25.849  26.696  1.00  0.00     0.198 A 
ATOM     79  F   UNL A   1      51.940  27.251  28.102  1.00  0.00    -0.203 F 
ATOM     80  F   UNL A   1      53.148  25.448  23.096  1.00  0.00    -0.200 F 
ATOM     81  C   UNL A   1      53.508  25.381  25.429  1.00  0.00     0.200 A 
ATOM     82  F   UNL A   1      53.821  25.339  27.768  1.00  0.00    -0.200 F 
ATOM     83  F   UNL A   1      54.408  24.399  25.276  1.00  0.00    -0.200 F 
ENDBRANCH  59  73
BRANCH  60  84
ATOM     84  C   UNL A   1      44.349  34.013  27.627  1.00  0.00     0.064 A 
ATOM     85  C   UNL A   1      43.777  34.857  26.667  1.00  0.00     0.173 A 
ATOM     86  C   UNL A   1      43.870  34.100  28.944  1.00  0.00     0.173 A 
ATOM     87  F   UNL A   1      44.220  34.831  25.402  1.00  0.00    -0.203 F 
ATOM     88  C   UNL A   1      42.769  35.756  27.010  1.00  0.00     0.198 A 
ATOM     89  C   UNL A   1      42.842  34.979  29.279  1.00  0.00     0.198 A 
ATOM     90  F   UNL A   1      44.388  33.317  29.901  1.00  0.00    -0.203 F 
ATOM     91  F   UNL A   1      42.264  36.579  26.081  1.00  0.00    -0.200 F 
ATOM     92  C   UNL A   1      42.296  35.810  28.313  1.00  0.00     0.200 A 
ATOM     93  F   UNL A   1      42.380  35.017  30.536  1.00  0.00    -0.200 F 
ATOM     94  F   UNL A   1      41.318  36.665  28.638  1.00  0.00    -0.200 F 
ENDBRANCH  60  84
BRANCH  72  95
ATOM     95  C   UNL A   1      51.249  34.564  26.693  1.00  0.00     0.064 A 
ATOM     96  C   UNL A   1      51.525  35.319  25.542  1.00  0.00     0.173 A 
ATOM     97  C   UNL A   1      51.861  34.956  27.893  1.00  0.00     0.173 A 
ATOM     98  F   UNL A   1      50.977  34.983  24.365  1.00  0.00    -0.203 F 
ATOM     99  C   UNL A   1      52.406  36.398  25.586  1.00  0.00     0.198 A 
ATOM    100  C   UNL A   1      52.713  36.058  27.941  1.00  0.00     0.198 A 
ATOM    101  F   UNL A   1      51.628  34.277  29.026  1.00  0.00    -0.203 F 
ATOM    102  F   UNL A   1      52.701  37.066  24.463  1.00  0.00    -0.200 F 
ATOM    103  C   UNL A   1      52.993  36.770  26.786  1.00  0.00     0.200 A 
ATOM    104  F   UNL A   1      53.264  36.425  29.105  1.00  0.00    -0.200 F 
ATOM    105  F   UNL A   1      53.837  37.810  26.827  1.00  0.00    -0.200 F 
ENDBRANCH  72  95
ENDBRANCH  46  47
ENDBRANCH  39  41
ENDBRANCH  38  39
ENDBRANCH  37  38
ENDBRANCH  36  37
ENDBRANCH  35  36
ENDBRANCH  34  35
ENDBRANCH   1  34
TORSDOF 21
ENDMDL
