MODEL 1
REMARK VINA RESULT:      -8.9      0.000      0.000
REMARK SMILES CC[C@H](NC(=O)Cc1c(C)c2cc(Cl)c(OC)cc2oc1=O)C(=O)OCCOCCOCCOC(=O)c1ccc(-c2c3nc(c(-c4c(F)c(F)c(F)c(F)c4F)c4ccc([nH]4)c(-c4c(F)c(F)c(F)c(F)c4F)c4nc(c(-c5c(F)c(F)c(F)c(F)c5F)c5ccc2[nH]5)C=C4)C=C3)cc1
REMARK SMILES IDX 29 1 28 2 27 3 26 4 25 5 23 6 24 7 3 8 2 9 1 10 4 11 5 12
REMARK SMILES IDX 6 14 7 15 8 16 9 17 21 18 10 19 11 20 20 21 22 22 12 23
REMARK SMILES IDX 19 24 13 25 18 26 14 27 15 28 16 29 17 30 30 31 31 32 32 33
REMARK SMILES IDX 33 34 34 35 35 36 36 37 37 38 38 39 99 40 39 41 98 42 40 43
REMARK SMILES IDX 41 44 42 45 92 46 43 47 97 48 91 49 93 50 44 51 96 52 90 53
REMARK SMILES IDX 89 54 45 56 77 57 57 58 76 59 58 60 61 61 75 62 94 63 59 64
REMARK SMILES IDX 60 65 74 67 95 68 62 69 46 70 47 71 55 72 48 73 49 74 53 75
REMARK SMILES IDX 56 76 50 77 51 78 54 79 52 80 78 81 79 82 87 83 80 84 81 85
REMARK SMILES IDX 85 86 88 87 82 88 83 89 86 90 84 91 63 92 64 93 72 94 65 95
REMARK SMILES IDX 66 96 70 97 73 98 67 99 68 100 71 101 69 102
REMARK H PARENT 4 13 93 55 61 66
REMARK Flexibility Score: inf
ROOT
ATOM      1  C   UNL A   1      36.215  31.837  29.614  1.00  0.00     0.188 C 
ENDROOT
BRANCH   1   2
ATOM      2  O   UNL A   1      37.461  31.953  28.969  1.00  0.00    -0.376 OA
BRANCH   2   3
ATOM      3  C   UNL A   1      38.247  30.787  28.762  1.00  0.00     0.202 C 
BRANCH   3   4
ATOM      4  C   UNL A   1      37.639  29.375  28.613  1.00  0.00     0.261 C 
BRANCH   4   5
ATOM      5  O   UNL A   1      38.486  28.366  28.001  1.00  0.00    -0.462 OA
BRANCH   5   6
ATOM      6  C   UNL A   1      39.301  27.692  28.851  1.00  0.00     0.328 C 
ATOM      7  O   UNL A   1      39.016  27.489  30.032  1.00  0.00    -0.250 OA
BRANCH   6   8
ATOM      8  C   UNL A   1      40.673  27.195  28.293  1.00  0.00     0.192 C 
BRANCH   8   9
ATOM      9  C   UNL A   1      41.700  28.176  28.889  1.00  0.00     0.033 C 
ATOM     10  C   UNL A   1      42.737  27.471  29.740  1.00  0.00     0.007 C 
ENDBRANCH   8   9
BRANCH   8  11
ATOM     11  N   UNL A   1      41.001  26.927  26.881  1.00  0.00    -0.342 N 
ATOM     12  C   UNL A   1      42.071  26.378  26.221  1.00  0.00     0.225 C 
ATOM     13  H   UNL A   1      40.284  27.208  26.267  1.00  0.00     0.164 HD
ATOM     14  O   UNL A   1      42.134  26.689  25.022  1.00  0.00    -0.275 OA
BRANCH  12  15
ATOM     15  C   UNL A   1      43.077  25.280  26.736  1.00  0.00     0.143 C 
BRANCH  15  16
ATOM     16  C   UNL A   1      43.391  23.984  26.008  1.00  0.00     0.051 A 
ATOM     17  C   UNL A   1      42.570  22.914  25.947  1.00  0.00    -0.029 A 
ATOM     18  C   UNL A   1      44.515  24.021  24.996  1.00  0.00     0.340 A 
ATOM     19  C   UNL A   1      41.139  22.897  26.401  1.00  0.00     0.046 C 
ATOM     20  C   UNL A   1      43.157  21.627  25.537  1.00  0.00     0.023 A 
ATOM     21  O   UNL A   1      44.890  22.827  24.378  1.00  0.00    -0.422 OA
ATOM     22  O   UNL A   1      45.025  25.077  24.636  1.00  0.00    -0.246 OA
ATOM     23  C   UNL A   1      42.700  20.415  26.065  1.00  0.00     0.036 A 
ATOM     24  C   UNL A   1      44.329  21.612  24.792  1.00  0.00     0.142 A 
ATOM     25  C   UNL A   1      43.460  19.254  25.930  1.00  0.00     0.083 A 
ATOM     26  C   UNL A   1      45.041  20.433  24.537  1.00  0.00     0.095 A 
ATOM     27  Cl  UNL A   1      42.968  17.865  26.831  1.00  0.00    -0.080 Cl
ATOM     28  C   UNL A   1      44.622  19.252  25.154  1.00  0.00     0.141 A 
BRANCH  28  29
ATOM     29  O   UNL A   1      45.405  18.130  25.177  1.00  0.00    -0.495 OA
ATOM     30  C   UNL A   1      46.712  18.352  25.688  1.00  0.00     0.278 C 
ENDBRANCH  28  29
ENDBRANCH  15  16
ENDBRANCH  12  15
ENDBRANCH   8  11
ENDBRANCH   6   8
ENDBRANCH   5   6
ENDBRANCH   4   5
ENDBRANCH   3   4
ENDBRANCH   2   3
ENDBRANCH   1   2
BRANCH   1  31
ATOM     31  C   UNL A   1      35.384  33.111  29.828  1.00  0.00     0.188 C 
BRANCH  31  32
ATOM     32  O   UNL A   1      34.292  33.141  30.715  1.00  0.00    -0.376 OA
BRANCH  32  33
ATOM     33  C   UNL A   1      34.356  33.836  31.949  1.00  0.00     0.202 C 
BRANCH  33  34
ATOM     34  C   UNL A   1      34.854  33.245  33.285  1.00  0.00     0.261 C 
BRANCH  34  35
ATOM     35  O   UNL A   1      36.004  32.398  33.256  1.00  0.00    -0.460 OA
BRANCH  35  36
ATOM     36  C   UNL A   1      36.847  32.519  34.319  1.00  0.00     0.338 C 
ATOM     37  O   UNL A   1      36.571  32.865  35.445  1.00  0.00    -0.246 OA
BRANCH  36  38
ATOM     38  C   UNL A   1      38.135  31.895  33.930  1.00  0.00     0.060 A 
ATOM     39  C   UNL A   1      38.177  30.926  32.932  1.00  0.00     0.016 A 
ATOM     40  C   UNL A   1      39.305  32.267  34.612  1.00  0.00     0.016 A 
ATOM     41  C   UNL A   1      39.401  30.342  32.601  1.00  0.00     0.010 A 
ATOM     42  C   UNL A   1      40.523  31.660  34.303  1.00  0.00     0.010 A 
ATOM     43  C   UNL A   1      40.582  30.711  33.273  1.00  0.00    -0.014 A 
BRANCH  43  44
ATOM     44  C   UNL A   1      41.891  30.245  32.755  1.00  0.00     0.031 A 
ATOM     45  C   UNL A   1      42.604  29.058  33.325  1.00  0.00     0.074 A 
ATOM     46  C   UNL A   1      42.421  30.920  31.717  1.00  0.00     0.049 A 
ATOM     47  N   UNL A   1      43.691  28.470  32.890  1.00  0.00    -0.248 NA
ATOM     48  C   UNL A   1      42.035  28.451  34.537  1.00  0.00     0.031 C 
ATOM     49  C   UNL A   1      41.831  32.113  31.108  1.00  0.00     0.029 A 
ATOM     50  N   UNL A   1      43.555  30.693  30.979  1.00  0.00    -0.354 N 
ATOM     51  C   UNL A   1      43.917  27.403  33.748  1.00  0.00     0.074 A 
ATOM     52  C   UNL A   1      42.888  27.458  34.766  1.00  0.00     0.031 C 
ATOM     53  C   UNL A   1      42.581  32.487  30.062  1.00  0.00     0.029 A 
ATOM     54  C   UNL A   1      43.718  31.580  29.942  1.00  0.00     0.049 A 
ATOM     55  H   UNL A   1      44.189  29.966  31.173  1.00  0.00     0.167 HD
ATOM     56  C   UNL A   1      44.882  26.454  33.666  1.00  0.00     0.037 A 
ATOM     57  C   UNL A   1      44.672  31.648  28.996  1.00  0.00     0.037 A 
ATOM     58  C   UNL A   1      45.910  26.414  32.655  1.00  0.00     0.049 A 
ATOM     59  C   UNL A   1      45.761  30.611  28.973  1.00  0.00     0.074 A 
ATOM     60  C   UNL A   1      46.912  25.474  32.483  1.00  0.00     0.029 A 
ATOM     61  N   UNL A   1      46.075  27.356  31.649  1.00  0.00    -0.354 N 
ATOM     62  N   UNL A   1      45.915  29.557  29.737  1.00  0.00    -0.248 NA
ATOM     63  C   UNL A   1      46.805  30.768  27.951  1.00  0.00     0.031 C 
ATOM     64  C   UNL A   1      47.713  25.871  31.410  1.00  0.00     0.029 A 
ATOM     65  C   UNL A   1      47.178  27.030  30.873  1.00  0.00     0.049 A 
ATOM     66  H   UNL A   1      45.495  28.139  31.507  1.00  0.00     0.167 HD
ATOM     67  C   UNL A   1      47.051  28.911  29.269  1.00  0.00     0.074 A 
ATOM     68  C   UNL A   1      47.534  29.678  28.141  1.00  0.00     0.031 C 
ATOM     69  C   UNL A   1      47.645  27.788  29.740  1.00  0.00     0.037 A 
BRANCH  56  70
ATOM     70  C   UNL A   1      44.872  25.339  34.672  1.00  0.00     0.064 A 
ATOM     71  C   UNL A   1      44.400  24.064  34.328  1.00  0.00     0.173 A 
ATOM     72  C   UNL A   1      45.476  25.497  35.928  1.00  0.00     0.173 A 
ATOM     73  F   UNL A   1      43.814  23.859  33.138  1.00  0.00    -0.203 F 
ATOM     74  C   UNL A   1      44.536  22.989  35.203  1.00  0.00     0.198 A 
ATOM     75  C   UNL A   1      45.633  24.415  36.790  1.00  0.00     0.198 A 
ATOM     76  F   UNL A   1      45.958  26.693  36.301  1.00  0.00    -0.203 F 
ATOM     77  F   UNL A   1      44.070  21.781  34.854  1.00  0.00    -0.200 F 
ATOM     78  C   UNL A   1      45.165  23.161  36.426  1.00  0.00     0.200 A 
ATOM     79  F   UNL A   1      46.260  24.579  37.964  1.00  0.00    -0.200 F 
ATOM     80  F   UNL A   1      45.327  22.118  37.252  1.00  0.00    -0.200 F 
ENDBRANCH  56  70
BRANCH  57  81
ATOM     81  C   UNL A   1      44.623  32.719  27.967  1.00  0.00     0.064 A 
ATOM     82  C   UNL A   1      44.206  32.441  26.657  1.00  0.00     0.173 A 
ATOM     83  C   UNL A   1      45.010  34.035  28.262  1.00  0.00     0.173 A 
ATOM     84  F   UNL A   1      43.842  31.195  26.321  1.00  0.00    -0.203 F 
ATOM     85  C   UNL A   1      44.207  33.430  25.675  1.00  0.00     0.198 A 
ATOM     86  C   UNL A   1      44.976  35.031  27.289  1.00  0.00     0.198 A 
ATOM     87  F   UNL A   1      45.412  34.356  29.501  1.00  0.00    -0.203 F 
ATOM     88  F   UNL A   1      43.861  33.122  24.418  1.00  0.00    -0.200 F 
ATOM     89  C   UNL A   1      44.587  34.725  25.994  1.00  0.00     0.200 A 
ATOM     90  F   UNL A   1      45.328  36.284  27.605  1.00  0.00    -0.200 F 
ATOM     91  F   UNL A   1      44.590  35.675  25.050  1.00  0.00    -0.200 F 
ENDBRANCH  57  81
BRANCH  69  92
ATOM     92  C   UNL A   1      48.872  27.295  29.027  1.00  0.00     0.064 A 
ATOM     93  C   UNL A   1      48.782  26.501  27.874  1.00  0.00     0.173 A 
ATOM     94  C   UNL A   1      50.150  27.680  29.460  1.00  0.00     0.173 A 
ATOM     95  F   UNL A   1      47.585  26.095  27.426  1.00  0.00    -0.203 F 
ATOM     96  C   UNL A   1      49.927  26.094  27.193  1.00  0.00     0.198 A 
ATOM     97  C   UNL A   1      51.291  27.299  28.757  1.00  0.00     0.198 A 
ATOM     98  F   UNL A   1      50.294  28.445  30.551  1.00  0.00    -0.203 F 
ATOM     99  F   UNL A   1      49.818  25.301  26.118  1.00  0.00    -0.200 F 
ATOM    100  C   UNL A   1      51.178  26.503  27.627  1.00  0.00     0.200 A 
ATOM    101  F   UNL A   1      52.499  27.712  29.168  1.00  0.00    -0.200 F 
ATOM    102  F   UNL A   1      52.277  26.127  26.959  1.00  0.00    -0.200 F 
ENDBRANCH  69  92
ENDBRANCH  43  44
ENDBRANCH  36  38
ENDBRANCH  35  36
ENDBRANCH  34  35
ENDBRANCH  33  34
ENDBRANCH  32  33
ENDBRANCH  31  32
ENDBRANCH   1  31
TORSDOF 22
ENDMDL
MODEL 2
REMARK VINA RESULT:      -8.9      8.422     14.572
REMARK SMILES CC[C@H](NC(=O)Cc1c(C)c2cc(Cl)c(OC)cc2oc1=O)C(=O)OCCOCCOCCOC(=O)c1ccc(-c2c3nc(c(-c4c(F)c(F)c(F)c(F)c4F)c4ccc([nH]4)c(-c4c(F)c(F)c(F)c(F)c4F)c4nc(c(-c5c(F)c(F)c(F)c(F)c5F)c5ccc2[nH]5)C=C4)C=C3)cc1
REMARK SMILES IDX 29 1 28 2 27 3 26 4 25 5 23 6 24 7 3 8 2 9 1 10 4 11 5 12
REMARK SMILES IDX 6 14 7 15 8 16 9 17 21 18 10 19 11 20 20 21 22 22 12 23
REMARK SMILES IDX 19 24 13 25 18 26 14 27 15 28 16 29 17 30 30 31 31 32 32 33
REMARK SMILES IDX 33 34 34 35 35 36 36 37 37 38 38 39 99 40 39 41 98 42 40 43
REMARK SMILES IDX 41 44 42 45 92 46 43 47 97 48 91 49 93 50 44 51 96 52 90 53
REMARK SMILES IDX 89 54 45 56 77 57 57 58 76 59 58 60 61 61 75 62 94 63 59 64
REMARK SMILES IDX 60 65 74 67 95 68 62 69 46 70 47 71 55 72 48 73 49 74 53 75
REMARK SMILES IDX 56 76 50 77 51 78 54 79 52 80 78 81 79 82 87 83 80 84 81 85
REMARK SMILES IDX 85 86 88 87 82 88 83 89 86 90 84 91 63 92 64 93 72 94 65 95
REMARK SMILES IDX 66 96 70 97 73 98 67 99 68 100 71 101 69 102
REMARK H PARENT 4 13 93 55 61 66
REMARK Flexibility Score: inf
ROOT
ATOM      1  C   UNL A   1      46.372  19.064  38.229  1.00  0.00     0.188 C 
ENDROOT
BRANCH   1   2
ATOM      2  O   UNL A   1      45.214  18.392  37.799  1.00  0.00    -0.376 OA
BRANCH   2   3
ATOM      3  C   UNL A   1      44.956  17.077  38.275  1.00  0.00     0.202 C 
BRANCH   3   4
ATOM      4  C   UNL A   1      43.563  16.611  38.756  1.00  0.00     0.261 C 
BRANCH   4   5
ATOM      5  O   UNL A   1      43.535  15.456  39.635  1.00  0.00    -0.462 OA
BRANCH   5   6
ATOM      6  C   UNL A   1      43.059  15.682  40.885  1.00  0.00     0.328 C 
ATOM      7  O   UNL A   1      43.268  16.728  41.503  1.00  0.00    -0.250 OA
BRANCH   6   8
ATOM      8  C   UNL A   1      42.243  14.537  41.565  1.00  0.00     0.192 C 
BRANCH   8   9
ATOM      9  C   UNL A   1      41.334  14.003  40.441  1.00  0.00     0.033 C 
ATOM     10  C   UNL A   1      40.976  12.544  40.638  1.00  0.00     0.007 C 
ENDBRANCH   8   9
BRANCH   8  11
ATOM     11  N   UNL A   1      41.479  14.628  42.822  1.00  0.00    -0.342 N 
ATOM     12  C   UNL A   1      41.487  13.949  44.014  1.00  0.00     0.225 C 
ATOM     13  H   UNL A   1      40.804  15.345  42.802  1.00  0.00     0.164 HD
ATOM     14  O   UNL A   1      40.436  14.065  44.664  1.00  0.00    -0.275 OA
BRANCH  12  15
ATOM     15  C   UNL A   1      42.699  13.234  44.722  1.00  0.00     0.143 C 
BRANCH  15  16
ATOM     16  C   UNL A   1      44.019  13.903  45.066  1.00  0.00     0.051 A 
ATOM     17  C   UNL A   1      44.173  14.879  45.986  1.00  0.00    -0.029 A 
ATOM     18  C   UNL A   1      45.281  13.195  44.626  1.00  0.00     0.340 A 
ATOM     19  C   UNL A   1      43.122  15.316  46.964  1.00  0.00     0.046 C 
ATOM     20  C   UNL A   1      45.414  15.670  45.938  1.00  0.00     0.023 A 
ATOM     21  O   UNL A   1      46.506  13.827  44.844  1.00  0.00    -0.422 OA
ATOM     22  O   UNL A   1      45.259  12.051  44.182  1.00  0.00    -0.246 OA
ATOM     23  C   UNL A   1      45.428  17.026  46.280  1.00  0.00     0.036 A 
ATOM     24  C   UNL A   1      46.545  15.140  45.332  1.00  0.00     0.142 A 
ATOM     25  C   UNL A   1      46.507  17.835  45.924  1.00  0.00     0.083 A 
ATOM     26  C   UNL A   1      47.690  15.906  45.081  1.00  0.00     0.095 A 
ATOM     27  Cl  UNL A   1      46.337  19.540  46.139  1.00  0.00    -0.080 Cl
ATOM     28  C   UNL A   1      47.647  17.278  45.339  1.00  0.00     0.141 A 
BRANCH  28  29
ATOM     29  O   UNL A   1      48.611  18.133  44.876  1.00  0.00    -0.495 OA
ATOM     30  C   UNL A   1      48.559  18.351  43.473  1.00  0.00     0.278 C 
ENDBRANCH  28  29
ENDBRANCH  15  16
ENDBRANCH  12  15
ENDBRANCH   8  11
ENDBRANCH   6   8
ENDBRANCH   5   6
ENDBRANCH   4   5
ENDBRANCH   3   4
ENDBRANCH   2   3
ENDBRANCH   1   2
BRANCH   1  31
ATOM     31  C   UNL A   1      46.848  20.284  37.426  1.00  0.00     0.188 C 
BRANCH  31  32
ATOM     32  O   UNL A   1      45.976  20.996  36.580  1.00  0.00    -0.376 OA
BRANCH  32  33
ATOM     33  C   UNL A   1      45.863  22.408  36.650  1.00  0.00     0.202 C 
BRANCH  33  34
ATOM     34  C   UNL A   1      46.192  23.273  37.885  1.00  0.00     0.261 C 
BRANCH  34  35
ATOM     35  O   UNL A   1      45.703  24.615  37.913  1.00  0.00    -0.460 OA
BRANCH  35  36
ATOM     36  C   UNL A   1      46.429  25.518  37.197  1.00  0.00     0.338 C 
ATOM     37  O   UNL A   1      47.631  25.656  37.184  1.00  0.00    -0.246 OA
BRANCH  36  38
ATOM     38  C   UNL A   1      45.507  26.144  36.220  1.00  0.00     0.060 A 
ATOM     39  C   UNL A   1      44.253  25.590  35.976  1.00  0.00     0.016 A 
ATOM     40  C   UNL A   1      45.933  27.281  35.513  1.00  0.00     0.016 A 
ATOM     41  C   UNL A   1      43.414  26.190  35.035  1.00  0.00     0.010 A 
ATOM     42  C   UNL A   1      45.106  27.861  34.550  1.00  0.00     0.010 A 
ATOM     43  C   UNL A   1      43.828  27.334  34.325  1.00  0.00    -0.014 A 
BRANCH  43  44
ATOM     44  C   UNL A   1      42.842  28.077  33.503  1.00  0.00     0.031 A 
ATOM     45  C   UNL A   1      42.680  27.840  32.033  1.00  0.00     0.074 A 
ATOM     46  C   UNL A   1      42.060  28.973  34.135  1.00  0.00     0.049 A 
ATOM     47  N   UNL A   1      41.777  28.329  31.220  1.00  0.00    -0.248 NA
ATOM     48  C   UNL A   1      43.652  26.946  31.386  1.00  0.00     0.031 C 
ATOM     49  C   UNL A   1      42.157  29.311  35.556  1.00  0.00     0.029 A 
ATOM     50  N   UNL A   1      41.023  29.745  33.678  1.00  0.00    -0.354 N 
ATOM     51  C   UNL A   1      42.044  27.778  29.976  1.00  0.00     0.074 A 
ATOM     52  C   UNL A   1      43.231  26.960  30.126  1.00  0.00     0.031 C 
ATOM     53  C   UNL A   1      41.191  30.186  35.865  1.00  0.00     0.029 A 
ATOM     54  C   UNL A   1      40.424  30.494  34.662  1.00  0.00     0.049 A 
ATOM     55  H   UNL A   1      40.735  29.761  32.737  1.00  0.00     0.167 HD
ATOM     56  C   UNL A   1      41.339  27.923  28.828  1.00  0.00     0.037 A 
ATOM     57  C   UNL A   1      39.369  31.327  34.604  1.00  0.00     0.037 A 
ATOM     58  C   UNL A   1      40.164  28.749  28.685  1.00  0.00     0.049 A 
ATOM     59  C   UNL A   1      38.648  31.509  33.297  1.00  0.00     0.074 A 
ATOM     60  C   UNL A   1      39.373  28.934  27.563  1.00  0.00     0.029 A 
ATOM     61  N   UNL A   1      39.614  29.531  29.690  1.00  0.00    -0.354 N 
ATOM     62  N   UNL A   1      38.857  30.915  32.147  1.00  0.00    -0.248 NA
ATOM     63  C   UNL A   1      37.538  32.472  33.280  1.00  0.00     0.031 C 
ATOM     64  C   UNL A   1      38.379  29.865  27.871  1.00  0.00     0.029 A 
ATOM     65  C   UNL A   1      38.512  30.219  29.203  1.00  0.00     0.049 A 
ATOM     66  H   UNL A   1      39.955  29.590  30.612  1.00  0.00     0.167 HD
ATOM     67  C   UNL A   1      37.889  31.408  31.283  1.00  0.00     0.074 A 
ATOM     68  C   UNL A   1      37.077  32.332  32.046  1.00  0.00     0.031 C 
ATOM     69  C   UNL A   1      37.697  31.125  29.972  1.00  0.00     0.037 A 
BRANCH  56  70
ATOM     70  C   UNL A   1      41.779  27.150  27.617  1.00  0.00     0.064 A 
ATOM     71  C   UNL A   1      42.730  27.678  26.732  1.00  0.00     0.173 A 
ATOM     72  C   UNL A   1      41.369  25.822  27.424  1.00  0.00     0.173 A 
ATOM     73  F   UNL A   1      43.155  28.942  26.874  1.00  0.00    -0.203 F 
ATOM     74  C   UNL A   1      43.258  26.903  25.702  1.00  0.00     0.198 A 
ATOM     75  C   UNL A   1      41.917  25.042  26.409  1.00  0.00     0.198 A 
ATOM     76  F   UNL A   1      40.472  25.264  28.252  1.00  0.00    -0.203 F 
ATOM     77  F   UNL A   1      44.161  27.432  24.864  1.00  0.00    -0.200 F 
ATOM     78  C   UNL A   1      42.862  25.583  25.550  1.00  0.00     0.200 A 
ATOM     79  F   UNL A   1      41.549  23.760  26.276  1.00  0.00    -0.200 F 
ATOM     80  F   UNL A   1      43.397  24.830  24.579  1.00  0.00    -0.200 F 
ENDBRANCH  56  70
BRANCH  57  81
ATOM     81  C   UNL A   1      38.906  32.028  35.830  1.00  0.00     0.064 A 
ATOM     82  C   UNL A   1      39.270  33.360  36.078  1.00  0.00     0.173 A 
ATOM     83  C   UNL A   1      38.111  31.381  36.787  1.00  0.00     0.173 A 
ATOM     84  F   UNL A   1      40.044  34.017  35.202  1.00  0.00    -0.203 F 
ATOM     85  C   UNL A   1      38.882  34.005  37.251  1.00  0.00     0.198 A 
ATOM     86  C   UNL A   1      37.694  32.039  37.941  1.00  0.00     0.198 A 
ATOM     87  F   UNL A   1      37.730  30.108  36.595  1.00  0.00    -0.203 F 
ATOM     88  F   UNL A   1      39.294  35.257  37.490  1.00  0.00    -0.200 F 
ATOM     89  C   UNL A   1      38.090  33.346  38.178  1.00  0.00     0.200 A 
ATOM     90  F   UNL A   1      36.914  31.403  38.826  1.00  0.00    -0.200 F 
ATOM     91  F   UNL A   1      37.718  33.966  39.305  1.00  0.00    -0.200 F 
ENDBRANCH  57  81
BRANCH  69  92
ATOM     92  C   UNL A   1      36.550  31.799  29.273  1.00  0.00     0.064 A 
ATOM     93  C   UNL A   1      35.406  31.088  28.884  1.00  0.00     0.173 A 
ATOM     94  C   UNL A   1      36.566  33.186  29.053  1.00  0.00     0.173 A 
ATOM     95  F   UNL A   1      35.346  29.759  29.059  1.00  0.00    -0.203 F 
ATOM     96  C   UNL A   1      34.329  31.735  28.283  1.00  0.00     0.198 A 
ATOM     97  C   UNL A   1      35.473  33.834  28.483  1.00  0.00     0.198 A 
ATOM     98  F   UNL A   1      37.631  33.916  29.413  1.00  0.00    -0.203 F 
ATOM     99  F   UNL A   1      33.264  31.027  27.882  1.00  0.00    -0.200 F 
ATOM    100  C   UNL A   1      34.358  33.107  28.095  1.00  0.00     0.200 A 
ATOM    101  F   UNL A   1      35.496  35.165  28.319  1.00  0.00    -0.200 F 
ATOM    102  F   UNL A   1      33.313  33.731  27.534  1.00  0.00    -0.200 F 
ENDBRANCH  69  92
ENDBRANCH  43  44
ENDBRANCH  36  38
ENDBRANCH  35  36
ENDBRANCH  34  35
ENDBRANCH  33  34
ENDBRANCH  32  33
ENDBRANCH  31  32
ENDBRANCH   1  31
TORSDOF 22
ENDMDL
MODEL 3
REMARK VINA RESULT:      -8.8      8.603     14.680
REMARK SMILES CC[C@H](NC(=O)Cc1c(C)c2cc(Cl)c(OC)cc2oc1=O)C(=O)OCCOCCOCCOC(=O)c1ccc(-c2c3nc(c(-c4c(F)c(F)c(F)c(F)c4F)c4ccc([nH]4)c(-c4c(F)c(F)c(F)c(F)c4F)c4nc(c(-c5c(F)c(F)c(F)c(F)c5F)c5ccc2[nH]5)C=C4)C=C3)cc1
REMARK SMILES IDX 29 1 28 2 27 3 26 4 25 5 23 6 24 7 3 8 2 9 1 10 4 11 5 12
REMARK SMILES IDX 6 14 7 15 8 16 9 17 21 18 10 19 11 20 20 21 22 22 12 23
REMARK SMILES IDX 19 24 13 25 18 26 14 27 15 28 16 29 17 30 30 31 31 32 32 33
REMARK SMILES IDX 33 34 34 35 35 36 36 37 37 38 38 39 99 40 39 41 98 42 40 43
REMARK SMILES IDX 41 44 42 45 92 46 43 47 97 48 91 49 93 50 44 51 96 52 90 53
REMARK SMILES IDX 89 54 45 56 77 57 57 58 76 59 58 60 61 61 75 62 94 63 59 64
REMARK SMILES IDX 60 65 74 67 95 68 62 69 46 70 47 71 55 72 48 73 49 74 53 75
REMARK SMILES IDX 56 76 50 77 51 78 54 79 52 80 78 81 79 82 87 83 80 84 81 85
REMARK SMILES IDX 85 86 88 87 82 88 83 89 86 90 84 91 63 92 64 93 72 94 65 95
REMARK SMILES IDX 66 96 70 97 73 98 67 99 68 100 71 101 69 102
REMARK H PARENT 4 13 93 55 61 66
REMARK Flexibility Score: inf
ROOT
ATOM      1  C   UNL A   1      46.934  19.059  38.759  1.00  0.00     0.188 C 
ENDROOT
BRANCH   1   2
ATOM      2  O   UNL A   1      45.701  18.845  39.403  1.00  0.00    -0.376 OA
BRANCH   2   3
ATOM      3  C   UNL A   1      45.579  17.775  40.330  1.00  0.00     0.202 C 
BRANCH   3   4
ATOM      4  C   UNL A   1      45.106  17.971  41.788  1.00  0.00     0.261 C 
BRANCH   4   5
ATOM      5  O   UNL A   1      45.978  18.746  42.653  1.00  0.00    -0.462 OA
BRANCH   5   6
ATOM      6  C   UNL A   1      47.106  18.114  43.065  1.00  0.00     0.328 C 
ATOM      7  O   UNL A   1      48.082  17.940  42.334  1.00  0.00    -0.250 OA
BRANCH   6   8
ATOM      8  C   UNL A   1      47.128  17.557  44.525  1.00  0.00     0.192 C 
BRANCH   8   9
ATOM      9  C   UNL A   1      47.657  18.733  45.368  1.00  0.00     0.033 C 
ATOM     10  C   UNL A   1      46.614  19.262  46.331  1.00  0.00     0.007 C 
ENDBRANCH   8   9
BRANCH   8  11
ATOM     11  N   UNL A   1      47.749  16.300  44.976  1.00  0.00    -0.342 N 
ATOM     12  C   UNL A   1      47.498  15.398  45.980  1.00  0.00     0.225 C 
ATOM     13  H   UNL A   1      48.529  16.047  44.430  1.00  0.00     0.164 HD
ATOM     14  O   UNL A   1      48.474  14.690  46.273  1.00  0.00    -0.275 OA
BRANCH  12  15
ATOM     15  C   UNL A   1      46.116  15.032  46.639  1.00  0.00     0.143 C 
BRANCH  15  16
ATOM     16  C   UNL A   1      44.894  14.547  45.877  1.00  0.00     0.051 A 
ATOM     17  C   UNL A   1      44.364  13.309  45.976  1.00  0.00    -0.029 A 
ATOM     18  C   UNL A   1      44.009  15.604  45.256  1.00  0.00     0.340 A 
ATOM     19  C   UNL A   1      44.754  12.282  47.000  1.00  0.00     0.046 C 
ATOM     20  C   UNL A   1      43.433  12.879  44.919  1.00  0.00     0.023 A 
ATOM     21  O   UNL A   1      42.932  15.189  44.471  1.00  0.00    -0.422 OA
ATOM     22  O   UNL A   1      44.154  16.796  45.506  1.00  0.00    -0.246 OA
ATOM     23  C   UNL A   1      43.371  11.547  44.499  1.00  0.00     0.036 A 
ATOM     24  C   UNL A   1      42.765  13.833  44.162  1.00  0.00     0.142 A 
ATOM     25  C   UNL A   1      42.745  11.212  43.299  1.00  0.00     0.083 A 
ATOM     26  C   UNL A   1      42.022  13.500  43.023  1.00  0.00     0.095 A 
ATOM     27  Cl  UNL A   1      42.940   9.598  42.715  1.00  0.00    -0.080 Cl
ATOM     28  C   UNL A   1      42.054  12.180  42.565  1.00  0.00     0.141 A 
BRANCH  28  29
ATOM     29  O   UNL A   1      41.586  11.832  41.327  1.00  0.00    -0.495 OA
ATOM     30  C   UNL A   1      41.512  12.918  40.414  1.00  0.00     0.278 C 
ENDBRANCH  28  29
ENDBRANCH  15  16
ENDBRANCH  12  15
ENDBRANCH   8  11
ENDBRANCH   6   8
ENDBRANCH   5   6
ENDBRANCH   4   5
ENDBRANCH   3   4
ENDBRANCH   2   3
ENDBRANCH   1   2
BRANCH   1  31
ATOM     31  C   UNL A   1      46.968  19.998  37.543  1.00  0.00     0.188 C 
BRANCH  31  32
ATOM     32  O   UNL A   1      45.815  20.672  37.098  1.00  0.00    -0.376 OA
BRANCH  32  33
ATOM     33  C   UNL A   1      45.814  22.072  36.872  1.00  0.00     0.202 C 
BRANCH  33  34
ATOM     34  C   UNL A   1      46.741  23.091  37.567  1.00  0.00     0.261 C 
BRANCH  34  35
ATOM     35  O   UNL A   1      46.532  24.479  37.298  1.00  0.00    -0.460 OA
BRANCH  35  36
ATOM     36  C   UNL A   1      47.056  24.934  36.126  1.00  0.00     0.338 C 
ATOM     37  O   UNL A   1      48.081  24.578  35.587  1.00  0.00    -0.246 OA
BRANCH  36  38
ATOM     38  C   UNL A   1      46.016  25.764  35.473  1.00  0.00     0.060 A 
ATOM     39  C   UNL A   1      46.334  27.016  34.954  1.00  0.00     0.016 A 
ATOM     40  C   UNL A   1      44.696  25.286  35.424  1.00  0.00     0.016 A 
ATOM     41  C   UNL A   1      45.330  27.783  34.363  1.00  0.00     0.010 A 
ATOM     42  C   UNL A   1      43.686  26.068  34.862  1.00  0.00     0.010 A 
ATOM     43  C   UNL A   1      44.003  27.313  34.302  1.00  0.00    -0.014 A 
BRANCH  43  44
ATOM     44  C   UNL A   1      43.009  28.042  33.477  1.00  0.00     0.031 A 
ATOM     45  C   UNL A   1      42.838  27.785  32.012  1.00  0.00     0.074 A 
ATOM     46  C   UNL A   1      42.228  28.943  34.103  1.00  0.00     0.049 A 
ATOM     47  N   UNL A   1      41.927  28.261  31.199  1.00  0.00    -0.248 NA
ATOM     48  C   UNL A   1      43.808  26.887  31.369  1.00  0.00     0.031 C 
ATOM     49  C   UNL A   1      42.334  29.298  35.519  1.00  0.00     0.029 A 
ATOM     50  N   UNL A   1      41.185  29.705  33.644  1.00  0.00    -0.354 N 
ATOM     51  C   UNL A   1      42.188  27.694  29.960  1.00  0.00     0.074 A 
ATOM     52  C   UNL A   1      43.379  26.884  30.112  1.00  0.00     0.031 C 
ATOM     53  C   UNL A   1      41.366  30.174  35.824  1.00  0.00     0.029 A 
ATOM     54  C   UNL A   1      40.590  30.464  34.622  1.00  0.00     0.049 A 
ATOM     55  H   UNL A   1      40.891  29.708  32.704  1.00  0.00     0.167 HD
ATOM     56  C   UNL A   1      41.475  27.823  28.815  1.00  0.00     0.037 A 
ATOM     57  C   UNL A   1      39.531  31.292  34.561  1.00  0.00     0.037 A 
ATOM     58  C   UNL A   1      40.296  28.642  28.670  1.00  0.00     0.049 A 
ATOM     59  C   UNL A   1      38.800  31.455  33.257  1.00  0.00     0.074 A 
ATOM     60  C   UNL A   1      39.496  28.810  27.551  1.00  0.00     0.029 A 
ATOM     61  N   UNL A   1      39.749  29.435  29.669  1.00  0.00    -0.354 N 
ATOM     62  N   UNL A   1      39.004  30.847  32.113  1.00  0.00    -0.248 NA
ATOM     63  C   UNL A   1      37.687  32.414  33.236  1.00  0.00     0.031 C 
ATOM     64  C   UNL A   1      38.501  29.741  27.855  1.00  0.00     0.029 A 
ATOM     65  C   UNL A   1      38.641  30.113  29.181  1.00  0.00     0.049 A 
ATOM     66  H   UNL A   1      40.097  29.506  30.587  1.00  0.00     0.167 HD
ATOM     67  C   UNL A   1      38.028  31.326  31.250  1.00  0.00     0.074 A 
ATOM     68  C   UNL A   1      37.218  32.256  32.007  1.00  0.00     0.031 C 
ATOM     69  C   UNL A   1      37.828  31.025  29.943  1.00  0.00     0.037 A 
BRANCH  56  70
ATOM     70  C   UNL A   1      41.909  27.036  27.611  1.00  0.00     0.064 A 
ATOM     71  C   UNL A   1      42.913  27.519  26.759  1.00  0.00     0.173 A 
ATOM     72  C   UNL A   1      41.436  25.733  27.395  1.00  0.00     0.173 A 
ATOM     73  F   UNL A   1      43.399  28.758  26.924  1.00  0.00    -0.203 F 
ATOM     74  C   UNL A   1      43.429  26.725  25.738  1.00  0.00     0.198 A 
ATOM     75  C   UNL A   1      41.972  24.933  26.389  1.00  0.00     0.198 A 
ATOM     76  F   UNL A   1      40.486  25.217  28.190  1.00  0.00    -0.203 F 
ATOM     77  F   UNL A   1      44.384  27.211  24.932  1.00  0.00    -0.200 F 
ATOM     78  C   UNL A   1      42.969  25.429  25.563  1.00  0.00     0.200 A 
ATOM     79  F   UNL A   1      41.541  23.673  26.234  1.00  0.00    -0.200 F 
ATOM     80  F   UNL A   1      43.492  24.654  24.602  1.00  0.00    -0.200 F 
ENDBRANCH  56  70
BRANCH  57  81
ATOM     81  C   UNL A   1      39.075  32.007  35.781  1.00  0.00     0.064 A 
ATOM     82  C   UNL A   1      39.482  33.324  36.039  1.00  0.00     0.173 A 
ATOM     83  C   UNL A   1      38.242  31.387  36.723  1.00  0.00     0.173 A 
ATOM     84  F   UNL A   1      40.293  33.955  35.177  1.00  0.00    -0.203 F 
ATOM     85  C   UNL A   1      39.098  33.981  37.207  1.00  0.00     0.198 A 
ATOM     86  C   UNL A   1      37.830  32.057  37.872  1.00  0.00     0.198 A 
ATOM     87  F   UNL A   1      37.818  30.129  36.522  1.00  0.00    -0.203 F 
ATOM     88  F   UNL A   1      39.552  35.217  37.455  1.00  0.00    -0.200 F 
ATOM     89  C   UNL A   1      38.268  33.349  38.119  1.00  0.00     0.200 A 
ATOM     90  F   UNL A   1      37.014  31.448  38.744  1.00  0.00    -0.200 F 
ATOM     91  F   UNL A   1      37.901  33.980  39.242  1.00  0.00    -0.200 F 
ENDBRANCH  57  81
BRANCH  69  92
ATOM     92  C   UNL A   1      36.674  31.686  29.244  1.00  0.00     0.064 A 
ATOM     93  C   UNL A   1      35.524  30.969  28.886  1.00  0.00     0.173 A 
ATOM     94  C   UNL A   1      36.690  33.067  28.993  1.00  0.00     0.173 A 
ATOM     95  F   UNL A   1      35.463  29.645  29.092  1.00  0.00    -0.203 F 
ATOM     96  C   UNL A   1      34.440  31.605  28.284  1.00  0.00     0.198 A 
ATOM     97  C   UNL A   1      35.592  33.705  28.422  1.00  0.00     0.198 A 
ATOM     98  F   UNL A   1      37.761  33.803  29.322  1.00  0.00    -0.203 F 
ATOM     99  F   UNL A   1      33.369  30.891  27.914  1.00  0.00    -0.200 F 
ATOM    100  C   UNL A   1      34.470  32.973  28.064  1.00  0.00     0.200 A 
ATOM    101  F   UNL A   1      35.615  35.032  28.227  1.00  0.00    -0.200 F 
ATOM    102  F   UNL A   1      33.419  33.586  27.504  1.00  0.00    -0.200 F 
ENDBRANCH  69  92
ENDBRANCH  43  44
ENDBRANCH  36  38
ENDBRANCH  35  36
ENDBRANCH  34  35
ENDBRANCH  33  34
ENDBRANCH  32  33
ENDBRANCH  31  32
ENDBRANCH   1  31
TORSDOF 22
ENDMDL
