MODEL 1
REMARK VINA RESULT:     -12.1      0.000      0.000
REMARK SMILES NC(=O)[C@@H]1CCC[N@@H+]1[C@@H](C(=O)OCCOCCOCCOC(=O)c1ccc(-c2c3nc(c(-c4c(F)c(F)c(F)c(F)c4F)c4ccc([nH]4)c(-c4c(F)c(F)c(F)c(F)c4F)c4nc(c(-c5c(F)c(F)c(F)c(F)c5F)c5ccc2[nH]5)C=C4)C=C3)cc1)c1c[nH]c2cc(OCc3ccccc3)ccc12
REMARK SMILES IDX 16 1 15 2 14 3 13 4 12 5 10 6 11 7 9 8 8 9 4 10 5 11 6 12
REMARK SMILES IDX 7 13 2 15 1 16 3 19 87 20 88 21 103 22 89 23 90 24 102 25
REMARK SMILES IDX 91 27 101 28 92 29 93 30 94 31 95 32 96 33 100 34 97 35
REMARK SMILES IDX 99 36 98 37 17 38 18 39 19 40 20 41 21 42 22 43 23 44 24 45
REMARK SMILES IDX 25 46 86 47 26 48 85 49 27 50 28 51 29 52 79 53 30 54 84 55
REMARK SMILES IDX 78 56 80 57 31 58 83 59 77 60 76 61 32 63 64 64 44 65 63 66
REMARK SMILES IDX 45 67 48 68 62 69 81 70 46 71 47 72 61 74 82 75 49 76 33 77
REMARK SMILES IDX 34 78 42 79 35 80 36 81 40 82 43 83 37 84 38 85 41 86 39 87
REMARK SMILES IDX 65 88 66 89 74 90 67 91 68 92 72 93 75 94 69 95 70 96 73 97
REMARK SMILES IDX 71 98 50 99 51 100 59 101 52 102 53 103 57 104 60 105 54 106
REMARK SMILES IDX 55 107 58 108 56 109
REMARK H PARENT 8 14 1 17 1 18 89 26 80 62 48 73
REMARK Flexibility Score: inf
ROOT
ATOM      1  C   UNL A   1      41.083  19.661  26.518  1.00  0.00     0.188 C 
ENDROOT
BRANCH   1   2
ATOM      2  O   UNL A   1      40.771  20.646  27.488  1.00  0.00    -0.376 OA
BRANCH   2   3
ATOM      3  C   UNL A   1      40.188  21.838  26.997  1.00  0.00     0.202 C 
BRANCH   3   4
ATOM      4  C   UNL A   1      39.259  21.661  25.779  1.00  0.00     0.261 C 
BRANCH   4   5
ATOM      5  O   UNL A   1      37.839  21.629  26.086  1.00  0.00    -0.459 OA
BRANCH   5   6
ATOM      6  C   UNL A   1      37.009  20.844  25.339  1.00  0.00     0.370 C 
ATOM      7  O   UNL A   1      37.390  19.791  24.830  1.00  0.00    -0.245 OA
BRANCH   6   8
ATOM      8  C   UNL A   1      35.507  21.320  25.290  1.00  0.00     0.329 C 
BRANCH   8   9
ATOM      9  N   UNL A   1      34.407  20.728  26.181  1.00  0.00    -0.309 N 
ATOM     10  C   UNL A   1      33.233  20.032  25.601  1.00  0.00     0.275 C 
ATOM     11  C   UNL A   1      32.158  21.114  25.499  1.00  0.00     0.081 C 
ATOM     12  C   UNL A   1      32.477  22.046  26.645  1.00  0.00     0.068 C 
ATOM     13  C   UNL A   1      33.706  21.430  27.259  1.00  0.00     0.264 C 
ATOM     14  H   UNL A   1      35.191  20.167  26.516  1.00  0.00     0.349 HD
BRANCH  10  15
ATOM     15  C   UNL A   1      33.439  19.073  24.453  1.00  0.00     0.275 C 
ATOM     16  N   UNL A   1      32.602  19.250  23.390  1.00  0.00    -0.365 N 
ATOM     17  H   UNL A   1      32.674  18.663  22.602  1.00  0.00     0.159 HD
ATOM     18  H   UNL A   1      31.925  19.964  23.411  1.00  0.00     0.159 HD
ATOM     19  O   UNL A   1      34.230  18.135  24.480  1.00  0.00    -0.268 OA
ENDBRANCH  10  15
ENDBRANCH   8   9
BRANCH   8  20
ATOM     20  C   UNL A   1      35.127  22.194  23.963  1.00  0.00     0.046 A 
ATOM     21  C   UNL A   1      36.136  23.047  23.507  1.00  0.00     0.094 A 
ATOM     22  C   UNL A   1      34.006  23.065  23.601  1.00  0.00     0.009 A 
ATOM     23  N   UNL A   1      35.985  24.206  24.281  1.00  0.00    -0.361 N 
ATOM     24  C   UNL A   1      34.588  24.519  24.354  1.00  0.00     0.050 A 
ATOM     25  C   UNL A   1      32.448  23.142  22.660  1.00  0.00     0.015 A 
ATOM     26  H   UNL A   1      36.713  24.716  24.703  1.00  0.00     0.166 HD
ATOM     27  C   UNL A   1      33.612  26.081  24.360  1.00  0.00     0.073 A 
ATOM     28  C   UNL A   1      31.455  24.731  22.560  1.00  0.00     0.047 A 
ATOM     29  C   UNL A   1      32.064  26.175  23.428  1.00  0.00     0.121 A 
BRANCH  29  30
ATOM     30  O   UNL A   1      31.434  27.376  23.506  1.00  0.00    -0.489 OA
BRANCH  30  31
ATOM     31  C   UNL A   1      30.015  27.334  23.595  1.00  0.00     0.265 C 
BRANCH  31  32
ATOM     32  C   UNL A   1      29.378  28.544  22.943  1.00  0.00    -0.011 A 
ATOM     33  C   UNL A   1      28.015  28.798  23.158  1.00  0.00     0.007 A 
ATOM     34  C   UNL A   1      30.105  29.427  22.134  1.00  0.00     0.007 A 
ATOM     35  C   UNL A   1      27.391  29.896  22.563  1.00  0.00     0.000 A 
ATOM     36  C   UNL A   1      29.491  30.543  21.570  1.00  0.00     0.000 A 
ATOM     37  C   UNL A   1      28.131  30.769  21.771  1.00  0.00     0.000 A 
ENDBRANCH  31  32
ENDBRANCH  30  31
ENDBRANCH  29  30
ENDBRANCH   8  20
ENDBRANCH   6   8
ENDBRANCH   5   6
ENDBRANCH   4   5
ENDBRANCH   3   4
ENDBRANCH   2   3
ENDBRANCH   1   2
BRANCH   1  38
ATOM     38  C   UNL A   1      42.554  19.327  26.265  1.00  0.00     0.188 C 
BRANCH  38  39
ATOM     39  O   UNL A   1      43.023  19.824  25.028  1.00  0.00    -0.376 OA
BRANCH  39  40
ATOM     40  C   UNL A   1      44.443  19.776  24.955  1.00  0.00     0.202 C 
BRANCH  40  41
ATOM     41  C   UNL A   1      45.078  20.935  25.715  1.00  0.00     0.261 C 
BRANCH  41  42
ATOM     42  O   UNL A   1      45.046  22.237  25.077  1.00  0.00    -0.460 OA
BRANCH  42  43
ATOM     43  C   UNL A   1      43.870  23.235  25.046  1.00  0.00     0.338 C 
ATOM     44  O   UNL A   1      43.420  22.990  23.892  1.00  0.00    -0.246 OA
BRANCH  43  45
ATOM     45  C   UNL A   1      43.405  24.629  26.609  1.00  0.00     0.060 A 
ATOM     46  C   UNL A   1      43.962  26.037  26.882  1.00  0.00     0.016 A 
ATOM     47  C   UNL A   1      42.423  24.497  27.780  1.00  0.00     0.016 A 
ATOM     48  C   UNL A   1      43.431  27.063  27.633  1.00  0.00     0.010 A 
ATOM     49  C   UNL A   1      42.003  25.443  28.681  1.00  0.00     0.010 A 
ATOM     50  C   UNL A   1      42.461  26.722  28.521  1.00  0.00    -0.014 A 
BRANCH  50  51
ATOM     51  C   UNL A   1      42.080  27.651  29.533  1.00  0.00     0.031 A 
ATOM     52  C   UNL A   1      42.820  27.527  30.804  1.00  0.00     0.074 A 
ATOM     53  C   UNL A   1      40.989  28.356  29.241  1.00  0.00     0.049 A 
ATOM     54  N   UNL A   1      42.677  28.194  31.901  1.00  0.00    -0.248 NA
ATOM     55  C   UNL A   1      43.889  26.506  30.845  1.00  0.00     0.031 C 
ATOM     56  C   UNL A   1      40.267  28.344  27.958  1.00  0.00     0.029 A 
ATOM     57  N   UNL A   1      40.255  29.147  30.044  1.00  0.00    -0.354 N 
ATOM     58  C   UNL A   1      43.642  27.684  32.752  1.00  0.00     0.074 A 
ATOM     59  C   UNL A   1      44.388  26.690  32.049  1.00  0.00     0.031 C 
ATOM     60  C   UNL A   1      39.156  29.082  28.085  1.00  0.00     0.029 A 
ATOM     61  C   UNL A   1      39.126  29.611  29.439  1.00  0.00     0.049 A 
ATOM     62  H   UNL A   1      40.508  29.366  30.970  1.00  0.00     0.167 HD
ATOM     63  C   UNL A   1      43.835  28.012  34.041  1.00  0.00     0.037 A 
ATOM     64  C   UNL A   1      38.202  30.404  29.990  1.00  0.00     0.037 A 
ATOM     65  C   UNL A   1      42.961  28.952  34.667  1.00  0.00     0.049 A 
ATOM     66  C   UNL A   1      38.509  30.856  31.391  1.00  0.00     0.074 A 
ATOM     67  C   UNL A   1      42.994  29.464  35.941  1.00  0.00     0.029 A 
ATOM     68  N   UNL A   1      41.860  29.507  34.017  1.00  0.00    -0.354 N 
ATOM     69  N   UNL A   1      39.473  30.458  32.199  1.00  0.00    -0.248 NA
ATOM     70  C   UNL A   1      37.650  31.897  31.941  1.00  0.00     0.031 C 
ATOM     71  C   UNL A   1      41.887  30.311  36.069  1.00  0.00     0.029 A 
ATOM     72  C   UNL A   1      41.208  30.375  34.854  1.00  0.00     0.049 A 
ATOM     73  H   UNL A   1      41.590  29.304  33.093  1.00  0.00     0.167 HD
ATOM     74  C   UNL A   1      39.361  31.224  33.344  1.00  0.00     0.074 A 
ATOM     75  C   UNL A   1      38.243  32.125  33.104  1.00  0.00     0.031 C 
ATOM     76  C   UNL A   1      40.085  31.205  34.495  1.00  0.00     0.037 A 
BRANCH  63  77
ATOM     77  C   UNL A   1      44.923  27.310  34.792  1.00  0.00     0.064 A 
ATOM     78  C   UNL A   1      44.696  26.100  35.474  1.00  0.00     0.173 A 
ATOM     79  C   UNL A   1      46.203  27.874  34.878  1.00  0.00     0.173 A 
ATOM     80  F   UNL A   1      43.474  25.547  35.484  1.00  0.00    -0.203 F 
ATOM     81  C   UNL A   1      45.705  25.493  36.218  1.00  0.00     0.198 A 
ATOM     82  C   UNL A   1      47.220  27.242  35.588  1.00  0.00     0.198 A 
ATOM     83  F   UNL A   1      46.464  29.053  34.294  1.00  0.00    -0.203 F 
ATOM     84  F   UNL A   1      45.441  24.381  36.919  1.00  0.00    -0.200 F 
ATOM     85  C   UNL A   1      46.971  26.055  36.260  1.00  0.00     0.200 A 
ATOM     86  F   UNL A   1      48.441  27.792  35.637  1.00  0.00    -0.200 F 
ATOM     87  F   UNL A   1      47.945  25.463  36.964  1.00  0.00    -0.200 F 
ENDBRANCH  63  77
BRANCH  64  88
ATOM     88  C   UNL A   1      37.065  30.867  29.174  1.00  0.00     0.064 A 
ATOM     89  C   UNL A   1      35.993  30.014  28.890  1.00  0.00     0.173 A 
ATOM     90  C   UNL A   1      36.980  32.196  28.732  1.00  0.00     0.173 A 
ATOM     91  F   UNL A   1      36.007  28.749  29.339  1.00  0.00    -0.203 F 
ATOM     92  C   UNL A   1      34.909  30.451  28.135  1.00  0.00     0.198 A 
ATOM     93  C   UNL A   1      35.880  32.641  28.005  1.00  0.00     0.198 A 
ATOM     94  F   UNL A   1      37.952  33.070  29.036  1.00  0.00    -0.203 F 
ATOM     95  F   UNL A   1      33.922  29.598  27.833  1.00  0.00    -0.200 F 
ATOM     96  C   UNL A   1      34.855  31.764  27.691  1.00  0.00     0.200 A 
ATOM     97  F   UNL A   1      35.812  33.921  27.613  1.00  0.00    -0.200 F 
ATOM     98  F   UNL A   1      33.814  32.181  26.956  1.00  0.00    -0.200 F 
ENDBRANCH  64  88
BRANCH  76  99
ATOM     99  C   UNL A   1      39.669  32.186  35.536  1.00  0.00     0.064 A 
ATOM    100  C   UNL A   1      38.742  31.835  36.523  1.00  0.00     0.173 A 
ATOM    101  C   UNL A   1      40.272  33.450  35.587  1.00  0.00     0.173 A 
ATOM    102  F   UNL A   1      38.151  30.629  36.500  1.00  0.00    -0.203 F 
ATOM    103  C   UNL A   1      38.395  32.741  37.511  1.00  0.00     0.198 A 
ATOM    104  C   UNL A   1      39.960  34.333  36.608  1.00  0.00     0.198 A 
ATOM    105  F   UNL A   1      41.187  33.805  34.673  1.00  0.00    -0.203 F 
ATOM    106  F   UNL A   1      37.457  32.416  38.410  1.00  0.00    -0.200 F 
ATOM    107  C   UNL A   1      39.012  33.984  37.559  1.00  0.00     0.200 A 
ATOM    108  F   UNL A   1      40.582  35.517  36.677  1.00  0.00    -0.200 F 
ATOM    109  F   UNL A   1      38.689  34.850  38.528  1.00  0.00    -0.200 F 
ENDBRANCH  76  99
ENDBRANCH  50  51
ENDBRANCH  43  45
ENDBRANCH  42  43
ENDBRANCH  41  42
ENDBRANCH  40  41
ENDBRANCH  39  40
ENDBRANCH  38  39
ENDBRANCH   1  38
TORSDOF 23
ENDMDL
MODEL 2
REMARK VINA RESULT:     -11.9      4.838      7.441
REMARK SMILES NC(=O)[C@@H]1CCC[N@@H+]1[C@@H](C(=O)OCCOCCOCCOC(=O)c1ccc(-c2c3nc(c(-c4c(F)c(F)c(F)c(F)c4F)c4ccc([nH]4)c(-c4c(F)c(F)c(F)c(F)c4F)c4nc(c(-c5c(F)c(F)c(F)c(F)c5F)c5ccc2[nH]5)C=C4)C=C3)cc1)c1c[nH]c2cc(OCc3ccccc3)ccc12
REMARK SMILES IDX 16 1 15 2 14 3 13 4 12 5 10 6 11 7 9 8 8 9 4 10 5 11 6 12
REMARK SMILES IDX 7 13 2 15 1 16 3 19 87 20 88 21 103 22 89 23 90 24 102 25
REMARK SMILES IDX 91 27 101 28 92 29 93 30 94 31 95 32 96 33 100 34 97 35
REMARK SMILES IDX 99 36 98 37 17 38 18 39 19 40 20 41 21 42 22 43 23 44 24 45
REMARK SMILES IDX 25 46 86 47 26 48 85 49 27 50 28 51 29 52 79 53 30 54 84 55
REMARK SMILES IDX 78 56 80 57 31 58 83 59 77 60 76 61 32 63 64 64 44 65 63 66
REMARK SMILES IDX 45 67 48 68 62 69 81 70 46 71 47 72 61 74 82 75 49 76 33 77
REMARK SMILES IDX 34 78 42 79 35 80 36 81 40 82 43 83 37 84 38 85 41 86 39 87
REMARK SMILES IDX 65 88 66 89 74 90 67 91 68 92 72 93 75 94 69 95 70 96 73 97
REMARK SMILES IDX 71 98 50 99 51 100 59 101 52 102 53 103 57 104 60 105 54 106
REMARK SMILES IDX 55 107 58 108 56 109
REMARK H PARENT 8 14 1 17 1 18 89 26 80 62 48 73
REMARK Flexibility Score: inf
ROOT
ATOM      1  C   UNL A   1      38.265  22.043  25.377  1.00  0.00     0.188 C 
ENDROOT
BRANCH   1   2
ATOM      2  O   UNL A   1      36.907  22.170  25.763  1.00  0.00    -0.376 OA
BRANCH   2   3
ATOM      3  C   UNL A   1      36.484  23.471  26.124  1.00  0.00     0.202 C 
BRANCH   3   4
ATOM      4  C   UNL A   1      35.379  24.073  25.236  1.00  0.00     0.261 C 
BRANCH   4   5
ATOM      5  O   UNL A   1      35.339  23.568  23.873  1.00  0.00    -0.459 OA
BRANCH   5   6
ATOM      6  C   UNL A   1      34.137  23.452  23.235  1.00  0.00     0.370 C 
ATOM      7  O   UNL A   1      34.056  23.345  22.012  1.00  0.00    -0.245 OA
BRANCH   6   8
ATOM      8  C   UNL A   1      32.886  23.336  24.186  1.00  0.00     0.329 C 
BRANCH   8   9
ATOM      9  N   UNL A   1      32.358  21.999  24.722  1.00  0.00    -0.309 N 
ATOM     10  C   UNL A   1      32.632  21.562  26.113  1.00  0.00     0.275 C 
ATOM     11  C   UNL A   1      33.881  20.688  26.001  1.00  0.00     0.081 C 
ATOM     12  C   UNL A   1      33.776  20.087  24.619  1.00  0.00     0.068 C 
ATOM     13  C   UNL A   1      32.512  20.694  24.074  1.00  0.00     0.264 C 
ATOM     14  H   UNL A   1      31.463  22.442  24.517  1.00  0.00     0.349 HD
BRANCH  10  15
ATOM     15  C   UNL A   1      32.520  22.566  27.235  1.00  0.00     0.275 C 
ATOM     16  N   UNL A   1      33.589  22.612  28.083  1.00  0.00    -0.365 N 
ATOM     17  H   UNL A   1      33.590  23.241  28.841  1.00  0.00     0.159 HD
ATOM     18  H   UNL A   1      34.357  22.015  27.938  1.00  0.00     0.159 HD
ATOM     19  O   UNL A   1      31.519  23.242  27.450  1.00  0.00    -0.268 OA
ENDBRANCH  10  15
ENDBRANCH   8   9
BRANCH   8  20
ATOM     20  C   UNL A   1      31.960  24.681  24.237  1.00  0.00     0.046 A 
ATOM     21  C   UNL A   1      31.805  25.341  23.014  1.00  0.00     0.094 A 
ATOM     22  C   UNL A   1      31.957  25.886  25.070  1.00  0.00     0.009 A 
ATOM     23  N   UNL A   1      32.941  26.157  22.916  1.00  0.00    -0.361 N 
ATOM     24  C   UNL A   1      33.156  26.782  24.187  1.00  0.00     0.050 A 
ATOM     25  C   UNL A   1      31.144  26.691  26.488  1.00  0.00     0.015 A 
ATOM     26  H   UNL A   1      33.496  26.279  22.112  1.00  0.00     0.166 HD
ATOM     27  C   UNL A   1      33.736  28.445  24.729  1.00  0.00     0.073 A 
ATOM     28  C   UNL A   1      31.635  28.419  27.031  1.00  0.00     0.047 A 
ATOM     29  C   UNL A   1      32.938  29.260  26.133  1.00  0.00     0.121 A 
BRANCH  29  30
ATOM     30  O   UNL A   1      33.449  30.481  26.438  1.00  0.00    -0.489 OA
BRANCH  30  31
ATOM     31  C   UNL A   1      34.228  30.556  27.626  1.00  0.00     0.265 C 
BRANCH  31  32
ATOM     32  C   UNL A   1      34.306  31.973  28.155  1.00  0.00    -0.011 A 
ATOM     33  C   UNL A   1      35.413  32.354  28.928  1.00  0.00     0.007 A 
ATOM     34  C   UNL A   1      33.311  32.924  27.893  1.00  0.00     0.007 A 
ATOM     35  C   UNL A   1      35.513  33.647  29.442  1.00  0.00     0.000 A 
ATOM     36  C   UNL A   1      33.430  34.226  28.377  1.00  0.00     0.000 A 
ATOM     37  C   UNL A   1      34.522  34.583  29.164  1.00  0.00     0.000 A 
ENDBRANCH  31  32
ENDBRANCH  30  31
ENDBRANCH  29  30
ENDBRANCH   8  20
ENDBRANCH   6   8
ENDBRANCH   5   6
ENDBRANCH   4   5
ENDBRANCH   3   4
ENDBRANCH   2   3
ENDBRANCH   1   2
BRANCH   1  38
ATOM     38  C   UNL A   1      39.306  21.755  26.460  1.00  0.00     0.188 C 
BRANCH  38  39
ATOM     39  O   UNL A   1      40.448  21.090  25.959  1.00  0.00    -0.376 OA
BRANCH  39  40
ATOM     40  C   UNL A   1      40.223  19.689  25.846  1.00  0.00     0.202 C 
BRANCH  40  41
ATOM     41  C   UNL A   1      41.339  18.893  26.514  1.00  0.00     0.261 C 
BRANCH  41  42
ATOM     42  O   UNL A   1      42.367  18.347  25.648  1.00  0.00    -0.460 OA
BRANCH  42  43
ATOM     43  C   UNL A   1      43.637  19.061  25.139  1.00  0.00     0.338 C 
ATOM     44  O   UNL A   1      44.229  18.078  24.611  1.00  0.00    -0.246 OA
BRANCH  43  45
ATOM     45  C   UNL A   1      44.091  21.133  25.462  1.00  0.00     0.060 A 
ATOM     46  C   UNL A   1      44.275  22.278  24.452  1.00  0.00     0.016 A 
ATOM     47  C   UNL A   1      44.333  21.890  26.774  1.00  0.00     0.016 A 
ATOM     48  C   UNL A   1      44.202  23.641  24.643  1.00  0.00     0.010 A 
ATOM     49  C   UNL A   1      44.459  23.238  26.996  1.00  0.00     0.010 A 
ATOM     50  C   UNL A   1      44.303  24.076  25.926  1.00  0.00    -0.014 A 
BRANCH  50  51
ATOM     51  C   UNL A   1      44.539  25.459  26.178  1.00  0.00     0.031 A 
ATOM     52  C   UNL A   1      45.950  25.880  26.075  1.00  0.00     0.074 A 
ATOM     53  C   UNL A   1      43.481  26.113  26.655  1.00  0.00     0.049 A 
ATOM     54  N   UNL A   1      46.472  27.044  26.280  1.00  0.00    -0.248 NA
ATOM     55  C   UNL A   1      46.918  24.839  25.671  1.00  0.00     0.031 C 
ATOM     56  C   UNL A   1      42.121  25.570  26.799  1.00  0.00     0.029 A 
ATOM     57  N   UNL A   1      43.421  27.347  27.185  1.00  0.00    -0.354 N 
ATOM     58  C   UNL A   1      47.821  26.877  26.018  1.00  0.00     0.074 A 
ATOM     59  C   UNL A   1      48.038  25.528  25.604  1.00  0.00     0.031 C 
ATOM     60  C   UNL A   1      41.362  26.481  27.425  1.00  0.00     0.029 A 
ATOM     61  C   UNL A   1      42.191  27.646  27.690  1.00  0.00     0.049 A 
ATOM     62  H   UNL A   1      44.184  27.969  27.206  1.00  0.00     0.167 HD
ATOM     63  C   UNL A   1      48.791  27.794  26.167  1.00  0.00     0.037 A 
ATOM     64  C   UNL A   1      41.836  28.787  28.287  1.00  0.00     0.037 A 
ATOM     65  C   UNL A   1      48.467  29.086  26.683  1.00  0.00     0.049 A 
ATOM     66  C   UNL A   1      42.907  29.841  28.327  1.00  0.00     0.074 A 
ATOM     67  C   UNL A   1      49.274  30.179  26.876  1.00  0.00     0.029 A 
ATOM     68  N   UNL A   1      47.184  29.427  27.109  1.00  0.00    -0.354 N 
ATOM     69  N   UNL A   1      44.181  29.742  28.000  1.00  0.00    -0.248 NA
ATOM     70  C   UNL A   1      42.495  31.171  28.759  1.00  0.00     0.031 C 
ATOM     71  C   UNL A   1      48.479  31.178  27.450  1.00  0.00     0.029 A 
ATOM     72  C   UNL A   1      47.165  30.725  27.550  1.00  0.00     0.049 A 
ATOM     73  H   UNL A   1      46.407  28.824  27.096  1.00  0.00     0.167 HD
ATOM     74  C   UNL A   1      44.721  31.006  28.151  1.00  0.00     0.074 A 
ATOM     75  C   UNL A   1      43.617  31.853  28.580  1.00  0.00     0.031 C 
ATOM     76  C   UNL A   1      45.993  31.451  27.972  1.00  0.00     0.037 A 
BRANCH  63  77
ATOM     77  C   UNL A   1      50.198  27.390  25.854  1.00  0.00     0.064 A 
ATOM     78  C   UNL A   1      51.106  27.012  26.861  1.00  0.00     0.173 A 
ATOM     79  C   UNL A   1      50.669  27.425  24.535  1.00  0.00     0.173 A 
ATOM     80  F   UNL A   1      50.732  27.023  28.149  1.00  0.00    -0.203 F 
ATOM     81  C   UNL A   1      52.428  26.697  26.557  1.00  0.00     0.198 A 
ATOM     82  C   UNL A   1      51.981  27.069  24.231  1.00  0.00     0.198 A 
ATOM     83  F   UNL A   1      49.866  27.829  23.540  1.00  0.00    -0.203 F 
ATOM     84  F   UNL A   1      53.290  26.414  27.543  1.00  0.00    -0.200 F 
ATOM     85  C   UNL A   1      52.860  26.709  25.240  1.00  0.00     0.200 A 
ATOM     86  F   UNL A   1      52.400  27.092  22.958  1.00  0.00    -0.200 F 
ATOM     87  F   UNL A   1      54.128  26.393  24.947  1.00  0.00    -0.200 F 
ENDBRANCH  63  77
BRANCH  64  88
ATOM     88  C   UNL A   1      40.440  28.972  28.724  1.00  0.00     0.064 A 
ATOM     89  C   UNL A   1      39.434  29.271  27.798  1.00  0.00     0.173 A 
ATOM     90  C   UNL A   1      40.063  28.771  30.060  1.00  0.00     0.173 A 
ATOM     91  F   UNL A   1      39.741  29.419  26.500  1.00  0.00    -0.203 F 
ATOM     92  C   UNL A   1      38.112  29.430  28.202  1.00  0.00     0.198 A 
ATOM     93  C   UNL A   1      38.735  28.898  30.458  1.00  0.00     0.198 A 
ATOM     94  F   UNL A   1      40.980  28.418  30.973  1.00  0.00    -0.203 F 
ATOM     95  F   UNL A   1      37.178  29.769  27.304  1.00  0.00    -0.200 F 
ATOM     96  C   UNL A   1      37.764  29.247  29.532  1.00  0.00     0.200 A 
ATOM     97  F   UNL A   1      38.396  28.679  31.736  1.00  0.00    -0.200 F 
ATOM     98  F   UNL A   1      36.492  29.409  29.921  1.00  0.00    -0.200 F 
ENDBRANCH  64  88
BRANCH  76  99
ATOM     99  C   UNL A   1      46.214  32.900  28.240  1.00  0.00     0.064 A 
ATOM    100  C   UNL A   1      46.643  33.339  29.498  1.00  0.00     0.173 A 
ATOM    101  C   UNL A   1      46.076  33.832  27.204  1.00  0.00     0.173 A 
ATOM    102  F   UNL A   1      46.786  32.467  30.508  1.00  0.00    -0.203 F 
ATOM    103  C   UNL A   1      46.885  34.684  29.723  1.00  0.00     0.198 A 
ATOM    104  C   UNL A   1      46.371  35.168  27.421  1.00  0.00     0.198 A 
ATOM    105  F   UNL A   1      45.696  33.438  25.980  1.00  0.00    -0.203 F 
ATOM    106  F   UNL A   1      47.231  35.099  30.949  1.00  0.00    -0.200 F 
ATOM    107  C   UNL A   1      46.760  35.595  28.683  1.00  0.00     0.200 A 
ATOM    108  F   UNL A   1      46.287  36.042  26.410  1.00  0.00    -0.200 F 
ATOM    109  F   UNL A   1      47.016  36.891  28.900  1.00  0.00    -0.200 F 
ENDBRANCH  76  99
ENDBRANCH  50  51
ENDBRANCH  43  45
ENDBRANCH  42  43
ENDBRANCH  41  42
ENDBRANCH  40  41
ENDBRANCH  39  40
ENDBRANCH  38  39
ENDBRANCH   1  38
TORSDOF 23
ENDMDL
MODEL 3
REMARK VINA RESULT:     -11.5      0.953      2.164
REMARK SMILES NC(=O)[C@@H]1CCC[N@@H+]1[C@@H](C(=O)OCCOCCOCCOC(=O)c1ccc(-c2c3nc(c(-c4c(F)c(F)c(F)c(F)c4F)c4ccc([nH]4)c(-c4c(F)c(F)c(F)c(F)c4F)c4nc(c(-c5c(F)c(F)c(F)c(F)c5F)c5ccc2[nH]5)C=C4)C=C3)cc1)c1c[nH]c2cc(OCc3ccccc3)ccc12
REMARK SMILES IDX 16 1 15 2 14 3 13 4 12 5 10 6 11 7 9 8 8 9 4 10 5 11 6 12
REMARK SMILES IDX 7 13 2 15 1 16 3 19 87 20 88 21 103 22 89 23 90 24 102 25
REMARK SMILES IDX 91 27 101 28 92 29 93 30 94 31 95 32 96 33 100 34 97 35
REMARK SMILES IDX 99 36 98 37 17 38 18 39 19 40 20 41 21 42 22 43 23 44 24 45
REMARK SMILES IDX 25 46 86 47 26 48 85 49 27 50 28 51 29 52 79 53 30 54 84 55
REMARK SMILES IDX 78 56 80 57 31 58 83 59 77 60 76 61 32 63 64 64 44 65 63 66
REMARK SMILES IDX 45 67 48 68 62 69 81 70 46 71 47 72 61 74 82 75 49 76 33 77
REMARK SMILES IDX 34 78 42 79 35 80 36 81 40 82 43 83 37 84 38 85 41 86 39 87
REMARK SMILES IDX 65 88 66 89 74 90 67 91 68 92 72 93 75 94 69 95 70 96 73 97
REMARK SMILES IDX 71 98 50 99 51 100 59 101 52 102 53 103 57 104 60 105 54 106
REMARK SMILES IDX 55 107 58 108 56 109
REMARK H PARENT 8 14 1 17 1 18 89 26 80 62 48 73
REMARK Flexibility Score: inf
ROOT
ATOM      1  C   UNL A   1      41.662  19.808  26.563  1.00  0.00     0.188 C 
ENDROOT
BRANCH   1   2
ATOM      2  O   UNL A   1      40.289  19.541  26.339  1.00  0.00    -0.376 OA
BRANCH   2   3
ATOM      3  C   UNL A   1      39.540  20.590  25.756  1.00  0.00     0.202 C 
BRANCH   3   4
ATOM      4  C   UNL A   1      38.298  20.146  24.959  1.00  0.00     0.261 C 
BRANCH   4   5
ATOM      5  O   UNL A   1      37.161  21.049  25.034  1.00  0.00    -0.459 OA
BRANCH   5   6
ATOM      6  C   UNL A   1      35.896  20.541  24.976  1.00  0.00     0.370 C 
ATOM      7  O   UNL A   1      35.681  19.339  24.829  1.00  0.00    -0.245 OA
BRANCH   6   8
ATOM      8  C   UNL A   1      34.745  21.586  25.241  1.00  0.00     0.329 C 
BRANCH   8   9
ATOM      9  N   UNL A   1      33.466  21.249  26.019  1.00  0.00    -0.309 N 
ATOM     10  C   UNL A   1      32.213  20.873  25.319  1.00  0.00     0.275 C 
ATOM     11  C   UNL A   1      31.438  22.184  25.191  1.00  0.00     0.081 C 
ATOM     12  C   UNL A   1      31.872  22.978  26.402  1.00  0.00     0.068 C 
ATOM     13  C   UNL A   1      32.863  22.066  27.074  1.00  0.00     0.264 C 
ATOM     14  H   UNL A   1      34.063  20.507  26.383  1.00  0.00     0.349 HD
BRANCH  10  15
ATOM     15  C   UNL A   1      32.281  19.927  24.144  1.00  0.00     0.275 C 
ATOM     16  N   UNL A   1      32.553  18.627  24.460  1.00  0.00    -0.365 N 
ATOM     17  H   UNL A   1      32.614  17.950  23.747  1.00  0.00     0.159 HD
ATOM     18  H   UNL A   1      32.689  18.367  25.399  1.00  0.00     0.159 HD
ATOM     19  O   UNL A   1      32.194  20.284  22.974  1.00  0.00    -0.268 OA
ENDBRANCH  10  15
ENDBRANCH   8   9
BRANCH   8  20
ATOM     20  C   UNL A   1      34.826  22.919  24.302  1.00  0.00     0.046 A 
ATOM     21  C   UNL A   1      35.944  23.731  24.519  1.00  0.00     0.094 A 
ATOM     22  C   UNL A   1      33.895  24.008  23.994  1.00  0.00     0.009 A 
ATOM     23  N   UNL A   1      35.574  24.545  25.599  1.00  0.00    -0.361 N 
ATOM     24  C   UNL A   1      34.233  25.002  25.379  1.00  0.00     0.050 A 
ATOM     25  C   UNL A   1      32.722  24.631  22.747  1.00  0.00     0.015 A 
ATOM     26  H   UNL A   1      36.138  24.765  26.375  1.00  0.00     0.166 HD
ATOM     27  C   UNL A   1      33.335  26.578  25.700  1.00  0.00     0.073 A 
ATOM     28  C   UNL A   1      31.842  26.272  22.981  1.00  0.00     0.047 A 
ATOM     29  C   UNL A   1      32.168  27.212  24.472  1.00  0.00     0.121 A 
BRANCH  29  30
ATOM     30  O   UNL A   1      31.569  28.381  24.817  1.00  0.00    -0.489 OA
BRANCH  30  31
ATOM     31  C   UNL A   1      31.405  29.334  23.773  1.00  0.00     0.265 C 
BRANCH  31  32
ATOM     32  C   UNL A   1      29.945  29.661  23.540  1.00  0.00    -0.011 A 
ATOM     33  C   UNL A   1      29.480  30.954  23.826  1.00  0.00     0.007 A 
ATOM     34  C   UNL A   1      29.037  28.717  23.041  1.00  0.00     0.007 A 
ATOM     35  C   UNL A   1      28.139  31.288  23.636  1.00  0.00     0.000 A 
ATOM     36  C   UNL A   1      27.706  29.062  22.817  1.00  0.00     0.000 A 
ATOM     37  C   UNL A   1      27.253  30.343  23.129  1.00  0.00     0.000 A 
ENDBRANCH  31  32
ENDBRANCH  30  31
ENDBRANCH  29  30
ENDBRANCH   8  20
ENDBRANCH   6   8
ENDBRANCH   5   6
ENDBRANCH   4   5
ENDBRANCH   3   4
ENDBRANCH   2   3
ENDBRANCH   1   2
BRANCH   1  38
ATOM     38  C   UNL A   1      42.069  21.213  27.008  1.00  0.00     0.188 C 
BRANCH  38  39
ATOM     39  O   UNL A   1      43.425  21.503  26.735  1.00  0.00    -0.376 OA
BRANCH  39  40
ATOM     40  C   UNL A   1      43.944  20.651  25.721  1.00  0.00     0.202 C 
BRANCH  40  41
ATOM     41  C   UNL A   1      44.267  21.432  24.452  1.00  0.00     0.261 C 
BRANCH  41  42
ATOM     42  O   UNL A   1      43.688  22.757  24.329  1.00  0.00    -0.460 OA
BRANCH  42  43
ATOM     43  C   UNL A   1      44.328  24.099  24.740  1.00  0.00     0.338 C 
ATOM     44  O   UNL A   1      45.345  24.082  23.992  1.00  0.00    -0.246 OA
BRANCH  43  45
ATOM     45  C   UNL A   1      43.569  25.401  26.269  1.00  0.00     0.060 A 
ATOM     46  C   UNL A   1      42.403  25.203  27.251  1.00  0.00     0.016 A 
ATOM     47  C   UNL A   1      44.037  26.801  26.684  1.00  0.00     0.016 A 
ATOM     48  C   UNL A   1      42.139  25.840  28.444  1.00  0.00     0.010 A 
ATOM     49  C   UNL A   1      43.665  27.564  27.762  1.00  0.00     0.010 A 
ATOM     50  C   UNL A   1      42.786  27.016  28.656  1.00  0.00    -0.014 A 
BRANCH  50  51
ATOM     51  C   UNL A   1      42.350  27.875  29.707  1.00  0.00     0.031 A 
ATOM     52  C   UNL A   1      43.068  27.709  30.986  1.00  0.00     0.074 A 
ATOM     53  C   UNL A   1      41.239  28.554  29.429  1.00  0.00     0.049 A 
ATOM     54  N   UNL A   1      42.877  28.310  32.113  1.00  0.00    -0.248 NA
ATOM     55  C   UNL A   1      44.173  26.727  30.996  1.00  0.00     0.031 C 
ATOM     56  C   UNL A   1      40.545  28.586  28.131  1.00  0.00     0.029 A 
ATOM     57  N   UNL A   1      40.460  29.273  30.256  1.00  0.00    -0.354 N 
ATOM     58  C   UNL A   1      43.843  27.790  32.958  1.00  0.00     0.074 A 
ATOM     59  C   UNL A   1      44.640  26.864  32.219  1.00  0.00     0.031 C 
ATOM     60  C   UNL A   1      39.404  29.275  28.273  1.00  0.00     0.029 A 
ATOM     61  C   UNL A   1      39.326  29.729  29.652  1.00  0.00     0.049 A 
ATOM     62  H   UNL A   1      40.685  29.451  31.198  1.00  0.00     0.167 HD
ATOM     63  C   UNL A   1      43.997  28.055  34.266  1.00  0.00     0.037 A 
ATOM     64  C   UNL A   1      38.363  30.456  30.223  1.00  0.00     0.037 A 
ATOM     65  C   UNL A   1      43.076  28.927  34.922  1.00  0.00     0.049 A 
ATOM     66  C   UNL A   1      38.623  30.842  31.653  1.00  0.00     0.074 A 
ATOM     67  C   UNL A   1      43.064  29.370  36.222  1.00  0.00     0.029 A 
ATOM     68  N   UNL A   1      41.969  29.475  34.278  1.00  0.00    -0.354 N 
ATOM     69  N   UNL A   1      39.584  30.436  32.460  1.00  0.00    -0.248 NA
ATOM     70  C   UNL A   1      37.715  31.820  32.238  1.00  0.00     0.031 C 
ATOM     71  C   UNL A   1      41.923  30.168  36.370  1.00  0.00     0.029 A 
ATOM     72  C   UNL A   1      41.267  30.273  35.146  1.00  0.00     0.049 A 
ATOM     73  H   UNL A   1      41.725  29.313  33.339  1.00  0.00     0.167 HD
ATOM     74  C   UNL A   1      39.421  31.135  33.641  1.00  0.00     0.074 A 
ATOM     75  C   UNL A   1      38.274  32.006  33.425  1.00  0.00     0.031 C 
ATOM     76  C   UNL A   1      40.121  31.080  34.806  1.00  0.00     0.037 A 
BRANCH  63  77
ATOM     77  C   UNL A   1      45.095  27.353  35.003  1.00  0.00     0.064 A 
ATOM     78  C   UNL A   1      46.372  27.924  35.159  1.00  0.00     0.173 A 
ATOM     79  C   UNL A   1      44.891  26.067  35.520  1.00  0.00     0.173 A 
ATOM     80  F   UNL A   1      46.646  29.125  34.627  1.00  0.00    -0.203 F 
ATOM     81  C   UNL A   1      47.398  27.230  35.795  1.00  0.00     0.198 A 
ATOM     82  C   UNL A   1      45.909  25.393  36.192  1.00  0.00     0.198 A 
ATOM     83  F   UNL A   1      43.713  25.449  35.354  1.00  0.00    -0.203 F 
ATOM     84  F   UNL A   1      48.624  27.768  35.864  1.00  0.00    -0.200 F 
ATOM     85  C   UNL A   1      47.161  25.973  36.327  1.00  0.00     0.200 A 
ATOM     86  F   UNL A   1      45.681  24.172  36.696  1.00  0.00    -0.200 F 
ATOM     87  F   UNL A   1      48.145  25.311  36.950  1.00  0.00    -0.200 F 
ENDBRANCH  63  77
BRANCH  64  88
ATOM     88  C   UNL A   1      37.226  30.921  29.408  1.00  0.00     0.064 A 
ATOM     89  C   UNL A   1      37.188  32.230  28.915  1.00  0.00     0.173 A 
ATOM     90  C   UNL A   1      36.195  30.048  29.030  1.00  0.00     0.173 A 
ATOM     91  F   UNL A   1      38.180  33.085  29.207  1.00  0.00    -0.203 F 
ATOM     92  C   UNL A   1      36.126  32.670  28.130  1.00  0.00     0.198 A 
ATOM     93  C   UNL A   1      35.150  30.480  28.218  1.00  0.00     0.198 A 
ATOM     94  F   UNL A   1      36.222  28.765  29.422  1.00  0.00    -0.203 F 
ATOM     95  F   UNL A   1      36.088  33.944  27.716  1.00  0.00    -0.200 F 
ATOM     96  C   UNL A   1      35.107  31.795  27.785  1.00  0.00     0.200 A 
ATOM     97  F   UNL A   1      34.190  29.620  27.852  1.00  0.00    -0.200 F 
ATOM     98  F   UNL A   1      34.080  32.223  27.037  1.00  0.00    -0.200 F 
ENDBRANCH  64  88
BRANCH  76  99
ATOM     99  C   UNL A   1      39.648  31.987  35.888  1.00  0.00     0.064 A 
ATOM    100  C   UNL A   1      40.194  33.266  36.042  1.00  0.00     0.173 A 
ATOM    101  C   UNL A   1      38.584  31.597  36.713  1.00  0.00     0.173 A 
ATOM    102  F   UNL A   1      41.212  33.667  35.264  1.00  0.00    -0.203 F 
ATOM    103  C   UNL A   1      39.717  34.116  37.026  1.00  0.00     0.198 A 
ATOM    104  C   UNL A   1      38.076  32.471  37.659  1.00  0.00     0.198 A 
ATOM    105  F   UNL A   1      38.019  30.389  36.569  1.00  0.00    -0.203 F 
ATOM    106  F   UNL A   1      40.293  35.312  37.206  1.00  0.00    -0.200 F 
ATOM    107  C   UNL A   1      38.652  33.723  37.825  1.00  0.00     0.200 A 
ATOM    108  F   UNL A   1      37.025  32.107  38.405  1.00  0.00    -0.200 F 
ATOM    109  F   UNL A   1      38.179  34.555  38.761  1.00  0.00    -0.200 F 
ENDBRANCH  76  99
ENDBRANCH  50  51
ENDBRANCH  43  45
ENDBRANCH  42  43
ENDBRANCH  41  42
ENDBRANCH  40  41
ENDBRANCH  39  40
ENDBRANCH  38  39
ENDBRANCH   1  38
TORSDOF 23
ENDMDL
