MODEL 1
REMARK VINA RESULT:     -10.9      0.000      0.000
REMARK SMILES Cc1ccc(C)c(Oc2cccc(F)c2C(=O)OCCOCCOCCOC(=O)c2ccc(-c3c4nc(c(-c5c(F)c(F)c(F)c(F)c5F)c5ccc([nH]5)c(-c5c(F)c(F)c(F)c(F)c5F)c5nc(c(-c6c(F)c(F)c(F)c(F)c6F)c6ccc3[nH]6)C=C5)C=C4)cc2)c1
REMARK SMILES IDX 22 1 21 2 20 3 19 4 18 5 16 6 17 7 15 8 9 9 10 10 11 11
REMARK SMILES IDX 13 12 12 13 14 14 8 15 7 16 1 17 2 18 3 19 93 20 4 21 5 22
REMARK SMILES IDX 6 23 23 24 24 25 25 26 26 27 27 28 28 29 29 30 30 31 31 32
REMARK SMILES IDX 92 33 32 34 91 35 33 36 34 37 35 38 85 39 36 40 90 41 84 42
REMARK SMILES IDX 86 43 37 44 89 45 83 46 82 47 38 49 70 50 50 51 69 52 51 53
REMARK SMILES IDX 54 54 68 55 87 56 52 57 53 58 67 60 88 61 55 62 39 63 40 64
REMARK SMILES IDX 48 65 41 66 42 67 46 68 49 69 43 70 44 71 47 72 45 73 71 74
REMARK SMILES IDX 72 75 80 76 73 77 74 78 78 79 81 80 75 81 76 82 79 83 77 84
REMARK SMILES IDX 56 85 57 86 65 87 58 88 59 89 63 90 66 91 60 92 61 93 64 94
REMARK SMILES IDX 62 95
REMARK H PARENT 86 48 54 59
REMARK Flexibility Score: inf
ROOT
ATOM      1  C   UNL A   1      38.168  21.155  25.553  1.00  0.00     0.188 C 
ENDROOT
BRANCH   1   2
ATOM      2  O   UNL A   1      37.622  22.171  24.701  1.00  0.00    -0.376 OA
BRANCH   2   3
ATOM      3  C   UNL A   1      37.553  23.487  25.252  1.00  0.00     0.202 C 
BRANCH   3   4
ATOM      4  C   UNL A   1      36.381  23.764  26.213  1.00  0.00     0.261 C 
BRANCH   4   5
ATOM      5  O   UNL A   1      35.178  24.171  25.542  1.00  0.00    -0.459 OA
BRANCH   5   6
ATOM      6  C   UNL A   1      34.038  23.620  26.040  1.00  0.00     0.345 C 
ATOM      7  O   UNL A   1      33.793  23.390  27.210  1.00  0.00    -0.246 OA
BRANCH   6   8
ATOM      8  C   UNL A   1      33.207  23.161  24.910  1.00  0.00     0.138 A 
ATOM      9  C   UNL A   1      32.145  23.908  24.396  1.00  0.00     0.144 A 
ATOM     10  C   UNL A   1      31.441  23.471  23.265  1.00  0.00     0.048 A 
ATOM     11  C   UNL A   1      31.749  22.239  22.689  1.00  0.00     0.007 A 
ATOM     12  C   UNL A   1      33.487  21.924  24.335  1.00  0.00     0.141 A 
ATOM     13  C   UNL A   1      32.765  21.458  23.236  1.00  0.00     0.040 A 
ATOM     14  F   UNL A   1      34.477  21.157  24.806  1.00  0.00    -0.206 F 
BRANCH   9  15
ATOM     15  O   UNL A   1      31.677  25.035  25.025  1.00  0.00    -0.456 OA
BRANCH  15  16
ATOM     16  C   UNL A   1      31.704  26.201  24.275  1.00  0.00     0.130 A 
ATOM     17  C   UNL A   1      34.161  28.484  22.459  1.00  0.00     0.044 C 
ATOM     18  C   UNL A   1      32.882  27.924  23.006  1.00  0.00    -0.047 A 
ATOM     19  C   UNL A   1      31.655  28.523  22.718  1.00  0.00     0.004 A 
ATOM     20  C   UNL A   1      32.897  26.782  23.809  1.00  0.00     0.050 A 
ATOM     21  C   UNL A   1      30.466  27.974  23.208  1.00  0.00     0.007 A 
ATOM     22  C   UNL A   1      30.474  26.804  23.984  1.00  0.00    -0.008 A 
ATOM     23  C   UNL A   1      29.165  26.239  24.455  1.00  0.00     0.048 C 
ENDBRANCH  15  16
ENDBRANCH   9  15
ENDBRANCH   6   8
ENDBRANCH   5   6
ENDBRANCH   4   5
ENDBRANCH   3   4
ENDBRANCH   2   3
ENDBRANCH   1   2
BRANCH   1  24
ATOM     24  C   UNL A   1      39.618  21.392  26.004  1.00  0.00     0.188 C 
BRANCH  24  25
ATOM     25  O   UNL A   1      40.305  20.155  26.124  1.00  0.00    -0.376 OA
BRANCH  25  26
ATOM     26  C   UNL A   1      41.615  20.239  26.655  1.00  0.00     0.202 C 
BRANCH  26  27
ATOM     27  C   UNL A   1      42.684  19.380  25.966  1.00  0.00     0.261 C 
BRANCH  27  28
ATOM     28  O   UNL A   1      43.459  19.846  24.825  1.00  0.00    -0.460 OA
BRANCH  28  29
ATOM     29  C   UNL A   1      44.515  20.677  24.730  1.00  0.00     0.338 C 
ATOM     30  O   UNL A   1      45.601  20.309  24.291  1.00  0.00    -0.246 OA
BRANCH  29  31
ATOM     31  C   UNL A   1      44.351  22.039  25.231  1.00  0.00     0.060 A 
ATOM     32  C   UNL A   1      44.937  22.314  26.459  1.00  0.00     0.016 A 
ATOM     33  C   UNL A   1      43.537  22.977  24.579  1.00  0.00     0.016 A 
ATOM     34  C   UNL A   1      44.544  23.460  27.116  1.00  0.00     0.010 A 
ATOM     35  C   UNL A   1      43.138  24.128  25.263  1.00  0.00     0.010 A 
ATOM     36  C   UNL A   1      43.597  24.331  26.564  1.00  0.00    -0.014 A 
BRANCH  36  37
ATOM     37  C   UNL A   1      43.400  25.565  27.333  1.00  0.00     0.031 A 
ATOM     38  C   UNL A   1      44.619  26.421  27.323  1.00  0.00     0.074 A 
ATOM     39  C   UNL A   1      42.295  25.887  28.040  1.00  0.00     0.049 A 
ATOM     40  N   UNL A   1      45.146  27.047  28.323  1.00  0.00    -0.248 NA
ATOM     41  C   UNL A   1      45.403  26.499  26.071  1.00  0.00     0.031 C 
ATOM     42  C   UNL A   1      41.027  25.163  28.043  1.00  0.00     0.029 A 
ATOM     43  N   UNL A   1      42.045  26.963  28.867  1.00  0.00    -0.354 N 
ATOM     44  C   UNL A   1      46.245  27.711  27.794  1.00  0.00     0.074 A 
ATOM     45  C   UNL A   1      46.421  27.273  26.436  1.00  0.00     0.031 C 
ATOM     46  C   UNL A   1      40.091  25.913  28.665  1.00  0.00     0.029 A 
ATOM     47  C   UNL A   1      40.696  27.145  29.155  1.00  0.00     0.049 A 
ATOM     48  H   UNL A   1      42.755  27.548  29.220  1.00  0.00     0.167 HD
ATOM     49  C   UNL A   1      46.657  28.870  28.356  1.00  0.00     0.037 A 
ATOM     50  C   UNL A   1      40.083  28.240  29.677  1.00  0.00     0.037 A 
ATOM     51  C   UNL A   1      46.533  28.870  29.782  1.00  0.00     0.049 A 
ATOM     52  C   UNL A   1      41.078  29.079  30.387  1.00  0.00     0.074 A 
ATOM     53  C   UNL A   1      47.265  28.386  30.844  1.00  0.00     0.029 A 
ATOM     54  N   UNL A   1      45.291  29.169  30.256  1.00  0.00    -0.354 N 
ATOM     55  N   UNL A   1      41.558  28.824  31.571  1.00  0.00    -0.248 NA
ATOM     56  C   UNL A   1      41.714  30.184  29.671  1.00  0.00     0.031 C 
ATOM     57  C   UNL A   1      46.406  28.401  31.981  1.00  0.00     0.029 A 
ATOM     58  C   UNL A   1      45.167  28.892  31.592  1.00  0.00     0.049 A 
ATOM     59  H   UNL A   1      44.567  29.541  29.702  1.00  0.00     0.167 HD
ATOM     60  C   UNL A   1      42.784  29.454  31.576  1.00  0.00     0.074 A 
ATOM     61  C   UNL A   1      42.752  30.406  30.478  1.00  0.00     0.031 C 
ATOM     62  C   UNL A   1      43.855  28.893  32.196  1.00  0.00     0.037 A 
BRANCH  49  63
ATOM     63  C   UNL A   1      46.556  30.133  27.536  1.00  0.00     0.064 A 
ATOM     64  C   UNL A   1      45.320  30.674  27.097  1.00  0.00     0.173 A 
ATOM     65  C   UNL A   1      47.671  30.967  27.391  1.00  0.00     0.173 A 
ATOM     66  F   UNL A   1      44.151  30.068  27.345  1.00  0.00    -0.203 F 
ATOM     67  C   UNL A   1      45.223  31.914  26.482  1.00  0.00     0.198 A 
ATOM     68  C   UNL A   1      47.560  32.243  26.828  1.00  0.00     0.198 A 
ATOM     69  F   UNL A   1      48.871  30.583  27.851  1.00  0.00    -0.203 F 
ATOM     70  F   UNL A   1      44.025  32.356  26.071  1.00  0.00    -0.200 F 
ATOM     71  C   UNL A   1      46.341  32.706  26.359  1.00  0.00     0.200 A 
ATOM     72  F   UNL A   1      48.632  33.044  26.780  1.00  0.00    -0.200 F 
ATOM     73  F   UNL A   1      46.233  33.934  25.834  1.00  0.00    -0.200 F 
ENDBRANCH  49  63
BRANCH  50  74
ATOM     74  C   UNL A   1      38.685  28.733  29.498  1.00  0.00     0.064 A 
ATOM     75  C   UNL A   1      38.212  29.217  28.264  1.00  0.00     0.173 A 
ATOM     76  C   UNL A   1      37.857  28.991  30.611  1.00  0.00     0.173 A 
ATOM     77  F   UNL A   1      38.945  29.108  27.148  1.00  0.00    -0.203 F 
ATOM     78  C   UNL A   1      37.011  29.920  28.149  1.00  0.00     0.198 A 
ATOM     79  C   UNL A   1      36.665  29.717  30.499  1.00  0.00     0.198 A 
ATOM     80  F   UNL A   1      38.226  28.606  31.842  1.00  0.00    -0.203 F 
ATOM     81  F   UNL A   1      36.632  30.390  26.952  1.00  0.00    -0.200 F 
ATOM     82  C   UNL A   1      36.248  30.188  29.268  1.00  0.00     0.200 A 
ATOM     83  F   UNL A   1      35.953  30.008  31.598  1.00  0.00    -0.200 F 
ATOM     84  F   UNL A   1      35.138  30.933  29.166  1.00  0.00    -0.200 F 
ENDBRANCH  50  74
BRANCH  62  85
ATOM     85  C   UNL A   1      43.629  28.122  33.450  1.00  0.00     0.064 A 
ATOM     86  C   UNL A   1      43.512  28.857  34.643  1.00  0.00     0.173 A 
ATOM     87  C   UNL A   1      43.577  26.724  33.539  1.00  0.00     0.173 A 
ATOM     88  F   UNL A   1      43.566  30.199  34.614  1.00  0.00    -0.203 F 
ATOM     89  C   UNL A   1      43.366  28.227  35.872  1.00  0.00     0.198 A 
ATOM     90  C   UNL A   1      43.390  26.095  34.770  1.00  0.00     0.198 A 
ATOM     91  F   UNL A   1      43.732  25.953  32.451  1.00  0.00    -0.203 F 
ATOM     92  F   UNL A   1      43.301  28.957  36.993  1.00  0.00    -0.200 F 
ATOM     93  C   UNL A   1      43.296  26.846  35.934  1.00  0.00     0.200 A 
ATOM     94  F   UNL A   1      43.313  24.758  34.836  1.00  0.00    -0.200 F 
ATOM     95  F   UNL A   1      43.147  26.238  37.119  1.00  0.00    -0.200 F 
ENDBRANCH  62  85
ENDBRANCH  36  37
ENDBRANCH  29  31
ENDBRANCH  28  29
ENDBRANCH  27  28
ENDBRANCH  26  27
ENDBRANCH  25  26
ENDBRANCH  24  25
ENDBRANCH   1  24
TORSDOF 19
ENDMDL
MODEL 2
REMARK VINA RESULT:     -10.9      3.466      9.111
REMARK SMILES Cc1ccc(C)c(Oc2cccc(F)c2C(=O)OCCOCCOCCOC(=O)c2ccc(-c3c4nc(c(-c5c(F)c(F)c(F)c(F)c5F)c5ccc([nH]5)c(-c5c(F)c(F)c(F)c(F)c5F)c5nc(c(-c6c(F)c(F)c(F)c(F)c6F)c6ccc3[nH]6)C=C5)C=C4)cc2)c1
REMARK SMILES IDX 22 1 21 2 20 3 19 4 18 5 16 6 17 7 15 8 9 9 10 10 11 11
REMARK SMILES IDX 13 12 12 13 14 14 8 15 7 16 1 17 2 18 3 19 93 20 4 21 5 22
REMARK SMILES IDX 6 23 23 24 24 25 25 26 26 27 27 28 28 29 29 30 30 31 31 32
REMARK SMILES IDX 92 33 32 34 91 35 33 36 34 37 35 38 85 39 36 40 90 41 84 42
REMARK SMILES IDX 86 43 37 44 89 45 83 46 82 47 38 49 70 50 50 51 69 52 51 53
REMARK SMILES IDX 54 54 68 55 87 56 52 57 53 58 67 60 88 61 55 62 39 63 40 64
REMARK SMILES IDX 48 65 41 66 42 67 46 68 49 69 43 70 44 71 47 72 45 73 71 74
REMARK SMILES IDX 72 75 80 76 73 77 74 78 78 79 81 80 75 81 76 82 79 83 77 84
REMARK SMILES IDX 56 85 57 86 65 87 58 88 59 89 63 90 66 91 60 92 61 93 64 94
REMARK SMILES IDX 62 95
REMARK H PARENT 86 48 54 59
REMARK Flexibility Score: inf
ROOT
ATOM      1  C   UNL A   1      33.473  31.942  28.236  1.00  0.00     0.188 C 
ENDROOT
BRANCH   1   2
ATOM      2  O   UNL A   1      33.393  31.044  27.122  1.00  0.00    -0.376 OA
BRANCH   2   3
ATOM      3  C   UNL A   1      33.667  29.669  27.398  1.00  0.00     0.202 C 
BRANCH   3   4
ATOM      4  C   UNL A   1      32.590  28.658  26.963  1.00  0.00     0.261 C 
BRANCH   4   5
ATOM      5  O   UNL A   1      33.108  27.339  26.728  1.00  0.00    -0.459 OA
BRANCH   5   6
ATOM      6  C   UNL A   1      32.216  26.469  26.183  1.00  0.00     0.345 C 
ATOM      7  O   UNL A   1      31.279  25.938  26.750  1.00  0.00    -0.246 OA
BRANCH   6   8
ATOM      8  C   UNL A   1      32.677  26.114  24.827  1.00  0.00     0.138 A 
ATOM      9  C   UNL A   1      33.600  25.095  24.580  1.00  0.00     0.144 A 
ATOM     10  C   UNL A   1      33.940  24.736  23.269  1.00  0.00     0.048 A 
ATOM     11  C   UNL A   1      33.416  25.454  22.195  1.00  0.00     0.007 A 
ATOM     12  C   UNL A   1      32.179  26.833  23.744  1.00  0.00     0.141 A 
ATOM     13  C   UNL A   1      32.544  26.514  22.435  1.00  0.00     0.040 A 
ATOM     14  F   UNL A   1      31.313  27.837  23.926  1.00  0.00    -0.206 F 
BRANCH   9  15
ATOM     15  O   UNL A   1      34.286  24.476  25.596  1.00  0.00    -0.456 OA
BRANCH  15  16
ATOM     16  C   UNL A   1      34.540  23.124  25.417  1.00  0.00     0.130 A 
ATOM     17  C   UNL A   1      32.701  19.821  24.915  1.00  0.00     0.044 C 
ATOM     18  C   UNL A   1      33.808  20.818  25.085  1.00  0.00    -0.047 A 
ATOM     19  C   UNL A   1      35.145  20.426  24.999  1.00  0.00     0.004 A 
ATOM     20  C   UNL A   1      33.518  22.162  25.324  1.00  0.00     0.050 A 
ATOM     21  C   UNL A   1      36.169  21.370  25.128  1.00  0.00     0.007 A 
ATOM     22  C   UNL A   1      35.880  22.729  25.330  1.00  0.00    -0.008 A 
ATOM     23  C   UNL A   1      37.018  23.704  25.427  1.00  0.00     0.048 C 
ENDBRANCH  15  16
ENDBRANCH   9  15
ENDBRANCH   6   8
ENDBRANCH   5   6
ENDBRANCH   4   5
ENDBRANCH   3   4
ENDBRANCH   2   3
ENDBRANCH   1   2
BRANCH   1  24
ATOM     24  C   UNL A   1      33.918  33.372  27.891  1.00  0.00     0.188 C 
BRANCH  24  25
ATOM     25  O   UNL A   1      33.932  34.180  29.059  1.00  0.00    -0.376 OA
BRANCH  25  26
ATOM     26  C   UNL A   1      34.758  33.710  30.109  1.00  0.00     0.202 C 
BRANCH  26  27
ATOM     27  C   UNL A   1      36.236  33.485  29.762  1.00  0.00     0.261 C 
BRANCH  27  28
ATOM     28  O   UNL A   1      36.853  32.166  29.746  1.00  0.00    -0.460 OA
BRANCH  28  29
ATOM     29  C   UNL A   1      37.180  31.336  28.738  1.00  0.00     0.338 C 
ATOM     30  O   UNL A   1      36.631  31.388  27.641  1.00  0.00    -0.246 OA
BRANCH  29  31
ATOM     31  C   UNL A   1      38.181  30.306  29.008  1.00  0.00     0.060 A 
ATOM     32  C   UNL A   1      39.508  30.704  28.921  1.00  0.00     0.016 A 
ATOM     33  C   UNL A   1      37.829  28.963  29.209  1.00  0.00     0.016 A 
ATOM     34  C   UNL A   1      40.470  29.720  28.844  1.00  0.00     0.010 A 
ATOM     35  C   UNL A   1      38.814  27.977  29.116  1.00  0.00     0.010 A 
ATOM     36  C   UNL A   1      40.131  28.362  28.867  1.00  0.00    -0.014 A 
BRANCH  36  37
ATOM     37  C   UNL A   1      41.285  27.458  28.914  1.00  0.00     0.031 A 
ATOM     38  C   UNL A   1      42.199  27.789  30.042  1.00  0.00     0.074 A 
ATOM     39  C   UNL A   1      41.562  26.484  28.020  1.00  0.00     0.049 A 
ATOM     40  N   UNL A   1      43.490  27.846  30.015  1.00  0.00    -0.248 NA
ATOM     41  C   UNL A   1      41.595  28.213  31.324  1.00  0.00     0.031 C 
ATOM     42  C   UNL A   1      40.693  26.027  26.939  1.00  0.00     0.029 A 
ATOM     43  N   UNL A   1      42.657  25.651  27.916  1.00  0.00    -0.354 N 
ATOM     44  C   UNL A   1      43.864  28.173  31.312  1.00  0.00     0.074 A 
ATOM     45  C   UNL A   1      42.672  28.481  32.056  1.00  0.00     0.031 C 
ATOM     46  C   UNL A   1      41.196  24.886  26.419  1.00  0.00     0.029 A 
ATOM     47  C   UNL A   1      42.448  24.554  27.086  1.00  0.00     0.049 A 
ATOM     48  H   UNL A   1      43.507  25.816  28.387  1.00  0.00     0.167 HD
ATOM     49  C   UNL A   1      45.057  27.752  31.788  1.00  0.00     0.037 A 
ATOM     50  C   UNL A   1      43.182  23.414  26.990  1.00  0.00     0.037 A 
ATOM     51  C   UNL A   1      46.090  27.781  30.797  1.00  0.00     0.049 A 
ATOM     52  C   UNL A   1      44.546  23.651  27.520  1.00  0.00     0.074 A 
ATOM     53  C   UNL A   1      46.923  28.734  30.256  1.00  0.00     0.029 A 
ATOM     54  N   UNL A   1      46.125  26.700  29.966  1.00  0.00    -0.354 N 
ATOM     55  N   UNL A   1      45.495  24.276  26.883  1.00  0.00    -0.248 NA
ATOM     56  C   UNL A   1      44.830  23.326  28.917  1.00  0.00     0.031 C 
ATOM     57  C   UNL A   1      47.461  28.183  29.056  1.00  0.00     0.029 A 
ATOM     58  C   UNL A   1      46.943  26.905  28.887  1.00  0.00     0.049 A 
ATOM     59  H   UNL A   1      45.621  25.870  30.124  1.00  0.00     0.167 HD
ATOM     60  C   UNL A   1      46.305  24.765  27.886  1.00  0.00     0.074 A 
ATOM     61  C   UNL A   1      45.961  24.014  29.083  1.00  0.00     0.031 C 
ATOM     62  C   UNL A   1      46.895  25.984  27.776  1.00  0.00     0.037 A 
BRANCH  49  63
ATOM     63  C   UNL A   1      45.061  26.767  32.931  1.00  0.00     0.064 A 
ATOM     64  C   UNL A   1      45.392  27.129  34.262  1.00  0.00     0.173 A 
ATOM     65  C   UNL A   1      44.487  25.500  32.769  1.00  0.00     0.173 A 
ATOM     66  F   UNL A   1      45.771  28.372  34.588  1.00  0.00    -0.203 F 
ATOM     67  C   UNL A   1      45.242  26.258  35.333  1.00  0.00     0.198 A 
ATOM     68  C   UNL A   1      44.278  24.648  33.858  1.00  0.00     0.198 A 
ATOM     69  F   UNL A   1      44.062  25.097  31.562  1.00  0.00    -0.203 F 
ATOM     70  F   UNL A   1      45.595  26.657  36.564  1.00  0.00    -0.200 F 
ATOM     71  C   UNL A   1      44.672  25.021  35.134  1.00  0.00     0.200 A 
ATOM     72  F   UNL A   1      43.652  23.479  33.678  1.00  0.00    -0.200 F 
ATOM     73  F   UNL A   1      44.457  24.212  36.180  1.00  0.00    -0.200 F 
ENDBRANCH  49  63
BRANCH  50  74
ATOM     74  C   UNL A   1      42.765  22.035  26.599  1.00  0.00     0.064 A 
ATOM     75  C   UNL A   1      41.842  21.287  27.355  1.00  0.00     0.173 A 
ATOM     76  C   UNL A   1      43.470  21.313  25.613  1.00  0.00     0.173 A 
ATOM     77  F   UNL A   1      41.169  21.839  28.374  1.00  0.00    -0.203 F 
ATOM     78  C   UNL A   1      41.648  19.919  27.155  1.00  0.00     0.198 A 
ATOM     79  C   UNL A   1      43.294  19.937  25.430  1.00  0.00     0.198 A 
ATOM     80  F   UNL A   1      44.400  21.917  24.859  1.00  0.00    -0.203 F 
ATOM     81  F   UNL A   1      40.783  19.253  27.932  1.00  0.00    -0.200 F 
ATOM     82  C   UNL A   1      42.388  19.239  26.207  1.00  0.00     0.200 A 
ATOM     83  F   UNL A   1      44.048  19.278  24.537  1.00  0.00    -0.200 F 
ATOM     84  F   UNL A   1      42.258  17.912  26.074  1.00  0.00    -0.200 F 
ENDBRANCH  50  74
BRANCH  62  85
ATOM     85  C   UNL A   1      47.352  26.435  26.432  1.00  0.00     0.064 A 
ATOM     86  C   UNL A   1      48.655  26.077  26.045  1.00  0.00     0.173 A 
ATOM     87  C   UNL A   1      46.605  27.231  25.552  1.00  0.00     0.173 A 
ATOM     88  F   UNL A   1      49.415  25.324  26.857  1.00  0.00    -0.203 F 
ATOM     89  C   UNL A   1      49.197  26.505  24.840  1.00  0.00     0.198 A 
ATOM     90  C   UNL A   1      47.139  27.626  24.325  1.00  0.00     0.198 A 
ATOM     91  F   UNL A   1      45.374  27.655  25.875  1.00  0.00    -0.203 F 
ATOM     92  F   UNL A   1      50.457  26.181  24.522  1.00  0.00    -0.200 F 
ATOM     93  C   UNL A   1      48.435  27.273  23.976  1.00  0.00     0.200 A 
ATOM     94  F   UNL A   1      46.403  28.362  23.480  1.00  0.00    -0.200 F 
ATOM     95  F   UNL A   1      48.955  27.680  22.810  1.00  0.00    -0.200 F 
ENDBRANCH  62  85
ENDBRANCH  36  37
ENDBRANCH  29  31
ENDBRANCH  28  29
ENDBRANCH  27  28
ENDBRANCH  26  27
ENDBRANCH  25  26
ENDBRANCH  24  25
ENDBRANCH   1  24
TORSDOF 19
ENDMDL
MODEL 3
REMARK VINA RESULT:     -10.3      3.217      9.008
REMARK SMILES Cc1ccc(C)c(Oc2cccc(F)c2C(=O)OCCOCCOCCOC(=O)c2ccc(-c3c4nc(c(-c5c(F)c(F)c(F)c(F)c5F)c5ccc([nH]5)c(-c5c(F)c(F)c(F)c(F)c5F)c5nc(c(-c6c(F)c(F)c(F)c(F)c6F)c6ccc3[nH]6)C=C5)C=C4)cc2)c1
REMARK SMILES IDX 22 1 21 2 20 3 19 4 18 5 16 6 17 7 15 8 9 9 10 10 11 11
REMARK SMILES IDX 13 12 12 13 14 14 8 15 7 16 1 17 2 18 3 19 93 20 4 21 5 22
REMARK SMILES IDX 6 23 23 24 24 25 25 26 26 27 27 28 28 29 29 30 30 31 31 32
REMARK SMILES IDX 92 33 32 34 91 35 33 36 34 37 35 38 85 39 36 40 90 41 84 42
REMARK SMILES IDX 86 43 37 44 89 45 83 46 82 47 38 49 70 50 50 51 69 52 51 53
REMARK SMILES IDX 54 54 68 55 87 56 52 57 53 58 67 60 88 61 55 62 39 63 40 64
REMARK SMILES IDX 48 65 41 66 42 67 46 68 49 69 43 70 44 71 47 72 45 73 71 74
REMARK SMILES IDX 72 75 80 76 73 77 74 78 78 79 81 80 75 81 76 82 79 83 77 84
REMARK SMILES IDX 56 85 57 86 65 87 58 88 59 89 63 90 66 91 60 92 61 93 64 94
REMARK SMILES IDX 62 95
REMARK H PARENT 86 48 54 59
REMARK Flexibility Score: inf
ROOT
ATOM      1  C   UNL A   1      32.257  31.101  26.885  1.00  0.00     0.188 C 
ENDROOT
BRANCH   1   2
ATOM      2  O   UNL A   1      31.645  29.819  26.689  1.00  0.00    -0.376 OA
BRANCH   2   3
ATOM      3  C   UNL A   1      32.338  28.697  27.239  1.00  0.00     0.202 C 
BRANCH   3   4
ATOM      4  C   UNL A   1      33.323  27.977  26.302  1.00  0.00     0.261 C 
BRANCH   4   5
ATOM      5  O   UNL A   1      33.380  26.557  26.516  1.00  0.00    -0.459 OA
BRANCH   5   6
ATOM      6  C   UNL A   1      32.307  25.869  26.039  1.00  0.00     0.345 C 
ATOM      7  O   UNL A   1      31.452  25.308  26.698  1.00  0.00    -0.246 OA
BRANCH   6   8
ATOM      8  C   UNL A   1      32.445  25.745  24.575  1.00  0.00     0.138 A 
ATOM      9  C   UNL A   1      33.476  25.024  23.967  1.00  0.00     0.144 A 
ATOM     10  C   UNL A   1      33.514  24.861  22.575  1.00  0.00     0.048 A 
ATOM     11  C   UNL A   1      32.560  25.489  21.776  1.00  0.00     0.007 A 
ATOM     12  C   UNL A   1      31.512  26.382  23.760  1.00  0.00     0.141 A 
ATOM     13  C   UNL A   1      31.566  26.263  22.371  1.00  0.00     0.040 A 
ATOM     14  F   UNL A   1      30.521  27.107  24.290  1.00  0.00    -0.206 F 
BRANCH   9  15
ATOM     15  O   UNL A   1      34.542  24.538  24.683  1.00  0.00    -0.456 OA
BRANCH  15  16
ATOM     16  C   UNL A   1      34.641  23.157  24.756  1.00  0.00     0.130 A 
ATOM     17  C   UNL A   1      32.501  20.023  24.364  1.00  0.00     0.044 C 
ATOM     18  C   UNL A   1      33.681  20.915  24.614  1.00  0.00    -0.047 A 
ATOM     19  C   UNL A   1      34.945  20.379  24.862  1.00  0.00     0.004 A 
ATOM     20  C   UNL A   1      33.534  22.303  24.593  1.00  0.00     0.050 A 
ATOM     21  C   UNL A   1      36.044  21.220  25.063  1.00  0.00     0.007 A 
ATOM     22  C   UNL A   1      35.908  22.616  25.004  1.00  0.00    -0.008 A 
ATOM     23  C   UNL A   1      37.128  23.471  25.193  1.00  0.00     0.048 C 
ENDBRANCH  15  16
ENDBRANCH   9  15
ENDBRANCH   6   8
ENDBRANCH   5   6
ENDBRANCH   4   5
ENDBRANCH   3   4
ENDBRANCH   2   3
ENDBRANCH   1   2
BRANCH   1  24
ATOM     24  C   UNL A   1      31.366  32.307  26.552  1.00  0.00     0.188 C 
BRANCH  24  25
ATOM     25  O   UNL A   1      31.838  33.468  27.220  1.00  0.00    -0.376 OA
BRANCH  25  26
ATOM     26  C   UNL A   1      33.031  33.296  27.962  1.00  0.00     0.202 C 
BRANCH  26  27
ATOM     27  C   UNL A   1      33.530  34.521  28.742  1.00  0.00     0.261 C 
BRANCH  27  28
ATOM     28  O   UNL A   1      34.338  34.415  29.949  1.00  0.00    -0.460 OA
BRANCH  28  29
ATOM     29  C   UNL A   1      34.636  33.373  30.746  1.00  0.00     0.338 C 
ATOM     30  O   UNL A   1      33.919  33.040  31.687  1.00  0.00    -0.246 OA
BRANCH  29  31
ATOM     31  C   UNL A   1      35.893  32.670  30.500  1.00  0.00     0.060 A 
ATOM     32  C   UNL A   1      35.905  31.314  30.798  1.00  0.00     0.016 A 
ATOM     33  C   UNL A   1      37.059  33.348  30.115  1.00  0.00     0.016 A 
ATOM     34  C   UNL A   1      37.130  30.689  30.893  1.00  0.00     0.010 A 
ATOM     35  C   UNL A   1      38.293  32.704  30.230  1.00  0.00     0.010 A 
ATOM     36  C   UNL A   1      38.325  31.386  30.684  1.00  0.00    -0.014 A 
BRANCH  36  37
ATOM     37  C   UNL A   1      39.522  30.537  30.691  1.00  0.00     0.031 A 
ATOM     38  C   UNL A   1      40.229  30.591  32.000  1.00  0.00     0.074 A 
ATOM     39  C   UNL A   1      40.000  29.838  29.637  1.00  0.00     0.049 A 
ATOM     40  N   UNL A   1      41.502  30.692  32.200  1.00  0.00    -0.248 NA
ATOM     41  C   UNL A   1      39.410  30.648  33.230  1.00  0.00     0.031 C 
ATOM     42  C   UNL A   1      39.339  29.652  28.349  1.00  0.00     0.029 A 
ATOM     43  N   UNL A   1      41.155  29.094  29.509  1.00  0.00    -0.354 N 
ATOM     44  C   UNL A   1      41.651  30.682  33.581  1.00  0.00     0.074 A 
ATOM     45  C   UNL A   1      40.342  30.750  34.173  1.00  0.00     0.031 C 
ATOM     46  C   UNL A   1      39.995  28.701  27.648  1.00  0.00     0.029 A 
ATOM     47  C   UNL A   1      41.153  28.246  28.406  1.00  0.00     0.049 A 
ATOM     48  H   UNL A   1      41.910  29.158  30.139  1.00  0.00     0.167 HD
ATOM     49  C   UNL A   1      42.787  30.189  34.125  1.00  0.00     0.037 A 
ATOM     50  C   UNL A   1      41.973  27.193  28.148  1.00  0.00     0.037 A 
ATOM     51  C   UNL A   1      43.952  30.506  33.356  1.00  0.00     0.049 A 
ATOM     52  C   UNL A   1      43.221  27.326  28.937  1.00  0.00     0.074 A 
ATOM     53  C   UNL A   1      44.787  31.592  33.217  1.00  0.00     0.029 A 
ATOM     54  N   UNL A   1      44.190  29.681  32.298  1.00  0.00    -0.354 N 
ATOM     55  N   UNL A   1      44.207  28.124  28.643  1.00  0.00    -0.248 NA
ATOM     56  C   UNL A   1      43.314  26.658  30.234  1.00  0.00     0.031 C 
ATOM     57  C   UNL A   1      45.537  31.389  32.022  1.00  0.00     0.029 A 
ATOM     58  C   UNL A   1      45.145  30.184  31.454  1.00  0.00     0.049 A 
ATOM     59  H   UNL A   1      43.728  28.823  32.156  1.00  0.00     0.167 HD
ATOM     60  C   UNL A   1      44.820  28.359  29.855  1.00  0.00     0.074 A 
ATOM     61  C   UNL A   1      44.354  27.313  30.751  1.00  0.00     0.031 C 
ATOM     62  C   UNL A   1      45.330  29.583  30.154  1.00  0.00     0.037 A 
BRANCH  49  63
ATOM     63  C   UNL A   1      42.689  28.941  34.967  1.00  0.00     0.064 A 
ATOM     64  C   UNL A   1      42.081  27.744  34.509  1.00  0.00     0.173 A 
ATOM     65  C   UNL A   1      43.427  28.834  36.153  1.00  0.00     0.173 A 
ATOM     66  F   UNL A   1      41.507  27.655  33.301  1.00  0.00    -0.203 F 
ATOM     67  C   UNL A   1      42.134  26.556  35.226  1.00  0.00     0.198 A 
ATOM     68  C   UNL A   1      43.531  27.620  36.841  1.00  0.00     0.198 A 
ATOM     69  F   UNL A   1      44.108  29.888  36.626  1.00  0.00    -0.203 F 
ATOM     70  F   UNL A   1      41.519  25.466  34.744  1.00  0.00    -0.200 F 
ATOM     71  C   UNL A   1      42.871  26.490  36.386  1.00  0.00     0.200 A 
ATOM     72  F   UNL A   1      44.311  27.536  37.926  1.00  0.00    -0.200 F 
ATOM     73  F   UNL A   1      42.984  25.324  37.036  1.00  0.00    -0.200 F 
ENDBRANCH  49  63
BRANCH  50  74
ATOM     74  C   UNL A   1      41.720  25.951  27.359  1.00  0.00     0.064 A 
ATOM     75  C   UNL A   1      40.781  24.983  27.764  1.00  0.00     0.173 A 
ATOM     76  C   UNL A   1      42.592  25.557  26.322  1.00  0.00     0.173 A 
ATOM     77  F   UNL A   1      39.952  25.207  28.793  1.00  0.00    -0.203 F 
ATOM     78  C   UNL A   1      40.727  23.711  27.190  1.00  0.00     0.198 A 
ATOM     79  C   UNL A   1      42.553  24.274  25.765  1.00  0.00     0.198 A 
ATOM     80  F   UNL A   1      43.549  26.387  25.882  1.00  0.00    -0.203 F 
ATOM     81  F   UNL A   1      39.836  22.818  27.645  1.00  0.00    -0.200 F 
ATOM     82  C   UNL A   1      41.625  23.349  26.206  1.00  0.00     0.200 A 
ATOM     83  F   UNL A   1      43.457  23.918  24.840  1.00  0.00    -0.200 F 
ATOM     84  F   UNL A   1      41.622  22.102  25.716  1.00  0.00    -0.200 F 
ENDBRANCH  50  74
BRANCH  62  85
ATOM     85  C   UNL A   1      45.951  30.382  29.061  1.00  0.00     0.064 A 
ATOM     86  C   UNL A   1      47.311  30.151  28.792  1.00  0.00     0.173 A 
ATOM     87  C   UNL A   1      45.299  31.379  28.322  1.00  0.00     0.173 A 
ATOM     88  F   UNL A   1      47.984  29.214  29.479  1.00  0.00    -0.203 F 
ATOM     89  C   UNL A   1      47.997  30.891  27.838  1.00  0.00     0.198 A 
ATOM     90  C   UNL A   1      45.982  32.094  27.337  1.00  0.00     0.198 A 
ATOM     91  F   UNL A   1      44.016  31.691  28.558  1.00  0.00    -0.203 F 
ATOM     92  F   UNL A   1      49.304  30.674  27.637  1.00  0.00    -0.200 F 
ATOM     93  C   UNL A   1      47.330  31.858  27.105  1.00  0.00     0.200 A 
ATOM     94  F   UNL A   1      45.339  33.024  26.617  1.00  0.00    -0.200 F 
ATOM     95  F   UNL A   1      47.989  32.567  26.179  1.00  0.00    -0.200 F 
ENDBRANCH  62  85
ENDBRANCH  36  37
ENDBRANCH  29  31
ENDBRANCH  28  29
ENDBRANCH  27  28
ENDBRANCH  26  27
ENDBRANCH  25  26
ENDBRANCH  24  25
ENDBRANCH   1  24
TORSDOF 19
ENDMDL
