MODEL 1
REMARK VINA RESULT:     -10.0      0.000      0.000
REMARK SMILES O=C(CN1CSCC1=O)NCCCC(=O)OCCOCCOCCOC(=O)c1ccc(-c2c3nc(c(-c4c(F)c(F)c(F)c(F)c4F)c4ccc([nH]4)c(-c4c(F)c(F)c(F)c(F)c4F)c4nc(c(-c5c(F)c(F)c(F)c(F)c5F)c5ccc2[nH]5)C=C4)C=C3)cc1
REMARK SMILES IDX 19 1 18 2 17 3 16 4 14 5 15 6 13 7 12 8 11 9 10 10 1 11 2 12
REMARK SMILES IDX 3 14 4 15 5 16 8 17 6 18 7 19 9 20 20 21 21 22 22 23 23 24
REMARK SMILES IDX 24 25 25 26 26 27 27 28 28 29 29 30 90 31 30 32 89 33 31 34
REMARK SMILES IDX 32 35 33 36 83 37 34 38 88 39 82 40 84 41 35 42 87 43 81 44
REMARK SMILES IDX 80 45 36 47 68 48 48 49 67 50 49 51 52 52 66 53 85 54 50 55
REMARK SMILES IDX 51 56 65 58 86 59 53 60 37 61 38 62 46 63 39 64 40 65 44 66
REMARK SMILES IDX 47 67 41 68 42 69 45 70 43 71 69 72 70 73 78 74 71 75 72 76
REMARK SMILES IDX 76 77 79 78 73 79 74 80 77 81 75 82 54 83 55 84 63 85 56 86
REMARK SMILES IDX 57 87 61 88 64 89 58 90 59 91 62 92 60 93
REMARK H PARENT 10 13 84 46 52 57
REMARK Flexibility Score: inf
ROOT
ATOM      1  O   UNL A   1      31.036  26.696  22.922  1.00  0.00    -0.376 OA
ENDROOT
BRANCH   1   2
ATOM      2  C   UNL A   1      31.821  25.835  22.094  1.00  0.00     0.202 C 
BRANCH   2   3
ATOM      3  C   UNL A   1      32.492  24.643  22.800  1.00  0.00     0.261 C 
BRANCH   3   4
ATOM      4  O   UNL A   1      33.771  24.961  23.398  1.00  0.00    -0.463 OA
BRANCH   4   5
ATOM      5  C   UNL A   1      33.809  24.976  24.754  1.00  0.00     0.305 C 
ATOM      6  O   UNL A   1      32.848  25.231  25.472  1.00  0.00    -0.252 OA
BRANCH   5   7
ATOM      7  C   UNL A   1      35.135  24.546  25.358  1.00  0.00     0.124 C 
BRANCH   7   8
ATOM      8  C   UNL A   1      35.464  23.072  25.604  1.00  0.00     0.033 C 
BRANCH   8   9
ATOM      9  C   UNL A   1      34.341  22.206  26.149  1.00  0.00     0.116 C 
BRANCH   9  10
ATOM     10  N   UNL A   1      33.949  21.190  25.202  1.00  0.00    -0.355 N 
ATOM     11  O   UNL A   1      31.680  21.463  25.423  1.00  0.00    -0.273 OA
ATOM     12  C   UNL A   1      32.639  20.959  24.849  1.00  0.00     0.239 C 
ATOM     13  H   UNL A   1      34.651  20.636  24.789  1.00  0.00     0.163 HD
BRANCH  12  14
ATOM     14  C   UNL A   1      32.484  19.909  23.750  1.00  0.00     0.220 C 
BRANCH  14  15
ATOM     15  N   UNL A   1      32.605  18.513  24.177  1.00  0.00    -0.323 N 
ATOM     16  C   UNL A   1      32.695  18.142  25.570  1.00  0.00     0.190 C 
ATOM     17  C   UNL A   1      32.892  17.532  23.244  1.00  0.00     0.233 C 
ATOM     18  S   UNL A   1      33.392  16.492  25.650  1.00  0.00    -0.130 SA
ATOM     19  C   UNL A   1      33.204  16.198  23.879  1.00  0.00     0.171 C 
ATOM     20  O   UNL A   1      32.888  17.717  22.032  1.00  0.00    -0.274 OA
ENDBRANCH  14  15
ENDBRANCH  12  14
ENDBRANCH   9  10
ENDBRANCH   8   9
ENDBRANCH   7   8
ENDBRANCH   5   7
ENDBRANCH   4   5
ENDBRANCH   3   4
ENDBRANCH   2   3
ENDBRANCH   1   2
BRANCH   1  21
ATOM     21  C   UNL A   1      30.415  27.802  22.277  1.00  0.00     0.188 C 
BRANCH  21  22
ATOM     22  C   UNL A   1      30.804  29.184  22.802  1.00  0.00     0.188 C 
BRANCH  22  23
ATOM     23  O   UNL A   1      30.510  29.447  24.162  1.00  0.00    -0.376 OA
BRANCH  23  24
ATOM     24  C   UNL A   1      31.619  29.601  25.053  1.00  0.00     0.202 C 
BRANCH  24  25
ATOM     25  C   UNL A   1      31.644  30.805  26.027  1.00  0.00     0.261 C 
BRANCH  25  26
ATOM     26  O   UNL A   1      32.642  30.812  27.072  1.00  0.00    -0.460 OA
BRANCH  26  27
ATOM     27  C   UNL A   1      33.287  31.966  27.357  1.00  0.00     0.338 C 
ATOM     28  O   UNL A   1      32.803  33.087  27.344  1.00  0.00    -0.246 OA
BRANCH  27  29
ATOM     29  C   UNL A   1      34.598  31.624  27.986  1.00  0.00     0.060 A 
ATOM     30  C   UNL A   1      34.838  30.289  28.353  1.00  0.00     0.016 A 
ATOM     31  C   UNL A   1      35.622  32.567  28.125  1.00  0.00     0.016 A 
ATOM     32  C   UNL A   1      36.078  29.901  28.876  1.00  0.00     0.010 A 
ATOM     33  C   UNL A   1      36.852  32.183  28.672  1.00  0.00     0.010 A 
ATOM     34  C   UNL A   1      37.082  30.854  29.076  1.00  0.00    -0.014 A 
BRANCH  34  35
ATOM     35  C   UNL A   1      38.281  30.549  29.904  1.00  0.00     0.031 A 
ATOM     36  C   UNL A   1      39.289  29.584  29.343  1.00  0.00     0.074 A 
ATOM     37  C   UNL A   1      38.470  31.067  31.132  1.00  0.00     0.049 A 
ATOM     38  N   UNL A   1      40.307  29.001  29.923  1.00  0.00    -0.248 NA
ATOM     39  C   UNL A   1      39.111  29.218  27.928  1.00  0.00     0.031 C 
ATOM     40  C   UNL A   1      37.618  32.062  31.776  1.00  0.00     0.029 A 
ATOM     41  N   UNL A   1      39.439  30.795  32.071  1.00  0.00    -0.354 N 
ATOM     42  C   UNL A   1      40.872  28.182  28.954  1.00  0.00     0.074 A 
ATOM     43  C   UNL A   1      40.075  28.328  27.756  1.00  0.00     0.031 C 
ATOM     44  C   UNL A   1      38.083  32.295  33.018  1.00  0.00     0.029 A 
ATOM     45  C   UNL A   1      39.235  31.428  33.274  1.00  0.00     0.049 A 
ATOM     46  H   UNL A   1      40.206  30.202  31.899  1.00  0.00     0.167 HD
ATOM     47  C   UNL A   1      41.957  27.378  29.053  1.00  0.00     0.037 A 
ATOM     48  C   UNL A   1      39.875  31.289  34.455  1.00  0.00     0.037 A 
ATOM     49  C   UNL A   1      42.749  27.232  30.244  1.00  0.00     0.049 A 
ATOM     50  C   UNL A   1      41.022  30.312  34.574  1.00  0.00     0.074 A 
ATOM     51  C   UNL A   1      43.874  26.451  30.440  1.00  0.00     0.029 A 
ATOM     52  N   UNL A   1      42.494  27.875  31.446  1.00  0.00    -0.354 N 
ATOM     53  N   UNL A   1      41.555  29.541  33.657  1.00  0.00    -0.248 NA
ATOM     54  C   UNL A   1      41.652  30.178  35.898  1.00  0.00     0.031 C 
ATOM     55  C   UNL A   1      44.262  26.571  31.777  1.00  0.00     0.029 A 
ATOM     56  C   UNL A   1      43.424  27.485  32.395  1.00  0.00     0.049 A 
ATOM     57  H   UNL A   1      41.762  28.514  31.601  1.00  0.00     0.167 HD
ATOM     58  C   UNL A   1      42.602  28.868  34.278  1.00  0.00     0.074 A 
ATOM     59  C   UNL A   1      42.632  29.319  35.652  1.00  0.00     0.031 C 
ATOM     60  C   UNL A   1      43.463  27.962  33.754  1.00  0.00     0.037 A 
BRANCH  47  61
ATOM     61  C   UNL A   1      42.325  26.557  27.852  1.00  0.00     0.064 A 
ATOM     62  C   UNL A   1      41.752  25.300  27.608  1.00  0.00     0.173 A 
ATOM     63  C   UNL A   1      43.245  27.051  26.914  1.00  0.00     0.173 A 
ATOM     64  F   UNL A   1      40.879  24.775  28.481  1.00  0.00    -0.203 F 
ATOM     65  C   UNL A   1      42.108  24.557  26.485  1.00  0.00     0.198 A 
ATOM     66  C   UNL A   1      43.571  26.322  25.775  1.00  0.00     0.198 A 
ATOM     67  F   UNL A   1      43.821  28.249  27.098  1.00  0.00    -0.203 F 
ATOM     68  F   UNL A   1      41.588  23.336  26.301  1.00  0.00    -0.200 F 
ATOM     69  C   UNL A   1      43.010  25.071  25.566  1.00  0.00     0.200 A 
ATOM     70  F   UNL A   1      44.432  26.828  24.881  1.00  0.00    -0.200 F 
ATOM     71  F   UNL A   1      43.344  24.359  24.482  1.00  0.00    -0.200 F 
ENDBRANCH  47  61
BRANCH  48  72
ATOM     72  C   UNL A   1      39.431  32.068  35.645  1.00  0.00     0.064 A 
ATOM     73  C   UNL A   1      40.001  33.312  35.951  1.00  0.00     0.173 A 
ATOM     74  C   UNL A   1      38.458  31.566  36.525  1.00  0.00     0.173 A 
ATOM     75  F   UNL A   1      40.961  33.820  35.163  1.00  0.00    -0.203 F 
ATOM     76  C   UNL A   1      39.632  34.013  37.098  1.00  0.00     0.198 A 
ATOM     77  C   UNL A   1      38.065  32.285  37.652  1.00  0.00     0.198 A 
ATOM     78  F   UNL A   1      37.888  30.376  36.288  1.00  0.00    -0.203 F 
ATOM     79  F   UNL A   1      40.235  35.172  37.395  1.00  0.00    -0.200 F 
ATOM     80  C   UNL A   1      38.659  33.503  37.944  1.00  0.00     0.200 A 
ATOM     81  F   UNL A   1      37.119  31.791  38.463  1.00  0.00    -0.200 F 
ATOM     82  F   UNL A   1      38.303  34.179  39.045  1.00  0.00    -0.200 F 
ENDBRANCH  48  72
BRANCH  60  83
ATOM     83  C   UNL A   1      44.561  27.435  34.635  1.00  0.00     0.064 A 
ATOM     84  C   UNL A   1      45.761  28.136  34.831  1.00  0.00     0.173 A 
ATOM     85  C   UNL A   1      44.368  26.252  35.368  1.00  0.00     0.173 A 
ATOM     86  F   UNL A   1      46.000  29.266  34.149  1.00  0.00    -0.203 F 
ATOM     87  C   UNL A   1      46.729  27.666  35.715  1.00  0.00     0.198 A 
ATOM     88  C   UNL A   1      45.324  25.802  36.274  1.00  0.00     0.198 A 
ATOM     89  F   UNL A   1      43.235  25.548  35.225  1.00  0.00    -0.203 F 
ATOM     90  F   UNL A   1      47.881  28.334  35.862  1.00  0.00    -0.200 F 
ATOM     91  C   UNL A   1      46.504  26.507  36.444  1.00  0.00     0.200 A 
ATOM     92  F   UNL A   1      45.096  24.693  36.992  1.00  0.00    -0.200 F 
ATOM     93  F   UNL A   1      47.428  26.070  37.312  1.00  0.00    -0.200 F 
ENDBRANCH  60  83
ENDBRANCH  34  35
ENDBRANCH  27  29
ENDBRANCH  26  27
ENDBRANCH  25  26
ENDBRANCH  24  25
ENDBRANCH  23  24
ENDBRANCH  22  23
ENDBRANCH  21  22
ENDBRANCH   1  21
TORSDOF 22
ENDMDL
MODEL 2
REMARK VINA RESULT:      -9.6      1.725      7.688
REMARK SMILES O=C(CN1CSCC1=O)NCCCC(=O)OCCOCCOCCOC(=O)c1ccc(-c2c3nc(c(-c4c(F)c(F)c(F)c(F)c4F)c4ccc([nH]4)c(-c4c(F)c(F)c(F)c(F)c4F)c4nc(c(-c5c(F)c(F)c(F)c(F)c5F)c5ccc2[nH]5)C=C4)C=C3)cc1
REMARK SMILES IDX 19 1 18 2 17 3 16 4 14 5 15 6 13 7 12 8 11 9 10 10 1 11 2 12
REMARK SMILES IDX 3 14 4 15 5 16 8 17 6 18 7 19 9 20 20 21 21 22 22 23 23 24
REMARK SMILES IDX 24 25 25 26 26 27 27 28 28 29 29 30 90 31 30 32 89 33 31 34
REMARK SMILES IDX 32 35 33 36 83 37 34 38 88 39 82 40 84 41 35 42 87 43 81 44
REMARK SMILES IDX 80 45 36 47 68 48 48 49 67 50 49 51 52 52 66 53 85 54 50 55
REMARK SMILES IDX 51 56 65 58 86 59 53 60 37 61 38 62 46 63 39 64 40 65 44 66
REMARK SMILES IDX 47 67 41 68 42 69 45 70 43 71 69 72 70 73 78 74 71 75 72 76
REMARK SMILES IDX 76 77 79 78 73 79 74 80 77 81 75 82 54 83 55 84 63 85 56 86
REMARK SMILES IDX 57 87 61 88 64 89 58 90 59 91 62 92 60 93
REMARK H PARENT 10 13 84 46 52 57
REMARK Flexibility Score: inf
ROOT
ATOM      1  O   UNL A   1      30.978  29.598  24.477  1.00  0.00    -0.376 OA
ENDROOT
BRANCH   1   2
ATOM      2  C   UNL A   1      31.123  28.898  23.238  1.00  0.00     0.202 C 
BRANCH   2   3
ATOM      3  C   UNL A   1      30.073  27.812  22.946  1.00  0.00     0.261 C 
BRANCH   3   4
ATOM      4  O   UNL A   1      30.637  26.502  22.702  1.00  0.00    -0.463 OA
BRANCH   4   5
ATOM      5  C   UNL A   1      31.160  25.866  23.779  1.00  0.00     0.305 C 
ATOM      6  O   UNL A   1      30.498  25.261  24.616  1.00  0.00    -0.252 OA
BRANCH   5   7
ATOM      7  C   UNL A   1      32.678  25.859  23.840  1.00  0.00     0.124 C 
BRANCH   7   8
ATOM      8  C   UNL A   1      33.526  25.374  22.663  1.00  0.00     0.033 C 
BRANCH   8   9
ATOM      9  C   UNL A   1      33.402  23.906  22.294  1.00  0.00     0.116 C 
BRANCH   9  10
ATOM     10  N   UNL A   1      33.425  23.062  23.463  1.00  0.00    -0.355 N 
ATOM     11  O   UNL A   1      35.670  22.581  23.417  1.00  0.00    -0.273 OA
ATOM     12  C   UNL A   1      34.585  22.533  23.985  1.00  0.00     0.239 C 
ATOM     13  H   UNL A   1      32.572  22.854  23.910  1.00  0.00     0.163 HD
BRANCH  12  14
ATOM     14  C   UNL A   1      34.367  21.764  25.286  1.00  0.00     0.220 C 
BRANCH  14  15
ATOM     15  N   UNL A   1      34.060  20.338  25.143  1.00  0.00    -0.323 N 
ATOM     16  C   UNL A   1      35.093  19.348  24.941  1.00  0.00     0.190 C 
ATOM     17  C   UNL A   1      32.752  19.934  24.942  1.00  0.00     0.233 C 
ATOM     18  S   UNL A   1      34.317  17.885  24.255  1.00  0.00    -0.130 SA
ATOM     19  C   UNL A   1      32.643  18.469  24.590  1.00  0.00     0.171 C 
ATOM     20  O   UNL A   1      31.782  20.676  25.044  1.00  0.00    -0.274 OA
ENDBRANCH  14  15
ENDBRANCH  12  14
ENDBRANCH   9  10
ENDBRANCH   8   9
ENDBRANCH   7   8
ENDBRANCH   5   7
ENDBRANCH   4   5
ENDBRANCH   3   4
ENDBRANCH   2   3
ENDBRANCH   1   2
BRANCH   1  21
ATOM     21  C   UNL A   1      31.907  29.268  25.503  1.00  0.00     0.188 C 
BRANCH  21  22
ATOM     22  C   UNL A   1      32.398  30.436  26.358  1.00  0.00     0.188 C 
BRANCH  22  23
ATOM     23  O   UNL A   1      31.401  31.297  26.880  1.00  0.00    -0.376 OA
BRANCH  23  24
ATOM     24  C   UNL A   1      31.585  32.703  26.688  1.00  0.00     0.202 C 
BRANCH  24  25
ATOM     25  C   UNL A   1      32.655  33.446  27.526  1.00  0.00     0.261 C 
BRANCH  25  26
ATOM     26  O   UNL A   1      32.229  34.576  28.319  1.00  0.00    -0.460 OA
BRANCH  26  27
ATOM     27  C   UNL A   1      33.156  35.463  28.748  1.00  0.00     0.338 C 
ATOM     28  O   UNL A   1      33.040  36.679  28.766  1.00  0.00    -0.246 OA
BRANCH  27  29
ATOM     29  C   UNL A   1      34.219  34.710  29.478  1.00  0.00     0.060 A 
ATOM     30  C   UNL A   1      35.503  34.641  28.911  1.00  0.00     0.016 A 
ATOM     31  C   UNL A   1      34.001  34.163  30.747  1.00  0.00     0.016 A 
ATOM     32  C   UNL A   1      36.555  34.012  29.590  1.00  0.00     0.010 A 
ATOM     33  C   UNL A   1      35.046  33.513  31.415  1.00  0.00     0.010 A 
ATOM     34  C   UNL A   1      36.324  33.409  30.832  1.00  0.00    -0.014 A 
BRANCH  34  35
ATOM     35  C   UNL A   1      37.317  32.477  31.432  1.00  0.00     0.031 A 
ATOM     36  C   UNL A   1      37.821  32.791  32.815  1.00  0.00     0.074 A 
ATOM     37  C   UNL A   1      37.801  31.407  30.777  1.00  0.00     0.049 A 
ATOM     38  N   UNL A   1      38.815  32.267  33.485  1.00  0.00    -0.248 NA
ATOM     39  C   UNL A   1      37.104  33.857  33.534  1.00  0.00     0.031 C 
ATOM     40  C   UNL A   1      37.360  30.940  29.466  1.00  0.00     0.029 A 
ATOM     41  N   UNL A   1      38.804  30.530  31.127  1.00  0.00    -0.354 N 
ATOM     42  C   UNL A   1      38.858  32.957  34.691  1.00  0.00     0.074 A 
ATOM     43  C   UNL A   1      37.806  33.948  34.653  1.00  0.00     0.031 C 
ATOM     44  C   UNL A   1      38.109  29.881  29.106  1.00  0.00     0.029 A 
ATOM     45  C   UNL A   1      39.115  29.626  30.139  1.00  0.00     0.049 A 
ATOM     46  H   UNL A   1      39.255  30.548  32.001  1.00  0.00     0.167 HD
ATOM     47  C   UNL A   1      39.702  32.783  35.735  1.00  0.00     0.037 A 
ATOM     48  C   UNL A   1      40.123  28.731  30.059  1.00  0.00     0.037 A 
ATOM     49  C   UNL A   1      40.750  31.799  35.773  1.00  0.00     0.049 A 
ATOM     50  C   UNL A   1      41.117  28.620  31.193  1.00  0.00     0.074 A 
ATOM     51  C   UNL A   1      41.649  31.537  36.791  1.00  0.00     0.029 A 
ATOM     52  N   UNL A   1      41.045  30.920  34.742  1.00  0.00    -0.354 N 
ATOM     53  N   UNL A   1      41.155  29.271  32.330  1.00  0.00    -0.248 NA
ATOM     54  C   UNL A   1      42.214  27.653  31.028  1.00  0.00     0.031 C 
ATOM     55  C   UNL A   1      42.529  30.545  36.352  1.00  0.00     0.029 A 
ATOM     56  C   UNL A   1      42.132  30.135  35.089  1.00  0.00     0.049 A 
ATOM     57  H   UNL A   1      40.555  30.862  33.890  1.00  0.00     0.167 HD
ATOM     58  C   UNL A   1      42.247  28.766  33.029  1.00  0.00     0.074 A 
ATOM     59  C   UNL A   1      42.847  27.753  32.189  1.00  0.00     0.031 C 
ATOM     60  C   UNL A   1      42.706  29.108  34.258  1.00  0.00     0.037 A 
BRANCH  47  61
ATOM     61  C   UNL A   1      39.556  33.708  36.908  1.00  0.00     0.064 A 
ATOM     62  C   UNL A   1      40.187  34.961  36.948  1.00  0.00     0.173 A 
ATOM     63  C   UNL A   1      38.746  33.347  37.996  1.00  0.00     0.173 A 
ATOM     64  F   UNL A   1      40.984  35.348  35.941  1.00  0.00    -0.203 F 
ATOM     65  C   UNL A   1      40.035  35.804  38.046  1.00  0.00     0.198 A 
ATOM     66  C   UNL A   1      38.569  34.206  39.075  1.00  0.00     0.198 A 
ATOM     67  F   UNL A   1      38.118  32.161  38.006  1.00  0.00    -0.203 F 
ATOM     68  F   UNL A   1      40.690  36.972  38.086  1.00  0.00    -0.200 F 
ATOM     69  C   UNL A   1      39.220  35.430  39.104  1.00  0.00     0.200 A 
ATOM     70  F   UNL A   1      37.769  33.849  40.089  1.00  0.00    -0.200 F 
ATOM     71  F   UNL A   1      39.068  36.246  40.155  1.00  0.00    -0.200 F 
ENDBRANCH  47  61
BRANCH  48  72
ATOM     72  C   UNL A   1      40.279  27.882  28.844  1.00  0.00     0.064 A 
ATOM     73  C   UNL A   1      41.030  28.321  27.745  1.00  0.00     0.173 A 
ATOM     74  C   UNL A   1      39.645  26.634  28.740  1.00  0.00     0.173 A 
ATOM     75  F   UNL A   1      41.627  29.522  27.779  1.00  0.00    -0.203 F 
ATOM     76  C   UNL A   1      41.126  27.555  26.583  1.00  0.00     0.198 A 
ATOM     77  C   UNL A   1      39.770  25.855  27.592  1.00  0.00     0.198 A 
ATOM     78  F   UNL A   1      38.904  26.170  29.756  1.00  0.00    -0.203 F 
ATOM     79  F   UNL A   1      41.804  28.026  25.528  1.00  0.00    -0.200 F 
ATOM     80  C   UNL A   1      40.502  26.319  26.510  1.00  0.00     0.200 A 
ATOM     81  F   UNL A   1      39.171  24.657  27.528  1.00  0.00    -0.200 F 
ATOM     82  F   UNL A   1      40.596  25.584  25.394  1.00  0.00    -0.200 F 
ENDBRANCH  48  72
BRANCH  60  83
ATOM     83  C   UNL A   1      43.876  28.346  34.815  1.00  0.00     0.064 A 
ATOM     84  C   UNL A   1      45.188  28.836  34.739  1.00  0.00     0.173 A 
ATOM     85  C   UNL A   1      43.663  27.148  35.518  1.00  0.00     0.173 A 
ATOM     86  F   UNL A   1      45.447  29.970  34.071  1.00  0.00    -0.203 F 
ATOM     87  C   UNL A   1      46.244  28.149  35.335  1.00  0.00     0.198 A 
ATOM     88  C   UNL A   1      44.716  26.482  36.138  1.00  0.00     0.198 A 
ATOM     89  F   UNL A   1      42.427  26.640  35.628  1.00  0.00    -0.203 F 
ATOM     90  F   UNL A   1      47.494  28.619  35.222  1.00  0.00    -0.200 F 
ATOM     91  C   UNL A   1      46.006  26.981  36.043  1.00  0.00     0.200 A 
ATOM     92  F   UNL A   1      44.480  25.364  36.839  1.00  0.00    -0.200 F 
ATOM     93  F   UNL A   1      47.020  26.335  36.634  1.00  0.00    -0.200 F 
ENDBRANCH  60  83
ENDBRANCH  34  35
ENDBRANCH  27  29
ENDBRANCH  26  27
ENDBRANCH  25  26
ENDBRANCH  24  25
ENDBRANCH  23  24
ENDBRANCH  22  23
ENDBRANCH  21  22
ENDBRANCH   1  21
TORSDOF 22
ENDMDL
MODEL 3
REMARK VINA RESULT:      -9.6      1.880      7.760
REMARK SMILES O=C(CN1CSCC1=O)NCCCC(=O)OCCOCCOCCOC(=O)c1ccc(-c2c3nc(c(-c4c(F)c(F)c(F)c(F)c4F)c4ccc([nH]4)c(-c4c(F)c(F)c(F)c(F)c4F)c4nc(c(-c5c(F)c(F)c(F)c(F)c5F)c5ccc2[nH]5)C=C4)C=C3)cc1
REMARK SMILES IDX 19 1 18 2 17 3 16 4 14 5 15 6 13 7 12 8 11 9 10 10 1 11 2 12
REMARK SMILES IDX 3 14 4 15 5 16 8 17 6 18 7 19 9 20 20 21 21 22 22 23 23 24
REMARK SMILES IDX 24 25 25 26 26 27 27 28 28 29 29 30 90 31 30 32 89 33 31 34
REMARK SMILES IDX 32 35 33 36 83 37 34 38 88 39 82 40 84 41 35 42 87 43 81 44
REMARK SMILES IDX 80 45 36 47 68 48 48 49 67 50 49 51 52 52 66 53 85 54 50 55
REMARK SMILES IDX 51 56 65 58 86 59 53 60 37 61 38 62 46 63 39 64 40 65 44 66
REMARK SMILES IDX 47 67 41 68 42 69 45 70 43 71 69 72 70 73 78 74 71 75 72 76
REMARK SMILES IDX 76 77 79 78 73 79 74 80 77 81 75 82 54 83 55 84 63 85 56 86
REMARK SMILES IDX 57 87 61 88 64 89 58 90 59 91 62 92 60 93
REMARK H PARENT 10 13 84 46 52 57
REMARK Flexibility Score: inf
ROOT
ATOM      1  O   UNL A   1      31.050  29.231  24.577  1.00  0.00    -0.376 OA
ENDROOT
BRANCH   1   2
ATOM      2  C   UNL A   1      31.272  27.908  24.083  1.00  0.00     0.202 C 
BRANCH   2   3
ATOM      3  C   UNL A   1      30.063  26.957  24.128  1.00  0.00     0.261 C 
BRANCH   3   4
ATOM      4  O   UNL A   1      30.406  25.590  24.457  1.00  0.00    -0.463 OA
BRANCH   4   5
ATOM      5  C   UNL A   1      30.381  25.268  25.774  1.00  0.00     0.305 C 
ATOM      6  O   UNL A   1      29.468  25.554  26.541  1.00  0.00    -0.252 OA
BRANCH   5   7
ATOM      7  C   UNL A   1      31.546  24.413  26.243  1.00  0.00     0.124 C 
BRANCH   7   8
ATOM      8  C   UNL A   1      31.354  22.955  26.663  1.00  0.00     0.033 C 
BRANCH   8   9
ATOM      9  C   UNL A   1      31.473  21.910  25.567  1.00  0.00     0.116 C 
BRANCH   9  10
ATOM     10  N   UNL A   1      32.804  21.874  25.011  1.00  0.00    -0.355 N 
ATOM     11  O   UNL A   1      33.654  20.277  26.425  1.00  0.00    -0.273 OA
ATOM     12  C   UNL A   1      33.770  20.989  25.434  1.00  0.00     0.239 C 
ATOM     13  H   UNL A   1      33.032  22.512  24.297  1.00  0.00     0.163 HD
BRANCH  12  14
ATOM     14  C   UNL A   1      35.062  21.069  24.622  1.00  0.00     0.220 C 
BRANCH  14  15
ATOM     15  N   UNL A   1      36.191  21.733  25.280  1.00  0.00    -0.323 N 
ATOM     16  C   UNL A   1      36.126  23.110  25.711  1.00  0.00     0.190 C 
ATOM     17  C   UNL A   1      37.437  21.132  25.274  1.00  0.00     0.233 C 
ATOM     18  S   UNL A   1      37.808  23.696  25.916  1.00  0.00    -0.130 SA
ATOM     19  C   UNL A   1      38.525  22.045  25.790  1.00  0.00     0.171 C 
ATOM     20  O   UNL A   1      37.643  19.983  24.901  1.00  0.00    -0.274 OA
ENDBRANCH  14  15
ENDBRANCH  12  14
ENDBRANCH   9  10
ENDBRANCH   8   9
ENDBRANCH   7   8
ENDBRANCH   5   7
ENDBRANCH   4   5
ENDBRANCH   3   4
ENDBRANCH   2   3
ENDBRANCH   1   2
BRANCH   1  21
ATOM     21  C   UNL A   1      32.184  29.906  25.111  1.00  0.00     0.188 C 
BRANCH  21  22
ATOM     22  C   UNL A   1      32.056  30.377  26.560  1.00  0.00     0.188 C 
BRANCH  22  23
ATOM     23  O   UNL A   1      31.065  31.354  26.821  1.00  0.00    -0.376 OA
BRANCH  23  24
ATOM     24  C   UNL A   1      31.416  32.721  26.588  1.00  0.00     0.202 C 
BRANCH  24  25
ATOM     25  C   UNL A   1      32.694  33.295  27.248  1.00  0.00     0.261 C 
BRANCH  25  26
ATOM     26  O   UNL A   1      32.533  34.256  28.315  1.00  0.00    -0.460 OA
BRANCH  26  27
ATOM     27  C   UNL A   1      33.610  34.959  28.734  1.00  0.00     0.338 C 
ATOM     28  O   UNL A   1      33.647  36.157  28.965  1.00  0.00    -0.246 OA
BRANCH  27  29
ATOM     29  C   UNL A   1      34.660  33.988  29.164  1.00  0.00     0.060 A 
ATOM     30  C   UNL A   1      34.257  32.797  29.792  1.00  0.00     0.016 A 
ATOM     31  C   UNL A   1      36.014  34.182  28.871  1.00  0.00     0.016 A 
ATOM     32  C   UNL A   1      35.196  31.819  30.146  1.00  0.00     0.010 A 
ATOM     33  C   UNL A   1      36.955  33.216  29.248  1.00  0.00     0.010 A 
ATOM     34  C   UNL A   1      36.557  32.040  29.911  1.00  0.00    -0.014 A 
BRANCH  34  35
ATOM     35  C   UNL A   1      37.597  31.181  30.543  1.00  0.00     0.031 A 
ATOM     36  C   UNL A   1      37.921  31.429  31.991  1.00  0.00     0.074 A 
ATOM     37  C   UNL A   1      38.273  30.236  29.864  1.00  0.00     0.049 A 
ATOM     38  N   UNL A   1      38.903  30.968  32.723  1.00  0.00    -0.248 NA
ATOM     39  C   UNL A   1      37.010  32.337  32.708  1.00  0.00     0.031 C 
ATOM     40  C   UNL A   1      38.023  29.838  28.482  1.00  0.00     0.029 A 
ATOM     41  N   UNL A   1      39.338  29.455  30.252  1.00  0.00    -0.354 N 
ATOM     42  C   UNL A   1      38.743  31.550  33.974  1.00  0.00     0.074 A 
ATOM     43  C   UNL A   1      37.583  32.410  33.898  1.00  0.00     0.031 C 
ATOM     44  C   UNL A   1      38.930  28.910  28.125  1.00  0.00     0.029 A 
ATOM     45  C   UNL A   1      39.855  28.685  29.238  1.00  0.00     0.049 A 
ATOM     46  H   UNL A   1      39.697  29.449  31.168  1.00  0.00     0.167 HD
ATOM     47  C   UNL A   1      39.496  31.385  35.086  1.00  0.00     0.037 A 
ATOM     48  C   UNL A   1      40.970  27.924  29.199  1.00  0.00     0.037 A 
ATOM     49  C   UNL A   1      40.650  30.530  35.162  1.00  0.00     0.049 A 
ATOM     50  C   UNL A   1      41.855  27.831  30.421  1.00  0.00     0.074 A 
ATOM     51  C   UNL A   1      41.472  30.287  36.248  1.00  0.00     0.029 A 
ATOM     52  N   UNL A   1      41.152  29.785  34.105  1.00  0.00    -0.354 N 
ATOM     53  N   UNL A   1      41.701  28.379  31.602  1.00  0.00    -0.248 NA
ATOM     54  C   UNL A   1      43.076  27.017  30.302  1.00  0.00     0.031 C 
ATOM     55  C   UNL A   1      42.507  29.446  35.832  1.00  0.00     0.029 A 
ATOM     56  C   UNL A   1      42.289  29.106  34.507  1.00  0.00     0.049 A 
ATOM     57  H   UNL A   1      40.758  29.746  33.204  1.00  0.00     0.167 HD
ATOM     58  C   UNL A   1      42.775  27.946  32.373  1.00  0.00     0.074 A 
ATOM     59  C   UNL A   1      43.576  27.088  31.528  1.00  0.00     0.031 C 
ATOM     60  C   UNL A   1      43.066  28.230  33.666  1.00  0.00     0.037 A 
BRANCH  47  61
ATOM     61  C   UNL A   1      39.122  32.180  36.303  1.00  0.00     0.064 A 
ATOM     62  C   UNL A   1      39.667  33.448  36.558  1.00  0.00     0.173 A 
ATOM     63  C   UNL A   1      38.180  31.676  37.214  1.00  0.00     0.173 A 
ATOM     64  F   UNL A   1      40.583  33.968  35.728  1.00  0.00    -0.203 F 
ATOM     65  C   UNL A   1      39.303  34.168  37.692  1.00  0.00     0.198 A 
ATOM     66  C   UNL A   1      37.793  32.414  38.327  1.00  0.00     0.198 A 
ATOM     67  F   UNL A   1      37.626  30.470  37.016  1.00  0.00    -0.203 F 
ATOM     68  F   UNL A   1      39.877  35.353  37.943  1.00  0.00    -0.200 F 
ATOM     69  C   UNL A   1      38.361  33.655  38.571  1.00  0.00     0.200 A 
ATOM     70  F   UNL A   1      36.871  31.923  39.167  1.00  0.00    -0.200 F 
ATOM     71  F   UNL A   1      38.005  34.354  39.658  1.00  0.00    -0.200 F 
ENDBRANCH  47  61
BRANCH  48  72
ATOM     72  C   UNL A   1      41.348  27.209  27.947  1.00  0.00     0.064 A 
ATOM     73  C   UNL A   1      41.067  25.846  27.778  1.00  0.00     0.173 A 
ATOM     74  C   UNL A   1      42.036  27.862  26.912  1.00  0.00     0.173 A 
ATOM     75  F   UNL A   1      40.443  25.166  28.753  1.00  0.00    -0.203 F 
ATOM     76  C   UNL A   1      41.474  25.160  26.635  1.00  0.00     0.198 A 
ATOM     77  C   UNL A   1      42.412  27.184  25.755  1.00  0.00     0.198 A 
ATOM     78  F   UNL A   1      42.342  29.163  27.025  1.00  0.00    -0.203 F 
ATOM     79  F   UNL A   1      41.242  23.845  26.527  1.00  0.00    -0.200 F 
ATOM     80  C   UNL A   1      42.140  25.831  25.620  1.00  0.00     0.200 A 
ATOM     81  F   UNL A   1      43.049  27.838  24.774  1.00  0.00    -0.200 F 
ATOM     82  F   UNL A   1      42.530  25.172  24.521  1.00  0.00    -0.200 F 
ENDBRANCH  48  72
BRANCH  60  83
ATOM     83  C   UNL A   1      44.262  27.565  34.286  1.00  0.00     0.064 A 
ATOM     84  C   UNL A   1      45.519  28.185  34.334  1.00  0.00     0.173 A 
ATOM     85  C   UNL A   1      44.122  26.321  34.925  1.00  0.00     0.173 A 
ATOM     86  F   UNL A   1      45.710  29.369  33.731  1.00  0.00    -0.203 F 
ATOM     87  C   UNL A   1      46.592  27.581  34.985  1.00  0.00     0.198 A 
ATOM     88  C   UNL A   1      45.187  25.736  35.603  1.00  0.00     0.198 A 
ATOM     89  F   UNL A   1      42.939  25.688  34.917  1.00  0.00    -0.203 F 
ATOM     90  F   UNL A   1      47.792  28.177  34.991  1.00  0.00    -0.200 F 
ATOM     91  C   UNL A   1      46.422  26.364  35.629  1.00  0.00     0.200 A 
ATOM     92  F   UNL A   1      45.015  24.569  36.240  1.00  0.00    -0.200 F 
ATOM     93  F   UNL A   1      47.450  25.796  36.275  1.00  0.00    -0.200 F 
ENDBRANCH  60  83
ENDBRANCH  34  35
ENDBRANCH  27  29
ENDBRANCH  26  27
ENDBRANCH  25  26
ENDBRANCH  24  25
ENDBRANCH  23  24
ENDBRANCH  22  23
ENDBRANCH  21  22
ENDBRANCH   1  21
TORSDOF 22
ENDMDL
