MODEL 1
REMARK VINA RESULT:     -10.2      0.000      0.000
REMARK SMILES CCCC[C@H]([NH3+])C(=O)Nc1snc(C)c1C(=O)OCCOCCOCCOC(=O)c1ccc(-c2c3nc(c(-c4c(F)c(F)c(F)c(F)c4F)c4ccc([nH]4)c(-c4c(F)c(F)c(F)c(F)c4F)c4nc(c(-c5c(F)c(F)c(F)c(F)c5F)c5ccc2[nH]5)C=C4)C=C3)cc1
REMARK SMILES IDX 21 1 20 2 19 3 18 4 16 5 17 6 15 7 10 8 11 9 12 10 13 11
REMARK SMILES IDX 14 12 9 13 7 14 8 15 5 17 4 18 3 19 2 20 1 21 6 22 22 26
REMARK SMILES IDX 23 27 24 28 25 29 26 30 27 31 28 32 29 33 30 34 31 35 92 36
REMARK SMILES IDX 32 37 91 38 33 39 34 40 35 41 85 42 36 43 90 44 84 45 86 46
REMARK SMILES IDX 37 47 89 48 83 49 82 50 38 52 70 53 50 54 69 55 51 56 54 57
REMARK SMILES IDX 68 58 87 59 52 60 53 61 67 63 88 64 55 65 39 66 40 67 48 68
REMARK SMILES IDX 41 69 42 70 46 71 49 72 43 73 44 74 47 75 45 76 71 77 72 78
REMARK SMILES IDX 80 79 73 80 74 81 78 82 81 83 75 84 76 85 79 86 77 87 56 88
REMARK SMILES IDX 57 89 65 90 58 91 59 92 63 93 66 94 60 95 61 96 64 97 62 98
REMARK H PARENT 9 16 6 23 6 24 6 25 86 51 54 62
REMARK Flexibility Score: inf
ROOT
ATOM      1  O   UNL A   1      39.623  22.019  25.983  1.00  0.00    -0.376 OA
ENDROOT
BRANCH   1   2
ATOM      2  C   UNL A   1      38.214  21.917  25.870  1.00  0.00     0.202 C 
BRANCH   2   3
ATOM      3  C   UNL A   1      37.300  23.156  25.877  1.00  0.00     0.261 C 
BRANCH   3   4
ATOM      4  O   UNL A   1      35.939  22.974  26.279  1.00  0.00    -0.460 OA
BRANCH   4   5
ATOM      5  C   UNL A   1      35.159  22.087  25.586  1.00  0.00     0.343 C 
ATOM      6  O   UNL A   1      35.085  20.904  25.827  1.00  0.00    -0.246 OA
BRANCH   5   7
ATOM      7  C   UNL A   1      34.379  22.757  24.558  1.00  0.00     0.117 A 
ATOM      8  C   UNL A   1      33.021  22.991  24.615  1.00  0.00     0.131 A 
ATOM      9  S   UNL A   1      32.462  23.474  23.083  1.00  0.00    -0.017 S 
ATOM     10  N   UNL A   1      33.961  23.583  22.387  1.00  0.00    -0.195 NA
ATOM     11  C   UNL A   1      34.877  23.149  23.257  1.00  0.00     0.068 A 
ATOM     12  C   UNL A   1      36.279  23.022  22.769  1.00  0.00     0.069 C 
BRANCH   8  13
ATOM     13  N   UNL A   1      32.057  22.859  25.582  1.00  0.00    -0.310 N 
ATOM     14  C   UNL A   1      31.484  23.850  26.323  1.00  0.00     0.283 C 
ATOM     15  O   UNL A   1      31.161  23.588  27.489  1.00  0.00    -0.268 OA
ATOM     16  H   UNL A   1      31.743  21.944  25.761  1.00  0.00     0.171 HD
BRANCH  14  17
ATOM     17  C   UNL A   1      31.117  25.242  25.725  1.00  0.00     0.271 C 
BRANCH  17  18
ATOM     18  C   UNL A   1      31.801  26.483  26.312  1.00  0.00     0.075 C 
BRANCH  18  19
ATOM     19  C   UNL A   1      32.403  27.400  25.243  1.00  0.00     0.006 C 
BRANCH  19  20
ATOM     20  C   UNL A   1      33.532  26.762  24.425  1.00  0.00    -0.003 C 
ATOM     21  C   UNL A   1      33.551  27.201  22.966  1.00  0.00     0.004 C 
ENDBRANCH  19  20
ENDBRANCH  18  19
ENDBRANCH  17  18
BRANCH  17  22
ATOM     22  N   UNL A   1      29.673  25.451  25.563  1.00  0.00    -0.347 N 
ATOM     23  H   UNL A   1      29.338  26.090  26.284  1.00  0.00     0.345 HD
ATOM     24  H   UNL A   1      29.189  24.556  25.649  1.00  0.00     0.345 HD
ATOM     25  H   UNL A   1      29.488  25.849  24.643  1.00  0.00     0.345 HD
ENDBRANCH  17  22
ENDBRANCH  14  17
ENDBRANCH   8  13
ENDBRANCH   5   7
ENDBRANCH   4   5
ENDBRANCH   3   4
ENDBRANCH   2   3
ENDBRANCH   1   2
BRANCH   1  26
ATOM     26  C   UNL A   1      40.310  21.059  26.752  1.00  0.00     0.188 C 
BRANCH  26  27
ATOM     27  C   UNL A   1      40.637  19.757  25.983  1.00  0.00     0.188 C 
BRANCH  27  28
ATOM     28  O   UNL A   1      41.946  19.443  25.522  1.00  0.00    -0.376 OA
BRANCH  28  29
ATOM     29  C   UNL A   1      43.102  20.153  25.950  1.00  0.00     0.202 C 
BRANCH  29  30
ATOM     30  C   UNL A   1      43.698  21.287  25.114  1.00  0.00     0.261 C 
BRANCH  30  31
ATOM     31  O   UNL A   1      42.810  22.361  24.890  1.00  0.00    -0.460 OA
BRANCH  31  32
ATOM     32  C   UNL A   1      43.358  23.571  25.103  1.00  0.00     0.338 C 
ATOM     33  O   UNL A   1      44.337  24.057  24.565  1.00  0.00    -0.246 OA
BRANCH  32  34
ATOM     34  C   UNL A   1      42.592  24.239  26.158  1.00  0.00     0.060 A 
ATOM     35  C   UNL A   1      41.589  25.105  25.726  1.00  0.00     0.016 A 
ATOM     36  C   UNL A   1      43.092  24.251  27.467  1.00  0.00     0.016 A 
ATOM     37  C   UNL A   1      41.330  26.202  26.503  1.00  0.00     0.010 A 
ATOM     38  C   UNL A   1      42.846  25.356  28.237  1.00  0.00     0.010 A 
ATOM     39  C   UNL A   1      42.065  26.363  27.684  1.00  0.00    -0.014 A 
BRANCH  39  40
ATOM     40  C   UNL A   1      41.937  27.621  28.373  1.00  0.00     0.031 A 
ATOM     41  C   UNL A   1      43.068  28.516  28.087  1.00  0.00     0.074 A 
ATOM     42  C   UNL A   1      40.872  27.909  29.143  1.00  0.00     0.049 A 
ATOM     43  N   UNL A   1      43.988  28.886  28.910  1.00  0.00    -0.248 NA
ATOM     44  C   UNL A   1      43.328  28.870  26.682  1.00  0.00     0.031 C 
ATOM     45  C   UNL A   1      39.621  27.160  29.283  1.00  0.00     0.029 A 
ATOM     46  N   UNL A   1      40.652  29.011  29.907  1.00  0.00    -0.354 N 
ATOM     47  C   UNL A   1      44.826  29.710  28.172  1.00  0.00     0.074 A 
ATOM     48  C   UNL A   1      44.502  29.491  26.787  1.00  0.00     0.031 C 
ATOM     49  C   UNL A   1      38.698  27.946  29.885  1.00  0.00     0.029 A 
ATOM     50  C   UNL A   1      39.325  29.198  30.273  1.00  0.00     0.049 A 
ATOM     51  H   UNL A   1      41.372  29.624  30.179  1.00  0.00     0.167 HD
ATOM     52  C   UNL A   1      45.474  30.730  28.789  1.00  0.00     0.037 A 
ATOM     53  C   UNL A   1      38.795  30.345  30.770  1.00  0.00     0.037 A 
ATOM     54  C   UNL A   1      45.589  30.482  30.209  1.00  0.00     0.049 A 
ATOM     55  C   UNL A   1      39.920  31.172  31.284  1.00  0.00     0.074 A 
ATOM     56  C   UNL A   1      46.124  29.457  30.968  1.00  0.00     0.029 A 
ATOM     57  N   UNL A   1      44.761  31.175  31.057  1.00  0.00    -0.354 N 
ATOM     58  N   UNL A   1      40.605  30.874  32.353  1.00  0.00    -0.248 NA
ATOM     59  C   UNL A   1      40.593  32.060  30.344  1.00  0.00     0.031 C 
ATOM     60  C   UNL A   1      45.235  29.304  32.072  1.00  0.00     0.029 A 
ATOM     61  C   UNL A   1      44.251  30.286  31.967  1.00  0.00     0.049 A 
ATOM     62  H   UNL A   1      44.567  32.140  31.019  1.00  0.00     0.167 HD
ATOM     63  C   UNL A   1      41.922  31.141  32.010  1.00  0.00     0.074 A 
ATOM     64  C   UNL A   1      41.845  31.950  30.796  1.00  0.00     0.031 C 
ATOM     65  C   UNL A   1      42.946  30.429  32.564  1.00  0.00     0.037 A 
BRANCH  52  66
ATOM     66  C   UNL A   1      45.563  32.116  28.193  1.00  0.00     0.064 A 
ATOM     67  C   UNL A   1      44.372  32.737  27.775  1.00  0.00     0.173 A 
ATOM     68  C   UNL A   1      46.757  32.710  27.719  1.00  0.00     0.173 A 
ATOM     69  F   UNL A   1      43.181  32.256  28.159  1.00  0.00    -0.203 F 
ATOM     70  C   UNL A   1      44.375  33.791  26.859  1.00  0.00     0.198 A 
ATOM     71  C   UNL A   1      46.755  33.796  26.850  1.00  0.00     0.198 A 
ATOM     72  F   UNL A   1      47.970  32.209  27.974  1.00  0.00    -0.203 F 
ATOM     73  F   UNL A   1      43.214  34.248  26.373  1.00  0.00    -0.200 F 
ATOM     74  C   UNL A   1      45.566  34.311  26.388  1.00  0.00     0.200 A 
ATOM     75  F   UNL A   1      47.923  34.273  26.395  1.00  0.00    -0.200 F 
ATOM     76  F   UNL A   1      45.570  35.270  25.454  1.00  0.00    -0.200 F 
ENDBRANCH  52  66
BRANCH  53  77
ATOM     77  C   UNL A   1      37.441  30.911  30.551  1.00  0.00     0.064 A 
ATOM     78  C   UNL A   1      36.615  31.247  31.638  1.00  0.00     0.173 A 
ATOM     79  C   UNL A   1      37.035  31.393  29.291  1.00  0.00     0.173 A 
ATOM     80  F   UNL A   1      36.949  30.869  32.882  1.00  0.00    -0.203 F 
ATOM     81  C   UNL A   1      35.476  32.044  31.479  1.00  0.00     0.198 A 
ATOM     82  C   UNL A   1      35.892  32.177  29.132  1.00  0.00     0.198 A 
ATOM     83  F   UNL A   1      37.788  31.198  28.201  1.00  0.00    -0.203 F 
ATOM     84  F   UNL A   1      34.754  32.400  32.550  1.00  0.00    -0.200 F 
ATOM     85  C   UNL A   1      35.121  32.516  30.227  1.00  0.00     0.200 A 
ATOM     86  F   UNL A   1      35.580  32.659  27.919  1.00  0.00    -0.200 F 
ATOM     87  F   UNL A   1      34.066  33.330  30.081  1.00  0.00    -0.200 F 
ENDBRANCH  53  77
BRANCH  65  88
ATOM     88  C   UNL A   1      42.637  29.570  33.758  1.00  0.00     0.064 A 
ATOM     89  C   UNL A   1      42.140  28.256  33.685  1.00  0.00     0.173 A 
ATOM     90  C   UNL A   1      42.960  30.066  35.027  1.00  0.00     0.173 A 
ATOM     91  F   UNL A   1      41.912  27.667  32.503  1.00  0.00    -0.203 F 
ATOM     92  C   UNL A   1      41.916  27.505  34.838  1.00  0.00     0.198 A 
ATOM     93  C   UNL A   1      42.777  29.299  36.173  1.00  0.00     0.198 A 
ATOM     94  F   UNL A   1      43.493  31.292  35.155  1.00  0.00    -0.203 F 
ATOM     95  F   UNL A   1      41.410  26.266  34.745  1.00  0.00    -0.200 F 
ATOM     96  C   UNL A   1      42.238  28.026  36.080  1.00  0.00     0.200 A 
ATOM     97  F   UNL A   1      43.140  29.788  37.366  1.00  0.00    -0.200 F 
ATOM     98  F   UNL A   1      42.052  27.293  37.187  1.00  0.00    -0.200 F 
ENDBRANCH  65  88
ENDBRANCH  39  40
ENDBRANCH  32  34
ENDBRANCH  31  32
ENDBRANCH  30  31
ENDBRANCH  29  30
ENDBRANCH  28  29
ENDBRANCH  27  28
ENDBRANCH  26  27
ENDBRANCH   1  26
TORSDOF 23
ENDMDL
MODEL 2
REMARK VINA RESULT:      -9.9      1.382      2.076
REMARK SMILES CCCC[C@H]([NH3+])C(=O)Nc1snc(C)c1C(=O)OCCOCCOCCOC(=O)c1ccc(-c2c3nc(c(-c4c(F)c(F)c(F)c(F)c4F)c4ccc([nH]4)c(-c4c(F)c(F)c(F)c(F)c4F)c4nc(c(-c5c(F)c(F)c(F)c(F)c5F)c5ccc2[nH]5)C=C4)C=C3)cc1
REMARK SMILES IDX 21 1 20 2 19 3 18 4 16 5 17 6 15 7 10 8 11 9 12 10 13 11
REMARK SMILES IDX 14 12 9 13 7 14 8 15 5 17 4 18 3 19 2 20 1 21 6 22 22 26
REMARK SMILES IDX 23 27 24 28 25 29 26 30 27 31 28 32 29 33 30 34 31 35 92 36
REMARK SMILES IDX 32 37 91 38 33 39 34 40 35 41 85 42 36 43 90 44 84 45 86 46
REMARK SMILES IDX 37 47 89 48 83 49 82 50 38 52 70 53 50 54 69 55 51 56 54 57
REMARK SMILES IDX 68 58 87 59 52 60 53 61 67 63 88 64 55 65 39 66 40 67 48 68
REMARK SMILES IDX 41 69 42 70 46 71 49 72 43 73 44 74 47 75 45 76 71 77 72 78
REMARK SMILES IDX 80 79 73 80 74 81 78 82 81 83 75 84 76 85 79 86 77 87 56 88
REMARK SMILES IDX 57 89 65 90 58 91 59 92 63 93 66 94 60 95 61 96 64 97 62 98
REMARK H PARENT 9 16 6 23 6 24 6 25 86 51 54 62
REMARK Flexibility Score: inf
ROOT
ATOM      1  O   UNL A   1      37.402  22.962  25.962  1.00  0.00    -0.376 OA
ENDROOT
BRANCH   1   2
ATOM      2  C   UNL A   1      36.494  23.748  25.209  1.00  0.00     0.202 C 
BRANCH   2   3
ATOM      3  C   UNL A   1      35.659  23.157  24.060  1.00  0.00     0.261 C 
BRANCH   3   4
ATOM      4  O   UNL A   1      34.446  23.831  23.708  1.00  0.00    -0.460 OA
BRANCH   4   5
ATOM      5  C   UNL A   1      33.466  23.129  23.058  1.00  0.00     0.343 C 
ATOM      6  O   UNL A   1      33.433  22.942  21.864  1.00  0.00    -0.246 OA
BRANCH   5   7
ATOM      7  C   UNL A   1      32.497  22.581  23.994  1.00  0.00     0.117 A 
ATOM      8  C   UNL A   1      31.366  23.231  24.441  1.00  0.00     0.131 A 
ATOM      9  S   UNL A   1      30.713  22.389  25.767  1.00  0.00    -0.017 S 
ATOM     10  N   UNL A   1      31.737  21.093  25.660  1.00  0.00    -0.195 NA
ATOM     11  C   UNL A   1      32.645  21.332  24.710  1.00  0.00     0.068 A 
ATOM     12  C   UNL A   1      33.755  20.349  24.560  1.00  0.00     0.069 C 
BRANCH   8  13
ATOM     13  N   UNL A   1      30.723  24.395  24.105  1.00  0.00    -0.310 N 
ATOM     14  C   UNL A   1      30.651  25.544  24.836  1.00  0.00     0.283 C 
ATOM     15  O   UNL A   1      29.613  26.214  24.760  1.00  0.00    -0.268 OA
ATOM     16  H   UNL A   1      30.261  24.401  23.237  1.00  0.00     0.171 HD
BRANCH  14  17
ATOM     17  C   UNL A   1      31.857  26.096  25.656  1.00  0.00     0.271 C 
BRANCH  17  18
ATOM     18  C   UNL A   1      31.605  27.274  26.606  1.00  0.00     0.075 C 
BRANCH  18  19
ATOM     19  C   UNL A   1      32.357  28.545  26.199  1.00  0.00     0.006 C 
BRANCH  19  20
ATOM     20  C   UNL A   1      33.299  29.094  27.276  1.00  0.00    -0.003 C 
ATOM     21  C   UNL A   1      34.768  29.064  26.875  1.00  0.00     0.004 C 
ENDBRANCH  19  20
ENDBRANCH  18  19
ENDBRANCH  17  18
BRANCH  17  22
ATOM     22  N   UNL A   1      33.068  26.303  24.854  1.00  0.00    -0.347 N 
ATOM     23  H   UNL A   1      33.890  26.240  25.455  1.00  0.00     0.345 HD
ATOM     24  H   UNL A   1      33.034  27.225  24.419  1.00  0.00     0.345 HD
ATOM     25  H   UNL A   1      33.122  25.587  24.129  1.00  0.00     0.345 HD
ENDBRANCH  17  22
ENDBRANCH  14  17
ENDBRANCH   8  13
ENDBRANCH   5   7
ENDBRANCH   4   5
ENDBRANCH   3   4
ENDBRANCH   2   3
ENDBRANCH   1   2
BRANCH   1  26
ATOM     26  C   UNL A   1      37.962  21.817  25.362  1.00  0.00     0.188 C 
BRANCH  26  27
ATOM     27  C   UNL A   1      39.155  21.219  26.144  1.00  0.00     0.188 C 
BRANCH  27  28
ATOM     28  O   UNL A   1      39.812  20.020  25.749  1.00  0.00    -0.376 OA
BRANCH  28  29
ATOM     29  C   UNL A   1      41.029  19.580  26.341  1.00  0.00     0.202 C 
BRANCH  29  30
ATOM     30  C   UNL A   1      42.387  19.959  25.750  1.00  0.00     0.261 C 
BRANCH  30  31
ATOM     31  O   UNL A   1      42.989  21.078  26.366  1.00  0.00    -0.460 OA
BRANCH  31  32
ATOM     32  C   UNL A   1      42.728  22.243  25.748  1.00  0.00     0.338 C 
ATOM     33  O   UNL A   1      43.037  22.579  24.619  1.00  0.00    -0.246 OA
BRANCH  32  34
ATOM     34  C   UNL A   1      42.016  23.110  26.691  1.00  0.00     0.060 A 
ATOM     35  C   UNL A   1      41.109  24.005  26.128  1.00  0.00     0.016 A 
ATOM     36  C   UNL A   1      42.497  23.240  28.001  1.00  0.00     0.016 A 
ATOM     37  C   UNL A   1      40.947  25.211  26.755  1.00  0.00     0.010 A 
ATOM     38  C   UNL A   1      42.350  24.452  28.620  1.00  0.00     0.010 A 
ATOM     39  C   UNL A   1      41.678  25.450  27.925  1.00  0.00    -0.014 A 
BRANCH  39  40
ATOM     40  C   UNL A   1      41.664  26.792  28.448  1.00  0.00     0.031 A 
ATOM     41  C   UNL A   1      42.834  27.563  28.001  1.00  0.00     0.074 A 
ATOM     42  C   UNL A   1      40.659  27.249  29.217  1.00  0.00     0.049 A 
ATOM     43  N   UNL A   1      43.815  27.971  28.730  1.00  0.00    -0.248 NA
ATOM     44  C   UNL A   1      43.045  27.715  26.552  1.00  0.00     0.031 C 
ATOM     45  C   UNL A   1      39.372  26.612  29.504  1.00  0.00     0.029 A 
ATOM     46  N   UNL A   1      40.547  28.452  29.838  1.00  0.00    -0.354 N 
ATOM     47  C   UNL A   1      44.665  28.634  27.857  1.00  0.00     0.074 A 
ATOM     48  C   UNL A   1      44.260  28.262  26.527  1.00  0.00     0.031 C 
ATOM     49  C   UNL A   1      38.531  27.531  30.035  1.00  0.00     0.029 A 
ATOM     50  C   UNL A   1      39.255  28.776  30.231  1.00  0.00     0.049 A 
ATOM     51  H   UNL A   1      41.317  29.044  29.998  1.00  0.00     0.167 HD
ATOM     52  C   UNL A   1      45.407  29.677  28.308  1.00  0.00     0.037 A 
ATOM     53  C   UNL A   1      38.823  30.011  30.593  1.00  0.00     0.037 A 
ATOM     54  C   UNL A   1      45.576  29.605  29.742  1.00  0.00     0.049 A 
ATOM     55  C   UNL A   1      40.022  30.817  30.948  1.00  0.00     0.074 A 
ATOM     56  C   UNL A   1      46.083  28.652  30.606  1.00  0.00     0.029 A 
ATOM     57  N   UNL A   1      44.836  30.457  30.525  1.00  0.00    -0.354 N 
ATOM     58  N   UNL A   1      40.739  30.612  32.019  1.00  0.00    -0.248 NA
ATOM     59  C   UNL A   1      40.702  31.529  29.873  1.00  0.00     0.031 C 
ATOM     60  C   UNL A   1      45.241  28.703  31.756  1.00  0.00     0.029 A 
ATOM     61  C   UNL A   1      44.317  29.730  31.564  1.00  0.00     0.049 A 
ATOM     62  H   UNL A   1      44.703  31.420  30.369  1.00  0.00     0.167 HD
ATOM     63  C   UNL A   1      42.051  30.742  31.590  1.00  0.00     0.074 A 
ATOM     64  C   UNL A   1      41.966  31.392  30.284  1.00  0.00     0.031 C 
ATOM     65  C   UNL A   1      43.055  30.038  32.190  1.00  0.00     0.037 A 
BRANCH  52  66
ATOM     66  C   UNL A   1      45.554  30.966  27.532  1.00  0.00     0.064 A 
ATOM     67  C   UNL A   1      46.834  31.542  27.436  1.00  0.00     0.173 A 
ATOM     68  C   UNL A   1      44.478  31.812  27.172  1.00  0.00     0.173 A 
ATOM     69  F   UNL A   1      47.926  30.833  27.757  1.00  0.00    -0.203 F 
ATOM     70  C   UNL A   1      47.012  32.891  27.123  1.00  0.00     0.198 A 
ATOM     71  C   UNL A   1      44.665  33.141  26.807  1.00  0.00     0.198 A 
ATOM     72  F   UNL A   1      43.197  31.440  27.264  1.00  0.00    -0.203 F 
ATOM     73  F   UNL A   1      48.235  33.431  27.194  1.00  0.00    -0.200 F 
ATOM     74  C   UNL A   1      45.926  33.692  26.822  1.00  0.00     0.200 A 
ATOM     75  F   UNL A   1      43.596  33.903  26.534  1.00  0.00    -0.200 F 
ATOM     76  F   UNL A   1      46.087  35.002  26.596  1.00  0.00    -0.200 F 
ENDBRANCH  52  66
BRANCH  53  77
ATOM     77  C   UNL A   1      37.498  30.636  30.358  1.00  0.00     0.064 A 
ATOM     78  C   UNL A   1      36.695  31.051  31.435  1.00  0.00     0.173 A 
ATOM     79  C   UNL A   1      37.112  31.094  29.083  1.00  0.00     0.173 A 
ATOM     80  F   UNL A   1      37.013  30.700  32.690  1.00  0.00    -0.203 F 
ATOM     81  C   UNL A   1      35.596  31.898  31.250  1.00  0.00     0.198 A 
ATOM     82  C   UNL A   1      36.009  31.929  28.899  1.00  0.00     0.198 A 
ATOM     83  F   UNL A   1      37.851  30.824  27.999  1.00  0.00    -0.203 F 
ATOM     84  F   UNL A   1      34.898  32.327  32.310  1.00  0.00    -0.200 F 
ATOM     85  C   UNL A   1      35.260  32.344  29.984  1.00  0.00     0.200 A 
ATOM     86  F   UNL A   1      35.718  32.383  27.671  1.00  0.00    -0.200 F 
ATOM     87  F   UNL A   1      34.247  33.204  29.812  1.00  0.00    -0.200 F 
ENDBRANCH  53  77
BRANCH  65  88
ATOM     88  C   UNL A   1      42.751  29.362  33.498  1.00  0.00     0.064 A 
ATOM     89  C   UNL A   1      42.087  28.128  33.620  1.00  0.00     0.173 A 
ATOM     90  C   UNL A   1      43.252  29.942  34.670  1.00  0.00     0.173 A 
ATOM     91  F   UNL A   1      41.677  27.452  32.538  1.00  0.00    -0.203 F 
ATOM     92  C   UNL A   1      41.878  27.543  34.868  1.00  0.00     0.198 A 
ATOM     93  C   UNL A   1      43.080  29.334  35.909  1.00  0.00     0.198 A 
ATOM     94  F   UNL A   1      43.947  31.090  34.610  1.00  0.00    -0.203 F 
ATOM     95  F   UNL A   1      41.212  26.382  34.963  1.00  0.00    -0.200 F 
ATOM     96  C   UNL A   1      42.378  28.145  36.010  1.00  0.00     0.200 A 
ATOM     97  F   UNL A   1      43.612  29.894  37.005  1.00  0.00    -0.200 F 
ATOM     98  F   UNL A   1      42.204  27.567  37.207  1.00  0.00    -0.200 F 
ENDBRANCH  65  88
ENDBRANCH  39  40
ENDBRANCH  32  34
ENDBRANCH  31  32
ENDBRANCH  30  31
ENDBRANCH  29  30
ENDBRANCH  28  29
ENDBRANCH  27  28
ENDBRANCH  26  27
ENDBRANCH   1  26
TORSDOF 23
ENDMDL
MODEL 3
REMARK VINA RESULT:      -9.8      1.666      2.039
REMARK SMILES CCCC[C@H]([NH3+])C(=O)Nc1snc(C)c1C(=O)OCCOCCOCCOC(=O)c1ccc(-c2c3nc(c(-c4c(F)c(F)c(F)c(F)c4F)c4ccc([nH]4)c(-c4c(F)c(F)c(F)c(F)c4F)c4nc(c(-c5c(F)c(F)c(F)c(F)c5F)c5ccc2[nH]5)C=C4)C=C3)cc1
REMARK SMILES IDX 21 1 20 2 19 3 18 4 16 5 17 6 15 7 10 8 11 9 12 10 13 11
REMARK SMILES IDX 14 12 9 13 7 14 8 15 5 17 4 18 3 19 2 20 1 21 6 22 22 26
REMARK SMILES IDX 23 27 24 28 25 29 26 30 27 31 28 32 29 33 30 34 31 35 92 36
REMARK SMILES IDX 32 37 91 38 33 39 34 40 35 41 85 42 36 43 90 44 84 45 86 46
REMARK SMILES IDX 37 47 89 48 83 49 82 50 38 52 70 53 50 54 69 55 51 56 54 57
REMARK SMILES IDX 68 58 87 59 52 60 53 61 67 63 88 64 55 65 39 66 40 67 48 68
REMARK SMILES IDX 41 69 42 70 46 71 49 72 43 73 44 74 47 75 45 76 71 77 72 78
REMARK SMILES IDX 80 79 73 80 74 81 78 82 81 83 75 84 76 85 79 86 77 87 56 88
REMARK SMILES IDX 57 89 65 90 58 91 59 92 63 93 66 94 60 95 61 96 64 97 62 98
REMARK H PARENT 9 16 6 23 6 24 6 25 86 51 54 62
REMARK Flexibility Score: inf
ROOT
ATOM      1  O   UNL A   1      37.788  22.983  26.005  1.00  0.00    -0.376 OA
ENDROOT
BRANCH   1   2
ATOM      2  C   UNL A   1      36.940  23.664  25.096  1.00  0.00     0.202 C 
BRANCH   2   3
ATOM      3  C   UNL A   1      35.890  22.926  24.247  1.00  0.00     0.261 C 
BRANCH   3   4
ATOM      4  O   UNL A   1      35.463  23.549  23.031  1.00  0.00    -0.460 OA
BRANCH   4   5
ATOM      5  C   UNL A   1      34.126  23.579  22.739  1.00  0.00     0.343 C 
ATOM      6  O   UNL A   1      33.654  23.328  21.654  1.00  0.00    -0.246 OA
BRANCH   5   7
ATOM      7  C   UNL A   1      33.332  23.891  23.917  1.00  0.00     0.117 A 
ATOM      8  C   UNL A   1      33.234  25.136  24.503  1.00  0.00     0.131 A 
ATOM      9  S   UNL A   1      32.502  24.989  26.032  1.00  0.00    -0.017 S 
ATOM     10  N   UNL A   1      32.125  23.384  25.880  1.00  0.00    -0.195 NA
ATOM     11  C   UNL A   1      32.644  22.920  24.740  1.00  0.00     0.068 A 
ATOM     12  C   UNL A   1      32.547  21.454  24.489  1.00  0.00     0.069 C 
BRANCH   8  13
ATOM     13  N   UNL A   1      33.642  26.400  24.162  1.00  0.00    -0.310 N 
ATOM     14  C   UNL A   1      32.937  27.341  23.471  1.00  0.00     0.283 C 
ATOM     15  O   UNL A   1      33.566  28.101  22.723  1.00  0.00    -0.268 OA
ATOM     16  H   UNL A   1      34.547  26.657  24.449  1.00  0.00     0.171 HD
BRANCH  14  17
ATOM     17  C   UNL A   1      31.409  27.568  23.678  1.00  0.00     0.271 C 
BRANCH  17  18
ATOM     18  C   UNL A   1      30.545  27.839  22.440  1.00  0.00     0.075 C 
BRANCH  18  19
ATOM     19  C   UNL A   1      30.141  29.310  22.301  1.00  0.00     0.006 C 
BRANCH  19  20
ATOM     20  C   UNL A   1      28.629  29.557  22.347  1.00  0.00    -0.003 C 
ATOM     21  C   UNL A   1      28.135  30.521  21.275  1.00  0.00     0.004 C 
ENDBRANCH  19  20
ENDBRANCH  18  19
ENDBRANCH  17  18
BRANCH  17  22
ATOM     22  N   UNL A   1      31.095  28.500  24.767  1.00  0.00    -0.347 N 
ATOM     23  H   UNL A   1      30.149  28.862  24.645  1.00  0.00     0.345 HD
ATOM     24  H   UNL A   1      31.760  29.275  24.753  1.00  0.00     0.345 HD
ATOM     25  H   UNL A   1      31.160  28.014  25.661  1.00  0.00     0.345 HD
ENDBRANCH  17  22
ENDBRANCH  14  17
ENDBRANCH   8  13
ENDBRANCH   5   7
ENDBRANCH   4   5
ENDBRANCH   3   4
ENDBRANCH   2   3
ENDBRANCH   1   2
BRANCH   1  26
ATOM     26  C   UNL A   1      38.433  21.807  25.575  1.00  0.00     0.188 C 
BRANCH  26  27
ATOM     27  C   UNL A   1      39.669  21.425  26.422  1.00  0.00     0.188 C 
BRANCH  27  28
ATOM     28  O   UNL A   1      40.485  20.296  26.129  1.00  0.00    -0.376 OA
BRANCH  28  29
ATOM     29  C   UNL A   1      41.815  20.162  26.615  1.00  0.00     0.202 C 
BRANCH  29  30
ATOM     30  C   UNL A   1      43.020  20.565  25.765  1.00  0.00     0.261 C 
BRANCH  30  31
ATOM     31  O   UNL A   1      43.632  21.770  26.173  1.00  0.00    -0.460 OA
BRANCH  31  32
ATOM     32  C   UNL A   1      43.208  22.851  25.495  1.00  0.00     0.338 C 
ATOM     33  O   UNL A   1      43.470  23.167  24.347  1.00  0.00    -0.246 OA
BRANCH  32  34
ATOM     34  C   UNL A   1      42.375  23.656  26.392  1.00  0.00     0.060 A 
ATOM     35  C   UNL A   1      41.585  24.626  25.781  1.00  0.00     0.016 A 
ATOM     36  C   UNL A   1      42.649  23.656  27.767  1.00  0.00     0.016 A 
ATOM     37  C   UNL A   1      41.351  25.779  26.483  1.00  0.00     0.010 A 
ATOM     38  C   UNL A   1      42.431  24.813  28.463  1.00  0.00     0.010 A 
ATOM     39  C   UNL A   1      41.895  25.890  27.768  1.00  0.00    -0.014 A 
BRANCH  39  40
ATOM     40  C   UNL A   1      41.826  27.181  28.403  1.00  0.00     0.031 A 
ATOM     41  C   UNL A   1      42.995  28.012  28.076  1.00  0.00     0.074 A 
ATOM     42  C   UNL A   1      40.779  27.549  29.162  1.00  0.00     0.049 A 
ATOM     43  N   UNL A   1      43.934  28.375  28.880  1.00  0.00    -0.248 NA
ATOM     44  C   UNL A   1      43.265  28.293  26.657  1.00  0.00     0.031 C 
ATOM     45  C   UNL A   1      39.496  26.863  29.336  1.00  0.00     0.029 A 
ATOM     46  N   UNL A   1      40.611  28.691  29.879  1.00  0.00    -0.354 N 
ATOM     47  C   UNL A   1      44.805  29.128  28.106  1.00  0.00     0.074 A 
ATOM     48  C   UNL A   1      44.466  28.865  26.733  1.00  0.00     0.031 C 
ATOM     49  C   UNL A   1      38.612  27.715  29.906  1.00  0.00     0.029 A 
ATOM     50  C   UNL A   1      39.296  28.953  30.239  1.00  0.00     0.049 A 
ATOM     51  H   UNL A   1      41.359  29.282  30.123  1.00  0.00     0.167 HD
ATOM     52  C   UNL A   1      45.501  30.144  28.678  1.00  0.00     0.037 A 
ATOM     53  C   UNL A   1      38.819  30.143  30.687  1.00  0.00     0.037 A 
ATOM     54  C   UNL A   1      45.610  29.951  30.106  1.00  0.00     0.049 A 
ATOM     55  C   UNL A   1      39.982  30.940  31.162  1.00  0.00     0.074 A 
ATOM     56  C   UNL A   1      46.102  28.937  30.908  1.00  0.00     0.029 A 
ATOM     57  N   UNL A   1      44.817  30.717  30.926  1.00  0.00    -0.354 N 
ATOM     58  N   UNL A   1      40.657  30.658  32.242  1.00  0.00    -0.248 NA
ATOM     59  C   UNL A   1      40.689  31.756  30.184  1.00  0.00     0.031 C 
ATOM     60  C   UNL A   1      45.211  28.872  32.019  1.00  0.00     0.029 A 
ATOM     61  C   UNL A   1      44.272  29.891  31.874  1.00  0.00     0.049 A 
ATOM     62  H   UNL A   1      44.667  31.687  30.847  1.00  0.00     0.167 HD
ATOM     63  C   UNL A   1      41.983  30.851  31.885  1.00  0.00     0.074 A 
ATOM     64  C   UNL A   1      41.937  31.610  30.638  1.00  0.00     0.031 C 
ATOM     65  C   UNL A   1      42.977  30.118  32.468  1.00  0.00     0.037 A 
BRANCH  52  66
ATOM     66  C   UNL A   1      45.649  31.497  28.022  1.00  0.00     0.064 A 
ATOM     67  C   UNL A   1      44.489  32.138  27.549  1.00  0.00     0.173 A 
ATOM     68  C   UNL A   1      46.872  32.030  27.550  1.00  0.00     0.173 A 
ATOM     69  F   UNL A   1      43.274  31.713  27.928  1.00  0.00    -0.203 F 
ATOM     70  C   UNL A   1      44.546  33.148  26.588  1.00  0.00     0.198 A 
ATOM     71  C   UNL A   1      46.926  33.075  26.633  1.00  0.00     0.198 A 
ATOM     72  F   UNL A   1      48.062  31.502  27.855  1.00  0.00    -0.203 F 
ATOM     73  F   UNL A   1      43.412  33.621  26.055  1.00  0.00    -0.200 F 
ATOM     74  C   UNL A   1      45.764  33.607  26.122  1.00  0.00     0.200 A 
ATOM     75  F   UNL A   1      48.118  33.493  26.184  1.00  0.00    -0.200 F 
ATOM     76  F   UNL A   1      45.821  34.522  25.146  1.00  0.00    -0.200 F 
ENDBRANCH  52  66
BRANCH  53  77
ATOM     77  C   UNL A   1      37.490  30.759  30.447  1.00  0.00     0.064 A 
ATOM     78  C   UNL A   1      36.672  31.149  31.521  1.00  0.00     0.173 A 
ATOM     79  C   UNL A   1      37.113  31.233  29.175  1.00  0.00     0.173 A 
ATOM     80  F   UNL A   1      36.980  30.782  32.774  1.00  0.00    -0.203 F 
ATOM     81  C   UNL A   1      35.567  31.988  31.338  1.00  0.00     0.198 A 
ATOM     82  C   UNL A   1      36.004  32.060  28.992  1.00  0.00     0.198 A 
ATOM     83  F   UNL A   1      37.866  30.987  28.094  1.00  0.00    -0.203 F 
ATOM     84  F   UNL A   1      34.852  32.394  32.396  1.00  0.00    -0.200 F 
ATOM     85  C   UNL A   1      35.240  32.450  30.075  1.00  0.00     0.200 A 
ATOM     86  F   UNL A   1      35.722  32.531  27.768  1.00  0.00    -0.200 F 
ATOM     87  F   UNL A   1      34.220  33.304  29.905  1.00  0.00    -0.200 F 
ENDBRANCH  53  77
BRANCH  65  88
ATOM     88  C   UNL A   1      42.634  29.326  33.697  1.00  0.00     0.064 A 
ATOM     89  C   UNL A   1      42.066  28.038  33.682  1.00  0.00     0.173 A 
ATOM     90  C   UNL A   1      42.997  29.853  34.943  1.00  0.00     0.173 A 
ATOM     91  F   UNL A   1      41.794  27.416  32.527  1.00  0.00    -0.203 F 
ATOM     92  C   UNL A   1      41.814  27.348  34.867  1.00  0.00     0.198 A 
ATOM     93  C   UNL A   1      42.785  29.144  36.120  1.00  0.00     0.198 A 
ATOM     94  F   UNL A   1      43.597  31.053  35.017  1.00  0.00    -0.203 F 
ATOM     95  F   UNL A   1      41.241  26.135  34.828  1.00  0.00    -0.200 F 
ATOM     96  C   UNL A   1      42.177  27.900  36.083  1.00  0.00     0.200 A 
ATOM     97  F   UNL A   1      43.186  29.660  37.290  1.00  0.00    -0.200 F 
ATOM     98  F   UNL A   1      41.963  27.223  37.220  1.00  0.00    -0.200 F 
ENDBRANCH  65  88
ENDBRANCH  39  40
ENDBRANCH  32  34
ENDBRANCH  31  32
ENDBRANCH  30  31
ENDBRANCH  29  30
ENDBRANCH  28  29
ENDBRANCH  27  28
ENDBRANCH  26  27
ENDBRANCH   1  26
TORSDOF 23
ENDMDL
