MODEL 1
REMARK VINA RESULT:     -11.5      0.000      0.000
REMARK SMILES Cc1nn2c(nnc3c(=O)n(CCCC(=O)OCCOCCOCCOC(=O)c4ccc(-c5c6nc(c(-c7c(F)c(F)c(F)c(F)c7F)c7ccc([nH]7)c(-c7c(F)c(F)c(F)c(F)c7F)c7nc(c(-c8c(F)c(F)c(F)c(F)c8F)c8ccc5[nH]8)C=C7)C=C6)cc4)ccc32)c1-c1ccc(F)cc1
REMARK SMILES IDX 21 1 20 2 19 3 18 4 17 5 15 6 16 7 14 8 13 9 12 10 11 11
REMARK SMILES IDX 1 12 2 13 3 14 95 15 4 16 5 17 94 18 6 19 8 20 93 21 7 22
REMARK SMILES IDX 9 23 92 24 10 25 96 26 97 27 102 28 98 29 101 30 99 31
REMARK SMILES IDX 100 32 22 33 23 34 24 35 25 36 26 37 27 38 28 39 29 40 30 41
REMARK SMILES IDX 91 42 31 43 90 44 32 45 33 46 34 47 84 48 35 49 89 50 83 51
REMARK SMILES IDX 85 52 36 53 88 54 82 55 81 56 37 58 69 59 49 60 68 61 50 62
REMARK SMILES IDX 53 63 67 64 86 65 51 66 52 67 66 69 87 70 54 71 38 72 39 73
REMARK SMILES IDX 47 74 40 75 41 76 45 77 48 78 42 79 43 80 46 81 44 82 70 83
REMARK SMILES IDX 71 84 79 85 72 86 73 87 77 88 80 89 74 90 75 91 78 92 76 93
REMARK SMILES IDX 55 94 56 95 64 96 57 97 58 98 62 99 65 100 59 101 60 102
REMARK SMILES IDX 63 103 61 104
REMARK H PARENT 85 57 53 68
REMARK Flexibility Score: inf
ROOT
ATOM      1  C   UNL A   1      39.370  23.145  26.611  1.00  0.00     0.188 C 
ENDROOT
BRANCH   1   2
ATOM      2  O   UNL A   1      38.339  22.384  26.038  1.00  0.00    -0.376 OA
BRANCH   2   3
ATOM      3  C   UNL A   1      37.119  23.036  25.714  1.00  0.00     0.202 C 
BRANCH   3   4
ATOM      4  C   UNL A   1      36.040  22.405  24.810  1.00  0.00     0.261 C 
BRANCH   4   5
ATOM      5  O   UNL A   1      35.316  21.301  25.379  1.00  0.00    -0.463 OA
BRANCH   5   6
ATOM      6  C   UNL A   1      35.681  20.056  24.989  1.00  0.00     0.305 C 
ATOM      7  O   UNL A   1      36.847  19.687  24.867  1.00  0.00    -0.252 OA
BRANCH   6   8
ATOM      8  C   UNL A   1      34.532  19.069  24.809  1.00  0.00     0.124 C 
BRANCH   8   9
ATOM      9  C   UNL A   1      33.266  19.327  23.971  1.00  0.00     0.034 C 
BRANCH   9  10
ATOM     10  C   UNL A   1      32.114  20.147  24.563  1.00  0.00     0.126 C 
BRANCH  10  11
ATOM     11  N   UNL A   1      32.249  21.559  24.249  1.00  0.00    -0.313 N 
ATOM     12  C   UNL A   1      33.868  28.685  22.256  1.00  0.00     0.069 C 
ATOM     13  C   UNL A   1      33.642  27.561  23.194  1.00  0.00     0.070 A 
ATOM     14  N   UNL A   1      33.543  26.308  22.729  1.00  0.00    -0.170 NA
ATOM     15  C   UNL A   1      33.492  27.620  24.597  1.00  0.00     0.051 A 
ATOM     16  N   UNL A   1      33.190  25.567  23.814  1.00  0.00    -0.210 N 
ATOM     17  C   UNL A   1      33.139  26.344  24.963  1.00  0.00     0.186 A 
ATOM     18  C   UNL A   1      32.838  24.225  23.889  1.00  0.00     0.102 A 
ATOM     19  N   UNL A   1      32.753  25.811  26.155  1.00  0.00    -0.129 NA
ATOM     20  C   UNL A   1      32.349  23.837  25.078  1.00  0.00     0.177 A 
ATOM     21  C   UNL A   1      32.991  23.277  22.802  1.00  0.00     0.049 A 
ATOM     22  N   UNL A   1      32.309  24.640  26.197  1.00  0.00    -0.141 NA
ATOM     23  C   UNL A   1      31.798  22.472  25.196  1.00  0.00     0.280 A 
ATOM     24  C   UNL A   1      32.777  21.974  23.038  1.00  0.00     0.091 A 
ATOM     25  O   UNL A   1      31.027  22.206  26.112  1.00  0.00    -0.267 OA
BRANCH  15  26
ATOM     26  C   UNL A   1      33.544  28.696  25.558  1.00  0.00    -0.012 A 
ATOM     27  C   UNL A   1      32.525  29.651  25.614  1.00  0.00     0.012 A 
ATOM     28  C   UNL A   1      34.592  28.734  26.491  1.00  0.00     0.012 A 
ATOM     29  C   UNL A   1      32.560  30.644  26.595  1.00  0.00     0.040 A 
ATOM     30  C   UNL A   1      34.626  29.728  27.467  1.00  0.00     0.040 A 
ATOM     31  C   UNL A   1      33.610  30.675  27.508  1.00  0.00     0.123 A 
ATOM     32  F   UNL A   1      33.638  31.629  28.448  1.00  0.00    -0.207 F 
ENDBRANCH  15  26
ENDBRANCH  10  11
ENDBRANCH   9  10
ENDBRANCH   8   9
ENDBRANCH   6   8
ENDBRANCH   5   6
ENDBRANCH   4   5
ENDBRANCH   3   4
ENDBRANCH   2   3
ENDBRANCH   1   2
BRANCH   1  33
ATOM     33  C   UNL A   1      40.813  22.625  26.540  1.00  0.00     0.188 C 
BRANCH  33  34
ATOM     34  O   UNL A   1      41.808  22.740  27.540  1.00  0.00    -0.376 OA
BRANCH  34  35
ATOM     35  C   UNL A   1      43.144  23.195  27.383  1.00  0.00     0.202 C 
BRANCH  35  36
ATOM     36  C   UNL A   1      43.528  24.497  26.681  1.00  0.00     0.261 C 
BRANCH  36  37
ATOM     37  O   UNL A   1      42.664  25.557  26.989  1.00  0.00    -0.460 OA
BRANCH  37  38
ATOM     38  C   UNL A   1      42.148  26.127  25.889  1.00  0.00     0.338 C 
ATOM     39  O   UNL A   1      42.447  25.925  24.717  1.00  0.00    -0.246 OA
BRANCH  38  40
ATOM     40  C   UNL A   1      41.092  27.034  26.326  1.00  0.00     0.060 A 
ATOM     41  C   UNL A   1      41.347  28.393  26.151  1.00  0.00     0.016 A 
ATOM     42  C   UNL A   1      40.124  26.532  27.201  1.00  0.00     0.016 A 
ATOM     43  C   UNL A   1      40.955  29.216  27.164  1.00  0.00     0.010 A 
ATOM     44  C   UNL A   1      39.772  27.340  28.234  1.00  0.00     0.010 A 
ATOM     45  C   UNL A   1      40.329  28.615  28.257  1.00  0.00    -0.014 A 
BRANCH  45  46
ATOM     46  C   UNL A   1      40.323  29.340  29.492  1.00  0.00     0.031 A 
ATOM     47  C   UNL A   1      39.170  30.239  29.584  1.00  0.00     0.074 A 
ATOM     48  C   UNL A   1      41.273  29.136  30.420  1.00  0.00     0.049 A 
ATOM     49  N   UNL A   1      39.182  31.519  29.434  1.00  0.00    -0.248 NA
ATOM     50  C   UNL A   1      37.831  29.632  29.594  1.00  0.00     0.031 C 
ATOM     51  C   UNL A   1      42.298  28.090  30.491  1.00  0.00     0.029 A 
ATOM     52  N   UNL A   1      41.457  29.820  31.576  1.00  0.00    -0.354 N 
ATOM     53  C   UNL A   1      37.857  31.899  29.545  1.00  0.00     0.074 A 
ATOM     54  C   UNL A   1      37.066  30.704  29.400  1.00  0.00     0.031 C 
ATOM     55  C   UNL A   1      42.832  28.074  31.738  1.00  0.00     0.029 A 
ATOM     56  C   UNL A   1      42.285  29.187  32.493  1.00  0.00     0.049 A 
ATOM     57  H   UNL A   1      41.038  30.694  31.750  1.00  0.00     0.167 HD
ATOM     58  C   UNL A   1      37.526  33.112  30.052  1.00  0.00     0.037 A 
ATOM     59  C   UNL A   1      42.368  29.537  33.803  1.00  0.00     0.037 A 
ATOM     60  C   UNL A   1      38.649  34.013  30.047  1.00  0.00     0.049 A 
ATOM     61  C   UNL A   1      41.862  30.939  33.904  1.00  0.00     0.074 A 
ATOM     62  C   UNL A   1      39.437  34.557  29.051  1.00  0.00     0.029 A 
ATOM     63  N   UNL A   1      39.366  34.146  31.212  1.00  0.00    -0.354 N 
ATOM     64  N   UNL A   1      42.481  31.968  33.391  1.00  0.00    -0.248 NA
ATOM     65  C   UNL A   1      40.434  31.120  34.135  1.00  0.00     0.031 C 
ATOM     66  C   UNL A   1      40.759  34.566  29.584  1.00  0.00     0.029 A 
ATOM     67  C   UNL A   1      40.701  34.091  30.895  1.00  0.00     0.049 A 
ATOM     68  H   UNL A   1      38.989  34.259  32.115  1.00  0.00     0.167 HD
ATOM     69  C   UNL A   1      41.471  32.754  32.849  1.00  0.00     0.074 A 
ATOM     70  C   UNL A   1      40.229  32.209  33.388  1.00  0.00     0.031 C 
ATOM     71  C   UNL A   1      41.714  33.574  31.784  1.00  0.00     0.037 A 
BRANCH  58  72
ATOM     72  C   UNL A   1      36.301  33.324  30.887  1.00  0.00     0.064 A 
ATOM     73  C   UNL A   1      35.237  34.074  30.369  1.00  0.00     0.173 A 
ATOM     74  C   UNL A   1      36.238  33.027  32.268  1.00  0.00     0.173 A 
ATOM     75  F   UNL A   1      35.233  34.450  29.082  1.00  0.00    -0.203 F 
ATOM     76  C   UNL A   1      34.195  34.520  31.185  1.00  0.00     0.198 A 
ATOM     77  C   UNL A   1      35.165  33.413  33.064  1.00  0.00     0.198 A 
ATOM     78  F   UNL A   1      37.257  32.458  32.924  1.00  0.00    -0.203 F 
ATOM     79  F   UNL A   1      33.254  35.325  30.677  1.00  0.00    -0.200 F 
ATOM     80  C   UNL A   1      34.156  34.182  32.528  1.00  0.00     0.200 A 
ATOM     81  F   UNL A   1      35.164  33.098  34.366  1.00  0.00    -0.200 F 
ATOM     82  F   UNL A   1      33.177  34.641  33.318  1.00  0.00    -0.200 F 
ENDBRANCH  58  72
BRANCH  59  83
ATOM     83  C   UNL A   1      42.396  28.632  34.982  1.00  0.00     0.064 A 
ATOM     84  C   UNL A   1      41.619  27.462  34.992  1.00  0.00     0.173 A 
ATOM     85  C   UNL A   1      43.402  28.722  35.964  1.00  0.00     0.173 A 
ATOM     86  F   UNL A   1      40.663  27.280  34.068  1.00  0.00    -0.203 F 
ATOM     87  C   UNL A   1      41.867  26.422  35.894  1.00  0.00     0.198 A 
ATOM     88  C   UNL A   1      43.645  27.686  36.867  1.00  0.00     0.198 A 
ATOM     89  F   UNL A   1      44.239  29.768  36.004  1.00  0.00    -0.203 F 
ATOM     90  F   UNL A   1      41.156  25.288  35.820  1.00  0.00    -0.200 F 
ATOM     91  C   UNL A   1      42.891  26.529  36.820  1.00  0.00     0.200 A 
ATOM     92  F   UNL A   1      44.661  27.788  37.736  1.00  0.00    -0.200 F 
ATOM     93  F   UNL A   1      43.180  25.504  37.633  1.00  0.00    -0.200 F 
ENDBRANCH  59  83
BRANCH  71  94
ATOM     94  C   UNL A   1      43.148  33.784  31.378  1.00  0.00     0.064 A 
ATOM     95  C   UNL A   1      43.823  32.999  30.425  1.00  0.00     0.173 A 
ATOM     96  C   UNL A   1      43.815  34.915  31.867  1.00  0.00     0.173 A 
ATOM     97  F   UNL A   1      43.218  31.959  29.836  1.00  0.00    -0.203 F 
ATOM     98  C   UNL A   1      45.121  33.311  30.019  1.00  0.00     0.198 A 
ATOM     99  C   UNL A   1      45.094  35.245  31.431  1.00  0.00     0.198 A 
ATOM    100  F   UNL A   1      43.199  35.731  32.736  1.00  0.00    -0.203 F 
ATOM    101  F   UNL A   1      45.749  32.541  29.117  1.00  0.00    -0.200 F 
ATOM    102  C   UNL A   1      45.751  34.440  30.516  1.00  0.00     0.200 A 
ATOM    103  F   UNL A   1      45.678  36.367  31.877  1.00  0.00    -0.200 F 
ATOM    104  F   UNL A   1      46.980  34.766  30.094  1.00  0.00    -0.200 F 
ENDBRANCH  71  94
ENDBRANCH  45  46
ENDBRANCH  38  40
ENDBRANCH  37  38
ENDBRANCH  36  37
ENDBRANCH  35  36
ENDBRANCH  34  35
ENDBRANCH  33  34
ENDBRANCH   1  33
TORSDOF 21
ENDMDL
MODEL 2
REMARK VINA RESULT:     -11.3      4.551      9.899
REMARK SMILES Cc1nn2c(nnc3c(=O)n(CCCC(=O)OCCOCCOCCOC(=O)c4ccc(-c5c6nc(c(-c7c(F)c(F)c(F)c(F)c7F)c7ccc([nH]7)c(-c7c(F)c(F)c(F)c(F)c7F)c7nc(c(-c8c(F)c(F)c(F)c(F)c8F)c8ccc5[nH]8)C=C7)C=C6)cc4)ccc32)c1-c1ccc(F)cc1
REMARK SMILES IDX 21 1 20 2 19 3 18 4 17 5 15 6 16 7 14 8 13 9 12 10 11 11
REMARK SMILES IDX 1 12 2 13 3 14 95 15 4 16 5 17 94 18 6 19 8 20 93 21 7 22
REMARK SMILES IDX 9 23 92 24 10 25 96 26 97 27 102 28 98 29 101 30 99 31
REMARK SMILES IDX 100 32 22 33 23 34 24 35 25 36 26 37 27 38 28 39 29 40 30 41
REMARK SMILES IDX 91 42 31 43 90 44 32 45 33 46 34 47 84 48 35 49 89 50 83 51
REMARK SMILES IDX 85 52 36 53 88 54 82 55 81 56 37 58 69 59 49 60 68 61 50 62
REMARK SMILES IDX 53 63 67 64 86 65 51 66 52 67 66 69 87 70 54 71 38 72 39 73
REMARK SMILES IDX 47 74 40 75 41 76 45 77 48 78 42 79 43 80 46 81 44 82 70 83
REMARK SMILES IDX 71 84 79 85 72 86 73 87 77 88 80 89 74 90 75 91 78 92 76 93
REMARK SMILES IDX 55 94 56 95 64 96 57 97 58 98 62 99 65 100 59 101 60 102
REMARK SMILES IDX 63 103 61 104
REMARK H PARENT 85 57 53 68
REMARK Flexibility Score: inf
ROOT
ATOM      1  C   UNL A   1      35.264  31.995  27.706  1.00  0.00     0.188 C 
ENDROOT
BRANCH   1   2
ATOM      2  O   UNL A   1      35.730  30.695  27.957  1.00  0.00    -0.376 OA
BRANCH   2   3
ATOM      3  C   UNL A   1      34.881  29.602  27.641  1.00  0.00     0.202 C 
BRANCH   3   4
ATOM      4  C   UNL A   1      33.933  29.594  26.424  1.00  0.00     0.261 C 
BRANCH   4   5
ATOM      5  O   UNL A   1      32.529  29.672  26.727  1.00  0.00    -0.463 OA
BRANCH   5   6
ATOM      6  C   UNL A   1      31.703  30.065  25.728  1.00  0.00     0.305 C 
ATOM      7  O   UNL A   1      31.078  31.123  25.727  1.00  0.00    -0.252 OA
BRANCH   6   8
ATOM      8  C   UNL A   1      31.673  29.146  24.511  1.00  0.00     0.124 C 
BRANCH   8   9
ATOM      9  C   UNL A   1      31.098  27.717  24.495  1.00  0.00     0.034 C 
BRANCH   9  10
ATOM     10  C   UNL A   1      30.981  26.928  25.803  1.00  0.00     0.126 C 
BRANCH  10  11
ATOM     11  N   UNL A   1      31.850  25.764  25.804  1.00  0.00    -0.313 N 
ATOM     12  C   UNL A   1      36.736  20.042  24.924  1.00  0.00     0.069 C 
ATOM     13  C   UNL A   1      35.404  20.690  24.961  1.00  0.00     0.070 A 
ATOM     14  N   UNL A   1      35.309  22.026  25.027  1.00  0.00    -0.170 NA
ATOM     15  C   UNL A   1      34.136  20.068  24.949  1.00  0.00     0.051 A 
ATOM     16  N   UNL A   1      33.981  22.266  25.198  1.00  0.00    -0.210 N 
ATOM     17  C   UNL A   1      33.245  21.090  25.169  1.00  0.00     0.186 A 
ATOM     18  C   UNL A   1      33.327  23.466  25.446  1.00  0.00     0.102 A 
ATOM     19  N   UNL A   1      31.899  21.097  25.375  1.00  0.00    -0.129 NA
ATOM     20  C   UNL A   1      32.028  23.345  25.765  1.00  0.00     0.177 A 
ATOM     21  C   UNL A   1      33.951  24.772  25.357  1.00  0.00     0.049 A 
ATOM     22  N   UNL A   1      31.331  22.157  25.729  1.00  0.00    -0.141 NA
ATOM     23  C   UNL A   1      31.298  24.552  26.203  1.00  0.00     0.280 A 
ATOM     24  C   UNL A   1      33.185  25.870  25.451  1.00  0.00     0.091 A 
ATOM     25  O   UNL A   1      30.258  24.433  26.842  1.00  0.00    -0.267 OA
BRANCH  15  26
ATOM     26  C   UNL A   1      33.706  18.693  24.859  1.00  0.00    -0.012 A 
ATOM     27  C   UNL A   1      34.201  17.855  23.855  1.00  0.00     0.012 A 
ATOM     28  C   UNL A   1      32.841  18.179  25.838  1.00  0.00     0.012 A 
ATOM     29  C   UNL A   1      33.824  16.511  23.828  1.00  0.00     0.040 A 
ATOM     30  C   UNL A   1      32.464  16.837  25.805  1.00  0.00     0.040 A 
ATOM     31  C   UNL A   1      32.958  16.017  24.799  1.00  0.00     0.123 A 
ATOM     32  F   UNL A   1      32.601  14.727  24.767  1.00  0.00    -0.207 F 
ENDBRANCH  15  26
ENDBRANCH  10  11
ENDBRANCH   9  10
ENDBRANCH   8   9
ENDBRANCH   6   8
ENDBRANCH   5   6
ENDBRANCH   4   5
ENDBRANCH   3   4
ENDBRANCH   2   3
ENDBRANCH   1   2
BRANCH   1  33
ATOM     33  C   UNL A   1      35.470  33.083  28.771  1.00  0.00     0.188 C 
BRANCH  33  34
ATOM     34  O   UNL A   1      35.991  32.908  30.075  1.00  0.00    -0.376 OA
BRANCH  34  35
ATOM     35  C   UNL A   1      35.282  32.534  31.248  1.00  0.00     0.202 C 
BRANCH  35  36
ATOM     36  C   UNL A   1      35.816  31.561  32.297  1.00  0.00     0.261 C 
BRANCH  36  37
ATOM     37  O   UNL A   1      36.087  30.289  31.772  1.00  0.00    -0.460 OA
BRANCH  37  38
ATOM     38  C   UNL A   1      37.220  29.767  32.267  1.00  0.00     0.338 C 
ATOM     39  O   UNL A   1      37.770  30.017  33.334  1.00  0.00    -0.246 OA
BRANCH  38  40
ATOM     40  C   UNL A   1      37.694  28.774  31.309  1.00  0.00     0.060 A 
ATOM     41  C   UNL A   1      38.390  27.693  31.848  1.00  0.00     0.016 A 
ATOM     42  C   UNL A   1      37.761  29.148  29.964  1.00  0.00     0.016 A 
ATOM     43  C   UNL A   1      39.483  27.272  31.152  1.00  0.00     0.010 A 
ATOM     44  C   UNL A   1      38.876  28.763  29.289  1.00  0.00     0.010 A 
ATOM     45  C   UNL A   1      39.779  27.953  29.971  1.00  0.00    -0.014 A 
BRANCH  45  46
ATOM     46  C   UNL A   1      41.119  27.859  29.475  1.00  0.00     0.031 A 
ATOM     47  C   UNL A   1      41.374  26.557  28.854  1.00  0.00     0.074 A 
ATOM     48  C   UNL A   1      41.968  28.897  29.570  1.00  0.00     0.049 A 
ATOM     49  N   UNL A   1      42.048  25.584  29.364  1.00  0.00    -0.248 NA
ATOM     50  C   UNL A   1      40.594  26.207  27.658  1.00  0.00     0.031 C 
ATOM     51  C   UNL A   1      41.703  30.287  29.953  1.00  0.00     0.029 A 
ATOM     52  N   UNL A   1      43.285  28.917  29.249  1.00  0.00    -0.354 N 
ATOM     53  C   UNL A   1      41.947  24.562  28.437  1.00  0.00     0.074 A 
ATOM     54  C   UNL A   1      40.867  24.909  27.550  1.00  0.00     0.031 C 
ATOM     55  C   UNL A   1      42.768  31.053  29.612  1.00  0.00     0.029 A 
ATOM     56  C   UNL A   1      43.827  30.189  29.122  1.00  0.00     0.049 A 
ATOM     57  H   UNL A   1      43.813  28.096  29.117  1.00  0.00     0.167 HD
ATOM     58  C   UNL A   1      42.953  23.666  28.284  1.00  0.00     0.037 A 
ATOM     59  C   UNL A   1      45.021  30.445  28.527  1.00  0.00     0.037 A 
ATOM     60  C   UNL A   1      43.848  23.676  29.411  1.00  0.00     0.049 A 
ATOM     61  C   UNL A   1      45.790  29.165  28.544  1.00  0.00     0.074 A 
ATOM     62  C   UNL A   1      43.699  23.399  30.757  1.00  0.00     0.029 A 
ATOM     63  N   UNL A   1      45.002  24.414  29.303  1.00  0.00    -0.354 N 
ATOM     64  N   UNL A   1      46.236  28.605  29.635  1.00  0.00    -0.248 NA
ATOM     65  C   UNL A   1      45.624  28.269  27.406  1.00  0.00     0.031 C 
ATOM     66  C   UNL A   1      44.506  24.363  31.429  1.00  0.00     0.029 A 
ATOM     67  C   UNL A   1      45.154  25.133  30.463  1.00  0.00     0.049 A 
ATOM     68  H   UNL A   1      45.612  24.427  28.530  1.00  0.00     0.167 HD
ATOM     69  C   UNL A   1      46.004  27.247  29.458  1.00  0.00     0.074 A 
ATOM     70  C   UNL A   1      45.678  27.095  28.043  1.00  0.00     0.031 C 
ATOM     71  C   UNL A   1      45.803  26.422  30.527  1.00  0.00     0.037 A 
BRANCH  58  72
ATOM     72  C   UNL A   1      43.308  23.081  26.953  1.00  0.00     0.064 A 
ATOM     73  C   UNL A   1      43.054  21.724  26.707  1.00  0.00     0.173 A 
ATOM     74  C   UNL A   1      44.116  23.743  26.000  1.00  0.00     0.173 A 
ATOM     75  F   UNL A   1      42.342  20.997  27.580  1.00  0.00    -0.203 F 
ATOM     76  C   UNL A   1      43.594  21.071  25.598  1.00  0.00     0.198 A 
ATOM     77  C   UNL A   1      44.596  23.108  24.861  1.00  0.00     0.198 A 
ATOM     78  F   UNL A   1      44.567  24.990  26.189  1.00  0.00    -0.203 F 
ATOM     79  F   UNL A   1      43.420  19.751  25.456  1.00  0.00    -0.200 F 
ATOM     80  C   UNL A   1      44.358  21.764  24.673  1.00  0.00     0.200 A 
ATOM     81  F   UNL A   1      45.355  23.793  23.995  1.00  0.00    -0.200 F 
ATOM     82  F   UNL A   1      44.907  21.129  23.630  1.00  0.00    -0.200 F 
ENDBRANCH  58  72
BRANCH  59  83
ATOM     83  C   UNL A   1      45.338  31.532  27.565  1.00  0.00     0.064 A 
ATOM     84  C   UNL A   1      44.454  31.822  26.511  1.00  0.00     0.173 A 
ATOM     85  C   UNL A   1      46.326  32.499  27.835  1.00  0.00     0.173 A 
ATOM     86  F   UNL A   1      43.462  30.971  26.211  1.00  0.00    -0.203 F 
ATOM     87  C   UNL A   1      44.522  33.028  25.806  1.00  0.00     0.198 A 
ATOM     88  C   UNL A   1      46.395  33.700  27.126  1.00  0.00     0.198 A 
ATOM     89  F   UNL A   1      47.180  32.349  28.857  1.00  0.00    -0.203 F 
ATOM     90  F   UNL A   1      43.611  33.303  24.861  1.00  0.00    -0.200 F 
ATOM     91  C   UNL A   1      45.482  33.973  26.126  1.00  0.00     0.200 A 
ATOM     92  F   UNL A   1      47.308  34.620  27.469  1.00  0.00    -0.200 F 
ATOM     93  F   UNL A   1      45.500  35.160  25.505  1.00  0.00    -0.200 F 
ENDBRANCH  59  83
BRANCH  71  94
ATOM     94  C   UNL A   1      46.082  26.976  31.898  1.00  0.00     0.064 A 
ATOM     95  C   UNL A   1      47.360  27.032  32.483  1.00  0.00     0.173 A 
ATOM     96  C   UNL A   1      45.034  27.606  32.582  1.00  0.00     0.173 A 
ATOM     97  F   UNL A   1      48.432  26.542  31.845  1.00  0.00    -0.203 F 
ATOM     98  C   UNL A   1      47.565  27.653  33.716  1.00  0.00     0.198 A 
ATOM     99  C   UNL A   1      45.249  28.257  33.793  1.00  0.00     0.198 A 
ATOM    100  F   UNL A   1      43.804  27.632  32.046  1.00  0.00    -0.203 F 
ATOM    101  F   UNL A   1      48.791  27.684  34.260  1.00  0.00    -0.200 F 
ATOM    102  C   UNL A   1      46.510  28.272  34.365  1.00  0.00     0.200 A 
ATOM    103  F   UNL A   1      44.235  28.898  34.391  1.00  0.00    -0.200 F 
ATOM    104  F   UNL A   1      46.713  28.907  35.528  1.00  0.00    -0.200 F 
ENDBRANCH  71  94
ENDBRANCH  45  46
ENDBRANCH  38  40
ENDBRANCH  37  38
ENDBRANCH  36  37
ENDBRANCH  35  36
ENDBRANCH  34  35
ENDBRANCH  33  34
ENDBRANCH   1  33
TORSDOF 21
ENDMDL
MODEL 3
REMARK VINA RESULT:     -11.3      3.642      8.015
REMARK SMILES Cc1nn2c(nnc3c(=O)n(CCCC(=O)OCCOCCOCCOC(=O)c4ccc(-c5c6nc(c(-c7c(F)c(F)c(F)c(F)c7F)c7ccc([nH]7)c(-c7c(F)c(F)c(F)c(F)c7F)c7nc(c(-c8c(F)c(F)c(F)c(F)c8F)c8ccc5[nH]8)C=C7)C=C6)cc4)ccc32)c1-c1ccc(F)cc1
REMARK SMILES IDX 21 1 20 2 19 3 18 4 17 5 15 6 16 7 14 8 13 9 12 10 11 11
REMARK SMILES IDX 1 12 2 13 3 14 95 15 4 16 5 17 94 18 6 19 8 20 93 21 7 22
REMARK SMILES IDX 9 23 92 24 10 25 96 26 97 27 102 28 98 29 101 30 99 31
REMARK SMILES IDX 100 32 22 33 23 34 24 35 25 36 26 37 27 38 28 39 29 40 30 41
REMARK SMILES IDX 91 42 31 43 90 44 32 45 33 46 34 47 84 48 35 49 89 50 83 51
REMARK SMILES IDX 85 52 36 53 88 54 82 55 81 56 37 58 69 59 49 60 68 61 50 62
REMARK SMILES IDX 53 63 67 64 86 65 51 66 52 67 66 69 87 70 54 71 38 72 39 73
REMARK SMILES IDX 47 74 40 75 41 76 45 77 48 78 42 79 43 80 46 81 44 82 70 83
REMARK SMILES IDX 71 84 79 85 72 86 73 87 77 88 80 89 74 90 75 91 78 92 76 93
REMARK SMILES IDX 55 94 56 95 64 96 57 97 58 98 62 99 65 100 59 101 60 102
REMARK SMILES IDX 63 103 61 104
REMARK H PARENT 85 57 53 68
REMARK Flexibility Score: inf
ROOT
ATOM      1  C   UNL A   1      40.804  19.644  26.509  1.00  0.00     0.188 C 
ENDROOT
BRANCH   1   2
ATOM      2  O   UNL A   1      39.967  19.109  25.517  1.00  0.00    -0.376 OA
BRANCH   2   3
ATOM      3  C   UNL A   1      38.578  19.398  25.580  1.00  0.00     0.202 C 
BRANCH   3   4
ATOM      4  C   UNL A   1      37.926  20.580  24.835  1.00  0.00     0.261 C 
BRANCH   4   5
ATOM      5  O   UNL A   1      37.852  21.816  25.568  1.00  0.00    -0.463 OA
BRANCH   5   6
ATOM      6  C   UNL A   1      36.897  22.700  25.193  1.00  0.00     0.305 C 
ATOM      7  O   UNL A   1      36.988  23.916  25.340  1.00  0.00    -0.252 OA
BRANCH   6   8
ATOM      8  C   UNL A   1      35.708  22.096  24.451  1.00  0.00     0.124 C 
BRANCH   8   9
ATOM      9  C   UNL A   1      34.391  21.642  25.110  1.00  0.00     0.034 C 
BRANCH   9  10
ATOM     10  C   UNL A   1      33.051  22.105  24.528  1.00  0.00     0.126 C 
BRANCH  10  11
ATOM     11  N   UNL A   1      32.896  23.546  24.629  1.00  0.00    -0.313 N 
ATOM     12  C   UNL A   1      31.670  30.884  26.052  1.00  0.00     0.069 C 
ATOM     13  C   UNL A   1      31.443  29.579  25.389  1.00  0.00     0.070 A 
ATOM     14  N   UNL A   1      32.040  28.474  25.860  1.00  0.00    -0.170 NA
ATOM     15  C   UNL A   1      30.651  29.310  24.251  1.00  0.00     0.051 A 
ATOM     16  N   UNL A   1      31.746  27.510  24.947  1.00  0.00    -0.210 N 
ATOM     17  C   UNL A   1      30.913  27.996  23.948  1.00  0.00     0.186 A 
ATOM     18  C   UNL A   1      32.204  26.201  24.867  1.00  0.00     0.102 A 
ATOM     19  N   UNL A   1      30.538  27.210  22.901  1.00  0.00    -0.129 NA
ATOM     20  C   UNL A   1      31.882  25.560  23.732  1.00  0.00     0.177 A 
ATOM     21  C   UNL A   1      32.953  25.531  25.913  1.00  0.00     0.049 A 
ATOM     22  N   UNL A   1      31.055  26.077  22.759  1.00  0.00    -0.141 NA
ATOM     23  C   UNL A   1      32.466  24.224  23.493  1.00  0.00     0.280 A 
ATOM     24  C   UNL A   1      33.197  24.217  25.801  1.00  0.00     0.091 A 
ATOM     25  O   UNL A   1      32.508  23.776  22.352  1.00  0.00    -0.267 OA
BRANCH  15  26
ATOM     26  C   UNL A   1      29.806  30.127  23.414  1.00  0.00    -0.012 A 
ATOM     27  C   UNL A   1      28.996  31.121  23.972  1.00  0.00     0.012 A 
ATOM     28  C   UNL A   1      29.861  29.969  22.020  1.00  0.00     0.012 A 
ATOM     29  C   UNL A   1      28.239  31.945  23.138  1.00  0.00     0.040 A 
ATOM     30  C   UNL A   1      29.101  30.792  21.191  1.00  0.00     0.040 A 
ATOM     31  C   UNL A   1      28.296  31.771  21.758  1.00  0.00     0.123 A 
ATOM     32  F   UNL A   1      27.567  32.566  20.964  1.00  0.00    -0.207 F 
ENDBRANCH  15  26
ENDBRANCH  10  11
ENDBRANCH   9  10
ENDBRANCH   8   9
ENDBRANCH   6   8
ENDBRANCH   5   6
ENDBRANCH   4   5
ENDBRANCH   3   4
ENDBRANCH   2   3
ENDBRANCH   1   2
BRANCH   1  33
ATOM     33  C   UNL A   1      42.327  19.571  26.323  1.00  0.00     0.188 C 
BRANCH  33  34
ATOM     34  O   UNL A   1      43.078  18.450  25.893  1.00  0.00    -0.376 OA
BRANCH  34  35
ATOM     35  C   UNL A   1      44.350  18.451  25.262  1.00  0.00     0.202 C 
BRANCH  35  36
ATOM     36  C   UNL A   1      44.706  19.320  24.057  1.00  0.00     0.261 C 
BRANCH  36  37
ATOM     37  O   UNL A   1      44.429  20.678  24.263  1.00  0.00    -0.460 OA
BRANCH  37  38
ATOM     38  C   UNL A   1      45.464  21.328  24.818  1.00  0.00     0.338 C 
ATOM     39  O   UNL A   1      46.421  20.858  25.424  1.00  0.00    -0.246 OA
BRANCH  38  40
ATOM     40  C   UNL A   1      45.286  22.748  24.532  1.00  0.00     0.060 A 
ATOM     41  C   UNL A   1      46.361  23.574  24.861  1.00  0.00     0.016 A 
ATOM     42  C   UNL A   1      43.983  23.213  24.330  1.00  0.00     0.016 A 
ATOM     43  C   UNL A   1      46.049  24.776  25.420  1.00  0.00     0.010 A 
ATOM     44  C   UNL A   1      43.666  24.390  24.930  1.00  0.00     0.010 A 
ATOM     45  C   UNL A   1      44.692  25.059  25.590  1.00  0.00    -0.014 A 
BRANCH  45  46
ATOM     46  C   UNL A   1      44.344  26.057  26.557  1.00  0.00     0.031 A 
ATOM     47  C   UNL A   1      45.290  27.175  26.541  1.00  0.00     0.074 A 
ATOM     48  C   UNL A   1      43.246  25.929  27.321  1.00  0.00     0.049 A 
ATOM     49  N   UNL A   1      46.218  27.406  27.405  1.00  0.00    -0.248 NA
ATOM     50  C   UNL A   1      45.379  27.976  25.311  1.00  0.00     0.031 C 
ATOM     51  C   UNL A   1      42.143  24.969  27.215  1.00  0.00     0.029 A 
ATOM     52  N   UNL A   1      42.855  26.729  28.343  1.00  0.00    -0.354 N 
ATOM     53  C   UNL A   1      46.877  28.523  26.923  1.00  0.00     0.074 A 
ATOM     54  C   UNL A   1      46.486  28.677  25.546  1.00  0.00     0.031 C 
ATOM     55  C   UNL A   1      41.108  25.395  27.981  1.00  0.00     0.029 A 
ATOM     56  C   UNL A   1      41.529  26.569  28.724  1.00  0.00     0.049 A 
ATOM     57  H   UNL A   1      43.462  27.372  28.778  1.00  0.00     0.167 HD
ATOM     58  C   UNL A   1      47.450  29.408  27.776  1.00  0.00     0.037 A 
ATOM     59  C   UNL A   1      40.856  27.453  29.504  1.00  0.00     0.037 A 
ATOM     60  C   UNL A   1      47.629  28.842  29.087  1.00  0.00     0.049 A 
ATOM     61  C   UNL A   1      41.886  28.249  30.237  1.00  0.00     0.074 A 
ATOM     62  C   UNL A   1      48.356  27.776  29.581  1.00  0.00     0.029 A 
ATOM     63  N   UNL A   1      46.678  29.123  30.039  1.00  0.00    -0.354 N 
ATOM     64  N   UNL A   1      42.670  27.746  31.151  1.00  0.00    -0.248 NA
ATOM     65  C   UNL A   1      42.373  29.465  29.596  1.00  0.00     0.031 C 
ATOM     66  C   UNL A   1      47.524  27.183  30.574  1.00  0.00     0.029 A 
ATOM     67  C   UNL A   1      46.364  27.951  30.682  1.00  0.00     0.049 A 
ATOM     68  H   UNL A   1      46.289  30.008  30.226  1.00  0.00     0.167 HD
ATOM     69  C   UNL A   1      43.912  28.320  30.908  1.00  0.00     0.074 A 
ATOM     70  C   UNL A   1      43.654  29.413  29.975  1.00  0.00     0.031 C 
ATOM     71  C   UNL A   1      45.065  27.671  31.246  1.00  0.00     0.037 A 
BRANCH  58  72
ATOM     72  C   UNL A   1      47.481  30.880  27.500  1.00  0.00     0.064 A 
ATOM     73  C   UNL A   1      46.275  31.585  27.389  1.00  0.00     0.173 A 
ATOM     74  C   UNL A   1      48.645  31.573  27.094  1.00  0.00     0.173 A 
ATOM     75  F   UNL A   1      45.112  30.995  27.700  1.00  0.00    -0.203 F 
ATOM     76  C   UNL A   1      46.236  32.885  26.882  1.00  0.00     0.198 A 
ATOM     77  C   UNL A   1      48.611  32.890  26.654  1.00  0.00     0.198 A 
ATOM     78  F   UNL A   1      49.837  30.971  26.998  1.00  0.00    -0.203 F 
ATOM     79  F   UNL A   1      45.054  33.485  26.689  1.00  0.00    -0.200 F 
ATOM     80  C   UNL A   1      47.403  33.539  26.523  1.00  0.00     0.200 A 
ATOM     81  F   UNL A   1      49.751  33.492  26.288  1.00  0.00    -0.200 F 
ATOM     82  F   UNL A   1      47.361  34.771  26.001  1.00  0.00    -0.200 F 
ENDBRANCH  58  72
BRANCH  59  83
ATOM     83  C   UNL A   1      39.473  27.962  29.309  1.00  0.00     0.064 A 
ATOM     84  C   UNL A   1      38.608  28.092  30.409  1.00  0.00     0.173 A 
ATOM     85  C   UNL A   1      39.082  28.619  28.126  1.00  0.00     0.173 A 
ATOM     86  F   UNL A   1      38.923  27.526  31.584  1.00  0.00    -0.203 F 
ATOM     87  C   UNL A   1      37.450  28.874  30.345  1.00  0.00     0.198 A 
ATOM     88  C   UNL A   1      37.924  29.395  28.063  1.00  0.00     0.198 A 
ATOM     89  F   UNL A   1      39.865  28.610  27.038  1.00  0.00    -0.203 F 
ATOM     90  F   UNL A   1      36.692  29.039  31.438  1.00  0.00    -0.200 F 
ATOM     91  C   UNL A   1      37.119  29.539  29.176  1.00  0.00     0.200 A 
ATOM     92  F   UNL A   1      37.633  30.061  26.936  1.00  0.00    -0.200 F 
ATOM     93  F   UNL A   1      36.053  30.351  29.136  1.00  0.00    -0.200 F 
ENDBRANCH  59  83
BRANCH  71  94
ATOM     94  C   UNL A   1      44.947  26.440  32.104  1.00  0.00     0.064 A 
ATOM     95  C   UNL A   1      44.896  26.458  33.510  1.00  0.00     0.173 A 
ATOM     96  C   UNL A   1      44.730  25.210  31.469  1.00  0.00     0.173 A 
ATOM     97  F   UNL A   1      44.994  27.610  34.188  1.00  0.00    -0.203 F 
ATOM     98  C   UNL A   1      44.682  25.289  34.241  1.00  0.00     0.198 A 
ATOM     99  C   UNL A   1      44.479  24.053  32.200  1.00  0.00     0.198 A 
ATOM    100  F   UNL A   1      44.712  25.142  30.129  1.00  0.00    -0.203 F 
ATOM    101  F   UNL A   1      44.650  25.330  35.582  1.00  0.00    -0.200 F 
ATOM    102  C   UNL A   1      44.465  24.090  33.585  1.00  0.00     0.200 A 
ATOM    103  F   UNL A   1      44.219  22.905  31.558  1.00  0.00    -0.200 F 
ATOM    104  F   UNL A   1      44.216  22.974  34.284  1.00  0.00    -0.200 F 
ENDBRANCH  71  94
ENDBRANCH  45  46
ENDBRANCH  38  40
ENDBRANCH  37  38
ENDBRANCH  36  37
ENDBRANCH  35  36
ENDBRANCH  34  35
ENDBRANCH  33  34
ENDBRANCH   1  33
TORSDOF 21
ENDMDL
