MODEL 1
REMARK VINA RESULT:     -12.3      0.000      0.000
REMARK SMILES COc1ccc(O)c([C@@H]2[C@H](C(=O)OCCOCCOCCOC(=O)c3ccc(-c4c5nc(c(-c6c(F)c(F)c(F)c(F)c6F)c6ccc([nH]6)c(-c6c(F)c(F)c(F)c(F)c6F)c6nc(c(-c7c(F)c(F)c(F)c(F)c7F)c7ccc4[nH]7)C=C6)C=C5)cc3)c3ccccc3C(=O)N2C)c1
REMARK SMILES IDX 17 1 16 2 15 3 14 4 13 5 11 6 12 7 10 8 9 9 96 10 88 11
REMARK SMILES IDX 94 12 97 13 89 14 93 15 95 16 90 17 92 18 91 19 8 20 3 21
REMARK SMILES IDX 4 22 98 23 5 24 6 25 2 26 1 27 7 28 18 30 19 31 20 32 21 33
REMARK SMILES IDX 22 34 23 35 24 36 25 37 26 38 87 39 27 40 86 41 28 42 29 43
REMARK SMILES IDX 30 44 80 45 31 46 85 47 79 48 81 49 32 50 84 51 78 52 77 53
REMARK SMILES IDX 33 55 65 56 45 57 64 58 46 59 49 60 63 61 82 62 47 63 48 64
REMARK SMILES IDX 62 66 83 67 50 68 34 69 35 70 43 71 36 72 37 73 41 74 44 75
REMARK SMILES IDX 38 76 39 77 42 78 40 79 66 80 67 81 75 82 68 83 69 84 73 85
REMARK SMILES IDX 76 86 70 87 71 88 74 89 72 90 51 91 52 92 60 93 53 94 54 95
REMARK SMILES IDX 58 96 61 97 55 98 56 99 59 100 57 101
REMARK H PARENT 7 29 81 54 49 65
REMARK Flexibility Score: inf
ROOT
ATOM      1  C   UNL A   1      40.029  21.091  26.354  1.00  0.00     0.188 C 
ENDROOT
BRANCH   1   2
ATOM      2  O   UNL A   1      38.880  21.521  25.645  1.00  0.00    -0.376 OA
BRANCH   2   3
ATOM      3  C   UNL A   1      38.342  22.772  26.045  1.00  0.00     0.202 C 
BRANCH   3   4
ATOM      4  C   UNL A   1      36.881  23.048  25.642  1.00  0.00     0.261 C 
BRANCH   4   5
ATOM      5  O   UNL A   1      36.258  22.082  24.740  1.00  0.00    -0.463 OA
BRANCH   5   6
ATOM      6  C   UNL A   1      35.806  22.586  23.548  1.00  0.00     0.316 C 
ATOM      7  O   UNL A   1      36.533  23.175  22.751  1.00  0.00    -0.251 OA
BRANCH   6   8
ATOM      8  C   UNL A   1      34.264  22.531  23.345  1.00  0.00     0.157 C 
ATOM      9  C   UNL A   1      33.287  21.639  24.187  1.00  0.00     0.138 C 
ATOM     10  N   UNL A   1      33.399  22.004  25.615  1.00  0.00    -0.333 N 
ATOM     11  C   UNL A   1      33.798  23.966  23.565  1.00  0.00    -0.019 A 
ATOM     12  C   UNL A   1      33.328  23.358  25.966  1.00  0.00     0.254 C 
ATOM     13  C   UNL A   1      33.263  21.032  26.695  1.00  0.00     0.147 C 
ATOM     14  C   UNL A   1      33.888  24.918  22.543  1.00  0.00     0.005 A 
ATOM     15  C   UNL A   1      33.386  24.356  24.855  1.00  0.00     0.044 A 
ATOM     16  O   UNL A   1      33.226  23.749  27.129  1.00  0.00    -0.269 OA
ATOM     17  C   UNL A   1      33.562  26.247  22.802  1.00  0.00     0.000 A 
ATOM     18  C   UNL A   1      33.063  25.691  25.105  1.00  0.00     0.014 A 
ATOM     19  C   UNL A   1      33.150  26.633  24.079  1.00  0.00     0.001 A 
BRANCH   9  20
ATOM     20  C   UNL A   1      33.177  20.136  23.915  1.00  0.00     0.021 A 
ATOM     21  C   UNL A   1      33.980  17.847  24.255  1.00  0.00     0.119 A 
ATOM     22  C   UNL A   1      33.313  17.400  23.127  1.00  0.00     0.050 A 
ATOM     23  C   UNL A   1      33.961  19.202  24.625  1.00  0.00     0.056 A 
ATOM     24  C   UNL A   1      32.525  18.298  22.441  1.00  0.00     0.050 A 
ATOM     25  C   UNL A   1      32.421  19.618  22.875  1.00  0.00     0.121 A 
BRANCH  21  26
ATOM     26  O   UNL A   1      34.720  16.955  24.976  1.00  0.00    -0.497 OA
ATOM     27  C   UNL A   1      33.913  15.828  25.332  1.00  0.00     0.278 C 
ENDBRANCH  21  26
BRANCH  25  28
ATOM     28  O   UNL A   1      31.584  20.427  22.199  1.00  0.00    -0.508 OA
ATOM     29  H   UNL A   1      31.569  20.408  21.261  1.00  0.00     0.293 HD
ENDBRANCH  25  28
ENDBRANCH   9  20
ENDBRANCH   6   8
ENDBRANCH   5   6
ENDBRANCH   4   5
ENDBRANCH   3   4
ENDBRANCH   2   3
ENDBRANCH   1   2
BRANCH   1  30
ATOM     30  C   UNL A   1      40.466  19.624  26.125  1.00  0.00     0.188 C 
BRANCH  30  31
ATOM     31  O   UNL A   1      41.649  19.405  25.377  1.00  0.00    -0.376 OA
BRANCH  31  32
ATOM     32  C   UNL A   1      42.871  19.511  26.097  1.00  0.00     0.202 C 
BRANCH  32  33
ATOM     33  C   UNL A   1      43.731  20.725  25.725  1.00  0.00     0.261 C 
BRANCH  33  34
ATOM     34  O   UNL A   1      43.280  21.936  26.380  1.00  0.00    -0.460 OA
BRANCH  34  35
ATOM     35  C   UNL A   1      42.969  22.948  25.537  1.00  0.00     0.338 C 
ATOM     36  O   UNL A   1      43.116  22.941  24.323  1.00  0.00    -0.246 OA
BRANCH  35  37
ATOM     37  C   UNL A   1      42.376  24.124  26.217  1.00  0.00     0.060 A 
ATOM     38  C   UNL A   1      42.695  25.419  25.822  1.00  0.00     0.016 A 
ATOM     39  C   UNL A   1      41.745  23.932  27.444  1.00  0.00     0.016 A 
ATOM     40  C   UNL A   1      42.559  26.488  26.719  1.00  0.00     0.010 A 
ATOM     41  C   UNL A   1      41.474  25.027  28.279  1.00  0.00     0.010 A 
ATOM     42  C   UNL A   1      41.924  26.321  27.957  1.00  0.00    -0.014 A 
BRANCH  42  43
ATOM     43  C   UNL A   1      41.719  27.450  28.924  1.00  0.00     0.031 A 
ATOM     44  C   UNL A   1      42.612  27.589  30.136  1.00  0.00     0.074 A 
ATOM     45  C   UNL A   1      40.706  28.329  28.773  1.00  0.00     0.049 A 
ATOM     46  N   UNL A   1      42.398  28.216  31.267  1.00  0.00    -0.248 NA
ATOM     47  C   UNL A   1      43.923  26.923  30.064  1.00  0.00     0.031 C 
ATOM     48  C   UNL A   1      39.812  28.418  27.619  1.00  0.00     0.029 A 
ATOM     49  N   UNL A   1      40.234  29.305  29.626  1.00  0.00    -0.354 N 
ATOM     50  C   UNL A   1      43.507  27.959  32.067  1.00  0.00     0.074 A 
ATOM     51  C   UNL A   1      44.403  27.133  31.283  1.00  0.00     0.031 C 
ATOM     52  C   UNL A   1      38.910  29.386  27.827  1.00  0.00     0.029 A 
ATOM     53  C   UNL A   1      39.073  29.897  29.182  1.00  0.00     0.049 A 
ATOM     54  H   UNL A   1      40.682  29.553  30.467  1.00  0.00     0.167 HD
ATOM     55  C   UNL A   1      43.741  28.360  33.342  1.00  0.00     0.037 A 
ATOM     56  C   UNL A   1      38.181  30.684  29.811  1.00  0.00     0.037 A 
ATOM     57  C   UNL A   1      42.863  29.224  34.093  1.00  0.00     0.049 A 
ATOM     58  C   UNL A   1      38.400  31.036  31.256  1.00  0.00     0.074 A 
ATOM     59  C   UNL A   1      43.007  29.692  35.389  1.00  0.00     0.029 A 
ATOM     60  N   UNL A   1      41.678  29.759  33.609  1.00  0.00    -0.354 N 
ATOM     61  N   UNL A   1      39.397  30.715  32.043  1.00  0.00    -0.248 NA
ATOM     62  C   UNL A   1      37.354  31.838  31.906  1.00  0.00     0.031 C 
ATOM     63  C   UNL A   1      41.883  30.464  35.706  1.00  0.00     0.029 A 
ATOM     64  C   UNL A   1      41.069  30.530  34.588  1.00  0.00     0.049 A 
ATOM     65  H   UNL A   1      41.321  29.614  32.702  1.00  0.00     0.167 HD
ATOM     66  C   UNL A   1      39.110  31.291  33.273  1.00  0.00     0.074 A 
ATOM     67  C   UNL A   1      37.856  31.997  33.123  1.00  0.00     0.031 C 
ATOM     68  C   UNL A   1      39.823  31.235  34.425  1.00  0.00     0.037 A 
BRANCH  55  69
ATOM     69  C   UNL A   1      44.963  27.825  34.040  1.00  0.00     0.064 A 
ATOM     70  C   UNL A   1      46.186  28.511  34.051  1.00  0.00     0.173 A 
ATOM     71  C   UNL A   1      44.889  26.616  34.754  1.00  0.00     0.173 A 
ATOM     72  F   UNL A   1      46.317  29.668  33.384  1.00  0.00    -0.203 F 
ATOM     73  C   UNL A   1      47.295  27.993  34.721  1.00  0.00     0.198 A 
ATOM     74  C   UNL A   1      45.989  26.118  35.449  1.00  0.00     0.198 A 
ATOM     75  F   UNL A   1      43.742  25.922  34.791  1.00  0.00    -0.203 F 
ATOM     76  F   UNL A   1      48.466  28.643  34.676  1.00  0.00    -0.200 F 
ATOM     77  C   UNL A   1      47.194  26.801  35.424  1.00  0.00     0.200 A 
ATOM     78  F   UNL A   1      45.881  24.975  36.141  1.00  0.00    -0.200 F 
ATOM     79  F   UNL A   1      48.258  26.309  36.071  1.00  0.00    -0.200 F 
ENDBRANCH  55  69
BRANCH  56  80
ATOM     80  C   UNL A   1      36.949  31.123  29.099  1.00  0.00     0.064 A 
ATOM     81  C   UNL A   1      36.800  32.446  28.662  1.00  0.00     0.173 A 
ATOM     82  C   UNL A   1      35.895  30.230  28.840  1.00  0.00     0.173 A 
ATOM     83  F   UNL A   1      37.763  33.345  28.912  1.00  0.00    -0.203 F 
ATOM     84  C   UNL A   1      35.644  32.860  28.001  1.00  0.00     0.198 A 
ATOM     85  C   UNL A   1      34.757  30.636  28.145  1.00  0.00     0.198 A 
ATOM     86  F   UNL A   1      35.981  28.953  29.241  1.00  0.00    -0.203 F 
ATOM     87  F   UNL A   1      35.509  34.142  27.635  1.00  0.00    -0.200 F 
ATOM     88  C   UNL A   1      34.630  31.953  27.735  1.00  0.00     0.200 A 
ATOM     89  F   UNL A   1      33.788  29.751  27.875  1.00  0.00    -0.200 F 
ATOM     90  F   UNL A   1      33.525  32.351  27.088  1.00  0.00    -0.200 F 
ENDBRANCH  56  80
BRANCH  68  91
ATOM     91  C   UNL A   1      39.285  31.995  35.603  1.00  0.00     0.064 A 
ATOM     92  C   UNL A   1      39.595  33.346  35.815  1.00  0.00     0.173 A 
ATOM     93  C   UNL A   1      38.421  31.369  36.515  1.00  0.00     0.173 A 
ATOM     94  F   UNL A   1      40.432  33.985  34.983  1.00  0.00    -0.203 F 
ATOM     95  C   UNL A   1      39.079  34.036  36.909  1.00  0.00     0.198 A 
ATOM     96  C   UNL A   1      37.881  32.070  37.589  1.00  0.00     0.198 A 
ATOM     97  F   UNL A   1      38.091  30.078  36.357  1.00  0.00    -0.203 F 
ATOM     98  F   UNL A   1      39.428  35.313  37.118  1.00  0.00    -0.200 F 
ATOM     99  C   UNL A   1      38.216  33.401  37.789  1.00  0.00     0.200 A 
ATOM    100  F   UNL A   1      37.038  31.457  38.432  1.00  0.00    -0.200 F 
ATOM    101  F   UNL A   1      37.713  34.068  38.837  1.00  0.00    -0.200 F 
ENDBRANCH  68  91
ENDBRANCH  42  43
ENDBRANCH  35  37
ENDBRANCH  34  35
ENDBRANCH  33  34
ENDBRANCH  32  33
ENDBRANCH  31  32
ENDBRANCH  30  31
ENDBRANCH   1  30
TORSDOF 20
ENDMDL
MODEL 2
REMARK VINA RESULT:     -12.0      3.524      9.060
REMARK SMILES COc1ccc(O)c([C@@H]2[C@H](C(=O)OCCOCCOCCOC(=O)c3ccc(-c4c5nc(c(-c6c(F)c(F)c(F)c(F)c6F)c6ccc([nH]6)c(-c6c(F)c(F)c(F)c(F)c6F)c6nc(c(-c7c(F)c(F)c(F)c(F)c7F)c7ccc4[nH]7)C=C6)C=C5)cc3)c3ccccc3C(=O)N2C)c1
REMARK SMILES IDX 17 1 16 2 15 3 14 4 13 5 11 6 12 7 10 8 9 9 96 10 88 11
REMARK SMILES IDX 94 12 97 13 89 14 93 15 95 16 90 17 92 18 91 19 8 20 3 21
REMARK SMILES IDX 4 22 98 23 5 24 6 25 2 26 1 27 7 28 18 30 19 31 20 32 21 33
REMARK SMILES IDX 22 34 23 35 24 36 25 37 26 38 87 39 27 40 86 41 28 42 29 43
REMARK SMILES IDX 30 44 80 45 31 46 85 47 79 48 81 49 32 50 84 51 78 52 77 53
REMARK SMILES IDX 33 55 65 56 45 57 64 58 46 59 49 60 63 61 82 62 47 63 48 64
REMARK SMILES IDX 62 66 83 67 50 68 34 69 35 70 43 71 36 72 37 73 41 74 44 75
REMARK SMILES IDX 38 76 39 77 42 78 40 79 66 80 67 81 75 82 68 83 69 84 73 85
REMARK SMILES IDX 76 86 70 87 71 88 74 89 72 90 51 91 52 92 60 93 53 94 54 95
REMARK SMILES IDX 58 96 61 97 55 98 56 99 59 100 57 101
REMARK H PARENT 7 29 81 54 49 65
REMARK Flexibility Score: inf
ROOT
ATOM      1  C   UNL A   1      34.724  31.912  28.136  1.00  0.00     0.188 C 
ENDROOT
BRANCH   1   2
ATOM      2  O   UNL A   1      35.625  30.860  28.432  1.00  0.00    -0.376 OA
BRANCH   2   3
ATOM      3  C   UNL A   1      35.485  29.688  27.644  1.00  0.00     0.202 C 
BRANCH   3   4
ATOM      4  C   UNL A   1      34.200  29.581  26.802  1.00  0.00     0.261 C 
BRANCH   4   5
ATOM      5  O   UNL A   1      34.262  28.726  25.618  1.00  0.00    -0.463 OA
BRANCH   5   6
ATOM      6  C   UNL A   1      33.509  27.582  25.671  1.00  0.00     0.316 C 
ATOM      7  O   UNL A   1      33.095  27.100  26.723  1.00  0.00    -0.251 OA
BRANCH   6   8
ATOM      8  C   UNL A   1      33.362  26.820  24.322  1.00  0.00     0.157 C 
ATOM      9  C   UNL A   1      33.262  25.260  24.187  1.00  0.00     0.138 C 
ATOM     10  N   UNL A   1      32.088  24.778  24.945  1.00  0.00    -0.333 N 
ATOM     11  C   UNL A   1      32.075  27.365  23.713  1.00  0.00    -0.019 A 
ATOM     12  C   UNL A   1      30.857  25.415  24.746  1.00  0.00     0.254 C 
ATOM     13  C   UNL A   1      32.065  23.495  25.639  1.00  0.00     0.147 C 
ATOM     14  C   UNL A   1      32.066  28.579  23.017  1.00  0.00     0.005 A 
ATOM     15  C   UNL A   1      30.865  26.690  23.965  1.00  0.00     0.044 A 
ATOM     16  O   UNL A   1      29.792  24.977  25.183  1.00  0.00    -0.269 OA
ATOM     17  C   UNL A   1      30.859  29.112  22.568  1.00  0.00     0.000 A 
ATOM     18  C   UNL A   1      29.661  27.233  23.512  1.00  0.00     0.014 A 
ATOM     19  C   UNL A   1      29.660  28.441  22.814  1.00  0.00     0.001 A 
BRANCH   9  20
ATOM     20  C   UNL A   1      34.513  24.387  24.316  1.00  0.00     0.021 A 
ATOM     21  C   UNL A   1      36.612  23.830  25.449  1.00  0.00     0.119 A 
ATOM     22  C   UNL A   1      37.055  23.099  24.359  1.00  0.00     0.050 A 
ATOM     23  C   UNL A   1      35.383  24.509  25.420  1.00  0.00     0.056 A 
ATOM     24  C   UNL A   1      36.204  22.952  23.286  1.00  0.00     0.050 A 
ATOM     25  C   UNL A   1      34.940  23.538  23.307  1.00  0.00     0.121 A 
BRANCH  21  26
ATOM     26  O   UNL A   1      37.424  23.936  26.541  1.00  0.00    -0.497 OA
ATOM     27  C   UNL A   1      38.669  23.277  26.288  1.00  0.00     0.278 C 
ENDBRANCH  21  26
BRANCH  25  28
ATOM     28  O   UNL A   1      34.132  23.302  22.255  1.00  0.00    -0.508 OA
ATOM     29  H   UNL A   1      33.964  22.421  21.982  1.00  0.00     0.293 HD
ENDBRANCH  25  28
ENDBRANCH   9  20
ENDBRANCH   6   8
ENDBRANCH   5   6
ENDBRANCH   4   5
ENDBRANCH   3   4
ENDBRANCH   2   3
ENDBRANCH   1   2
BRANCH   1  30
ATOM     30  C   UNL A   1      35.217  33.345  28.447  1.00  0.00     0.188 C 
BRANCH  30  31
ATOM     31  O   UNL A   1      34.726  34.396  27.632  1.00  0.00    -0.376 OA
BRANCH  31  32
ATOM     32  C   UNL A   1      34.230  35.538  28.317  1.00  0.00     0.202 C 
BRANCH  32  33
ATOM     33  C   UNL A   1      33.247  35.228  29.453  1.00  0.00     0.261 C 
BRANCH  33  34
ATOM     34  O   UNL A   1      33.143  36.321  30.399  1.00  0.00    -0.460 OA
BRANCH  34  35
ATOM     35  C   UNL A   1      32.690  35.962  31.622  1.00  0.00     0.338 C 
ATOM     36  O   UNL A   1      31.548  36.106  32.035  1.00  0.00    -0.246 OA
BRANCH  35  37
ATOM     37  C   UNL A   1      33.722  35.318  32.471  1.00  0.00     0.060 A 
ATOM     38  C   UNL A   1      35.032  35.786  32.489  1.00  0.00     0.016 A 
ATOM     39  C   UNL A   1      33.450  34.062  33.006  1.00  0.00     0.016 A 
ATOM     40  C   UNL A   1      36.083  34.937  32.862  1.00  0.00     0.010 A 
ATOM     41  C   UNL A   1      34.490  33.272  33.519  1.00  0.00     0.010 A 
ATOM     42  C   UNL A   1      35.834  33.671  33.408  1.00  0.00    -0.014 A 
BRANCH  42  43
ATOM     43  C   UNL A   1      36.930  32.752  33.862  1.00  0.00     0.031 A 
ATOM     44  C   UNL A   1      37.604  32.970  35.198  1.00  0.00     0.074 A 
ATOM     45  C   UNL A   1      37.379  31.750  33.077  1.00  0.00     0.049 A 
ATOM     46  N   UNL A   1      38.780  32.571  35.618  1.00  0.00    -0.248 NA
ATOM     47  C   UNL A   1      36.851  33.751  36.192  1.00  0.00     0.031 C 
ATOM     48  C   UNL A   1      36.786  31.322  31.810  1.00  0.00     0.029 A 
ATOM     49  N   UNL A   1      38.475  30.926  33.218  1.00  0.00    -0.354 N 
ATOM     50  C   UNL A   1      38.941  33.114  36.889  1.00  0.00     0.074 A 
ATOM     51  C   UNL A   1      37.731  33.856  37.181  1.00  0.00     0.031 C 
ATOM     52  C   UNL A   1      37.513  30.322  31.294  1.00  0.00     0.029 A 
ATOM     53  C   UNL A   1      38.696  30.126  32.119  1.00  0.00     0.049 A 
ATOM     54  H   UNL A   1      39.043  30.911  34.023  1.00  0.00     0.167 HD
ATOM     55  C   UNL A   1      40.009  33.017  37.721  1.00  0.00     0.037 A 
ATOM     56  C   UNL A   1      39.764  29.390  31.757  1.00  0.00     0.037 A 
ATOM     57  C   UNL A   1      41.187  32.233  37.439  1.00  0.00     0.049 A 
ATOM     58  C   UNL A   1      40.980  29.373  32.640  1.00  0.00     0.074 A 
ATOM     59  C   UNL A   1      42.322  32.065  38.214  1.00  0.00     0.029 A 
ATOM     60  N   UNL A   1      41.375  31.477  36.291  1.00  0.00    -0.354 N 
ATOM     61  N   UNL A   1      41.172  29.963  33.793  1.00  0.00    -0.248 NA
ATOM     62  C   UNL A   1      42.139  28.610  32.154  1.00  0.00     0.031 C 
ATOM     63  C   UNL A   1      43.219  31.252  37.510  1.00  0.00     0.029 A 
ATOM     64  C   UNL A   1      42.619  30.862  36.325  1.00  0.00     0.049 A 
ATOM     65  H   UNL A   1      40.723  31.389  35.558  1.00  0.00     0.167 HD
ATOM     66  C   UNL A   1      42.462  29.626  34.182  1.00  0.00     0.074 A 
ATOM     67  C   UNL A   1      43.000  28.766  33.150  1.00  0.00     0.031 C 
ATOM     68  C   UNL A   1      43.141  30.001  35.294  1.00  0.00     0.037 A 
BRANCH  55  69
ATOM     69  C   UNL A   1      39.990  33.821  38.994  1.00  0.00     0.064 A 
ATOM     70  C   UNL A   1      40.548  35.105  39.083  1.00  0.00     0.173 A 
ATOM     71  C   UNL A   1      39.357  33.307  40.139  1.00  0.00     0.173 A 
ATOM     72  F   UNL A   1      41.169  35.646  38.023  1.00  0.00    -0.203 F 
ATOM     73  C   UNL A   1      40.500  35.828  40.274  1.00  0.00     0.198 A 
ATOM     74  C   UNL A   1      39.282  34.044  41.318  1.00  0.00     0.198 A 
ATOM     75  F   UNL A   1      38.794  32.089  40.110  1.00  0.00    -0.203 F 
ATOM     76  F   UNL A   1      41.082  37.033  40.348  1.00  0.00    -0.200 F 
ATOM     77  C   UNL A   1      39.863  35.301  41.388  1.00  0.00     0.200 A 
ATOM     78  F   UNL A   1      38.650  33.538  42.385  1.00  0.00    -0.200 F 
ATOM     79  F   UNL A   1      39.813  36.000  42.530  1.00  0.00    -0.200 F 
ENDBRANCH  55  69
BRANCH  56  80
ATOM     80  C   UNL A   1      39.761  28.675  30.451  1.00  0.00     0.064 A 
ATOM     81  C   UNL A   1      39.243  27.378  30.338  1.00  0.00     0.173 A 
ATOM     82  C   UNL A   1      40.276  29.272  29.287  1.00  0.00     0.173 A 
ATOM     83  F   UNL A   1      38.768  26.752  31.425  1.00  0.00    -0.203 F 
ATOM     84  C   UNL A   1      39.246  26.705  29.118  1.00  0.00     0.198 A 
ATOM     85  C   UNL A   1      40.243  28.612  28.061  1.00  0.00     0.198 A 
ATOM     86  F   UNL A   1      40.791  30.510  29.338  1.00  0.00    -0.203 F 
ATOM     87  F   UNL A   1      38.786  25.447  29.049  1.00  0.00    -0.200 F 
ATOM     88  C   UNL A   1      39.736  27.326  27.979  1.00  0.00     0.200 A 
ATOM     89  F   UNL A   1      40.702  29.224  26.961  1.00  0.00    -0.200 F 
ATOM     90  F   UNL A   1      39.726  26.681  26.805  1.00  0.00    -0.200 F 
ENDBRANCH  56  80
BRANCH  68  91
ATOM     91  C   UNL A   1      44.524  29.447  35.474  1.00  0.00     0.064 A 
ATOM     92  C   UNL A   1      44.751  28.224  36.121  1.00  0.00     0.173 A 
ATOM     93  C   UNL A   1      45.635  30.136  34.964  1.00  0.00     0.173 A 
ATOM     94  F   UNL A   1      43.724  27.536  36.645  1.00  0.00    -0.203 F 
ATOM     95  C   UNL A   1      46.041  27.722  36.271  1.00  0.00     0.198 A 
ATOM     96  C   UNL A   1      46.920  29.615  35.087  1.00  0.00     0.198 A 
ATOM     97  F   UNL A   1      45.473  31.309  34.335  1.00  0.00    -0.203 F 
ATOM     98  F   UNL A   1      46.239  26.575  36.936  1.00  0.00    -0.200 F 
ATOM     99  C   UNL A   1      47.123  28.413  35.746  1.00  0.00     0.200 A 
ATOM    100  F   UNL A   1      47.963  30.279  34.567  1.00  0.00    -0.200 F 
ATOM    101  F   UNL A   1      48.364  27.924  35.883  1.00  0.00    -0.200 F 
ENDBRANCH  68  91
ENDBRANCH  42  43
ENDBRANCH  35  37
ENDBRANCH  34  35
ENDBRANCH  33  34
ENDBRANCH  32  33
ENDBRANCH  31  32
ENDBRANCH  30  31
ENDBRANCH   1  30
TORSDOF 20
ENDMDL
MODEL 3
REMARK VINA RESULT:     -11.8      4.028      9.671
REMARK SMILES COc1ccc(O)c([C@@H]2[C@H](C(=O)OCCOCCOCCOC(=O)c3ccc(-c4c5nc(c(-c6c(F)c(F)c(F)c(F)c6F)c6ccc([nH]6)c(-c6c(F)c(F)c(F)c(F)c6F)c6nc(c(-c7c(F)c(F)c(F)c(F)c7F)c7ccc4[nH]7)C=C6)C=C5)cc3)c3ccccc3C(=O)N2C)c1
REMARK SMILES IDX 17 1 16 2 15 3 14 4 13 5 11 6 12 7 10 8 9 9 96 10 88 11
REMARK SMILES IDX 94 12 97 13 89 14 93 15 95 16 90 17 92 18 91 19 8 20 3 21
REMARK SMILES IDX 4 22 98 23 5 24 6 25 2 26 1 27 7 28 18 30 19 31 20 32 21 33
REMARK SMILES IDX 22 34 23 35 24 36 25 37 26 38 87 39 27 40 86 41 28 42 29 43
REMARK SMILES IDX 30 44 80 45 31 46 85 47 79 48 81 49 32 50 84 51 78 52 77 53
REMARK SMILES IDX 33 55 65 56 45 57 64 58 46 59 49 60 63 61 82 62 47 63 48 64
REMARK SMILES IDX 62 66 83 67 50 68 34 69 35 70 43 71 36 72 37 73 41 74 44 75
REMARK SMILES IDX 38 76 39 77 42 78 40 79 66 80 67 81 75 82 68 83 69 84 73 85
REMARK SMILES IDX 76 86 70 87 71 88 74 89 72 90 51 91 52 92 60 93 53 94 54 95
REMARK SMILES IDX 58 96 61 97 55 98 56 99 59 100 57 101
REMARK H PARENT 7 29 81 54 49 65
REMARK Flexibility Score: inf
ROOT
ATOM      1  C   UNL A   1      34.606  31.800  27.979  1.00  0.00     0.188 C 
ENDROOT
BRANCH   1   2
ATOM      2  O   UNL A   1      34.256  30.566  27.377  1.00  0.00    -0.376 OA
BRANCH   2   3
ATOM      3  C   UNL A   1      32.866  30.329  27.219  1.00  0.00     0.202 C 
BRANCH   3   4
ATOM      4  C   UNL A   1      32.435  29.633  25.913  1.00  0.00     0.261 C 
BRANCH   4   5
ATOM      5  O   UNL A   1      32.578  28.180  25.869  1.00  0.00    -0.463 OA
BRANCH   5   6
ATOM      6  C   UNL A   1      31.605  27.466  26.518  1.00  0.00     0.316 C 
ATOM      7  O   UNL A   1      31.451  27.497  27.737  1.00  0.00    -0.251 OA
BRANCH   6   8
ATOM      8  C   UNL A   1      30.815  26.460  25.631  1.00  0.00     0.157 C 
ATOM      9  C   UNL A   1      30.559  26.639  24.094  1.00  0.00     0.138 C 
ATOM     10  N   UNL A   1      31.856  26.725  23.389  1.00  0.00    -0.333 N 
ATOM     11  C   UNL A   1      31.581  25.149  25.766  1.00  0.00    -0.019 A 
ATOM     12  C   UNL A   1      32.830  25.755  23.662  1.00  0.00     0.254 C 
ATOM     13  C   UNL A   1      32.064  27.557  22.209  1.00  0.00     0.147 C 
ATOM     14  C   UNL A   1      31.386  24.311  26.871  1.00  0.00     0.005 A 
ATOM     15  C   UNL A   1      32.582  24.846  24.822  1.00  0.00     0.044 A 
ATOM     16  O   UNL A   1      33.861  25.629  23.000  1.00  0.00    -0.269 OA
ATOM     17  C   UNL A   1      32.178  23.176  27.028  1.00  0.00     0.000 A 
ATOM     18  C   UNL A   1      33.371  23.706  24.990  1.00  0.00     0.014 A 
ATOM     19  C   UNL A   1      33.168  22.873  26.091  1.00  0.00     0.001 A 
BRANCH   9  20
ATOM     20  C   UNL A   1      29.491  27.615  23.592  1.00  0.00     0.021 A 
ATOM     21  C   UNL A   1      28.812  29.874  22.934  1.00  0.00     0.119 A 
ATOM     22  C   UNL A   1      27.471  29.561  23.084  1.00  0.00     0.050 A 
ATOM     23  C   UNL A   1      29.817  28.939  23.230  1.00  0.00     0.056 A 
ATOM     24  C   UNL A   1      27.141  28.265  23.414  1.00  0.00     0.050 A 
ATOM     25  C   UNL A   1      28.138  27.310  23.599  1.00  0.00     0.121 A 
BRANCH  21  26
ATOM     26  O   UNL A   1      29.150  31.141  22.554  1.00  0.00    -0.497 OA
ATOM     27  C   UNL A   1      28.385  31.526  21.408  1.00  0.00     0.278 C 
ENDBRANCH  21  26
BRANCH  25  28
ATOM     28  O   UNL A   1      27.746  26.047  23.855  1.00  0.00    -0.508 OA
ATOM     29  H   UNL A   1      26.984  25.890  24.378  1.00  0.00     0.293 HD
ENDBRANCH  25  28
ENDBRANCH   9  20
ENDBRANCH   6   8
ENDBRANCH   5   6
ENDBRANCH   4   5
ENDBRANCH   3   4
ENDBRANCH   2   3
ENDBRANCH   1   2
BRANCH   1  30
ATOM     30  C   UNL A   1      33.548  32.926  27.897  1.00  0.00     0.188 C 
BRANCH  30  31
ATOM     31  O   UNL A   1      34.015  34.264  27.916  1.00  0.00    -0.376 OA
BRANCH  31  32
ATOM     32  C   UNL A   1      34.067  34.890  29.191  1.00  0.00     0.202 C 
BRANCH  32  33
ATOM     33  C   UNL A   1      32.928  35.880  29.466  1.00  0.00     0.261 C 
BRANCH  33  34
ATOM     34  O   UNL A   1      33.132  36.618  30.696  1.00  0.00    -0.460 OA
BRANCH  34  35
ATOM     35  C   UNL A   1      32.616  36.025  31.798  1.00  0.00     0.338 C 
ATOM     36  O   UNL A   1      31.432  35.989  32.106  1.00  0.00    -0.246 OA
BRANCH  35  37
ATOM     37  C   UNL A   1      33.634  35.357  32.643  1.00  0.00     0.060 A 
ATOM     38  C   UNL A   1      34.938  35.836  32.713  1.00  0.00     0.016 A 
ATOM     39  C   UNL A   1      33.364  34.076  33.118  1.00  0.00     0.016 A 
ATOM     40  C   UNL A   1      35.990  34.983  33.075  1.00  0.00     0.010 A 
ATOM     41  C   UNL A   1      34.400  33.275  33.622  1.00  0.00     0.010 A 
ATOM     42  C   UNL A   1      35.742  33.692  33.561  1.00  0.00    -0.014 A 
BRANCH  42  43
ATOM     43  C   UNL A   1      36.837  32.766  34.002  1.00  0.00     0.031 A 
ATOM     44  C   UNL A   1      37.515  32.968  35.339  1.00  0.00     0.074 A 
ATOM     45  C   UNL A   1      37.282  31.772  33.205  1.00  0.00     0.049 A 
ATOM     46  N   UNL A   1      38.692  32.563  35.751  1.00  0.00    -0.248 NA
ATOM     47  C   UNL A   1      36.767  33.741  36.343  1.00  0.00     0.031 C 
ATOM     48  C   UNL A   1      36.684  31.358  31.936  1.00  0.00     0.029 A 
ATOM     49  N   UNL A   1      38.376  30.944  33.334  1.00  0.00    -0.354 N 
ATOM     50  C   UNL A   1      38.857  33.092  37.028  1.00  0.00     0.074 A 
ATOM     51  C   UNL A   1      37.649  33.834  37.330  1.00  0.00     0.031 C 
ATOM     52  C   UNL A   1      37.407  30.362  31.406  1.00  0.00     0.029 A 
ATOM     53  C   UNL A   1      38.592  30.155  32.227  1.00  0.00     0.049 A 
ATOM     54  H   UNL A   1      38.946  30.919  34.137  1.00  0.00     0.167 HD
ATOM     55  C   UNL A   1      39.926  32.983  37.855  1.00  0.00     0.037 A 
ATOM     56  C   UNL A   1      39.658  29.420  31.854  1.00  0.00     0.037 A 
ATOM     57  C   UNL A   1      41.102  32.200  37.562  1.00  0.00     0.049 A 
ATOM     58  C   UNL A   1      40.876  29.392  32.733  1.00  0.00     0.074 A 
ATOM     59  C   UNL A   1      42.239  32.020  38.332  1.00  0.00     0.029 A 
ATOM     60  N   UNL A   1      41.286  31.455  36.405  1.00  0.00    -0.354 N 
ATOM     61  N   UNL A   1      41.073  29.968  33.892  1.00  0.00    -0.248 NA
ATOM     62  C   UNL A   1      42.031  28.631  32.236  1.00  0.00     0.031 C 
ATOM     63  C   UNL A   1      43.132  31.213  37.617  1.00  0.00     0.029 A 
ATOM     64  C   UNL A   1      42.528  30.838  36.429  1.00  0.00     0.049 A 
ATOM     65  H   UNL A   1      40.631  31.377  35.673  1.00  0.00     0.167 HD
ATOM     66  C   UNL A   1      42.362  29.625  34.274  1.00  0.00     0.074 A 
ATOM     67  C   UNL A   1      42.895  28.774  33.231  1.00  0.00     0.031 C 
ATOM     68  C   UNL A   1      43.045  29.987  35.388  1.00  0.00     0.037 A 
BRANCH  55  69
ATOM     69  C   UNL A   1      39.914  33.774  39.137  1.00  0.00     0.064 A 
ATOM     70  C   UNL A   1      39.357  33.277  40.324  1.00  0.00     0.173 A 
ATOM     71  C   UNL A   1      40.517  35.043  39.183  1.00  0.00     0.173 A 
ATOM     72  F   UNL A   1      38.764  32.073  40.339  1.00  0.00    -0.203 F 
ATOM     73  C   UNL A   1      39.375  34.031  41.497  1.00  0.00     0.198 A 
ATOM     74  C   UNL A   1      40.562  35.780  40.364  1.00  0.00     0.198 A 
ATOM     75  F   UNL A   1      41.078  35.564  38.082  1.00  0.00    -0.203 F 
ATOM     76  F   UNL A   1      38.793  33.555  42.607  1.00  0.00    -0.200 F 
ATOM     77  C   UNL A   1      39.983  35.278  41.518  1.00  0.00     0.200 A 
ATOM     78  F   UNL A   1      41.167  36.976  40.383  1.00  0.00    -0.200 F 
ATOM     79  F   UNL A   1      40.005  35.998  42.648  1.00  0.00    -0.200 F 
ENDBRANCH  55  69
BRANCH  56  80
ATOM     80  C   UNL A   1      39.649  28.719  30.540  1.00  0.00     0.064 A 
ATOM     81  C   UNL A   1      40.130  29.347  29.384  1.00  0.00     0.173 A 
ATOM     82  C   UNL A   1      39.161  27.407  30.413  1.00  0.00     0.173 A 
ATOM     83  F   UNL A   1      40.578  30.609  29.445  1.00  0.00    -0.203 F 
ATOM     84  C   UNL A   1      40.117  28.695  28.152  1.00  0.00     0.198 A 
ATOM     85  C   UNL A   1      39.184  26.744  29.188  1.00  0.00     0.198 A 
ATOM     86  F   UNL A   1      38.683  26.761  31.485  1.00  0.00    -0.203 F 
ATOM     87  F   UNL A   1      40.539  29.336  27.053  1.00  0.00    -0.200 F 
ATOM     88  C   UNL A   1      39.654  27.391  28.057  1.00  0.00     0.200 A 
ATOM     89  F   UNL A   1      38.752  25.478  29.106  1.00  0.00    -0.200 F 
ATOM     90  F   UNL A   1      39.653  26.762  26.874  1.00  0.00    -0.200 F 
ENDBRANCH  56  80
BRANCH  68  91
ATOM     91  C   UNL A   1      44.427  29.427  35.559  1.00  0.00     0.064 A 
ATOM     92  C   UNL A   1      45.564  30.116  35.112  1.00  0.00     0.173 A 
ATOM     93  C   UNL A   1      44.618  28.197  36.207  1.00  0.00     0.173 A 
ATOM     94  F   UNL A   1      45.434  31.286  34.468  1.00  0.00    -0.203 F 
ATOM     95  C   UNL A   1      46.839  29.584  35.286  1.00  0.00     0.198 A 
ATOM     96  C   UNL A   1      45.896  27.683  36.409  1.00  0.00     0.198 A 
ATOM     97  F   UNL A   1      43.565  27.498  36.655  1.00  0.00    -0.203 F 
ATOM     98  F   UNL A   1      47.907  30.236  34.808  1.00  0.00    -0.200 F 
ATOM     99  C   UNL A   1      47.004  28.373  35.943  1.00  0.00     0.200 A 
ATOM    100  F   UNL A   1      46.054  26.518  37.054  1.00  0.00    -0.200 F 
ATOM    101  F   UNL A   1      48.232  27.866  36.118  1.00  0.00    -0.200 F 
ENDBRANCH  68  91
ENDBRANCH  42  43
ENDBRANCH  35  37
ENDBRANCH  34  35
ENDBRANCH  33  34
ENDBRANCH  32  33
ENDBRANCH  31  32
ENDBRANCH  30  31
ENDBRANCH   1  30
TORSDOF 20
ENDMDL
