MODEL 1
REMARK VINA RESULT:     -11.4      0.000      0.000
REMARK SMILES O=C(OCCOCCOCCOC(=O)c1nccnc1C(=O)Nc1ccc2c(c1)OCO2)c1ccc(-c2c3nc(c(-c4c(F)c(F)c(F)c(F)c4F)c4ccc([nH]4)c(-c4c(F)c(F)c(F)c(F)c4F)c4nc(c(-c5c(F)c(F)c(F)c(F)c5F)c5ccc2[nH]5)C=C4)C=C3)cc1
REMARK SMILES IDX 7 1 6 2 5 3 4 4 3 5 2 6 1 7 33 8 34 9 95 10 35 11 94 12
REMARK SMILES IDX 36 13 37 14 38 15 88 16 39 17 93 18 87 19 89 20 40 21 92 22
REMARK SMILES IDX 86 23 85 24 41 26 73 27 53 28 72 29 54 30 57 31 71 32 90 33
REMARK SMILES IDX 55 34 56 35 70 37 91 38 58 39 42 40 43 41 51 42 44 43 45 44
REMARK SMILES IDX 49 45 52 46 46 47 47 48 50 49 48 50 74 51 75 52 83 53 76 54
REMARK SMILES IDX 77 55 81 56 84 57 78 58 79 59 82 60 80 61 59 62 60 63 68 64
REMARK SMILES IDX 61 65 62 66 66 67 69 68 63 69 64 70 67 71 65 72 8 73 9 74
REMARK SMILES IDX 10 75 11 76 12 77 13 78 14 79 15 80 16 81 20 82 17 83 19 84
REMARK SMILES IDX 18 85 21 86 22 87 23 88 24 90 25 91 29 92 26 93 28 94 27 95
REMARK SMILES IDX 30 96 32 97 31 98
REMARK H PARENT 89 25 57 36 23 89
REMARK Flexibility Score: inf
ROOT
ATOM      1  C   UNL A   1      35.776  23.744  24.310  1.00  0.00     0.188 C 
ENDROOT
BRANCH   1   2
ATOM      2  O   UNL A   1      36.032  22.651  25.195  1.00  0.00    -0.376 OA
BRANCH   2   3
ATOM      3  C   UNL A   1      36.076  21.362  24.596  1.00  0.00     0.202 C 
BRANCH   3   4
ATOM      4  C   UNL A   1      37.382  20.585  24.818  1.00  0.00     0.261 C 
BRANCH   4   5
ATOM      5  O   UNL A   1      38.054  20.903  26.049  1.00  0.00    -0.460 OA
BRANCH   5   6
ATOM      6  C   UNL A   1      39.341  21.298  26.234  1.00  0.00     0.338 C 
ATOM      7  O   UNL A   1      40.228  20.465  26.057  1.00  0.00    -0.246 OA
BRANCH   6   8
ATOM      8  C   UNL A   1      39.747  22.664  26.717  1.00  0.00     0.060 A 
ATOM      9  C   UNL A   1      39.194  23.872  26.294  1.00  0.00     0.016 A 
ATOM     10  C   UNL A   1      40.784  22.734  27.672  1.00  0.00     0.016 A 
ATOM     11  C   UNL A   1      39.641  25.096  26.767  1.00  0.00     0.010 A 
ATOM     12  C   UNL A   1      41.283  23.966  28.122  1.00  0.00     0.010 A 
ATOM     13  C   UNL A   1      40.731  25.149  27.627  1.00  0.00    -0.014 A 
BRANCH  13  14
ATOM     14  C   UNL A   1      41.420  26.451  27.682  1.00  0.00     0.031 A 
ATOM     15  C   UNL A   1      40.770  27.522  28.506  1.00  0.00     0.074 A 
ATOM     16  C   UNL A   1      42.688  26.571  27.258  1.00  0.00     0.049 A 
ATOM     17  N   UNL A   1      41.231  28.688  28.868  1.00  0.00    -0.248 NA
ATOM     18  C   UNL A   1      39.437  27.205  29.052  1.00  0.00     0.031 C 
ATOM     19  C   UNL A   1      43.457  25.497  26.643  1.00  0.00     0.029 A 
ATOM     20  N   UNL A   1      43.570  27.614  27.332  1.00  0.00    -0.354 N 
ATOM     21  C   UNL A   1      40.250  29.236  29.682  1.00  0.00     0.074 A 
ATOM     22  C   UNL A   1      39.167  28.286  29.761  1.00  0.00     0.031 C 
ATOM     23  C   UNL A   1      44.705  25.930  26.399  1.00  0.00     0.029 A 
ATOM     24  C   UNL A   1      44.801  27.329  26.796  1.00  0.00     0.049 A 
ATOM     25  H   UNL A   1      43.343  28.486  27.732  1.00  0.00     0.167 HD
ATOM     26  C   UNL A   1      40.259  30.438  30.300  1.00  0.00     0.037 A 
ATOM     27  C   UNL A   1      45.873  28.125  26.633  1.00  0.00     0.037 A 
ATOM     28  C   UNL A   1      41.338  31.376  30.172  1.00  0.00     0.049 A 
ATOM     29  C   UNL A   1      45.785  29.527  27.177  1.00  0.00     0.074 A 
ATOM     30  C   UNL A   1      41.432  32.662  30.666  1.00  0.00     0.029 A 
ATOM     31  N   UNL A   1      42.516  31.121  29.478  1.00  0.00    -0.354 N 
ATOM     32  N   UNL A   1      44.828  30.077  27.888  1.00  0.00    -0.248 NA
ATOM     33  C   UNL A   1      46.919  30.418  26.904  1.00  0.00     0.031 C 
ATOM     34  C   UNL A   1      42.635  33.210  30.210  1.00  0.00     0.029 A 
ATOM     35  C   UNL A   1      43.328  32.241  29.497  1.00  0.00     0.049 A 
ATOM     36  H   UNL A   1      42.737  30.269  29.036  1.00  0.00     0.167 HD
ATOM     37  C   UNL A   1      45.257  31.362  28.181  1.00  0.00     0.074 A 
ATOM     38  C   UNL A   1      46.569  31.505  27.576  1.00  0.00     0.031 C 
ATOM     39  C   UNL A   1      44.633  32.336  28.889  1.00  0.00     0.037 A 
BRANCH  26  40
ATOM     40  C   UNL A   1      39.017  30.820  31.051  1.00  0.00     0.064 A 
ATOM     41  C   UNL A   1      37.943  31.486  30.440  1.00  0.00     0.173 A 
ATOM     42  C   UNL A   1      38.937  30.574  32.430  1.00  0.00     0.173 A 
ATOM     43  F   UNL A   1      37.988  31.780  29.131  1.00  0.00    -0.203 F 
ATOM     44  C   UNL A   1      36.853  31.924  31.189  1.00  0.00     0.198 A 
ATOM     45  C   UNL A   1      37.832  30.987  33.169  1.00  0.00     0.198 A 
ATOM     46  F   UNL A   1      39.942  29.955  33.066  1.00  0.00    -0.203 F 
ATOM     47  F   UNL A   1      35.874  32.624  30.599  1.00  0.00    -0.200 F 
ATOM     48  C   UNL A   1      36.797  31.672  32.552  1.00  0.00     0.200 A 
ATOM     49  F   UNL A   1      37.781  30.741  34.486  1.00  0.00    -0.200 F 
ATOM     50  F   UNL A   1      35.755  32.107  33.273  1.00  0.00    -0.200 F 
ENDBRANCH  26  40
BRANCH  27  51
ATOM     51  C   UNL A   1      47.077  27.642  25.901  1.00  0.00     0.064 A 
ATOM     52  C   UNL A   1      48.194  27.127  26.573  1.00  0.00     0.173 A 
ATOM     53  C   UNL A   1      47.151  27.727  24.499  1.00  0.00     0.173 A 
ATOM     54  F   UNL A   1      48.188  27.041  27.911  1.00  0.00    -0.203 F 
ATOM     55  C   UNL A   1      49.343  26.746  25.881  1.00  0.00     0.198 A 
ATOM     56  C   UNL A   1      48.290  27.318  23.806  1.00  0.00     0.198 A 
ATOM     57  F   UNL A   1      46.116  28.211  23.795  1.00  0.00    -0.203 F 
ATOM     58  F   UNL A   1      50.418  26.315  26.556  1.00  0.00    -0.200 F 
ATOM     59  C   UNL A   1      49.389  26.840  24.498  1.00  0.00     0.200 A 
ATOM     60  F   UNL A   1      48.321  27.403  22.468  1.00  0.00    -0.200 F 
ATOM     61  F   UNL A   1      50.499  26.486  23.834  1.00  0.00    -0.200 F 
ENDBRANCH  27  51
BRANCH  39  62
ATOM     62  C   UNL A   1      45.386  33.618  29.089  1.00  0.00     0.064 A 
ATOM     63  C   UNL A   1      45.249  34.702  28.210  1.00  0.00     0.173 A 
ATOM     64  C   UNL A   1      46.222  33.774  30.204  1.00  0.00     0.173 A 
ATOM     65  F   UNL A   1      44.471  34.596  27.122  1.00  0.00    -0.203 F 
ATOM     66  C   UNL A   1      45.950  35.884  28.424  1.00  0.00     0.198 A 
ATOM     67  C   UNL A   1      46.890  34.970  30.437  1.00  0.00     0.198 A 
ATOM     68  F   UNL A   1      46.376  32.768  31.080  1.00  0.00    -0.203 F 
ATOM     69  F   UNL A   1      45.852  36.887  27.540  1.00  0.00    -0.200 F 
ATOM     70  C   UNL A   1      46.762  36.020  29.541  1.00  0.00     0.200 A 
ATOM     71  F   UNL A   1      47.657  35.106  31.527  1.00  0.00    -0.200 F 
ATOM     72  F   UNL A   1      47.428  37.164  29.750  1.00  0.00    -0.200 F 
ENDBRANCH  39  62
ENDBRANCH  13  14
ENDBRANCH   6   8
ENDBRANCH   5   6
ENDBRANCH   4   5
ENDBRANCH   3   4
ENDBRANCH   2   3
ENDBRANCH   1   2
BRANCH   1  73
ATOM     73  C   UNL A   1      34.420  23.664  23.622  1.00  0.00     0.188 C 
BRANCH  73  74
ATOM     74  O   UNL A   1      33.421  24.514  24.177  1.00  0.00    -0.376 OA
BRANCH  74  75
ATOM     75  C   UNL A   1      32.580  23.928  25.153  1.00  0.00     0.202 C 
BRANCH  75  76
ATOM     76  C   UNL A   1      32.393  24.809  26.397  1.00  0.00     0.261 C 
BRANCH  76  77
ATOM     77  O   UNL A   1      31.041  25.265  26.633  1.00  0.00    -0.458 OA
BRANCH  77  78
ATOM     78  C   UNL A   1      30.636  26.182  25.718  1.00  0.00     0.359 C 
ATOM     79  O   UNL A   1      29.731  25.980  24.918  1.00  0.00    -0.244 OA
BRANCH  78  80
ATOM     80  C   UNL A   1      31.363  27.493  25.719  1.00  0.00     0.179 A 
ATOM     81  N   UNL A   1      31.452  28.004  26.999  1.00  0.00    -0.245 NA
ATOM     82  C   UNL A   1      31.948  28.179  24.664  1.00  0.00     0.161 A 
ATOM     83  C   UNL A   1      32.029  29.213  27.166  1.00  0.00     0.132 A 
ATOM     84  N   UNL A   1      32.536  29.413  24.861  1.00  0.00    -0.247 NA
ATOM     85  C   UNL A   1      32.542  29.918  26.109  1.00  0.00     0.132 A 
BRANCH  82  86
ATOM     86  C   UNL A   1      31.945  27.857  23.225  1.00  0.00     0.276 C 
ATOM     87  O   UNL A   1      32.979  27.356  22.766  1.00  0.00    -0.267 OA
ATOM     88  N   UNL A   1      30.863  27.919  22.375  1.00  0.00    -0.320 N 
ATOM     89  H   UNL A   1      30.917  27.266  21.640  1.00  0.00     0.170 HD
BRANCH  88  90
ATOM     90  C   UNL A   1      29.702  28.706  22.324  1.00  0.00     0.045 A 
ATOM     91  C   UNL A   1      28.488  28.383  22.939  1.00  0.00     0.030 A 
ATOM     92  C   UNL A   1      29.888  29.999  21.802  1.00  0.00     0.076 A 
ATOM     93  C   UNL A   1      27.588  29.395  23.300  1.00  0.00     0.053 A 
ATOM     94  C   UNL A   1      28.988  30.976  22.167  1.00  0.00     0.167 A 
ATOM     95  C   UNL A   1      27.896  30.690  22.947  1.00  0.00     0.165 A 
ATOM     96  O   UNL A   1      29.139  32.310  21.950  1.00  0.00    -0.454 OA
ATOM     97  O   UNL A   1      27.236  31.809  23.347  1.00  0.00    -0.454 OA
ATOM     98  C   UNL A   1      28.097  32.833  22.800  1.00  0.00     0.468 C 
ENDBRANCH  88  90
ENDBRANCH  82  86
ENDBRANCH  78  80
ENDBRANCH  77  78
ENDBRANCH  76  77
ENDBRANCH  75  76
ENDBRANCH  74  75
ENDBRANCH  73  74
ENDBRANCH   1  73
TORSDOF 19
ENDMDL
MODEL 2
REMARK VINA RESULT:     -11.4      1.882      3.099
REMARK SMILES O=C(OCCOCCOCCOC(=O)c1nccnc1C(=O)Nc1ccc2c(c1)OCO2)c1ccc(-c2c3nc(c(-c4c(F)c(F)c(F)c(F)c4F)c4ccc([nH]4)c(-c4c(F)c(F)c(F)c(F)c4F)c4nc(c(-c5c(F)c(F)c(F)c(F)c5F)c5ccc2[nH]5)C=C4)C=C3)cc1
REMARK SMILES IDX 7 1 6 2 5 3 4 4 3 5 2 6 1 7 33 8 34 9 95 10 35 11 94 12
REMARK SMILES IDX 36 13 37 14 38 15 88 16 39 17 93 18 87 19 89 20 40 21 92 22
REMARK SMILES IDX 86 23 85 24 41 26 73 27 53 28 72 29 54 30 57 31 71 32 90 33
REMARK SMILES IDX 55 34 56 35 70 37 91 38 58 39 42 40 43 41 51 42 44 43 45 44
REMARK SMILES IDX 49 45 52 46 46 47 47 48 50 49 48 50 74 51 75 52 83 53 76 54
REMARK SMILES IDX 77 55 81 56 84 57 78 58 79 59 82 60 80 61 59 62 60 63 68 64
REMARK SMILES IDX 61 65 62 66 66 67 69 68 63 69 64 70 67 71 65 72 8 73 9 74
REMARK SMILES IDX 10 75 11 76 12 77 13 78 14 79 15 80 16 81 20 82 17 83 19 84
REMARK SMILES IDX 18 85 21 86 22 87 23 88 24 90 25 91 29 92 26 93 28 94 27 95
REMARK SMILES IDX 30 96 32 97 31 98
REMARK H PARENT 89 25 57 36 23 89
REMARK Flexibility Score: inf
ROOT
ATOM      1  C   UNL A   1      33.948  21.112  26.690  1.00  0.00     0.188 C 
ENDROOT
BRANCH   1   2
ATOM      2  O   UNL A   1      35.311  21.504  26.512  1.00  0.00    -0.376 OA
BRANCH   2   3
ATOM      3  C   UNL A   1      35.999  20.886  25.431  1.00  0.00     0.202 C 
BRANCH   3   4
ATOM      4  C   UNL A   1      37.101  21.741  24.789  1.00  0.00     0.261 C 
BRANCH   4   5
ATOM      5  O   UNL A   1      38.435  21.272  25.047  1.00  0.00    -0.460 OA
BRANCH   5   6
ATOM      6  C   UNL A   1      39.210  21.479  26.144  1.00  0.00     0.338 C 
ATOM      7  O   UNL A   1      39.536  20.497  26.810  1.00  0.00    -0.246 OA
BRANCH   6   8
ATOM      8  C   UNL A   1      39.631  22.835  26.642  1.00  0.00     0.060 A 
ATOM      9  C   UNL A   1      39.123  24.055  26.198  1.00  0.00     0.016 A 
ATOM     10  C   UNL A   1      40.632  22.881  27.636  1.00  0.00     0.016 A 
ATOM     11  C   UNL A   1      39.581  25.269  26.688  1.00  0.00     0.010 A 
ATOM     12  C   UNL A   1      41.143  24.100  28.104  1.00  0.00     0.010 A 
ATOM     13  C   UNL A   1      40.639  25.296  27.589  1.00  0.00    -0.014 A 
BRANCH  13  14
ATOM     14  C   UNL A   1      41.357  26.581  27.671  1.00  0.00     0.031 A 
ATOM     15  C   UNL A   1      40.712  27.661  28.488  1.00  0.00     0.074 A 
ATOM     16  C   UNL A   1      42.637  26.675  27.277  1.00  0.00     0.049 A 
ATOM     17  N   UNL A   1      41.192  28.813  28.870  1.00  0.00    -0.248 NA
ATOM     18  C   UNL A   1      39.360  27.371  29.000  1.00  0.00     0.031 C 
ATOM     19  C   UNL A   1      43.395  25.587  26.672  1.00  0.00     0.029 A 
ATOM     20  N   UNL A   1      43.540  27.696  27.380  1.00  0.00    -0.354 N 
ATOM     21  C   UNL A   1      40.205  29.378  29.665  1.00  0.00     0.074 A 
ATOM     22  C   UNL A   1      39.098  28.453  29.711  1.00  0.00     0.031 C 
ATOM     23  C   UNL A   1      44.657  25.993  26.461  1.00  0.00     0.029 A 
ATOM     24  C   UNL A   1      44.777  27.386  26.870  1.00  0.00     0.049 A 
ATOM     25  H   UNL A   1      43.325  28.570  27.781  1.00  0.00     0.167 HD
ATOM     26  C   UNL A   1      40.227  30.575  30.293  1.00  0.00     0.037 A 
ATOM     27  C   UNL A   1      45.871  28.158  26.738  1.00  0.00     0.037 A 
ATOM     28  C   UNL A   1      41.331  31.488  30.197  1.00  0.00     0.049 A 
ATOM     29  C   UNL A   1      45.803  29.557  27.291  1.00  0.00     0.074 A 
ATOM     30  C   UNL A   1      41.443  32.768  30.703  1.00  0.00     0.029 A 
ATOM     31  N   UNL A   1      42.518  31.211  29.528  1.00  0.00    -0.354 N 
ATOM     32  N   UNL A   1      44.843  30.125  27.984  1.00  0.00    -0.248 NA
ATOM     33  C   UNL A   1      46.963  30.423  27.052  1.00  0.00     0.031 C 
ATOM     34  C   UNL A   1      42.669  33.291  30.279  1.00  0.00     0.029 A 
ATOM     35  C   UNL A   1      43.355  32.311  29.575  1.00  0.00     0.049 A 
ATOM     36  H   UNL A   1      42.730  30.358  29.085  1.00  0.00     0.167 HD
ATOM     37  C   UNL A   1      45.294  31.397  28.297  1.00  0.00     0.074 A 
ATOM     38  C   UNL A   1      46.622  31.513  27.725  1.00  0.00     0.031 C 
ATOM     39  C   UNL A   1      44.676  32.381  28.998  1.00  0.00     0.037 A 
BRANCH  26  40
ATOM     40  C   UNL A   1      38.978  30.980  31.017  1.00  0.00     0.064 A 
ATOM     41  C   UNL A   1      37.934  31.675  30.386  1.00  0.00     0.173 A 
ATOM     42  C   UNL A   1      38.859  30.727  32.392  1.00  0.00     0.173 A 
ATOM     43  F   UNL A   1      38.015  31.976  29.081  1.00  0.00    -0.203 F 
ATOM     44  C   UNL A   1      36.837  32.133  31.113  1.00  0.00     0.198 A 
ATOM     45  C   UNL A   1      37.747  31.160  33.109  1.00  0.00     0.198 A 
ATOM     46  F   UNL A   1      39.835  30.081  33.046  1.00  0.00    -0.203 F 
ATOM     47  F   UNL A   1      35.888  32.859  30.506  1.00  0.00    -0.200 F 
ATOM     48  C   UNL A   1      36.744  31.873  32.472  1.00  0.00     0.200 A 
ATOM     49  F   UNL A   1      37.660  30.907  34.421  1.00  0.00    -0.200 F 
ATOM     50  F   UNL A   1      35.695  32.327  33.173  1.00  0.00    -0.200 F 
ENDBRANCH  26  40
BRANCH  27  51
ATOM     51  C   UNL A   1      47.080  27.653  26.031  1.00  0.00     0.064 A 
ATOM     52  C   UNL A   1      48.179  27.129  26.726  1.00  0.00     0.173 A 
ATOM     53  C   UNL A   1      47.178  27.724  24.630  1.00  0.00     0.173 A 
ATOM     54  F   UNL A   1      48.149  27.056  28.065  1.00  0.00    -0.203 F 
ATOM     55  C   UNL A   1      49.334  26.726  26.057  1.00  0.00     0.198 A 
ATOM     56  C   UNL A   1      48.323  27.293  23.960  1.00  0.00     0.198 A 
ATOM     57  F   UNL A   1      46.161  28.214  23.905  1.00  0.00    -0.203 F 
ATOM     58  F   UNL A   1      50.392  26.287  26.754  1.00  0.00    -0.200 F 
ATOM     59  C   UNL A   1      49.404  26.807  24.674  1.00  0.00     0.200 A 
ATOM     60  F   UNL A   1      48.377  27.365  22.622  1.00  0.00    -0.200 F 
ATOM     61  F   UNL A   1      50.520  26.432  24.032  1.00  0.00    -0.200 F 
ENDBRANCH  27  51
BRANCH  39  62
ATOM     62  C   UNL A   1      45.454  33.642  29.226  1.00  0.00     0.064 A 
ATOM     63  C   UNL A   1      46.309  33.797  30.326  1.00  0.00     0.173 A 
ATOM     64  C   UNL A   1      45.373  34.693  28.300  1.00  0.00     0.173 A 
ATOM     65  F   UNL A   1      46.410  32.824  31.245  1.00  0.00    -0.203 F 
ATOM     66  C   UNL A   1      47.028  34.973  30.508  1.00  0.00     0.198 A 
ATOM     67  C   UNL A   1      46.123  35.851  28.464  1.00  0.00     0.198 A 
ATOM     68  F   UNL A   1      44.576  34.588  27.224  1.00  0.00    -0.203 F 
ATOM     69  F   UNL A   1      47.794  35.125  31.598  1.00  0.00    -0.200 F 
ATOM     70  C   UNL A   1      46.942  35.995  29.573  1.00  0.00     0.200 A 
ATOM     71  F   UNL A   1      46.054  36.828  27.549  1.00  0.00    -0.200 F 
ATOM     72  F   UNL A   1      47.645  37.123  29.746  1.00  0.00    -0.200 F 
ENDBRANCH  39  62
ENDBRANCH  13  14
ENDBRANCH   6   8
ENDBRANCH   5   6
ENDBRANCH   4   5
ENDBRANCH   3   4
ENDBRANCH   2   3
ENDBRANCH   1   2
BRANCH   1  73
ATOM     73  C   UNL A   1      33.488  20.046  25.706  1.00  0.00     0.188 C 
BRANCH  73  74
ATOM     74  O   UNL A   1      32.195  20.268  25.152  1.00  0.00    -0.376 OA
BRANCH  74  75
ATOM     75  C   UNL A   1      31.933  21.581  24.693  1.00  0.00     0.202 C 
BRANCH  75  76
ATOM     76  C   UNL A   1      32.530  21.867  23.307  1.00  0.00     0.261 C 
BRANCH  76  77
ATOM     77  O   UNL A   1      33.843  22.475  23.315  1.00  0.00    -0.458 OA
BRANCH  77  78
ATOM     78  C   UNL A   1      33.828  23.735  23.821  1.00  0.00     0.359 C 
ATOM     79  O   UNL A   1      34.484  24.076  24.796  1.00  0.00    -0.244 OA
BRANCH  78  80
ATOM     80  C   UNL A   1      32.945  24.725  23.120  1.00  0.00     0.179 A 
ATOM     81  N   UNL A   1      33.263  24.802  21.778  1.00  0.00    -0.245 NA
ATOM     82  C   UNL A   1      31.898  25.483  23.622  1.00  0.00     0.161 A 
ATOM     83  C   UNL A   1      32.597  25.694  21.015  1.00  0.00     0.132 A 
ATOM     84  N   UNL A   1      31.229  26.387  22.820  1.00  0.00    -0.247 NA
ATOM     85  C   UNL A   1      31.611  26.493  21.533  1.00  0.00     0.132 A 
BRANCH  82  86
ATOM     86  C   UNL A   1      31.410  25.599  25.009  1.00  0.00     0.276 C 
ATOM     87  O   UNL A   1      30.615  24.730  25.393  1.00  0.00    -0.267 OA
ATOM     88  N   UNL A   1      31.859  26.484  25.964  1.00  0.00    -0.320 N 
ATOM     89  H   UNL A   1      31.780  26.131  26.880  1.00  0.00     0.170 HD
BRANCH  88  90
ATOM     90  C   UNL A   1      32.403  27.777  25.921  1.00  0.00     0.045 A 
ATOM     91  C   UNL A   1      31.667  28.950  25.730  1.00  0.00     0.030 A 
ATOM     92  C   UNL A   1      33.746  27.865  26.329  1.00  0.00     0.076 A 
ATOM     93  C   UNL A   1      32.147  30.173  26.216  1.00  0.00     0.053 A 
ATOM     94  C   UNL A   1      34.197  29.079  26.799  1.00  0.00     0.167 A 
ATOM     95  C   UNL A   1      33.395  30.192  26.797  1.00  0.00     0.165 A 
ATOM     96  O   UNL A   1      35.378  29.288  27.441  1.00  0.00    -0.454 OA
ATOM     97  O   UNL A   1      33.955  31.236  27.463  1.00  0.00    -0.454 OA
ATOM     98  C   UNL A   1      35.161  30.617  27.961  1.00  0.00     0.468 C 
ENDBRANCH  88  90
ENDBRANCH  82  86
ENDBRANCH  78  80
ENDBRANCH  77  78
ENDBRANCH  76  77
ENDBRANCH  75  76
ENDBRANCH  74  75
ENDBRANCH  73  74
ENDBRANCH   1  73
TORSDOF 19
ENDMDL
MODEL 3
REMARK VINA RESULT:     -11.4      1.440      7.808
REMARK SMILES O=C(OCCOCCOCCOC(=O)c1nccnc1C(=O)Nc1ccc2c(c1)OCO2)c1ccc(-c2c3nc(c(-c4c(F)c(F)c(F)c(F)c4F)c4ccc([nH]4)c(-c4c(F)c(F)c(F)c(F)c4F)c4nc(c(-c5c(F)c(F)c(F)c(F)c5F)c5ccc2[nH]5)C=C4)C=C3)cc1
REMARK SMILES IDX 7 1 6 2 5 3 4 4 3 5 2 6 1 7 33 8 34 9 95 10 35 11 94 12
REMARK SMILES IDX 36 13 37 14 38 15 88 16 39 17 93 18 87 19 89 20 40 21 92 22
REMARK SMILES IDX 86 23 85 24 41 26 73 27 53 28 72 29 54 30 57 31 71 32 90 33
REMARK SMILES IDX 55 34 56 35 70 37 91 38 58 39 42 40 43 41 51 42 44 43 45 44
REMARK SMILES IDX 49 45 52 46 46 47 47 48 50 49 48 50 74 51 75 52 83 53 76 54
REMARK SMILES IDX 77 55 81 56 84 57 78 58 79 59 82 60 80 61 59 62 60 63 68 64
REMARK SMILES IDX 61 65 62 66 66 67 69 68 63 69 64 70 67 71 65 72 8 73 9 74
REMARK SMILES IDX 10 75 11 76 12 77 13 78 14 79 15 80 16 81 20 82 17 83 19 84
REMARK SMILES IDX 18 85 21 86 22 87 23 88 24 90 25 91 29 92 26 93 28 94 27 95
REMARK SMILES IDX 30 96 32 97 31 98
REMARK H PARENT 89 25 57 36 23 89
REMARK Flexibility Score: inf
ROOT
ATOM      1  C   UNL A   1      37.118  22.274  24.704  1.00  0.00     0.188 C 
ENDROOT
BRANCH   1   2
ATOM      2  O   UNL A   1      37.969  21.391  25.438  1.00  0.00    -0.376 OA
BRANCH   2   3
ATOM      3  C   UNL A   1      37.989  20.038  24.998  1.00  0.00     0.202 C 
BRANCH   3   4
ATOM      4  C   UNL A   1      39.253  19.251  25.373  1.00  0.00     0.261 C 
BRANCH   4   5
ATOM      5  O   UNL A   1      40.023  19.844  26.433  1.00  0.00    -0.460 OA
BRANCH   5   6
ATOM      6  C   UNL A   1      41.100  20.667  26.340  1.00  0.00     0.338 C 
ATOM      7  O   UNL A   1      42.118  20.222  25.811  1.00  0.00    -0.246 OA
BRANCH   6   8
ATOM      8  C   UNL A   1      41.156  22.059  26.909  1.00  0.00     0.060 A 
ATOM      9  C   UNL A   1      40.671  23.209  26.288  1.00  0.00     0.016 A 
ATOM     10  C   UNL A   1      41.760  22.220  28.174  1.00  0.00     0.016 A 
ATOM     11  C   UNL A   1      40.782  24.464  26.866  1.00  0.00     0.010 A 
ATOM     12  C   UNL A   1      41.928  23.488  28.749  1.00  0.00     0.010 A 
ATOM     13  C   UNL A   1      41.472  24.616  28.063  1.00  0.00    -0.014 A 
BRANCH  13  14
ATOM     14  C   UNL A   1      41.952  25.983  28.338  1.00  0.00     0.031 A 
ATOM     15  C   UNL A   1      43.269  26.368  27.734  1.00  0.00     0.074 A 
ATOM     16  C   UNL A   1      41.125  26.905  28.855  1.00  0.00     0.049 A 
ATOM     17  N   UNL A   1      43.843  27.538  27.668  1.00  0.00    -0.248 NA
ATOM     18  C   UNL A   1      44.012  25.292  27.053  1.00  0.00     0.031 C 
ATOM     19  C   UNL A   1      39.750  26.644  29.261  1.00  0.00     0.029 A 
ATOM     20  N   UNL A   1      41.289  28.246  29.066  1.00  0.00    -0.354 N 
ATOM     21  C   UNL A   1      45.006  27.338  26.938  1.00  0.00     0.074 A 
ATOM     22  C   UNL A   1      45.065  25.940  26.586  1.00  0.00     0.031 C 
ATOM     23  C   UNL A   1      39.185  27.793  29.670  1.00  0.00     0.029 A 
ATOM     24  C   UNL A   1      40.179  28.855  29.600  1.00  0.00     0.049 A 
ATOM     25  H   UNL A   1      42.122  28.728  28.856  1.00  0.00     0.167 HD
ATOM     26  C   UNL A   1      45.945  28.250  26.603  1.00  0.00     0.037 A 
ATOM     27  C   UNL A   1      40.006  30.128  29.999  1.00  0.00     0.037 A 
ATOM     28  C   UNL A   1      45.873  29.629  27.001  1.00  0.00     0.049 A 
ATOM     29  C   UNL A   1      41.146  31.087  29.775  1.00  0.00     0.074 A 
ATOM     30  C   UNL A   1      46.800  30.634  26.810  1.00  0.00     0.029 A 
ATOM     31  N   UNL A   1      44.804  30.187  27.691  1.00  0.00    -0.354 N 
ATOM     32  N   UNL A   1      42.282  30.886  29.147  1.00  0.00    -0.248 NA
ATOM     33  C   UNL A   1      40.986  32.445  30.306  1.00  0.00     0.031 C 
ATOM     34  C   UNL A   1      46.322  31.784  27.449  1.00  0.00     0.029 A 
ATOM     35  C   UNL A   1      45.063  31.517  27.969  1.00  0.00     0.049 A 
ATOM     36  H   UNL A   1      43.983  29.706  27.946  1.00  0.00     0.167 HD
ATOM     37  C   UNL A   1      42.955  32.097  29.172  1.00  0.00     0.074 A 
ATOM     38  C   UNL A   1      42.093  33.031  29.871  1.00  0.00     0.031 C 
ATOM     39  C   UNL A   1      44.171  32.415  28.661  1.00  0.00     0.037 A 
BRANCH  26  40
ATOM     40  C   UNL A   1      47.156  27.739  25.882  1.00  0.00     0.064 A 
ATOM     41  C   UNL A   1      48.313  27.319  26.558  1.00  0.00     0.173 A 
ATOM     42  C   UNL A   1      47.181  27.738  24.480  1.00  0.00     0.173 A 
ATOM     43  F   UNL A   1      48.355  27.338  27.900  1.00  0.00    -0.203 F 
ATOM     44  C   UNL A   1      49.460  26.954  25.856  1.00  0.00     0.198 A 
ATOM     45  C   UNL A   1      48.319  27.343  23.781  1.00  0.00     0.198 A 
ATOM     46  F   UNL A   1      46.109  28.144  23.785  1.00  0.00    -0.203 F 
ATOM     47  F   UNL A   1      50.577  26.629  26.522  1.00  0.00    -0.200 F 
ATOM     48  C   UNL A   1      49.461  26.964  24.469  1.00  0.00     0.200 A 
ATOM     49  F   UNL A   1      48.316  27.353  22.442  1.00  0.00    -0.200 F 
ATOM     50  F   UNL A   1      50.569  26.626  23.795  1.00  0.00    -0.200 F 
ENDBRANCH  26  40
BRANCH  27  51
ATOM     51  C   UNL A   1      38.750  30.550  30.678  1.00  0.00     0.064 A 
ATOM     52  C   UNL A   1      37.647  31.031  29.958  1.00  0.00     0.173 A 
ATOM     53  C   UNL A   1      38.641  30.520  32.079  1.00  0.00     0.173 A 
ATOM     54  F   UNL A   1      37.700  31.101  28.620  1.00  0.00    -0.203 F 
ATOM     55  C   UNL A   1      36.502  31.491  30.609  1.00  0.00     0.198 A 
ATOM     56  C   UNL A   1      37.484  30.953  32.727  1.00  0.00     0.198 A 
ATOM     57  F   UNL A   1      39.660  30.070  32.827  1.00  0.00    -0.203 F 
ATOM     58  F   UNL A   1      35.488  32.002  29.897  1.00  0.00    -0.200 F 
ATOM     59  C   UNL A   1      36.422  31.450  31.993  1.00  0.00     0.200 A 
ATOM     60  F   UNL A   1      37.412  30.899  34.065  1.00  0.00    -0.200 F 
ATOM     61  F   UNL A   1      35.327  31.904  32.619  1.00  0.00    -0.200 F 
ENDBRANCH  27  51
BRANCH  39  62
ATOM     62  C   UNL A   1      44.610  33.843  28.796  1.00  0.00     0.064 A 
ATOM     63  C   UNL A   1      45.335  34.293  29.908  1.00  0.00     0.173 A 
ATOM     64  C   UNL A   1      44.336  34.761  27.771  1.00  0.00     0.173 A 
ATOM     65  F   UNL A   1      45.610  33.455  30.920  1.00  0.00    -0.203 F 
ATOM     66  C   UNL A   1      45.741  35.620  30.004  1.00  0.00     0.198 A 
ATOM     67  C   UNL A   1      44.777  36.076  27.851  1.00  0.00     0.198 A 
ATOM     68  F   UNL A   1      43.654  34.375  26.681  1.00  0.00    -0.203 F 
ATOM     69  F   UNL A   1      46.382  36.044  31.102  1.00  0.00    -0.200 F 
ATOM     70  C   UNL A   1      45.470  36.508  28.972  1.00  0.00     0.200 A 
ATOM     71  F   UNL A   1      44.532  36.926  26.845  1.00  0.00    -0.200 F 
ATOM     72  F   UNL A   1      45.871  37.783  29.062  1.00  0.00    -0.200 F 
ENDBRANCH  39  62
ENDBRANCH  13  14
ENDBRANCH   6   8
ENDBRANCH   5   6
ENDBRANCH   4   5
ENDBRANCH   3   4
ENDBRANCH   2   3
ENDBRANCH   1   2
BRANCH   1  73
ATOM     73  C   UNL A   1      36.094  22.992  25.571  1.00  0.00     0.188 C 
BRANCH  73  74
ATOM     74  O   UNL A   1      34.813  23.153  24.969  1.00  0.00    -0.376 OA
BRANCH  74  75
ATOM     75  C   UNL A   1      34.807  23.365  23.570  1.00  0.00     0.202 C 
BRANCH  75  76
ATOM     76  C   UNL A   1      34.133  24.683  23.161  1.00  0.00     0.261 C 
BRANCH  76  77
ATOM     77  O   UNL A   1      34.053  25.684  24.203  1.00  0.00    -0.458 OA
BRANCH  77  78
ATOM     78  C   UNL A   1      33.494  26.842  23.767  1.00  0.00     0.359 C 
ATOM     79  O   UNL A   1      33.296  27.090  22.585  1.00  0.00    -0.244 OA
BRANCH  78  80
ATOM     80  C   UNL A   1      33.119  27.840  24.822  1.00  0.00     0.179 A 
ATOM     81  N   UNL A   1      34.173  28.058  25.688  1.00  0.00    -0.245 NA
ATOM     82  C   UNL A   1      31.937  28.547  24.988  1.00  0.00     0.161 A 
ATOM     83  C   UNL A   1      33.978  28.890  26.733  1.00  0.00     0.132 A 
ATOM     84  N   UNL A   1      31.763  29.395  26.063  1.00  0.00    -0.247 NA
ATOM     85  C   UNL A   1      32.783  29.530  26.932  1.00  0.00     0.132 A 
BRANCH  82  86
ATOM     86  C   UNL A   1      30.678  28.451  24.225  1.00  0.00     0.276 C 
ATOM     87  O   UNL A   1      30.148  29.519  23.891  1.00  0.00    -0.267 OA
ATOM     88  N   UNL A   1      30.111  27.302  23.721  1.00  0.00    -0.320 N 
ATOM     89  H   UNL A   1      29.588  27.461  22.903  1.00  0.00     0.170 HD
BRANCH  88  90
ATOM     90  C   UNL A   1      30.115  25.955  24.115  1.00  0.00     0.045 A 
ATOM     91  C   UNL A   1      30.284  24.868  23.250  1.00  0.00     0.030 A 
ATOM     92  C   UNL A   1      30.176  25.746  25.504  1.00  0.00     0.076 A 
ATOM     93  C   UNL A   1      30.800  23.657  23.731  1.00  0.00     0.053 A 
ATOM     94  C   UNL A   1      30.683  24.546  25.953  1.00  0.00     0.167 A 
ATOM     95  C   UNL A   1      31.041  23.548  25.082  1.00  0.00     0.165 A 
ATOM     96  O   UNL A   1      31.026  24.264  27.238  1.00  0.00    -0.454 OA
ATOM     97  O   UNL A   1      31.684  22.524  25.703  1.00  0.00    -0.454 OA
ATOM     98  C   UNL A   1      31.766  23.040  27.049  1.00  0.00     0.468 C 
ENDBRANCH  88  90
ENDBRANCH  82  86
ENDBRANCH  78  80
ENDBRANCH  77  78
ENDBRANCH  76  77
ENDBRANCH  75  76
ENDBRANCH  74  75
ENDBRANCH  73  74
ENDBRANCH   1  73
TORSDOF 19
ENDMDL
