MODEL 1
REMARK VINA RESULT:      -6.0      0.000      0.000
REMARK SMILES O=C(N[C@@H](Cc1ccc(O)cc1)C(=O)N[C@@H](Cc1c[nH]c2ccccc12)C(=O)N[C@@H](CO)C(=O)OCCOCCOCCOC(=O)c1ccc(-c2c3nc(c(-c4c(F)c(F)c(F)c(F)c4F)c4ccc([nH]4)c(-c4c(F)c(F)c(F)c(F)c4F)c4nc(c(-c5c(F)c(F)c(F)c(F)c5F)c5ccc2[nH]5)C=C4)C=C3)cc1)c1ccc(F)cc1
REMARK SMILES IDX 37 1 36 2 35 3 33 4 34 5 30 6 29 7 27 8 28 9 16 11 15 12
REMARK SMILES IDX 13 13 14 14 4 16 3 17 1 18 2 19 110 21 111 22 116 23 112 24
REMARK SMILES IDX 115 25 113 26 114 27 5 28 6 29 7 30 12 31 8 32 11 33 9 34
REMARK SMILES IDX 10 35 17 37 18 38 19 39 26 40 20 41 21 42 25 43 22 45 24 46
REMARK SMILES IDX 23 47 31 48 32 49 38 51 39 52 40 53 41 54 42 55 43 56 44 57
REMARK SMILES IDX 45 58 46 59 47 60 48 61 109 62 49 63 108 64 50 65 51 66
REMARK SMILES IDX 52 67 102 68 53 69 107 70 101 71 103 72 54 73 106 74 100 75
REMARK SMILES IDX 99 76 55 78 87 79 67 80 86 81 68 82 71 83 85 84 104 85 69 86
REMARK SMILES IDX 70 87 84 89 105 90 72 91 56 92 57 93 65 94 58 95 59 96 63 97
REMARK SMILES IDX 66 98 60 99 61 100 64 101 62 102 88 103 89 104 97 105 90 106
REMARK SMILES IDX 91 107 95 108 98 109 92 110 93 111 96 112 94 113 73 114
REMARK SMILES IDX 74 115 82 116 75 117 76 118 80 119 83 120 77 121 78 122
REMARK SMILES IDX 81 123 79 124
REMARK H PARENT 29 10 15 15 3 20 10 36 20 44 32 50 103 77 71 88
REMARK Flexibility Score: inf
ROOT
ATOM      1  C   UNL A   1      41.994  34.456  30.211  1.00  0.00     0.202 C 
ENDROOT
BRANCH   1   2
ATOM      2  C   UNL A   1      41.300  33.106  30.386  1.00  0.00     0.261 C 
BRANCH   2   3
ATOM      3  O   UNL A   1      40.802  32.957  31.730  1.00  0.00    -0.462 OA
BRANCH   3   4
ATOM      4  C   UNL A   1      39.556  32.430  31.844  1.00  0.00     0.331 C 
ATOM      5  O   UNL A   1      38.842  32.539  32.835  1.00  0.00    -0.250 OA
BRANCH   4   6
ATOM      6  C   UNL A   1      39.130  31.675  30.581  1.00  0.00     0.218 C 
BRANCH   6   7
ATOM      7  N   UNL A   1      39.250  30.201  30.609  1.00  0.00    -0.339 N 
ATOM      8  C   UNL A   1      39.600  29.525  29.472  1.00  0.00     0.243 C 
ATOM      9  O   UNL A   1      38.688  29.253  28.683  1.00  0.00    -0.273 OA
ATOM     10  H   UNL A   1      39.078  29.707  31.443  1.00  0.00     0.164 HD
BRANCH   8  11
ATOM     11  C   UNL A   1      41.061  29.003  29.243  1.00  0.00     0.175 C 
BRANCH  11  12
ATOM     12  N   UNL A   1      41.254  28.922  27.789  1.00  0.00    -0.342 N 
ATOM     13  C   UNL A   1      41.663  27.896  26.994  1.00  0.00     0.243 C 
ATOM     14  O   UNL A   1      41.232  27.911  25.833  1.00  0.00    -0.273 OA
ATOM     15  H   UNL A   1      41.051  29.755  27.306  1.00  0.00     0.164 HD
BRANCH  13  16
ATOM     16  C   UNL A   1      42.625  26.760  27.426  1.00  0.00     0.176 C 
BRANCH  16  17
ATOM     17  N   UNL A   1      43.975  27.238  27.723  1.00  0.00    -0.340 N 
ATOM     18  O   UNL A   1      46.208  27.118  27.920  1.00  0.00    -0.269 OA
ATOM     19  C   UNL A   1      45.181  26.622  27.470  1.00  0.00     0.251 C 
ATOM     20  H   UNL A   1      44.029  28.116  28.164  1.00  0.00     0.164 HD
BRANCH  19  21
ATOM     21  C   UNL A   1      45.235  25.336  26.725  1.00  0.00     0.040 A 
ATOM     22  C   UNL A   1      44.902  25.259  25.365  1.00  0.00     0.017 A 
ATOM     23  C   UNL A   1      45.631  24.179  27.413  1.00  0.00     0.017 A 
ATOM     24  C   UNL A   1      44.888  24.019  24.720  1.00  0.00     0.040 A 
ATOM     25  C   UNL A   1      45.627  22.944  26.759  1.00  0.00     0.040 A 
ATOM     26  C   UNL A   1      45.241  22.873  25.424  1.00  0.00     0.123 A 
ATOM     27  F   UNL A   1      45.211  21.684  24.807  1.00  0.00    -0.207 F 
ENDBRANCH  19  21
ENDBRANCH  16  17
BRANCH  16  28
ATOM     28  C   UNL A   1      42.099  25.682  28.392  1.00  0.00     0.070 C 
BRANCH  28  29
ATOM     29  C   UNL A   1      42.072  24.247  27.932  1.00  0.00    -0.045 A 
ATOM     30  C   UNL A   1      42.466  23.202  28.783  1.00  0.00     0.007 A 
ATOM     31  C   UNL A   1      41.695  23.943  26.616  1.00  0.00     0.007 A 
ATOM     32  C   UNL A   1      42.444  21.879  28.338  1.00  0.00     0.046 A 
ATOM     33  C   UNL A   1      41.648  22.619  26.180  1.00  0.00     0.046 A 
ATOM     34  C   UNL A   1      42.010  21.597  27.047  1.00  0.00     0.115 A 
BRANCH  34  35
ATOM     35  O   UNL A   1      41.916  20.317  26.593  1.00  0.00    -0.508 OA
ATOM     36  H   UNL A   1      42.040  20.133  25.682  1.00  0.00     0.293 HD
ENDBRANCH  34  35
ENDBRANCH  28  29
ENDBRANCH  16  28
ENDBRANCH  13  16
ENDBRANCH  11  12
BRANCH  11  37
ATOM     37  C   UNL A   1      42.254  29.619  29.987  1.00  0.00     0.072 C 
BRANCH  37  38
ATOM     38  C   UNL A   1      42.570  29.234  31.401  1.00  0.00    -0.020 A 
ATOM     39  C   UNL A   1      42.201  29.845  32.586  1.00  0.00     0.087 A 
ATOM     40  C   UNL A   1      43.369  28.095  31.774  1.00  0.00     0.003 A 
ATOM     41  N   UNL A   1      42.559  29.015  33.625  1.00  0.00    -0.361 N 
ATOM     42  C   UNL A   1      43.250  27.925  33.150  1.00  0.00     0.046 A 
ATOM     43  C   UNL A   1      44.135  27.153  31.054  1.00  0.00     0.010 A 
ATOM     44  H   UNL A   1      42.351  29.178  34.573  1.00  0.00     0.166 HD
ATOM     45  C   UNL A   1      43.770  26.810  33.822  1.00  0.00     0.026 A 
ATOM     46  C   UNL A   1      44.709  26.062  31.713  1.00  0.00     0.001 A 
ATOM     47  C   UNL A   1      44.502  25.879  33.075  1.00  0.00     0.002 A 
ENDBRANCH  37  38
ENDBRANCH  11  37
ENDBRANCH   8  11
ENDBRANCH   6   7
BRANCH   6  48
ATOM     48  C   UNL A   1      37.728  32.150  30.173  1.00  0.00     0.193 C 
BRANCH  48  49
ATOM     49  O   UNL A   1      37.481  31.887  28.794  1.00  0.00    -0.394 OA
ATOM     50  H   UNL A   1      36.991  31.054  28.706  1.00  0.00     0.210 HD
ENDBRANCH  48  49
ENDBRANCH   6  48
ENDBRANCH   4   6
ENDBRANCH   3   4
ENDBRANCH   2   3
ENDBRANCH   1   2
BRANCH   1  51
ATOM     51  O   UNL A   1      41.711  35.048  28.946  1.00  0.00    -0.376 OA
BRANCH  51  52
ATOM     52  C   UNL A   1      42.772  35.801  28.377  1.00  0.00     0.188 C 
BRANCH  52  53
ATOM     53  C   UNL A   1      42.941  35.695  26.854  1.00  0.00     0.188 C 
BRANCH  53  54
ATOM     54  O   UNL A   1      44.157  35.228  26.301  1.00  0.00    -0.376 OA
BRANCH  54  55
ATOM     55  C   UNL A   1      44.124  34.145  25.389  1.00  0.00     0.202 C 
BRANCH  55  56
ATOM     56  C   UNL A   1      44.151  32.731  25.976  1.00  0.00     0.261 C 
BRANCH  56  57
ATOM     57  O   UNL A   1      45.326  31.965  25.641  1.00  0.00    -0.460 OA
BRANCH  57  58
ATOM     58  C   UNL A   1      46.473  32.367  26.241  1.00  0.00     0.338 C 
ATOM     59  O   UNL A   1      47.257  33.215  25.845  1.00  0.00    -0.246 OA
BRANCH  58  60
ATOM     60  C   UNL A   1      46.613  31.744  27.575  1.00  0.00     0.060 A 
ATOM     61  C   UNL A   1      45.707  30.734  27.925  1.00  0.00     0.016 A 
ATOM     62  C   UNL A   1      47.531  32.214  28.515  1.00  0.00     0.016 A 
ATOM     63  C   UNL A   1      45.684  30.220  29.223  1.00  0.00     0.010 A 
ATOM     64  C   UNL A   1      47.503  31.701  29.821  1.00  0.00     0.010 A 
ATOM     65  C   UNL A   1      46.564  30.720  30.189  1.00  0.00    -0.014 A 
BRANCH  65  66
ATOM     66  C   UNL A   1      46.407  30.314  31.608  1.00  0.00     0.031 A 
ATOM     67  C   UNL A   1      45.569  31.157  32.523  1.00  0.00     0.074 A 
ATOM     68  C   UNL A   1      46.971  29.189  32.081  1.00  0.00     0.049 A 
ATOM     69  N   UNL A   1      45.379  31.048  33.813  1.00  0.00    -0.248 NA
ATOM     70  C   UNL A   1      44.847  32.273  31.896  1.00  0.00     0.031 C 
ATOM     71  C   UNL A   1      47.710  28.223  31.281  1.00  0.00     0.029 A 
ATOM     72  N   UNL A   1      47.009  28.667  33.350  1.00  0.00    -0.354 N 
ATOM     73  C   UNL A   1      44.506  32.072  34.151  1.00  0.00     0.074 A 
ATOM     74  C   UNL A   1      44.231  32.811  32.937  1.00  0.00     0.031 C 
ATOM     75  C   UNL A   1      48.145  27.230  32.072  1.00  0.00     0.029 A 
ATOM     76  C   UNL A   1      47.751  27.517  33.449  1.00  0.00     0.049 A 
ATOM     77  H   UNL A   1      46.548  29.079  34.117  1.00  0.00     0.167 HD
ATOM     78  C   UNL A   1      43.980  32.365  35.364  1.00  0.00     0.037 A 
ATOM     79  C   UNL A   1      48.103  26.796  34.531  1.00  0.00     0.037 A 
ATOM     80  C   UNL A   1      44.260  31.635  36.572  1.00  0.00     0.049 A 
ATOM     81  C   UNL A   1      47.641  27.238  35.893  1.00  0.00     0.074 A 
ATOM     82  C   UNL A   1      43.785  31.866  37.851  1.00  0.00     0.029 A 
ATOM     83  N   UNL A   1      45.100  30.533  36.651  1.00  0.00    -0.354 N 
ATOM     84  N   UNL A   1      46.842  28.225  36.215  1.00  0.00    -0.248 NA
ATOM     85  C   UNL A   1      48.143  26.473  37.043  1.00  0.00     0.031 C 
ATOM     86  C   UNL A   1      44.380  30.937  38.713  1.00  0.00     0.029 A 
ATOM     87  C   UNL A   1      45.188  30.098  37.964  1.00  0.00     0.049 A 
ATOM     88  H   UNL A   1      45.564  30.121  35.886  1.00  0.00     0.167 HD
ATOM     89  C   UNL A   1      46.718  28.181  37.596  1.00  0.00     0.074 A 
ATOM     90  C   UNL A   1      47.525  27.069  38.054  1.00  0.00     0.031 C 
ATOM     91  C   UNL A   1      45.993  28.988  38.409  1.00  0.00     0.037 A 
BRANCH  78  92
ATOM     92  C   UNL A   1      43.089  33.567  35.442  1.00  0.00     0.064 A 
ATOM     93  C   UNL A   1      43.587  34.837  35.768  1.00  0.00     0.173 A 
ATOM     94  C   UNL A   1      41.713  33.439  35.201  1.00  0.00     0.173 A 
ATOM     95  F   UNL A   1      44.891  35.006  36.027  1.00  0.00    -0.203 F 
ATOM     96  C   UNL A   1      42.732  35.930  35.884  1.00  0.00     0.198 A 
ATOM     97  C   UNL A   1      40.866  34.539  35.291  1.00  0.00     0.198 A 
ATOM     98  F   UNL A   1      41.189  32.245  34.885  1.00  0.00    -0.203 F 
ATOM     99  F   UNL A   1      43.218  37.123  36.251  1.00  0.00    -0.200 F 
ATOM    100  C   UNL A   1      41.374  35.781  35.641  1.00  0.00     0.200 A 
ATOM    101  F   UNL A   1      39.555  34.394  35.052  1.00  0.00    -0.200 F 
ATOM    102  F   UNL A   1      40.551  36.833  35.761  1.00  0.00    -0.200 F 
ENDBRANCH  78  92
BRANCH  79 103
ATOM    103  C   UNL A   1      48.967  25.598  34.374  1.00  0.00     0.064 A 
ATOM    104  C   UNL A   1      50.358  25.722  34.263  1.00  0.00     0.173 A 
ATOM    105  C   UNL A   1      48.419  24.308  34.319  1.00  0.00     0.173 A 
ATOM    106  F   UNL A   1      50.925  26.937  34.279  1.00  0.00    -0.203 F 
ATOM    107  C   UNL A   1      51.168  24.600  34.095  1.00  0.00     0.198 A 
ATOM    108  C   UNL A   1      49.231  23.186  34.176  1.00  0.00     0.198 A 
ATOM    109  F   UNL A   1      47.091  24.137  34.409  1.00  0.00    -0.203 F 
ATOM    110  F   UNL A   1      52.492  24.749  33.954  1.00  0.00    -0.200 F 
ATOM    111  C   UNL A   1      50.605  23.334  34.059  1.00  0.00     0.200 A 
ATOM    112  F   UNL A   1      48.684  21.963  34.145  1.00  0.00    -0.200 F 
ATOM    113  F   UNL A   1      51.385  22.256  33.901  1.00  0.00    -0.200 F 
ENDBRANCH  79 103
BRANCH  91 114
ATOM    114  C   UNL A   1      46.012  28.681  39.877  1.00  0.00     0.064 A 
ATOM    115  C   UNL A   1      46.874  29.351  40.756  1.00  0.00     0.173 A 
ATOM    116  C   UNL A   1      45.126  27.736  40.416  1.00  0.00     0.173 A 
ATOM    117  F   UNL A   1      47.752  30.250  40.288  1.00  0.00    -0.203 F 
ATOM    118  C   UNL A   1      46.860  29.073  42.121  1.00  0.00     0.198 A 
ATOM    119  C   UNL A   1      45.097  27.479  41.784  1.00  0.00     0.198 A 
ATOM    120  F   UNL A   1      44.279  27.071  39.617  1.00  0.00    -0.203 F 
ATOM    121  F   UNL A   1      47.721  29.697  42.940  1.00  0.00    -0.200 F 
ATOM    122  C   UNL A   1      45.967  28.144  42.634  1.00  0.00     0.200 A 
ATOM    123  F   UNL A   1      44.227  26.589  42.279  1.00  0.00    -0.200 F 
ATOM    124  F   UNL A   1      45.950  27.884  43.949  1.00  0.00    -0.200 F 
ENDBRANCH  91 114
ENDBRANCH  65  66
ENDBRANCH  58  60
ENDBRANCH  57  58
ENDBRANCH  56  57
ENDBRANCH  55  56
ENDBRANCH  54  55
ENDBRANCH  53  54
ENDBRANCH  52  53
ENDBRANCH  51  52
ENDBRANCH   1  51
TORSDOF 30
ENDMDL
MODEL 2
REMARK VINA RESULT:      -5.9      4.112     11.502
REMARK SMILES O=C(N[C@@H](Cc1ccc(O)cc1)C(=O)N[C@@H](Cc1c[nH]c2ccccc12)C(=O)N[C@@H](CO)C(=O)OCCOCCOCCOC(=O)c1ccc(-c2c3nc(c(-c4c(F)c(F)c(F)c(F)c4F)c4ccc([nH]4)c(-c4c(F)c(F)c(F)c(F)c4F)c4nc(c(-c5c(F)c(F)c(F)c(F)c5F)c5ccc2[nH]5)C=C4)C=C3)cc1)c1ccc(F)cc1
REMARK SMILES IDX 37 1 36 2 35 3 33 4 34 5 30 6 29 7 27 8 28 9 16 11 15 12
REMARK SMILES IDX 13 13 14 14 4 16 3 17 1 18 2 19 110 21 111 22 116 23 112 24
REMARK SMILES IDX 115 25 113 26 114 27 5 28 6 29 7 30 12 31 8 32 11 33 9 34
REMARK SMILES IDX 10 35 17 37 18 38 19 39 26 40 20 41 21 42 25 43 22 45 24 46
REMARK SMILES IDX 23 47 31 48 32 49 38 51 39 52 40 53 41 54 42 55 43 56 44 57
REMARK SMILES IDX 45 58 46 59 47 60 48 61 109 62 49 63 108 64 50 65 51 66
REMARK SMILES IDX 52 67 102 68 53 69 107 70 101 71 103 72 54 73 106 74 100 75
REMARK SMILES IDX 99 76 55 78 87 79 67 80 86 81 68 82 71 83 85 84 104 85 69 86
REMARK SMILES IDX 70 87 84 89 105 90 72 91 56 92 57 93 65 94 58 95 59 96 63 97
REMARK SMILES IDX 66 98 60 99 61 100 64 101 62 102 88 103 89 104 97 105 90 106
REMARK SMILES IDX 91 107 95 108 98 109 92 110 93 111 96 112 94 113 73 114
REMARK SMILES IDX 74 115 82 116 75 117 76 118 80 119 83 120 77 121 78 122
REMARK SMILES IDX 81 123 79 124
REMARK H PARENT 29 10 15 15 3 20 10 36 20 44 32 50 103 77 71 88
REMARK Flexibility Score: inf
ROOT
ATOM      1  C   UNL A   1      33.829  35.240  32.207  1.00  0.00     0.202 C 
ENDROOT
BRANCH   1   2
ATOM      2  C   UNL A   1      34.905  34.175  31.998  1.00  0.00     0.261 C 
BRANCH   2   3
ATOM      3  O   UNL A   1      36.168  34.609  32.538  1.00  0.00    -0.462 OA
BRANCH   3   4
ATOM      4  C   UNL A   1      37.274  34.118  31.923  1.00  0.00     0.331 C 
ATOM      5  O   UNL A   1      37.358  33.885  30.723  1.00  0.00    -0.250 OA
BRANCH   4   6
ATOM      6  C   UNL A   1      38.426  33.885  32.906  1.00  0.00     0.218 C 
BRANCH   6   7
ATOM      7  N   UNL A   1      38.457  32.581  33.604  1.00  0.00    -0.339 N 
ATOM      8  C   UNL A   1      39.641  31.906  33.731  1.00  0.00     0.243 C 
ATOM      9  O   UNL A   1      39.982  31.197  32.777  1.00  0.00    -0.273 OA
ATOM     10  H   UNL A   1      37.629  32.199  33.976  1.00  0.00     0.164 HD
BRANCH   8  11
ATOM     11  C   UNL A   1      40.456  31.922  35.070  1.00  0.00     0.175 C 
BRANCH  11  12
ATOM     12  N   UNL A   1      39.640  31.213  36.065  1.00  0.00    -0.342 N 
ATOM     13  C   UNL A   1      38.647  31.651  36.887  1.00  0.00     0.243 C 
ATOM     14  O   UNL A   1      37.798  30.805  37.201  1.00  0.00    -0.273 OA
ATOM     15  H   UNL A   1      39.848  30.255  36.152  1.00  0.00     0.164 HD
BRANCH  13  16
ATOM     16  C   UNL A   1      38.529  33.086  37.460  1.00  0.00     0.176 C 
BRANCH  16  17
ATOM     17  N   UNL A   1      38.845  34.120  36.476  1.00  0.00    -0.340 N 
ATOM     18  O   UNL A   1      39.511  36.136  35.744  1.00  0.00    -0.269 OA
ATOM     19  C   UNL A   1      39.456  35.339  36.674  1.00  0.00     0.251 C 
ATOM     20  H   UNL A   1      38.585  33.920  35.548  1.00  0.00     0.164 HD
BRANCH  19  21
ATOM     21  C   UNL A   1      39.979  35.717  38.014  1.00  0.00     0.040 A 
ATOM     22  C   UNL A   1      39.303  36.632  38.836  1.00  0.00     0.017 A 
ATOM     23  C   UNL A   1      41.177  35.137  38.454  1.00  0.00     0.017 A 
ATOM     24  C   UNL A   1      39.868  37.023  40.053  1.00  0.00     0.040 A 
ATOM     25  C   UNL A   1      41.731  35.523  39.679  1.00  0.00     0.040 A 
ATOM     26  C   UNL A   1      41.079  36.473  40.459  1.00  0.00     0.123 A 
ATOM     27  F   UNL A   1      41.625  36.862  41.619  1.00  0.00    -0.207 F 
ENDBRANCH  19  21
ENDBRANCH  16  17
BRANCH  16  28
ATOM     28  C   UNL A   1      37.334  33.414  38.374  1.00  0.00     0.070 C 
BRANCH  28  29
ATOM     29  C   UNL A   1      37.435  33.093  39.844  1.00  0.00    -0.045 A 
ATOM     30  C   UNL A   1      38.503  33.569  40.620  1.00  0.00     0.007 A 
ATOM     31  C   UNL A   1      36.477  32.265  40.444  1.00  0.00     0.007 A 
ATOM     32  C   UNL A   1      38.586  33.255  41.979  1.00  0.00     0.046 A 
ATOM     33  C   UNL A   1      36.546  31.972  41.806  1.00  0.00     0.046 A 
ATOM     34  C   UNL A   1      37.592  32.480  42.565  1.00  0.00     0.115 A 
BRANCH  34  35
ATOM     35  O   UNL A   1      37.603  32.200  43.897  1.00  0.00    -0.508 OA
ATOM     36  H   UNL A   1      38.390  32.312  44.393  1.00  0.00     0.293 HD
ENDBRANCH  34  35
ENDBRANCH  28  29
ENDBRANCH  16  28
ENDBRANCH  13  16
ENDBRANCH  11  12
BRANCH  11  37
ATOM     37  C   UNL A   1      41.941  31.535  35.105  1.00  0.00     0.072 C 
BRANCH  37  38
ATOM     38  C   UNL A   1      42.371  30.132  35.411  1.00  0.00    -0.020 A 
ATOM     39  C   UNL A   1      42.442  29.476  36.625  1.00  0.00     0.087 A 
ATOM     40  C   UNL A   1      42.817  29.185  34.421  1.00  0.00     0.003 A 
ATOM     41  N   UNL A   1      42.700  28.146  36.379  1.00  0.00    -0.361 N 
ATOM     42  C   UNL A   1      42.905  27.939  35.035  1.00  0.00     0.046 A 
ATOM     43  C   UNL A   1      43.094  29.263  33.039  1.00  0.00     0.010 A 
ATOM     44  H   UNL A   1      42.733  27.442  37.067  1.00  0.00     0.166 HD
ATOM     45  C   UNL A   1      43.154  26.760  34.320  1.00  0.00     0.026 A 
ATOM     46  C   UNL A   1      43.399  28.106  32.317  1.00  0.00     0.001 A 
ATOM     47  C   UNL A   1      43.399  26.867  32.946  1.00  0.00     0.002 A 
ENDBRANCH  37  38
ENDBRANCH  11  37
ENDBRANCH   8  11
ENDBRANCH   6   7
BRANCH   6  48
ATOM     48  C   UNL A   1      39.749  34.215  32.202  1.00  0.00     0.193 C 
BRANCH  48  49
ATOM     49  O   UNL A   1      40.669  34.827  33.103  1.00  0.00    -0.394 OA
ATOM     50  H   UNL A   1      40.184  35.204  33.853  1.00  0.00     0.210 HD
ENDBRANCH  48  49
ENDBRANCH   6  48
ENDBRANCH   4   6
ENDBRANCH   3   4
ENDBRANCH   2   3
ENDBRANCH   1   2
BRANCH   1  51
ATOM     51  O   UNL A   1      32.801  35.168  31.222  1.00  0.00    -0.376 OA
BRANCH  51  52
ATOM     52  C   UNL A   1      32.684  36.309  30.384  1.00  0.00     0.188 C 
BRANCH  52  53
ATOM     53  C   UNL A   1      33.384  36.224  29.019  1.00  0.00     0.188 C 
BRANCH  53  54
ATOM     54  O   UNL A   1      34.359  35.227  28.778  1.00  0.00    -0.376 OA
BRANCH  54  55
ATOM     55  C   UNL A   1      34.019  34.120  27.961  1.00  0.00     0.202 C 
BRANCH  55  56
ATOM     56  C   UNL A   1      34.066  32.732  28.605  1.00  0.00     0.261 C 
BRANCH  56  57
ATOM     57  O   UNL A   1      35.381  32.144  28.669  1.00  0.00    -0.460 OA
BRANCH  57  58
ATOM     58  C   UNL A   1      35.538  30.993  27.971  1.00  0.00     0.338 C 
ATOM     59  O   UNL A   1      34.775  30.520  27.143  1.00  0.00    -0.246 OA
BRANCH  58  60
ATOM     60  C   UNL A   1      36.873  30.407  28.220  1.00  0.00     0.060 A 
ATOM     61  C   UNL A   1      37.483  30.668  29.454  1.00  0.00     0.016 A 
ATOM     62  C   UNL A   1      37.571  29.717  27.228  1.00  0.00     0.016 A 
ATOM     63  C   UNL A   1      38.804  30.280  29.689  1.00  0.00     0.010 A 
ATOM     64  C   UNL A   1      38.900  29.332  27.463  1.00  0.00     0.010 A 
ATOM     65  C   UNL A   1      39.532  29.633  28.684  1.00  0.00    -0.014 A 
BRANCH  65  66
ATOM     66  C   UNL A   1      40.987  29.398  28.863  1.00  0.00     0.031 A 
ATOM     67  C   UNL A   1      41.575  28.085  28.439  1.00  0.00     0.074 A 
ATOM     68  C   UNL A   1      41.793  30.351  29.363  1.00  0.00     0.049 A 
ATOM     69  N   UNL A   1      42.792  27.630  28.596  1.00  0.00    -0.248 NA
ATOM     70  C   UNL A   1      40.667  27.162  27.745  1.00  0.00     0.031 C 
ATOM     71  C   UNL A   1      41.378  31.703  29.706  1.00  0.00     0.029 A 
ATOM     72  N   UNL A   1      43.131  30.326  29.670  1.00  0.00    -0.354 N 
ATOM     73  C   UNL A   1      42.800  26.373  28.008  1.00  0.00     0.074 A 
ATOM     74  C   UNL A   1      41.459  26.124  27.523  1.00  0.00     0.031 C 
ATOM     75  C   UNL A   1      42.429  32.382  30.190  1.00  0.00     0.029 A 
ATOM     76  C   UNL A   1      43.586  31.492  30.234  1.00  0.00     0.049 A 
ATOM     77  H   UNL A   1      43.708  29.547  29.502  1.00  0.00     0.167 HD
ATOM     78  C   UNL A   1      43.834  25.508  27.883  1.00  0.00     0.037 A 
ATOM     79  C   UNL A   1      44.788  31.795  30.759  1.00  0.00     0.037 A 
ATOM     80  C   UNL A   1      45.166  25.752  28.372  1.00  0.00     0.049 A 
ATOM     81  C   UNL A   1      45.877  30.756  30.757  1.00  0.00     0.074 A 
ATOM     82  C   UNL A   1      46.276  24.930  28.305  1.00  0.00     0.029 A 
ATOM     83  N   UNL A   1      45.564  26.907  29.030  1.00  0.00    -0.354 N 
ATOM     84  N   UNL A   1      45.874  29.557  30.230  1.00  0.00    -0.248 NA
ATOM     85  C   UNL A   1      47.132  31.109  31.436  1.00  0.00     0.031 C 
ATOM     86  C   UNL A   1      47.332  25.564  28.969  1.00  0.00     0.029 A 
ATOM     87  C   UNL A   1      46.893  26.802  29.410  1.00  0.00     0.049 A 
ATOM     88  H   UNL A   1      44.987  27.687  29.202  1.00  0.00     0.167 HD
ATOM     89  C   UNL A   1      47.130  29.025  30.483  1.00  0.00     0.074 A 
ATOM     90  C   UNL A   1      47.872  30.032  31.212  1.00  0.00     0.031 C 
ATOM     91  C   UNL A   1      47.623  27.811  30.134  1.00  0.00     0.037 A 
BRANCH  78  92
ATOM     92  C   UNL A   1      43.539  24.191  27.233  1.00  0.00     0.064 A 
ATOM     93  C   UNL A   1      43.683  23.999  25.851  1.00  0.00     0.173 A 
ATOM     94  C   UNL A   1      43.090  23.111  28.006  1.00  0.00     0.173 A 
ATOM     95  F   UNL A   1      44.091  25.008  25.067  1.00  0.00    -0.203 F 
ATOM     96  C   UNL A   1      43.355  22.781  25.262  1.00  0.00     0.198 A 
ATOM     97  C   UNL A   1      42.789  21.886  27.417  1.00  0.00     0.198 A 
ATOM     98  F   UNL A   1      42.936  23.244  29.332  1.00  0.00    -0.203 F 
ATOM     99  F   UNL A   1      43.446  22.635  23.933  1.00  0.00    -0.200 F 
ATOM    100  C   UNL A   1      42.913  21.725  26.046  1.00  0.00     0.200 A 
ATOM    101  F   UNL A   1      42.365  20.866  28.176  1.00  0.00    -0.200 F 
ATOM    102  F   UNL A   1      42.590  20.555  25.476  1.00  0.00    -0.200 F 
ENDBRANCH  78  92
BRANCH  79 103
ATOM    103  C   UNL A   1      45.018  33.134  31.362  1.00  0.00     0.064 A 
ATOM    104  C   UNL A   1      45.480  34.204  30.585  1.00  0.00     0.173 A 
ATOM    105  C   UNL A   1      44.795  33.364  32.727  1.00  0.00     0.173 A 
ATOM    106  F   UNL A   1      45.738  34.023  29.281  1.00  0.00    -0.203 F 
ATOM    107  C   UNL A   1      45.717  35.454  31.153  1.00  0.00     0.198 A 
ATOM    108  C   UNL A   1      45.009  34.620  33.289  1.00  0.00     0.198 A 
ATOM    109  F   UNL A   1      44.364  32.369  33.517  1.00  0.00    -0.203 F 
ATOM    110  F   UNL A   1      46.194  36.451  30.396  1.00  0.00    -0.200 F 
ATOM    111  C   UNL A   1      45.474  35.663  32.502  1.00  0.00     0.200 A 
ATOM    112  F   UNL A   1      44.769  34.821  34.592  1.00  0.00    -0.200 F 
ATOM    113  F   UNL A   1      45.699  36.867  33.046  1.00  0.00    -0.200 F 
ENDBRANCH  79 103
BRANCH  91 114
ATOM    114  C   UNL A   1      49.046  27.514  30.508  1.00  0.00     0.064 A 
ATOM    115  C   UNL A   1      50.113  27.861  29.668  1.00  0.00     0.173 A 
ATOM    116  C   UNL A   1      49.346  26.914  31.740  1.00  0.00     0.173 A 
ATOM    117  F   UNL A   1      49.878  28.421  28.472  1.00  0.00    -0.203 F 
ATOM    118  C   UNL A   1      51.429  27.602  30.041  1.00  0.00     0.198 A 
ATOM    119  C   UNL A   1      50.664  26.679  32.120  1.00  0.00     0.198 A 
ATOM    120  F   UNL A   1      48.360  26.565  32.580  1.00  0.00    -0.203 F 
ATOM    121  F   UNL A   1      52.434  27.906  29.206  1.00  0.00    -0.200 F 
ATOM    122  C   UNL A   1      51.704  27.018  31.269  1.00  0.00     0.200 A 
ATOM    123  F   UNL A   1      50.927  26.125  33.312  1.00  0.00    -0.200 F 
ATOM    124  F   UNL A   1      52.972  26.778  31.630  1.00  0.00    -0.200 F 
ENDBRANCH  91 114
ENDBRANCH  65  66
ENDBRANCH  58  60
ENDBRANCH  57  58
ENDBRANCH  56  57
ENDBRANCH  55  56
ENDBRANCH  54  55
ENDBRANCH  53  54
ENDBRANCH  52  53
ENDBRANCH  51  52
ENDBRANCH   1  51
TORSDOF 30
ENDMDL
MODEL 3
REMARK VINA RESULT:      -5.5      1.440      2.158
REMARK SMILES O=C(N[C@@H](Cc1ccc(O)cc1)C(=O)N[C@@H](Cc1c[nH]c2ccccc12)C(=O)N[C@@H](CO)C(=O)OCCOCCOCCOC(=O)c1ccc(-c2c3nc(c(-c4c(F)c(F)c(F)c(F)c4F)c4ccc([nH]4)c(-c4c(F)c(F)c(F)c(F)c4F)c4nc(c(-c5c(F)c(F)c(F)c(F)c5F)c5ccc2[nH]5)C=C4)C=C3)cc1)c1ccc(F)cc1
REMARK SMILES IDX 37 1 36 2 35 3 33 4 34 5 30 6 29 7 27 8 28 9 16 11 15 12
REMARK SMILES IDX 13 13 14 14 4 16 3 17 1 18 2 19 110 21 111 22 116 23 112 24
REMARK SMILES IDX 115 25 113 26 114 27 5 28 6 29 7 30 12 31 8 32 11 33 9 34
REMARK SMILES IDX 10 35 17 37 18 38 19 39 26 40 20 41 21 42 25 43 22 45 24 46
REMARK SMILES IDX 23 47 31 48 32 49 38 51 39 52 40 53 41 54 42 55 43 56 44 57
REMARK SMILES IDX 45 58 46 59 47 60 48 61 109 62 49 63 108 64 50 65 51 66
REMARK SMILES IDX 52 67 102 68 53 69 107 70 101 71 103 72 54 73 106 74 100 75
REMARK SMILES IDX 99 76 55 78 87 79 67 80 86 81 68 82 71 83 85 84 104 85 69 86
REMARK SMILES IDX 70 87 84 89 105 90 72 91 56 92 57 93 65 94 58 95 59 96 63 97
REMARK SMILES IDX 66 98 60 99 61 100 64 101 62 102 88 103 89 104 97 105 90 106
REMARK SMILES IDX 91 107 95 108 98 109 92 110 93 111 96 112 94 113 73 114
REMARK SMILES IDX 74 115 82 116 75 117 76 118 80 119 83 120 77 121 78 122
REMARK SMILES IDX 81 123 79 124
REMARK H PARENT 29 10 15 15 3 20 10 36 20 44 32 50 103 77 71 88
REMARK Flexibility Score: inf
ROOT
ATOM      1  C   UNL A   1      42.419  34.938  30.727  1.00  0.00     0.202 C 
ENDROOT
BRANCH   1   2
ATOM      2  C   UNL A   1      41.562  33.772  31.216  1.00  0.00     0.261 C 
BRANCH   2   3
ATOM      3  O   UNL A   1      40.484  34.241  32.048  1.00  0.00    -0.462 OA
BRANCH   3   4
ATOM      4  C   UNL A   1      39.246  33.786  31.726  1.00  0.00     0.331 C 
ATOM      5  O   UNL A   1      38.197  34.289  32.115  1.00  0.00    -0.250 OA
BRANCH   4   6
ATOM      6  C   UNL A   1      39.301  32.561  30.809  1.00  0.00     0.218 C 
BRANCH   6   7
ATOM      7  N   UNL A   1      39.242  31.233  31.461  1.00  0.00    -0.339 N 
ATOM      8  C   UNL A   1      39.245  30.100  30.695  1.00  0.00     0.243 C 
ATOM      9  O   UNL A   1      38.154  29.726  30.250  1.00  0.00    -0.273 OA
ATOM     10  H   UNL A   1      39.200  31.166  32.442  1.00  0.00     0.164 HD
BRANCH   8  11
ATOM     11  C   UNL A   1      40.543  29.241  30.504  1.00  0.00     0.175 C 
BRANCH  11  12
ATOM     12  N   UNL A   1      40.888  29.316  29.079  1.00  0.00    -0.342 N 
ATOM     13  C   UNL A   1      40.937  28.356  28.115  1.00  0.00     0.243 C 
ATOM     14  O   UNL A   1      40.723  28.745  26.958  1.00  0.00    -0.273 OA
ATOM     15  H   UNL A   1      41.125  30.219  28.766  1.00  0.00     0.164 HD
BRANCH  13  16
ATOM     16  C   UNL A   1      41.260  26.861  28.360  1.00  0.00     0.176 C 
BRANCH  16  17
ATOM     17  N   UNL A   1      42.520  26.659  29.073  1.00  0.00    -0.340 N 
ATOM     18  O   UNL A   1      44.483  25.681  29.557  1.00  0.00    -0.269 OA
ATOM     19  C   UNL A   1      43.563  25.816  28.757  1.00  0.00     0.251 C 
ATOM     20  H   UNL A   1      42.639  27.196  29.889  1.00  0.00     0.164 HD
BRANCH  19  21
ATOM     21  C   UNL A   1      43.544  25.022  27.500  1.00  0.00     0.040 A 
ATOM     22  C   UNL A   1      43.924  23.672  27.476  1.00  0.00     0.017 A 
ATOM     23  C   UNL A   1      43.133  25.652  26.316  1.00  0.00     0.017 A 
ATOM     24  C   UNL A   1      43.969  22.982  26.261  1.00  0.00     0.040 A 
ATOM     25  C   UNL A   1      43.169  24.953  25.105  1.00  0.00     0.040 A 
ATOM     26  C   UNL A   1      43.601  23.630  25.088  1.00  0.00     0.123 A 
ATOM     27  F   UNL A   1      43.661  22.971  23.923  1.00  0.00    -0.207 F 
ENDBRANCH  19  21
ENDBRANCH  16  17
BRANCH  16  28
ATOM     28  C   UNL A   1      40.118  25.926  28.799  1.00  0.00     0.070 C 
BRANCH  28  29
ATOM     29  C   UNL A   1      39.765  24.751  27.923  1.00  0.00    -0.045 A 
ATOM     30  C   UNL A   1      40.470  23.540  28.012  1.00  0.00     0.007 A 
ATOM     31  C   UNL A   1      38.747  24.874  26.967  1.00  0.00     0.007 A 
ATOM     32  C   UNL A   1      40.136  22.464  27.187  1.00  0.00     0.046 A 
ATOM     33  C   UNL A   1      38.397  23.791  26.162  1.00  0.00     0.046 A 
ATOM     34  C   UNL A   1      39.084  22.591  26.287  1.00  0.00     0.115 A 
BRANCH  34  35
ATOM     35  O   UNL A   1      38.687  21.549  25.506  1.00  0.00    -0.508 OA
ATOM     36  H   UNL A   1      38.354  21.708  24.645  1.00  0.00     0.293 HD
ENDBRANCH  34  35
ENDBRANCH  28  29
ENDBRANCH  16  28
ENDBRANCH  13  16
ENDBRANCH  11  12
BRANCH  11  37
ATOM     37  C   UNL A   1      41.750  29.401  31.438  1.00  0.00     0.072 C 
BRANCH  37  38
ATOM     38  C   UNL A   1      41.725  28.864  32.838  1.00  0.00    -0.020 A 
ATOM     39  C   UNL A   1      41.004  29.294  33.936  1.00  0.00     0.087 A 
ATOM     40  C   UNL A   1      42.510  27.744  33.292  1.00  0.00     0.003 A 
ATOM     41  N   UNL A   1      41.161  28.367  34.942  1.00  0.00    -0.361 N 
ATOM     42  C   UNL A   1      42.056  27.395  34.560  1.00  0.00     0.046 A 
ATOM     43  C   UNL A   1      43.526  26.955  32.711  1.00  0.00     0.010 A 
ATOM     44  H   UNL A   1      40.699  28.395  35.811  1.00  0.00     0.166 HD
ATOM     45  C   UNL A   1      42.493  26.243  35.229  1.00  0.00     0.026 A 
ATOM     46  C   UNL A   1      44.015  25.831  33.385  1.00  0.00     0.001 A 
ATOM     47  C   UNL A   1      43.482  25.466  34.615  1.00  0.00     0.002 A 
ENDBRANCH  37  38
ENDBRANCH  11  37
ENDBRANCH   8  11
ENDBRANCH   6   7
BRANCH   6  48
ATOM     48  C   UNL A   1      38.251  32.727  29.702  1.00  0.00     0.193 C 
BRANCH  48  49
ATOM     49  O   UNL A   1      36.931  32.594  30.224  1.00  0.00    -0.394 OA
ATOM     50  H   UNL A   1      36.976  32.263  31.135  1.00  0.00     0.210 HD
ENDBRANCH  48  49
ENDBRANCH   6  48
ENDBRANCH   4   6
ENDBRANCH   3   4
ENDBRANCH   2   3
ENDBRANCH   1   2
BRANCH   1  51
ATOM     51  O   UNL A   1      42.353  35.101  29.312  1.00  0.00    -0.376 OA
BRANCH  51  52
ATOM     52  C   UNL A   1      43.592  35.375  28.674  1.00  0.00     0.188 C 
BRANCH  52  53
ATOM     53  C   UNL A   1      43.726  34.901  27.219  1.00  0.00     0.188 C 
BRANCH  53  54
ATOM     54  O   UNL A   1      44.665  33.899  26.878  1.00  0.00    -0.376 OA
BRANCH  54  55
ATOM     55  C   UNL A   1      44.262  32.847  26.019  1.00  0.00     0.202 C 
BRANCH  55  56
ATOM     56  C   UNL A   1      43.857  31.523  26.673  1.00  0.00     0.261 C 
BRANCH  56  57
ATOM     57  O   UNL A   1      44.710  30.407  26.344  1.00  0.00    -0.460 OA
BRANCH  57  58
ATOM     58  C   UNL A   1      46.001  30.527  26.737  1.00  0.00     0.338 C 
ATOM     59  O   UNL A   1      46.924  31.018  26.105  1.00  0.00    -0.246 OA
BRANCH  58  60
ATOM     60  C   UNL A   1      46.161  30.111  28.147  1.00  0.00     0.060 A 
ATOM     61  C   UNL A   1      45.139  29.348  28.725  1.00  0.00     0.016 A 
ATOM     62  C   UNL A   1      47.229  30.555  28.929  1.00  0.00     0.016 A 
ATOM     63  C   UNL A   1      45.153  29.061  30.092  1.00  0.00     0.010 A 
ATOM     64  C   UNL A   1      47.240  30.271  30.303  1.00  0.00     0.010 A 
ATOM     65  C   UNL A   1      46.191  29.544  30.897  1.00  0.00    -0.014 A 
BRANCH  65  66
ATOM     66  C   UNL A   1      46.103  29.406  32.372  1.00  0.00     0.031 A 
ATOM     67  C   UNL A   1      45.335  30.426  33.160  1.00  0.00     0.074 A 
ATOM     68  C   UNL A   1      46.667  28.367  33.013  1.00  0.00     0.049 A 
ATOM     69  N   UNL A   1      45.214  30.557  34.456  1.00  0.00    -0.248 NA
ATOM     70  C   UNL A   1      44.605  31.433  32.377  1.00  0.00     0.031 C 
ATOM     71  C   UNL A   1      47.340  27.251  32.365  1.00  0.00     0.029 A 
ATOM     72  N   UNL A   1      46.764  28.082  34.352  1.00  0.00    -0.354 N 
ATOM     73  C   UNL A   1      44.384  31.652  34.646  1.00  0.00     0.074 A 
ATOM     74  C   UNL A   1      44.059  32.170  33.333  1.00  0.00     0.031 C 
ATOM     75  C   UNL A   1      47.796  26.403  33.301  1.00  0.00     0.029 A 
ATOM     76  C   UNL A   1      47.485  26.945  34.621  1.00  0.00     0.049 A 
ATOM     77  H   UNL A   1      46.355  28.640  35.053  1.00  0.00     0.167 HD
ATOM     78  C   UNL A   1      43.932  32.176  35.810  1.00  0.00     0.037 A 
ATOM     79  C   UNL A   1      47.880  26.421  35.796  1.00  0.00     0.037 A 
ATOM     80  C   UNL A   1      44.262  31.667  37.115  1.00  0.00     0.049 A 
ATOM     81  C   UNL A   1      47.503  27.115  37.077  1.00  0.00     0.074 A 
ATOM     82  C   UNL A   1      43.864  32.139  38.353  1.00  0.00     0.029 A 
ATOM     83  N   UNL A   1      45.080  30.571  37.350  1.00  0.00    -0.354 N 
ATOM     84  N   UNL A   1      46.745  28.168  37.254  1.00  0.00    -0.248 NA
ATOM     85  C   UNL A   1      48.051  26.554  38.320  1.00  0.00     0.031 C 
ATOM     86  C   UNL A   1      44.484  31.363  39.339  1.00  0.00     0.029 A 
ATOM     87  C   UNL A   1      45.232  30.377  38.715  1.00  0.00     0.049 A 
ATOM     88  H   UNL A   1      45.492  30.014  36.651  1.00  0.00     0.167 HD
ATOM     89  C   UNL A   1      46.696  28.378  38.625  1.00  0.00     0.074 A 
ATOM     90  C   UNL A   1      47.503  27.342  39.235  1.00  0.00     0.031 C 
ATOM     91  C   UNL A   1      46.035  29.341  39.312  1.00  0.00     0.037 A 
BRANCH  78  92
ATOM     92  C   UNL A   1      43.073  33.399  35.713  1.00  0.00     0.064 A 
ATOM     93  C   UNL A   1      43.619  34.692  35.752  1.00  0.00     0.173 A 
ATOM     94  C   UNL A   1      41.681  33.274  35.596  1.00  0.00     0.173 A 
ATOM     95  F   UNL A   1      44.942  34.863  35.883  1.00  0.00    -0.203 F 
ATOM     96  C   UNL A   1      42.797  35.814  35.710  1.00  0.00     0.198 A 
ATOM     97  C   UNL A   1      40.865  34.399  35.527  1.00  0.00     0.198 A 
ATOM     98  F   UNL A   1      41.112  32.060  35.554  1.00  0.00    -0.203 F 
ATOM     99  F   UNL A   1      43.332  37.039  35.805  1.00  0.00    -0.200 F 
ATOM    100  C   UNL A   1      41.422  35.667  35.594  1.00  0.00     0.200 A 
ATOM    101  F   UNL A   1      39.537  34.256  35.411  1.00  0.00    -0.200 F 
ATOM    102  F   UNL A   1      40.631  36.750  35.563  1.00  0.00    -0.200 F 
ENDBRANCH  78  92
BRANCH  79 103
ATOM    103  C   UNL A   1      48.707  25.187  35.817  1.00  0.00     0.064 A 
ATOM    104  C   UNL A   1      48.113  23.922  35.916  1.00  0.00     0.173 A 
ATOM    105  C   UNL A   1      50.108  25.249  35.753  1.00  0.00     0.173 A 
ATOM    106  F   UNL A   1      46.780  23.815  36.011  1.00  0.00    -0.203 F 
ATOM    107  C   UNL A   1      48.888  22.766  35.957  1.00  0.00     0.198 A 
ATOM    108  C   UNL A   1      50.880  24.091  35.770  1.00  0.00     0.198 A 
ATOM    109  F   UNL A   1      50.726  26.437  35.670  1.00  0.00    -0.203 F 
ATOM    110  F   UNL A   1      48.297  21.570  36.089  1.00  0.00    -0.200 F 
ATOM    111  C   UNL A   1      50.270  22.850  35.877  1.00  0.00     0.200 A 
ATOM    112  F   UNL A   1      52.215  24.175  35.688  1.00  0.00    -0.200 F 
ATOM    113  F   UNL A   1      51.014  21.736  35.913  1.00  0.00    -0.200 F 
ENDBRANCH  79 103
BRANCH  91 114
ATOM    114  C   UNL A   1      46.127  29.303  40.810  1.00  0.00     0.064 A 
ATOM    115  C   UNL A   1      45.319  28.448  41.573  1.00  0.00     0.173 A 
ATOM    116  C   UNL A   1      47.065  30.099  41.484  1.00  0.00     0.173 A 
ATOM    117  F   UNL A   1      44.396  27.680  40.977  1.00  0.00    -0.203 F 
ATOM    118  C   UNL A   1      45.436  28.406  42.960  1.00  0.00     0.198 A 
ATOM    119  C   UNL A   1      47.195  30.036  42.868  1.00  0.00     0.198 A 
ATOM    120  F   UNL A   1      47.862  30.931  40.798  1.00  0.00    -0.203 F 
ATOM    121  F   UNL A   1      44.626  27.610  43.675  1.00  0.00    -0.200 F 
ATOM    122  C   UNL A   1      46.378  29.193  43.605  1.00  0.00     0.200 A 
ATOM    123  F   UNL A   1      48.113  30.790  43.489  1.00  0.00    -0.200 F 
ATOM    124  F   UNL A   1      46.493  29.144  44.940  1.00  0.00    -0.200 F 
ENDBRANCH  91 114
ENDBRANCH  65  66
ENDBRANCH  58  60
ENDBRANCH  57  58
ENDBRANCH  56  57
ENDBRANCH  55  56
ENDBRANCH  54  55
ENDBRANCH  53  54
ENDBRANCH  52  53
ENDBRANCH  51  52
ENDBRANCH   1  51
TORSDOF 30
ENDMDL
