MODEL 1
REMARK VINA RESULT:      -9.7      0.000      0.000
REMARK SMILES C[NH2+][C@]1(C(=O)OCCOCCOCCOC(=O)c2ccc(-c3c4nc(c(-c5c(F)c(F)c(F)c(F)c5F)c5ccc([nH]5)c(-c5c(F)c(F)c(F)c(F)c5F)c5nc(c(-c6c(F)c(F)c(F)c(F)c6F)c6ccc3[nH]6)C=C5)C=C4)cc2)CCC[C@@H]1CCOC[C@@H]1CCCO1
REMARK SMILES IDX 9 1 8 2 7 3 6 4 4 5 5 6 3 7 81 8 84 9 82 10 83 11 2 12 1 13
REMARK SMILES IDX 85 16 86 17 87 18 88 19 89 20 90 21 93 22 91 23 92 24 10 25
REMARK SMILES IDX 11 26 12 27 13 28 14 29 15 30 16 31 17 32 18 33 19 34 80 35
REMARK SMILES IDX 20 36 79 37 21 38 22 39 23 40 73 41 24 42 78 43 72 44 74 45
REMARK SMILES IDX 25 46 77 47 71 48 70 49 26 51 58 52 38 53 57 54 39 55 42 56
REMARK SMILES IDX 56 57 75 58 40 59 41 60 55 62 76 63 43 64 27 65 28 66 36 67
REMARK SMILES IDX 29 68 30 69 34 70 37 71 31 72 32 73 35 74 33 75 59 76 60 77
REMARK SMILES IDX 68 78 61 79 62 80 66 81 69 82 63 83 64 84 67 85 65 86 44 87
REMARK SMILES IDX 45 88 53 89 46 90 47 91 51 92 54 93 48 94 49 95 52 96 50 97
REMARK H PARENT 2 14 2 15 74 50 42 61
REMARK Flexibility Score: inf
ROOT
ATOM      1  O   UNL A   1      33.733  28.047  24.107  1.00  0.00    -0.376 OA
ENDROOT
BRANCH   1   2
ATOM      2  C   UNL A   1      33.042  27.268  23.141  1.00  0.00     0.202 C 
BRANCH   2   3
ATOM      3  C   UNL A   1      32.553  25.841  23.459  1.00  0.00     0.261 C 
BRANCH   3   4
ATOM      4  O   UNL A   1      33.560  24.864  23.788  1.00  0.00    -0.459 OA
BRANCH   4   5
ATOM      5  C   UNL A   1      33.600  24.487  25.098  1.00  0.00     0.368 C 
ATOM      6  O   UNL A   1      33.637  25.292  26.025  1.00  0.00    -0.245 OA
BRANCH   5   7
ATOM      7  C   UNL A   1      33.530  22.936  25.315  1.00  0.00     0.197 C 
ATOM      8  C   UNL A   1      32.445  22.143  24.515  1.00  0.00     0.081 C 
ATOM      9  C   UNL A   1      34.759  22.300  24.627  1.00  0.00     0.065 C 
ATOM     10  C   UNL A   1      32.972  20.699  24.435  1.00  0.00     0.008 C 
ATOM     11  C   UNL A   1      34.472  20.795  24.714  1.00  0.00     0.011 C 
BRANCH   7  12
ATOM     12  N   UNL A   1      33.268  22.625  26.756  1.00  0.00    -0.334 N 
ATOM     13  C   UNL A   1      31.918  22.871  27.236  1.00  0.00     0.331 C 
ATOM     14  H   UNL A   1      33.473  21.636  26.903  1.00  0.00     0.347 HD
ATOM     15  H   UNL A   1      33.863  23.263  27.284  1.00  0.00     0.347 HD
ENDBRANCH   7  12
BRANCH   9  16
ATOM     16  C   UNL A   1      36.168  22.733  25.034  1.00  0.00     0.039 C 
BRANCH  16  17
ATOM     17  C   UNL A   1      37.136  21.569  25.318  1.00  0.00     0.161 C 
BRANCH  17  18
ATOM     18  O   UNL A   1      38.268  21.914  26.097  1.00  0.00    -0.379 OA
BRANCH  18  19
ATOM     19  C   UNL A   1      39.593  21.515  25.738  1.00  0.00     0.192 C 
BRANCH  19  20
ATOM     20  C   UNL A   1      40.287  20.294  26.377  1.00  0.00     0.144 C 
ATOM     21  C   UNL A   1      41.174  20.566  27.578  1.00  0.00     0.037 C 
ATOM     22  O   UNL A   1      41.090  19.550  25.447  1.00  0.00    -0.376 OA
ATOM     23  C   UNL A   1      42.091  19.377  27.598  1.00  0.00     0.031 C 
ATOM     24  C   UNL A   1      42.290  19.129  26.117  1.00  0.00     0.160 C 
ENDBRANCH  19  20
ENDBRANCH  18  19
ENDBRANCH  17  18
ENDBRANCH  16  17
ENDBRANCH   9  16
ENDBRANCH   5   7
ENDBRANCH   4   5
ENDBRANCH   3   4
ENDBRANCH   2   3
ENDBRANCH   1   2
BRANCH   1  25
ATOM     25  C   UNL A   1      33.136  29.216  24.646  1.00  0.00     0.188 C 
BRANCH  25  26
ATOM     26  C   UNL A   1      31.607  29.319  24.725  1.00  0.00     0.188 C 
BRANCH  26  27
ATOM     27  O   UNL A   1      31.083  30.444  25.377  1.00  0.00    -0.376 OA
BRANCH  27  28
ATOM     28  C   UNL A   1      31.737  30.962  26.515  1.00  0.00     0.202 C 
BRANCH  28  29
ATOM     29  C   UNL A   1      31.766  32.454  26.908  1.00  0.00     0.261 C 
BRANCH  29  30
ATOM     30  O   UNL A   1      33.012  33.162  26.860  1.00  0.00    -0.460 OA
BRANCH  30  31
ATOM     31  C   UNL A   1      33.469  33.696  28.022  1.00  0.00     0.338 C 
ATOM     32  O   UNL A   1      32.916  34.522  28.717  1.00  0.00    -0.246 OA
BRANCH  31  33
ATOM     33  C   UNL A   1      34.676  32.933  28.433  1.00  0.00     0.060 A 
ATOM     34  C   UNL A   1      34.556  31.562  28.705  1.00  0.00     0.016 A 
ATOM     35  C   UNL A   1      35.915  33.564  28.548  1.00  0.00     0.016 A 
ATOM     36  C   UNL A   1      35.669  30.824  29.121  1.00  0.00     0.010 A 
ATOM     37  C   UNL A   1      37.021  32.831  28.991  1.00  0.00     0.010 A 
ATOM     38  C   UNL A   1      36.899  31.466  29.310  1.00  0.00    -0.014 A 
BRANCH  38  39
ATOM     39  C   UNL A   1      38.003  30.773  30.025  1.00  0.00     0.031 A 
ATOM     40  C   UNL A   1      38.233  31.111  31.474  1.00  0.00     0.074 A 
ATOM     41  C   UNL A   1      38.789  29.868  29.416  1.00  0.00     0.049 A 
ATOM     42  N   UNL A   1      39.190  30.729  32.281  1.00  0.00    -0.248 NA
ATOM     43  C   UNL A   1      37.246  32.010  32.095  1.00  0.00     0.031 C 
ATOM     44  C   UNL A   1      38.643  29.409  28.039  1.00  0.00     0.029 A 
ATOM     45  N   UNL A   1      39.887  29.187  29.886  1.00  0.00    -0.354 N 
ATOM     46  C   UNL A   1      38.930  31.353  33.495  1.00  0.00     0.074 A 
ATOM     47  C   UNL A   1      37.743  32.157  33.313  1.00  0.00     0.031 C 
ATOM     48  C   UNL A   1      39.630  28.537  27.764  1.00  0.00     0.029 A 
ATOM     49  C   UNL A   1      40.500  28.409  28.934  1.00  0.00     0.049 A 
ATOM     50  H   UNL A   1      40.204  29.250  30.817  1.00  0.00     0.167 HD
ATOM     51  C   UNL A   1      39.616  31.259  34.659  1.00  0.00     0.037 A 
ATOM     52  C   UNL A   1      41.649  27.704  28.993  1.00  0.00     0.037 A 
ATOM     53  C   UNL A   1      40.801  30.460  34.839  1.00  0.00     0.049 A 
ATOM     54  C   UNL A   1      42.447  27.687  30.275  1.00  0.00     0.074 A 
ATOM     55  C   UNL A   1      41.559  30.289  35.984  1.00  0.00     0.029 A 
ATOM     56  N   UNL A   1      41.407  29.709  33.843  1.00  0.00    -0.354 N 
ATOM     57  N   UNL A   1      42.186  28.260  31.426  1.00  0.00    -0.248 NA
ATOM     58  C   UNL A   1      43.700  26.917  30.265  1.00  0.00     0.031 C 
ATOM     59  C   UNL A   1      42.658  29.486  35.665  1.00  0.00     0.029 A 
ATOM     60  C   UNL A   1      42.547  29.098  34.339  1.00  0.00     0.049 A 
ATOM     61  H   UNL A   1      41.076  29.624  32.919  1.00  0.00     0.167 HD
ATOM     62  C   UNL A   1      43.220  27.895  32.281  1.00  0.00     0.074 A 
ATOM     63  C   UNL A   1      44.106  27.038  31.521  1.00  0.00     0.031 C 
ATOM     64  C   UNL A   1      43.416  28.235  33.579  1.00  0.00     0.037 A 
BRANCH  51  65
ATOM     65  C   UNL A   1      39.123  32.070  35.822  1.00  0.00     0.064 A 
ATOM     66  C   UNL A   1      38.265  31.530  36.792  1.00  0.00     0.173 A 
ATOM     67  C   UNL A   1      39.539  33.401  35.984  1.00  0.00     0.173 A 
ATOM     68  F   UNL A   1      37.826  30.267  36.679  1.00  0.00    -0.203 F 
ATOM     69  C   UNL A   1      37.819  32.299  37.864  1.00  0.00     0.198 A 
ATOM     70  C   UNL A   1      39.118  34.157  37.074  1.00  0.00     0.198 A 
ATOM     71  F   UNL A   1      40.361  33.966  35.088  1.00  0.00    -0.203 F 
ATOM     72  F   UNL A   1      36.958  31.780  38.748  1.00  0.00    -0.200 F 
ATOM     73  C   UNL A   1      38.253  33.609  38.008  1.00  0.00     0.200 A 
ATOM     74  F   UNL A   1      39.551  35.417  37.220  1.00  0.00    -0.200 F 
ATOM     75  F   UNL A   1      37.829  34.346  39.044  1.00  0.00    -0.200 F 
ENDBRANCH  51  65
BRANCH  52  76
ATOM     76  C   UNL A   1      42.136  26.968  27.795  1.00  0.00     0.064 A 
ATOM     77  C   UNL A   1      41.808  25.620  27.589  1.00  0.00     0.173 A 
ATOM     78  C   UNL A   1      42.971  27.585  26.850  1.00  0.00     0.173 A 
ATOM     79  F   UNL A   1      41.041  24.976  28.480  1.00  0.00    -0.203 F 
ATOM     80  C   UNL A   1      42.314  24.913  26.499  1.00  0.00     0.198 A 
ATOM     81  C   UNL A   1      43.448  26.886  25.743  1.00  0.00     0.198 A 
ATOM     82  F   UNL A   1      43.324  28.870  27.003  1.00  0.00    -0.203 F 
ATOM     83  F   UNL A   1      42.032  23.611  26.361  1.00  0.00    -0.200 F 
ATOM     84  C   UNL A   1      43.127  25.548  25.573  1.00  0.00     0.200 A 
ATOM     85  F   UNL A   1      44.228  27.506  24.847  1.00  0.00    -0.200 F 
ATOM     86  F   UNL A   1      43.613  24.867  24.527  1.00  0.00    -0.200 F 
ENDBRANCH  52  76
BRANCH  64  87
ATOM     87  C   UNL A   1      44.604  27.642  34.286  1.00  0.00     0.064 A 
ATOM     88  C   UNL A   1      45.835  28.310  34.362  1.00  0.00     0.173 A 
ATOM     89  C   UNL A   1      44.492  26.403  34.939  1.00  0.00     0.173 A 
ATOM     90  F   UNL A   1      46.001  29.491  33.749  1.00  0.00    -0.203 F 
ATOM     91  C   UNL A   1      46.916  27.748  35.039  1.00  0.00     0.198 A 
ATOM     92  C   UNL A   1      45.563  25.862  35.644  1.00  0.00     0.198 A 
ATOM     93  F   UNL A   1      43.336  25.724  34.908  1.00  0.00    -0.203 F 
ATOM     94  F   UNL A   1      48.097  28.382  35.053  1.00  0.00    -0.200 F 
ATOM     95  C   UNL A   1      46.777  26.529  35.686  1.00  0.00     0.200 A 
ATOM     96  F   UNL A   1      45.420  24.692  36.285  1.00  0.00    -0.200 F 
ATOM     97  F   UNL A   1      47.815  25.996  36.345  1.00  0.00    -0.200 F 
ENDBRANCH  64  87
ENDBRANCH  38  39
ENDBRANCH  31  33
ENDBRANCH  30  31
ENDBRANCH  29  30
ENDBRANCH  28  29
ENDBRANCH  27  28
ENDBRANCH  26  27
ENDBRANCH  25  26
ENDBRANCH   1  25
TORSDOF 23
ENDMDL
MODEL 2
REMARK VINA RESULT:      -9.7      1.638      7.975
REMARK SMILES C[NH2+][C@]1(C(=O)OCCOCCOCCOC(=O)c2ccc(-c3c4nc(c(-c5c(F)c(F)c(F)c(F)c5F)c5ccc([nH]5)c(-c5c(F)c(F)c(F)c(F)c5F)c5nc(c(-c6c(F)c(F)c(F)c(F)c6F)c6ccc3[nH]6)C=C5)C=C4)cc2)CCC[C@@H]1CCOC[C@@H]1CCCO1
REMARK SMILES IDX 9 1 8 2 7 3 6 4 4 5 5 6 3 7 81 8 84 9 82 10 83 11 2 12 1 13
REMARK SMILES IDX 85 16 86 17 87 18 88 19 89 20 90 21 93 22 91 23 92 24 10 25
REMARK SMILES IDX 11 26 12 27 13 28 14 29 15 30 16 31 17 32 18 33 19 34 80 35
REMARK SMILES IDX 20 36 79 37 21 38 22 39 23 40 73 41 24 42 78 43 72 44 74 45
REMARK SMILES IDX 25 46 77 47 71 48 70 49 26 51 58 52 38 53 57 54 39 55 42 56
REMARK SMILES IDX 56 57 75 58 40 59 41 60 55 62 76 63 43 64 27 65 28 66 36 67
REMARK SMILES IDX 29 68 30 69 34 70 37 71 31 72 32 73 35 74 33 75 59 76 60 77
REMARK SMILES IDX 68 78 61 79 62 80 66 81 69 82 63 83 64 84 67 85 65 86 44 87
REMARK SMILES IDX 45 88 53 89 46 90 47 91 51 92 54 93 48 94 49 95 52 96 50 97
REMARK H PARENT 2 14 2 15 74 50 42 61
REMARK Flexibility Score: inf
ROOT
ATOM      1  O   UNL A   1      34.380  24.804  25.580  1.00  0.00    -0.376 OA
ENDROOT
BRANCH   1   2
ATOM      2  C   UNL A   1      35.518  24.491  24.790  1.00  0.00     0.202 C 
BRANCH   2   3
ATOM      3  C   UNL A   1      36.072  23.055  24.711  1.00  0.00     0.261 C 
BRANCH   3   4
ATOM      4  O   UNL A   1      35.189  22.041  24.193  1.00  0.00    -0.459 OA
BRANCH   4   5
ATOM      5  C   UNL A   1      35.007  20.957  24.999  1.00  0.00     0.368 C 
ATOM      6  O   UNL A   1      35.761  19.988  24.996  1.00  0.00    -0.245 OA
BRANCH   5   7
ATOM      7  C   UNL A   1      33.787  21.088  25.976  1.00  0.00     0.197 C 
ATOM      8  C   UNL A   1      34.026  21.828  27.334  1.00  0.00     0.081 C 
ATOM      9  C   UNL A   1      32.806  22.122  25.380  1.00  0.00     0.065 C 
ATOM     10  C   UNL A   1      32.639  22.331  27.772  1.00  0.00     0.008 C 
ATOM     11  C   UNL A   1      31.782  22.326  26.505  1.00  0.00     0.011 C 
BRANCH   7  12
ATOM     12  N   UNL A   1      33.272  19.732  26.347  1.00  0.00    -0.334 N 
ATOM     13  C   UNL A   1      32.776  18.908  25.258  1.00  0.00     0.331 C 
ATOM     14  H   UNL A   1      34.034  19.224  26.798  1.00  0.00     0.347 HD
ATOM     15  H   UNL A   1      32.465  19.904  26.946  1.00  0.00     0.347 HD
ENDBRANCH   7  12
BRANCH   9  16
ATOM     16  C   UNL A   1      32.222  21.901  23.984  1.00  0.00     0.039 C 
BRANCH  16  17
ATOM     17  C   UNL A   1      31.214  22.975  23.535  1.00  0.00     0.161 C 
BRANCH  17  18
ATOM     18  O   UNL A   1      31.730  24.294  23.492  1.00  0.00    -0.379 OA
BRANCH  18  19
ATOM     19  C   UNL A   1      32.368  24.827  22.329  1.00  0.00     0.192 C 
BRANCH  19  20
ATOM     20  C   UNL A   1      32.385  26.339  22.019  1.00  0.00     0.144 C 
ATOM     21  C   UNL A   1      33.656  27.091  22.367  1.00  0.00     0.037 C 
ATOM     22  O   UNL A   1      31.311  27.056  22.647  1.00  0.00    -0.376 OA
ATOM     23  C   UNL A   1      33.186  28.511  22.490  1.00  0.00     0.031 C 
ATOM     24  C   UNL A   1      31.817  28.320  23.109  1.00  0.00     0.160 C 
ENDBRANCH  19  20
ENDBRANCH  18  19
ENDBRANCH  17  18
ENDBRANCH  16  17
ENDBRANCH   9  16
ENDBRANCH   5   7
ENDBRANCH   4   5
ENDBRANCH   3   4
ENDBRANCH   2   3
ENDBRANCH   1   2
BRANCH   1  25
ATOM     25  C   UNL A   1      33.939  26.147  25.702  1.00  0.00     0.188 C 
BRANCH  25  26
ATOM     26  C   UNL A   1      32.596  26.445  26.382  1.00  0.00     0.188 C 
BRANCH  26  27
ATOM     27  O   UNL A   1      32.537  27.590  27.188  1.00  0.00    -0.376 OA
BRANCH  27  28
ATOM     28  C   UNL A   1      31.531  28.554  26.963  1.00  0.00     0.202 C 
BRANCH  28  29
ATOM     29  C   UNL A   1      31.784  29.982  26.439  1.00  0.00     0.261 C 
BRANCH  29  30
ATOM     30  O   UNL A   1      33.133  30.455  26.331  1.00  0.00    -0.460 OA
BRANCH  30  31
ATOM     31  C   UNL A   1      33.509  31.458  27.165  1.00  0.00     0.338 C 
ATOM     32  O   UNL A   1      32.834  32.394  27.537  1.00  0.00    -0.246 OA
BRANCH  31  33
ATOM     33  C   UNL A   1      34.835  31.105  27.738  1.00  0.00     0.060 A 
ATOM     34  C   UNL A   1      35.127  29.758  28.001  1.00  0.00     0.016 A 
ATOM     35  C   UNL A   1      35.780  32.092  28.012  1.00  0.00     0.016 A 
ATOM     36  C   UNL A   1      36.354  29.398  28.565  1.00  0.00     0.010 A 
ATOM     37  C   UNL A   1      36.997  31.735  28.602  1.00  0.00     0.010 A 
ATOM     38  C   UNL A   1      37.279  30.391  28.911  1.00  0.00    -0.014 A 
BRANCH  38  39
ATOM     39  C   UNL A   1      38.446  30.060  29.772  1.00  0.00     0.031 A 
ATOM     40  C   UNL A   1      39.459  29.077  29.248  1.00  0.00     0.074 A 
ATOM     41  C   UNL A   1      38.612  30.608  30.988  1.00  0.00     0.049 A 
ATOM     42  N   UNL A   1      40.496  28.547  29.844  1.00  0.00    -0.248 NA
ATOM     43  C   UNL A   1      39.270  28.630  27.859  1.00  0.00     0.031 C 
ATOM     44  C   UNL A   1      37.739  31.610  31.593  1.00  0.00     0.029 A 
ATOM     45  N   UNL A   1      39.573  30.376  31.943  1.00  0.00    -0.354 N 
ATOM     46  C   UNL A   1      41.071  27.693  28.911  1.00  0.00     0.074 A 
ATOM     47  C   UNL A   1      40.254  27.756  27.720  1.00  0.00     0.031 C 
ATOM     48  C   UNL A   1      38.191  31.891  32.828  1.00  0.00     0.029 A 
ATOM     49  C   UNL A   1      39.360  31.060  33.116  1.00  0.00     0.049 A 
ATOM     50  H   UNL A   1      40.342  29.777  31.800  1.00  0.00     0.167 HD
ATOM     51  C   UNL A   1      42.183  26.929  29.035  1.00  0.00     0.037 A 
ATOM     52  C   UNL A   1      40.014  30.992  34.293  1.00  0.00     0.037 A 
ATOM     53  C   UNL A   1      42.993  26.864  30.222  1.00  0.00     0.049 A 
ATOM     54  C   UNL A   1      41.198  30.065  34.437  1.00  0.00     0.074 A 
ATOM     55  C   UNL A   1      44.147  26.131  30.440  1.00  0.00     0.029 A 
ATOM     56  N   UNL A   1      42.728  27.550  31.399  1.00  0.00    -0.354 N 
ATOM     57  N   UNL A   1      41.750  29.276  33.547  1.00  0.00    -0.248 NA
ATOM     58  C   UNL A   1      41.852  30.024  35.754  1.00  0.00     0.031 C 
ATOM     59  C   UNL A   1      44.544  26.323  31.766  1.00  0.00     0.029 A 
ATOM     60  C   UNL A   1      43.679  27.232  32.355  1.00  0.00     0.049 A 
ATOM     61  H   UNL A   1      41.975  28.169  31.534  1.00  0.00     0.167 HD
ATOM     62  C   UNL A   1      42.830  28.674  34.182  1.00  0.00     0.074 A 
ATOM     63  C   UNL A   1      42.865  29.199  35.530  1.00  0.00     0.031 C 
ATOM     64  C   UNL A   1      43.715  27.771  33.691  1.00  0.00     0.037 A 
BRANCH  51  65
ATOM     65  C   UNL A   1      42.568  26.072  27.863  1.00  0.00     0.064 A 
ATOM     66  C   UNL A   1      41.974  24.822  27.633  1.00  0.00     0.173 A 
ATOM     67  C   UNL A   1      43.525  26.523  26.941  1.00  0.00     0.173 A 
ATOM     68  F   UNL A   1      41.064  24.337  28.491  1.00  0.00    -0.203 F 
ATOM     69  C   UNL A   1      42.346  24.042  26.540  1.00  0.00     0.198 A 
ATOM     70  C   UNL A   1      43.869  25.756  25.831  1.00  0.00     0.198 A 
ATOM     71  F   UNL A   1      44.121  27.713  27.111  1.00  0.00    -0.203 F 
ATOM     72  F   UNL A   1      41.806  22.829  26.370  1.00  0.00    -0.200 F 
ATOM     73  C   UNL A   1      43.286  24.514  25.636  1.00  0.00     0.200 A 
ATOM     74  F   UNL A   1      44.766  26.221  24.950  1.00  0.00    -0.200 F 
ATOM     75  F   UNL A   1      43.637  23.766  24.580  1.00  0.00    -0.200 F 
ENDBRANCH  51  65
BRANCH  52  76
ATOM     76  C   UNL A   1      39.557  31.811  35.449  1.00  0.00     0.064 A 
ATOM     77  C   UNL A   1      38.617  31.312  36.364  1.00  0.00     0.173 A 
ATOM     78  C   UNL A   1      40.020  33.121  35.644  1.00  0.00     0.173 A 
ATOM     79  F   UNL A   1      38.119  30.078  36.203  1.00  0.00    -0.203 F 
ATOM     80  C   UNL A   1      38.143  32.099  37.411  1.00  0.00     0.198 A 
ATOM     81  C   UNL A   1      39.570  33.895  36.712  1.00  0.00     0.198 A 
ATOM     82  F   UNL A   1      40.911  33.652  34.794  1.00  0.00    -0.203 F 
ATOM     83  F   UNL A   1      37.201  31.617  38.234  1.00  0.00    -0.200 F 
ATOM     84  C   UNL A   1      38.625  33.387  37.590  1.00  0.00     0.200 A 
ATOM     85  F   UNL A   1      40.044  35.136  36.884  1.00  0.00    -0.200 F 
ATOM     86  F   UNL A   1      38.167  34.142  38.596  1.00  0.00    -0.200 F 
ENDBRANCH  52  76
BRANCH  64  87
ATOM     87  C   UNL A   1      44.833  27.326  34.595  1.00  0.00     0.064 A 
ATOM     88  C   UNL A   1      46.044  28.027  34.682  1.00  0.00     0.173 A 
ATOM     89  C   UNL A   1      44.668  26.202  35.422  1.00  0.00     0.173 A 
ATOM     90  F   UNL A   1      46.260  29.101  33.907  1.00  0.00    -0.203 F 
ATOM     91  C   UNL A   1      47.058  27.606  35.540  1.00  0.00     0.198 A 
ATOM     92  C   UNL A   1      45.668  25.805  36.304  1.00  0.00     0.198 A 
ATOM     93  F   UNL A   1      43.526  25.499  35.388  1.00  0.00    -0.203 F 
ATOM     94  F   UNL A   1      48.226  28.263  35.567  1.00  0.00    -0.200 F 
ATOM     95  C   UNL A   1      46.866  26.501  36.356  1.00  0.00     0.200 A 
ATOM     96  F   UNL A   1      45.473  24.748  37.106  1.00  0.00    -0.200 F 
ATOM     97  F   UNL A   1      47.839  26.104  37.189  1.00  0.00    -0.200 F 
ENDBRANCH  64  87
ENDBRANCH  38  39
ENDBRANCH  31  33
ENDBRANCH  30  31
ENDBRANCH  29  30
ENDBRANCH  28  29
ENDBRANCH  27  28
ENDBRANCH  26  27
ENDBRANCH  25  26
ENDBRANCH   1  25
TORSDOF 23
ENDMDL
MODEL 3
REMARK VINA RESULT:      -9.6      3.186      6.087
REMARK SMILES C[NH2+][C@]1(C(=O)OCCOCCOCCOC(=O)c2ccc(-c3c4nc(c(-c5c(F)c(F)c(F)c(F)c5F)c5ccc([nH]5)c(-c5c(F)c(F)c(F)c(F)c5F)c5nc(c(-c6c(F)c(F)c(F)c(F)c6F)c6ccc3[nH]6)C=C5)C=C4)cc2)CCC[C@@H]1CCOC[C@@H]1CCCO1
REMARK SMILES IDX 9 1 8 2 7 3 6 4 4 5 5 6 3 7 81 8 84 9 82 10 83 11 2 12 1 13
REMARK SMILES IDX 85 16 86 17 87 18 88 19 89 20 90 21 93 22 91 23 92 24 10 25
REMARK SMILES IDX 11 26 12 27 13 28 14 29 15 30 16 31 17 32 18 33 19 34 80 35
REMARK SMILES IDX 20 36 79 37 21 38 22 39 23 40 73 41 24 42 78 43 72 44 74 45
REMARK SMILES IDX 25 46 77 47 71 48 70 49 26 51 58 52 38 53 57 54 39 55 42 56
REMARK SMILES IDX 56 57 75 58 40 59 41 60 55 62 76 63 43 64 27 65 28 66 36 67
REMARK SMILES IDX 29 68 30 69 34 70 37 71 31 72 32 73 35 74 33 75 59 76 60 77
REMARK SMILES IDX 68 78 61 79 62 80 66 81 69 82 63 83 64 84 67 85 65 86 44 87
REMARK SMILES IDX 45 88 53 89 46 90 47 91 51 92 54 93 48 94 49 95 52 96 50 97
REMARK H PARENT 2 14 2 15 74 50 42 61
REMARK Flexibility Score: inf
ROOT
ATOM      1  O   UNL A   1      33.728  30.931  27.970  1.00  0.00    -0.376 OA
ENDROOT
BRANCH   1   2
ATOM      2  C   UNL A   1      32.747  31.162  26.970  1.00  0.00     0.202 C 
BRANCH   2   3
ATOM      3  C   UNL A   1      31.947  30.001  26.345  1.00  0.00     0.261 C 
BRANCH   3   4
ATOM      4  O   UNL A   1      32.517  29.367  25.184  1.00  0.00    -0.459 OA
BRANCH   4   5
ATOM      5  C   UNL A   1      33.138  28.175  25.416  1.00  0.00     0.368 C 
ATOM      6  O   UNL A   1      33.771  27.939  26.442  1.00  0.00    -0.245 OA
BRANCH   5   7
ATOM      7  C   UNL A   1      32.917  27.112  24.284  1.00  0.00     0.197 C 
ATOM      8  C   UNL A   1      34.037  26.040  24.073  1.00  0.00     0.081 C 
ATOM      9  C   UNL A   1      31.819  26.133  24.754  1.00  0.00     0.065 C 
ATOM     10  C   UNL A   1      33.336  24.847  23.398  1.00  0.00     0.008 C 
ATOM     11  C   UNL A   1      31.846  25.033  23.685  1.00  0.00     0.011 C 
BRANCH   7  12
ATOM     12  N   UNL A   1      32.762  27.790  22.958  1.00  0.00    -0.334 N 
ATOM     13  C   UNL A   1      33.976  28.307  22.350  1.00  0.00     0.331 C 
ATOM     14  H   UNL A   1      32.354  27.115  22.311  1.00  0.00     0.347 HD
ATOM     15  H   UNL A   1      32.181  28.609  23.139  1.00  0.00     0.347 HD
ENDBRANCH   7  12
BRANCH   9  16
ATOM     16  C   UNL A   1      30.434  26.664  25.127  1.00  0.00     0.039 C 
BRANCH  16  17
ATOM     17  C   UNL A   1      29.315  26.278  24.142  1.00  0.00     0.161 C 
BRANCH  17  18
ATOM     18  O   UNL A   1      29.012  27.263  23.170  1.00  0.00    -0.379 OA
BRANCH  18  19
ATOM     19  C   UNL A   1      29.030  28.661  23.468  1.00  0.00     0.192 C 
BRANCH  19  20
ATOM     20  C   UNL A   1      28.297  29.699  22.592  1.00  0.00     0.144 C 
ATOM     21  C   UNL A   1      29.148  30.483  21.610  1.00  0.00     0.037 C 
ATOM     22  O   UNL A   1      27.571  30.673  23.360  1.00  0.00    -0.376 OA
ATOM     23  C   UNL A   1      28.326  31.714  21.358  1.00  0.00     0.031 C 
ATOM     24  C   UNL A   1      27.721  31.955  22.726  1.00  0.00     0.160 C 
ENDBRANCH  19  20
ENDBRANCH  18  19
ENDBRANCH  17  18
ENDBRANCH  16  17
ENDBRANCH   9  16
ENDBRANCH   5   7
ENDBRANCH   4   5
ENDBRANCH   3   4
ENDBRANCH   2   3
ENDBRANCH   1   2
BRANCH   1  25
ATOM     25  C   UNL A   1      35.008  31.534  27.871  1.00  0.00     0.188 C 
BRANCH  25  26
ATOM     26  C   UNL A   1      35.306  32.815  28.663  1.00  0.00     0.188 C 
BRANCH  26  27
ATOM     27  O   UNL A   1      34.209  33.478  29.227  1.00  0.00    -0.376 OA
BRANCH  27  28
ATOM     28  C   UNL A   1      33.851  34.761  28.761  1.00  0.00     0.202 C 
BRANCH  28  29
ATOM     29  C   UNL A   1      32.855  35.706  29.466  1.00  0.00     0.261 C 
BRANCH  29  30
ATOM     30  O   UNL A   1      33.224  36.297  30.719  1.00  0.00    -0.460 OA
BRANCH  30  31
ATOM     31  C   UNL A   1      32.803  35.672  31.849  1.00  0.00     0.338 C 
ATOM     32  O   UNL A   1      31.661  35.554  32.240  1.00  0.00    -0.246 OA
BRANCH  31  33
ATOM     33  C   UNL A   1      33.964  34.948  32.431  1.00  0.00     0.060 A 
ATOM     34  C   UNL A   1      35.224  35.563  32.425  1.00  0.00     0.016 A 
ATOM     35  C   UNL A   1      33.809  33.676  32.980  1.00  0.00     0.016 A 
ATOM     36  C   UNL A   1      36.340  34.896  32.940  1.00  0.00     0.010 A 
ATOM     37  C   UNL A   1      34.929  32.997  33.470  1.00  0.00     0.010 A 
ATOM     38  C   UNL A   1      36.205  33.589  33.425  1.00  0.00    -0.014 A 
BRANCH  38  39
ATOM     39  C   UNL A   1      37.412  32.764  33.698  1.00  0.00     0.031 A 
ATOM     40  C   UNL A   1      38.170  33.014  34.975  1.00  0.00     0.074 A 
ATOM     41  C   UNL A   1      37.835  31.817  32.843  1.00  0.00     0.049 A 
ATOM     42  N   UNL A   1      39.304  32.508  35.387  1.00  0.00    -0.248 NA
ATOM     43  C   UNL A   1      37.563  33.973  35.911  1.00  0.00     0.031 C 
ATOM     44  C   UNL A   1      37.168  31.435  31.603  1.00  0.00     0.029 A 
ATOM     45  N   UNL A   1      38.951  31.015  32.888  1.00  0.00    -0.354 N 
ATOM     46  C   UNL A   1      39.554  33.099  36.620  1.00  0.00     0.074 A 
ATOM     47  C   UNL A   1      38.468  34.019  36.876  1.00  0.00     0.031 C 
ATOM     48  C   UNL A   1      37.900  30.487  30.989  1.00  0.00     0.029 A 
ATOM     49  C   UNL A   1      39.106  30.225  31.774  1.00  0.00     0.049 A 
ATOM     50  H   UNL A   1      39.579  31.006  33.647  1.00  0.00     0.167 HD
ATOM     51  C   UNL A   1      40.592  32.889  37.464  1.00  0.00     0.037 A 
ATOM     52  C   UNL A   1      40.122  29.414  31.417  1.00  0.00     0.037 A 
ATOM     53  C   UNL A   1      41.674  31.975  37.207  1.00  0.00     0.049 A 
ATOM     54  C   UNL A   1      41.314  29.264  32.333  1.00  0.00     0.074 A 
ATOM     55  C   UNL A   1      42.764  31.682  38.008  1.00  0.00     0.029 A 
ATOM     56  N   UNL A   1      41.810  31.215  36.054  1.00  0.00    -0.354 N 
ATOM     57  N   UNL A   1      41.535  29.807  33.506  1.00  0.00    -0.248 NA
ATOM     58  C   UNL A   1      42.397  28.381  31.874  1.00  0.00     0.031 C 
ATOM     59  C   UNL A   1      43.591  30.795  37.314  1.00  0.00     0.029 A 
ATOM     60  C   UNL A   1      42.981  30.477  36.110  1.00  0.00     0.049 A 
ATOM     61  H   UNL A   1      41.169  31.203  35.307  1.00  0.00     0.167 HD
ATOM     62  C   UNL A   1      42.760  29.309  33.937  1.00  0.00     0.074 A 
ATOM     63  C   UNL A   1      43.228  28.407  32.906  1.00  0.00     0.031 C 
ATOM     64  C   UNL A   1      43.433  29.571  35.085  1.00  0.00     0.037 A 
BRANCH  51  65
ATOM     65  C   UNL A   1      40.625  33.691  38.734  1.00  0.00     0.064 A 
ATOM     66  C   UNL A   1      39.894  33.312  39.869  1.00  0.00     0.173 A 
ATOM     67  C   UNL A   1      41.426  34.840  38.823  1.00  0.00     0.173 A 
ATOM     68  F   UNL A   1      39.102  32.229  39.834  1.00  0.00    -0.203 F 
ATOM     69  C   UNL A   1      39.939  34.070  41.037  1.00  0.00     0.198 A 
ATOM     70  C   UNL A   1      41.495  35.576  40.002  1.00  0.00     0.198 A 
ATOM     71  F   UNL A   1      42.149  35.246  37.768  1.00  0.00    -0.203 F 
ATOM     72  F   UNL A   1      39.191  33.719  42.091  1.00  0.00    -0.200 F 
ATOM     73  C   UNL A   1      40.746  35.196  41.105  1.00  0.00     0.200 A 
ATOM     74  F   UNL A   1      42.288  36.655  40.071  1.00  0.00    -0.200 F 
ATOM     75  F   UNL A   1      40.796  35.920  42.232  1.00  0.00    -0.200 F 
ENDBRANCH  51  65
BRANCH  52  76
ATOM     76  C   UNL A   1      40.079  28.689  30.118  1.00  0.00     0.064 A 
ATOM     77  C   UNL A   1      39.482  27.424  30.013  1.00  0.00     0.173 A 
ATOM     78  C   UNL A   1      40.665  29.228  28.962  1.00  0.00     0.173 A 
ATOM     79  F   UNL A   1      38.937  26.851  31.096  1.00  0.00    -0.203 F 
ATOM     80  C   UNL A   1      39.494  26.718  28.811  1.00  0.00     0.198 A 
ATOM     81  C   UNL A   1      40.646  28.536  27.753  1.00  0.00     0.198 A 
ATOM     82  F   UNL A   1      41.259  30.430  29.008  1.00  0.00    -0.203 F 
ATOM     83  F   UNL A   1      38.969  25.487  28.757  1.00  0.00    -0.200 F 
ATOM     84  C   UNL A   1      40.070  27.277  27.681  1.00  0.00     0.200 A 
ATOM     85  F   UNL A   1      41.198  29.083  26.662  1.00  0.00    -0.200 F 
ATOM     86  F   UNL A   1      40.081  26.597  26.527  1.00  0.00    -0.200 F 
ENDBRANCH  52  76
BRANCH  64  87
ATOM     87  C   UNL A   1      44.726  28.838  35.320  1.00  0.00     0.064 A 
ATOM     88  C   UNL A   1      44.768  27.589  35.957  1.00  0.00     0.173 A 
ATOM     89  C   UNL A   1      45.938  29.377  34.857  1.00  0.00     0.173 A 
ATOM     90  F   UNL A   1      43.643  27.033  36.429  1.00  0.00    -0.203 F 
ATOM     91  C   UNL A   1      45.977  26.921  36.147  1.00  0.00     0.198 A 
ATOM     92  C   UNL A   1      47.138  28.690  35.016  1.00  0.00     0.198 A 
ATOM     93  F   UNL A   1      45.956  30.564  34.232  1.00  0.00    -0.203 F 
ATOM     94  F   UNL A   1      45.998  25.753  36.804  1.00  0.00    -0.200 F 
ATOM     95  C   UNL A   1      47.159  27.468  35.669  1.00  0.00     0.200 A 
ATOM     96  F   UNL A   1      48.276  29.212  34.536  1.00  0.00    -0.200 F 
ATOM     97  F   UNL A   1      48.318  26.818  35.843  1.00  0.00    -0.200 F 
ENDBRANCH  64  87
ENDBRANCH  38  39
ENDBRANCH  31  33
ENDBRANCH  30  31
ENDBRANCH  29  30
ENDBRANCH  28  29
ENDBRANCH  27  28
ENDBRANCH  26  27
ENDBRANCH  25  26
ENDBRANCH   1  25
TORSDOF 23
ENDMDL
