MODEL 1
REMARK VINA RESULT:     -11.0      0.000      0.000
REMARK SMILES O=C(OCCOCCOCCOC(=O)c1noc(-c2ccccc2Cl)n1)c1ccc(-c2c3nc(c(-c4c(F)c(F)c(F)c(F)c4F)c4ccc([nH]4)c(-c4c(F)c(F)c(F)c(F)c4F)c4nc(c(-c5c(F)c(F)c(F)c(F)c5F)c5ccc2[nH]5)C=C4)C=C3)cc1
REMARK SMILES IDX 7 1 6 2 5 3 4 4 3 5 2 6 1 7 27 8 28 9 89 10 29 11 88 12
REMARK SMILES IDX 30 13 31 14 32 15 82 16 33 17 87 18 81 19 83 20 34 21 86 22
REMARK SMILES IDX 80 23 79 24 35 26 67 27 47 28 66 29 48 30 51 31 65 32 84 33
REMARK SMILES IDX 49 34 50 35 64 37 85 38 52 39 36 40 37 41 45 42 38 43 39 44
REMARK SMILES IDX 43 45 46 46 40 47 41 48 44 49 42 50 68 51 69 52 77 53 70 54
REMARK SMILES IDX 71 55 75 56 78 57 72 58 73 59 76 60 74 61 53 62 54 63 62 64
REMARK SMILES IDX 55 65 56 66 60 67 63 68 57 69 58 70 61 71 59 72 8 73 9 74
REMARK SMILES IDX 10 75 11 76 12 77 13 78 14 79 15 80 16 81 26 82 17 83 18 84
REMARK SMILES IDX 19 85 20 86 24 87 21 88 23 89 25 90 22 91
REMARK H PARENT 83 25 51 36
REMARK Flexibility Score: inf
ROOT
ATOM      1  C   UNL A   1      31.771  28.531  26.995  1.00  0.00     0.188 C 
ENDROOT
BRANCH   1   2
ATOM      2  O   UNL A   1      32.161  29.879  27.295  1.00  0.00    -0.376 OA
BRANCH   2   3
ATOM      3  C   UNL A   1      31.751  30.831  26.308  1.00  0.00     0.202 C 
BRANCH   3   4
ATOM      4  C   UNL A   1      31.395  32.215  26.865  1.00  0.00     0.261 C 
BRANCH   4   5
ATOM      5  O   UNL A   1      32.528  33.098  26.877  1.00  0.00    -0.460 OA
BRANCH   5   6
ATOM      6  C   UNL A   1      33.309  33.449  27.929  1.00  0.00     0.338 C 
ATOM      7  O   UNL A   1      32.961  34.405  28.620  1.00  0.00    -0.246 OA
BRANCH   6   8
ATOM      8  C   UNL A   1      34.549  32.712  28.335  1.00  0.00     0.060 A 
ATOM      9  C   UNL A   1      34.616  31.359  28.669  1.00  0.00     0.016 A 
ATOM     10  C   UNL A   1      35.750  33.446  28.345  1.00  0.00     0.016 A 
ATOM     11  C   UNL A   1      35.794  30.787  29.143  1.00  0.00     0.010 A 
ATOM     12  C   UNL A   1      36.954  32.861  28.754  1.00  0.00     0.010 A 
ATOM     13  C   UNL A   1      36.966  31.538  29.209  1.00  0.00    -0.014 A 
BRANCH  13  14
ATOM     14  C   UNL A   1      38.143  30.962  29.896  1.00  0.00     0.031 A 
ATOM     15  C   UNL A   1      38.362  31.298  31.342  1.00  0.00     0.074 A 
ATOM     16  C   UNL A   1      38.911  30.044  29.281  1.00  0.00     0.049 A 
ATOM     17  N   UNL A   1      39.315  30.914  32.151  1.00  0.00    -0.248 NA
ATOM     18  C   UNL A   1      37.353  32.167  31.972  1.00  0.00     0.031 C 
ATOM     19  C   UNL A   1      38.696  29.535  27.928  1.00  0.00     0.029 A 
ATOM     20  N   UNL A   1      39.997  29.343  29.731  1.00  0.00    -0.354 N 
ATOM     21  C   UNL A   1      39.024  31.499  33.377  1.00  0.00     0.074 A 
ATOM     22  C   UNL A   1      37.822  32.284  33.204  1.00  0.00     0.031 C 
ATOM     23  C   UNL A   1      39.601  28.578  27.666  1.00  0.00     0.029 A 
ATOM     24  C   UNL A   1      40.487  28.445  28.815  1.00  0.00     0.049 A 
ATOM     25  H   UNL A   1      40.391  29.472  30.624  1.00  0.00     0.167 HD
ATOM     26  C   UNL A   1      39.697  31.382  34.546  1.00  0.00     0.037 A 
ATOM     27  C   UNL A   1      41.545  27.620  28.901  1.00  0.00     0.037 A 
ATOM     28  C   UNL A   1      40.892  30.599  34.705  1.00  0.00     0.049 A 
ATOM     29  C   UNL A   1      42.375  27.643  30.150  1.00  0.00     0.074 A 
ATOM     30  C   UNL A   1      41.689  30.446  35.823  1.00  0.00     0.029 A 
ATOM     31  N   UNL A   1      41.459  29.830  33.697  1.00  0.00    -0.354 N 
ATOM     32  N   UNL A   1      42.156  28.276  31.277  1.00  0.00    -0.248 NA
ATOM     33  C   UNL A   1      43.617  26.860  30.126  1.00  0.00     0.031 C 
ATOM     34  C   UNL A   1      42.763  29.615  35.480  1.00  0.00     0.029 A 
ATOM     35  C   UNL A   1      42.611  29.218  34.160  1.00  0.00     0.049 A 
ATOM     36  H   UNL A   1      41.095  29.733  32.788  1.00  0.00     0.167 HD
ATOM     37  C   UNL A   1      43.219  27.956  32.105  1.00  0.00     0.074 A 
ATOM     38  C   UNL A   1      44.087  27.074  31.348  1.00  0.00     0.031 C 
ATOM     39  C   UNL A   1      43.455  28.351  33.380  1.00  0.00     0.037 A 
BRANCH  26  40
ATOM     40  C   UNL A   1      39.174  32.169  35.710  1.00  0.00     0.064 A 
ATOM     41  C   UNL A   1      39.573  33.493  35.947  1.00  0.00     0.173 A 
ATOM     42  C   UNL A   1      38.297  31.572  36.626  1.00  0.00     0.173 A 
ATOM     43  F   UNL A   1      40.434  34.098  35.115  1.00  0.00    -0.203 F 
ATOM     44  C   UNL A   1      39.140  34.178  37.080  1.00  0.00     0.198 A 
ATOM     45  C   UNL A   1      37.848  32.269  37.745  1.00  0.00     0.198 A 
ATOM     46  F   UNL A   1      37.892  30.306  36.448  1.00  0.00    -0.203 F 
ATOM     47  F   UNL A   1      39.585  35.419  37.321  1.00  0.00    -0.200 F 
ATOM     48  C   UNL A   1      38.277  33.566  37.977  1.00  0.00     0.200 A 
ATOM     49  F   UNL A   1      37.014  31.675  38.611  1.00  0.00    -0.200 F 
ATOM     50  F   UNL A   1      37.874  34.221  39.075  1.00  0.00    -0.200 F 
ENDBRANCH  26  40
BRANCH  27  51
ATOM     51  C   UNL A   1      41.912  26.743  27.764  1.00  0.00     0.064 A 
ATOM     52  C   UNL A   1      41.387  25.451  27.647  1.00  0.00     0.173 A 
ATOM     53  C   UNL A   1      42.829  27.171  26.795  1.00  0.00     0.173 A 
ATOM     54  F   UNL A   1      40.535  24.987  28.574  1.00  0.00    -0.203 F 
ATOM     55  C   UNL A   1      41.769  24.614  26.599  1.00  0.00     0.198 A 
ATOM     56  C   UNL A   1      43.198  26.341  25.739  1.00  0.00     0.198 A 
ATOM     57  F   UNL A   1      43.384  28.387  26.893  1.00  0.00    -0.203 F 
ATOM     58  F   UNL A   1      41.284  23.368  26.528  1.00  0.00    -0.200 F 
ATOM     59  C   UNL A   1      42.670  25.062  25.643  1.00  0.00     0.200 A 
ATOM     60  F   UNL A   1      44.085  26.768  24.830  1.00  0.00    -0.200 F 
ATOM     61  F   UNL A   1      43.049  24.254  24.645  1.00  0.00    -0.200 F 
ENDBRANCH  27  51
BRANCH  39  62
ATOM     62  C   UNL A   1      44.681  27.799  34.037  1.00  0.00     0.064 A 
ATOM     63  C   UNL A   1      45.903  28.483  33.999  1.00  0.00     0.173 A 
ATOM     64  C   UNL A   1      44.621  26.581  34.727  1.00  0.00     0.173 A 
ATOM     65  F   UNL A   1      46.009  29.641  33.330  1.00  0.00    -0.203 F 
ATOM     66  C   UNL A   1      47.032  27.955  34.619  1.00  0.00     0.198 A 
ATOM     67  C   UNL A   1      45.746  26.068  35.364  1.00  0.00     0.198 A 
ATOM     68  F   UNL A   1      43.472  25.892  34.786  1.00  0.00    -0.203 F 
ATOM     69  F   UNL A   1      48.203  28.603  34.537  1.00  0.00    -0.200 F 
ATOM     70  C   UNL A   1      46.951  26.752  35.305  1.00  0.00     0.200 A 
ATOM     71  F   UNL A   1      45.665  24.908  36.031  1.00  0.00    -0.200 F 
ATOM     72  F   UNL A   1      48.038  26.246  35.902  1.00  0.00    -0.200 F 
ENDBRANCH  39  62
ENDBRANCH  13  14
ENDBRANCH   6   8
ENDBRANCH   5   6
ENDBRANCH   4   5
ENDBRANCH   3   4
ENDBRANCH   2   3
ENDBRANCH   1   2
BRANCH   1  73
ATOM     73  C   UNL A   1      32.947  27.728  26.428  1.00  0.00     0.188 C 
BRANCH  73  74
ATOM     74  O   UNL A   1      32.582  26.556  25.690  1.00  0.00    -0.376 OA
BRANCH  74  75
ATOM     75  C   UNL A   1      33.534  25.496  25.649  1.00  0.00     0.202 C 
BRANCH  75  76
ATOM     76  C   UNL A   1      33.370  24.510  24.493  1.00  0.00     0.261 C 
BRANCH  76  77
ATOM     77  O   UNL A   1      34.143  24.866  23.336  1.00  0.00    -0.457 OA
BRANCH  77  78
ATOM     78  C   UNL A   1      33.406  25.231  22.242  1.00  0.00     0.380 C 
ATOM     79  O   UNL A   1      33.297  24.537  21.230  1.00  0.00    -0.242 OA
BRANCH  78  80
ATOM     80  C   UNL A   1      32.784  26.554  22.341  1.00  0.00     0.281 A 
ATOM     81  N   UNL A   1      33.434  27.712  22.570  1.00  0.00    -0.049 NA
ATOM     82  N   UNL A   1      31.419  26.700  22.246  1.00  0.00    -0.181 NA
ATOM     83  O   UNL A   1      32.392  28.649  22.700  1.00  0.00    -0.333 OA
ATOM     84  C   UNL A   1      31.221  27.970  22.496  1.00  0.00     0.259 A 
BRANCH  84  85
ATOM     85  C   UNL A   1      29.966  28.714  22.536  1.00  0.00     0.058 A 
ATOM     86  C   UNL A   1      29.873  29.990  21.950  1.00  0.00     0.015 A 
ATOM     87  C   UNL A   1      28.799  28.162  23.103  1.00  0.00     0.053 A 
ATOM     88  C   UNL A   1      28.654  30.678  21.913  1.00  0.00     0.001 A 
ATOM     89  C   UNL A   1      27.584  28.856  23.062  1.00  0.00     0.021 A 
ATOM     90  Cl  UNL A   1      28.758  26.625  23.901  1.00  0.00    -0.083 Cl
ATOM     91  C   UNL A   1      27.511  30.108  22.463  1.00  0.00     0.002 A 
ENDBRANCH  84  85
ENDBRANCH  78  80
ENDBRANCH  77  78
ENDBRANCH  76  77
ENDBRANCH  75  76
ENDBRANCH  74  75
ENDBRANCH  73  74
ENDBRANCH   1  73
TORSDOF 18
ENDMDL
MODEL 2
REMARK VINA RESULT:     -11.0      1.960      3.830
REMARK SMILES O=C(OCCOCCOCCOC(=O)c1noc(-c2ccccc2Cl)n1)c1ccc(-c2c3nc(c(-c4c(F)c(F)c(F)c(F)c4F)c4ccc([nH]4)c(-c4c(F)c(F)c(F)c(F)c4F)c4nc(c(-c5c(F)c(F)c(F)c(F)c5F)c5ccc2[nH]5)C=C4)C=C3)cc1
REMARK SMILES IDX 7 1 6 2 5 3 4 4 3 5 2 6 1 7 27 8 28 9 89 10 29 11 88 12
REMARK SMILES IDX 30 13 31 14 32 15 82 16 33 17 87 18 81 19 83 20 34 21 86 22
REMARK SMILES IDX 80 23 79 24 35 26 67 27 47 28 66 29 48 30 51 31 65 32 84 33
REMARK SMILES IDX 49 34 50 35 64 37 85 38 52 39 36 40 37 41 45 42 38 43 39 44
REMARK SMILES IDX 43 45 46 46 40 47 41 48 44 49 42 50 68 51 69 52 77 53 70 54
REMARK SMILES IDX 71 55 75 56 78 57 72 58 73 59 76 60 74 61 53 62 54 63 62 64
REMARK SMILES IDX 55 65 56 66 60 67 63 68 57 69 58 70 61 71 59 72 8 73 9 74
REMARK SMILES IDX 10 75 11 76 12 77 13 78 14 79 15 80 16 81 26 82 17 83 18 84
REMARK SMILES IDX 19 85 20 86 24 87 21 88 23 89 25 90 22 91
REMARK H PARENT 83 25 51 36
REMARK Flexibility Score: inf
ROOT
ATOM      1  C   UNL A   1      32.625  30.086  25.948  1.00  0.00     0.188 C 
ENDROOT
BRANCH   1   2
ATOM      2  O   UNL A   1      31.348  30.617  26.330  1.00  0.00    -0.376 OA
BRANCH   2   3
ATOM      3  C   UNL A   1      31.330  32.043  26.451  1.00  0.00     0.202 C 
BRANCH   3   4
ATOM      4  C   UNL A   1      32.470  32.627  27.293  1.00  0.00     0.261 C 
BRANCH   4   5
ATOM      5  O   UNL A   1      32.216  33.989  27.673  1.00  0.00    -0.460 OA
BRANCH   5   6
ATOM      6  C   UNL A   1      32.912  34.763  28.544  1.00  0.00     0.338 C 
ATOM      7  O   UNL A   1      32.460  35.870  28.830  1.00  0.00    -0.246 OA
BRANCH   6   8
ATOM      8  C   UNL A   1      34.177  34.332  29.222  1.00  0.00     0.060 A 
ATOM      9  C   UNL A   1      35.469  34.531  28.734  1.00  0.00     0.016 A 
ATOM     10  C   UNL A   1      34.044  33.704  30.475  1.00  0.00     0.016 A 
ATOM     11  C   UNL A   1      36.579  33.996  29.381  1.00  0.00     0.010 A 
ATOM     12  C   UNL A   1      35.161  33.223  31.168  1.00  0.00     0.010 A 
ATOM     13  C   UNL A   1      36.432  33.320  30.592  1.00  0.00    -0.014 A 
BRANCH  13  14
ATOM     14  C   UNL A   1      37.596  32.599  31.150  1.00  0.00     0.031 A 
ATOM     15  C   UNL A   1      38.066  32.958  32.530  1.00  0.00     0.074 A 
ATOM     16  C   UNL A   1      38.127  31.548  30.498  1.00  0.00     0.049 A 
ATOM     17  N   UNL A   1      39.056  32.467  33.227  1.00  0.00    -0.248 NA
ATOM     18  C   UNL A   1      37.294  33.998  33.232  1.00  0.00     0.031 C 
ATOM     19  C   UNL A   1      37.650  31.022  29.221  1.00  0.00     0.029 A 
ATOM     20  N   UNL A   1      39.151  30.708  30.842  1.00  0.00    -0.354 N 
ATOM     21  C   UNL A   1      39.031  33.140  34.442  1.00  0.00     0.074 A 
ATOM     22  C   UNL A   1      37.945  34.093  34.381  1.00  0.00     0.031 C 
ATOM     23  C   UNL A   1      38.358  29.925  28.901  1.00  0.00     0.029 A 
ATOM     24  C   UNL A   1      39.369  29.707  29.928  1.00  0.00     0.049 A 
ATOM     25  H   UNL A   1      39.682  30.812  31.665  1.00  0.00     0.167 HD
ATOM     26  C   UNL A   1      39.839  32.971  35.515  1.00  0.00     0.037 A 
ATOM     27  C   UNL A   1      40.295  28.733  29.924  1.00  0.00     0.037 A 
ATOM     28  C   UNL A   1      40.915  32.020  35.562  1.00  0.00     0.049 A 
ATOM     29  C   UNL A   1      41.289  28.681  31.047  1.00  0.00     0.074 A 
ATOM     30  C   UNL A   1      41.833  31.794  36.571  1.00  0.00     0.029 A 
ATOM     31  N   UNL A   1      41.215  31.131  34.538  1.00  0.00    -0.354 N 
ATOM     32  N   UNL A   1      41.326  29.387  32.150  1.00  0.00    -0.248 NA
ATOM     33  C   UNL A   1      42.386  27.715  30.907  1.00  0.00     0.031 C 
ATOM     34  C   UNL A   1      42.713  30.794  36.141  1.00  0.00     0.029 A 
ATOM     35  C   UNL A   1      42.319  30.369  34.881  1.00  0.00     0.049 A 
ATOM     36  H   UNL A   1      40.716  31.053  33.694  1.00  0.00     0.167 HD
ATOM     37  C   UNL A   1      42.438  28.943  32.847  1.00  0.00     0.074 A 
ATOM     38  C   UNL A   1      43.050  27.906  32.039  1.00  0.00     0.031 C 
ATOM     39  C   UNL A   1      42.907  29.351  34.052  1.00  0.00     0.037 A 
BRANCH  26  40
ATOM     40  C   UNL A   1      39.606  33.878  36.686  1.00  0.00     0.064 A 
ATOM     41  C   UNL A   1      40.192  35.151  36.763  1.00  0.00     0.173 A 
ATOM     42  C   UNL A   1      38.826  33.446  37.767  1.00  0.00     0.173 A 
ATOM     43  F   UNL A   1      40.971  35.598  35.767  1.00  0.00    -0.203 F 
ATOM     44  C   UNL A   1      40.032  35.944  37.897  1.00  0.00     0.198 A 
ATOM     45  C   UNL A   1      38.649  34.252  38.889  1.00  0.00     0.198 A 
ATOM     46  F   UNL A   1      38.252  32.235  37.745  1.00  0.00    -0.203 F 
ATOM     47  F   UNL A   1      40.651  37.130  37.977  1.00  0.00    -0.200 F 
ATOM     48  C   UNL A   1      39.259  35.494  38.958  1.00  0.00     0.200 A 
ATOM     49  F   UNL A   1      37.902  33.815  39.913  1.00  0.00    -0.200 F 
ATOM     50  F   UNL A   1      39.119  36.252  40.055  1.00  0.00    -0.200 F 
ENDBRANCH  26  40
BRANCH  27  51
ATOM     51  C   UNL A   1      40.365  27.763  28.806  1.00  0.00     0.064 A 
ATOM     52  C   UNL A   1      41.078  28.054  27.638  1.00  0.00     0.173 A 
ATOM     53  C   UNL A   1      39.682  26.541  28.872  1.00  0.00     0.173 A 
ATOM     54  F   UNL A   1      41.715  29.229  27.516  1.00  0.00    -0.203 F 
ATOM     55  C   UNL A   1      41.105  27.156  26.571  1.00  0.00     0.198 A 
ATOM     56  C   UNL A   1      39.722  25.637  27.813  1.00  0.00     0.198 A 
ATOM     57  F   UNL A   1      38.955  26.242  29.958  1.00  0.00    -0.203 F 
ATOM     58  F   UNL A   1      41.761  27.472  25.447  1.00  0.00    -0.200 F 
ATOM     59  C   UNL A   1      40.431  25.947  26.662  1.00  0.00     0.200 A 
ATOM     60  F   UNL A   1      39.051  24.480  27.895  1.00  0.00    -0.200 F 
ATOM     61  F   UNL A   1      40.443  25.090  25.632  1.00  0.00    -0.200 F 
ENDBRANCH  27  51
BRANCH  39  62
ATOM     62  C   UNL A   1      44.119  28.644  34.573  1.00  0.00     0.064 A 
ATOM     63  C   UNL A   1      45.410  29.145  34.353  1.00  0.00     0.173 A 
ATOM     64  C   UNL A   1      43.981  27.465  35.317  1.00  0.00     0.173 A 
ATOM     65  F   UNL A   1      45.588  30.258  33.627  1.00  0.00    -0.203 F 
ATOM     66  C   UNL A   1      46.525  28.475  34.848  1.00  0.00     0.198 A 
ATOM     67  C   UNL A   1      45.097  26.811  35.828  1.00  0.00     0.198 A 
ATOM     68  F   UNL A   1      42.764  26.950  35.549  1.00  0.00    -0.203 F 
ATOM     69  F   UNL A   1      47.754  28.946  34.592  1.00  0.00    -0.200 F 
ATOM     70  C   UNL A   1      46.367  27.314  35.589  1.00  0.00     0.200 A 
ATOM     71  F   UNL A   1      44.943  25.692  36.549  1.00  0.00    -0.200 F 
ATOM     72  F   UNL A   1      47.442  26.672  36.066  1.00  0.00    -0.200 F 
ENDBRANCH  39  62
ENDBRANCH  13  14
ENDBRANCH   6   8
ENDBRANCH   5   6
ENDBRANCH   4   5
ENDBRANCH   3   4
ENDBRANCH   2   3
ENDBRANCH   1   2
BRANCH   1  73
ATOM     73  C   UNL A   1      32.539  29.344  24.609  1.00  0.00     0.188 C 
BRANCH  73  74
ATOM     74  O   UNL A   1      31.223  28.928  24.230  1.00  0.00    -0.376 OA
BRANCH  74  75
ATOM     75  C   UNL A   1      31.043  28.499  22.883  1.00  0.00     0.202 C 
BRANCH  75  76
ATOM     76  C   UNL A   1      30.988  26.986  22.676  1.00  0.00     0.261 C 
BRANCH  76  77
ATOM     77  O   UNL A   1      31.946  26.514  21.715  1.00  0.00    -0.457 OA
BRANCH  77  78
ATOM     78  C   UNL A   1      33.254  26.732  22.054  1.00  0.00     0.380 C 
ATOM     79  O   UNL A   1      33.971  27.570  21.504  1.00  0.00    -0.242 OA
BRANCH  78  80
ATOM     80  C   UNL A   1      33.767  25.847  23.102  1.00  0.00     0.281 A 
ATOM     81  N   UNL A   1      33.883  26.160  24.408  1.00  0.00    -0.049 NA
ATOM     82  N   UNL A   1      34.228  24.586  22.798  1.00  0.00    -0.181 NA
ATOM     83  O   UNL A   1      34.533  25.039  24.955  1.00  0.00    -0.333 OA
ATOM     84  C   UNL A   1      34.707  24.144  23.933  1.00  0.00     0.259 A 
BRANCH  84  85
ATOM     85  C   UNL A   1      35.331  22.859  24.230  1.00  0.00     0.058 A 
ATOM     86  C   UNL A   1      36.731  22.722  24.209  1.00  0.00     0.015 A 
ATOM     87  C   UNL A   1      34.565  21.735  24.605  1.00  0.00     0.053 A 
ATOM     88  C   UNL A   1      37.343  21.516  24.569  1.00  0.00     0.001 A 
ATOM     89  C   UNL A   1      35.184  20.533  24.965  1.00  0.00     0.021 A 
ATOM     90  Cl  UNL A   1      32.833  21.727  24.638  1.00  0.00    -0.083 Cl
ATOM     91  C   UNL A   1      36.570  20.425  24.952  1.00  0.00     0.002 A 
ENDBRANCH  84  85
ENDBRANCH  78  80
ENDBRANCH  77  78
ENDBRANCH  76  77
ENDBRANCH  75  76
ENDBRANCH  74  75
ENDBRANCH  73  74
ENDBRANCH   1  73
TORSDOF 18
ENDMDL
MODEL 3
REMARK VINA RESULT:     -10.8      4.761      7.900
REMARK SMILES O=C(OCCOCCOCCOC(=O)c1noc(-c2ccccc2Cl)n1)c1ccc(-c2c3nc(c(-c4c(F)c(F)c(F)c(F)c4F)c4ccc([nH]4)c(-c4c(F)c(F)c(F)c(F)c4F)c4nc(c(-c5c(F)c(F)c(F)c(F)c5F)c5ccc2[nH]5)C=C4)C=C3)cc1
REMARK SMILES IDX 7 1 6 2 5 3 4 4 3 5 2 6 1 7 27 8 28 9 89 10 29 11 88 12
REMARK SMILES IDX 30 13 31 14 32 15 82 16 33 17 87 18 81 19 83 20 34 21 86 22
REMARK SMILES IDX 80 23 79 24 35 26 67 27 47 28 66 29 48 30 51 31 65 32 84 33
REMARK SMILES IDX 49 34 50 35 64 37 85 38 52 39 36 40 37 41 45 42 38 43 39 44
REMARK SMILES IDX 43 45 46 46 40 47 41 48 44 49 42 50 68 51 69 52 77 53 70 54
REMARK SMILES IDX 71 55 75 56 78 57 72 58 73 59 76 60 74 61 53 62 54 63 62 64
REMARK SMILES IDX 55 65 56 66 60 67 63 68 57 69 58 70 61 71 59 72 8 73 9 74
REMARK SMILES IDX 10 75 11 76 12 77 13 78 14 79 15 80 16 81 26 82 17 83 18 84
REMARK SMILES IDX 19 85 20 86 24 87 21 88 23 89 25 90 22 91
REMARK H PARENT 83 25 51 36
REMARK Flexibility Score: inf
ROOT
ATOM      1  C   UNL A   1      34.667  23.850  24.117  1.00  0.00     0.188 C 
ENDROOT
BRANCH   1   2
ATOM      2  O   UNL A   1      35.421  22.799  23.493  1.00  0.00    -0.376 OA
BRANCH   2   3
ATOM      3  C   UNL A   1      35.829  21.767  24.396  1.00  0.00     0.202 C 
BRANCH   3   4
ATOM      4  C   UNL A   1      37.332  21.464  24.384  1.00  0.00     0.261 C 
BRANCH   4   5
ATOM      5  O   UNL A   1      37.840  21.203  25.702  1.00  0.00    -0.460 OA
BRANCH   5   6
ATOM      6  C   UNL A   1      39.089  21.430  26.182  1.00  0.00     0.338 C 
ATOM      7  O   UNL A   1      39.873  20.484  26.238  1.00  0.00    -0.246 OA
BRANCH   6   8
ATOM      8  C   UNL A   1      39.594  22.777  26.602  1.00  0.00     0.060 A 
ATOM      9  C   UNL A   1      39.107  24.004  26.149  1.00  0.00     0.016 A 
ATOM     10  C   UNL A   1      40.623  22.798  27.561  1.00  0.00     0.016 A 
ATOM     11  C   UNL A   1      39.715  25.203  26.511  1.00  0.00     0.010 A 
ATOM     12  C   UNL A   1      41.196  24.003  27.985  1.00  0.00     0.010 A 
ATOM     13  C   UNL A   1      40.777  25.210  27.415  1.00  0.00    -0.014 A 
BRANCH  13  14
ATOM     14  C   UNL A   1      41.522  26.470  27.627  1.00  0.00     0.031 A 
ATOM     15  C   UNL A   1      40.902  27.532  28.490  1.00  0.00     0.074 A 
ATOM     16  C   UNL A   1      42.784  26.601  27.180  1.00  0.00     0.049 A 
ATOM     17  N   UNL A   1      41.362  28.710  28.820  1.00  0.00    -0.248 NA
ATOM     18  C   UNL A   1      39.594  27.209  29.083  1.00  0.00     0.031 C 
ATOM     19  C   UNL A   1      43.534  25.573  26.461  1.00  0.00     0.029 A 
ATOM     20  N   UNL A   1      43.674  27.634  27.306  1.00  0.00    -0.354 N 
ATOM     21  C   UNL A   1      40.400  29.269  29.650  1.00  0.00     0.074 A 
ATOM     22  C   UNL A   1      39.318  28.316  29.756  1.00  0.00     0.031 C 
ATOM     23  C   UNL A   1      44.784  26.011  26.236  1.00  0.00     0.029 A 
ATOM     24  C   UNL A   1      44.902  27.370  26.753  1.00  0.00     0.049 A 
ATOM     25  H   UNL A   1      43.454  28.486  27.749  1.00  0.00     0.167 HD
ATOM     26  C   UNL A   1      40.423  30.469  30.276  1.00  0.00     0.037 A 
ATOM     27  C   UNL A   1      45.993  28.151  26.666  1.00  0.00     0.037 A 
ATOM     28  C   UNL A   1      41.504  31.408  30.162  1.00  0.00     0.049 A 
ATOM     29  C   UNL A   1      45.925  29.544  27.219  1.00  0.00     0.074 A 
ATOM     30  C   UNL A   1      41.617  32.675  30.705  1.00  0.00     0.029 A 
ATOM     31  N   UNL A   1      42.670  31.172  29.446  1.00  0.00    -0.354 N 
ATOM     32  N   UNL A   1      44.971  30.109  27.919  1.00  0.00    -0.248 NA
ATOM     33  C   UNL A   1      47.073  30.416  26.942  1.00  0.00     0.031 C 
ATOM     34  C   UNL A   1      42.836  33.220  30.284  1.00  0.00     0.029 A 
ATOM     35  C   UNL A   1      43.500  32.278  29.513  1.00  0.00     0.049 A 
ATOM     36  H   UNL A   1      42.876  30.340  28.963  1.00  0.00     0.167 HD
ATOM     37  C   UNL A   1      45.408  31.397  28.183  1.00  0.00     0.074 A 
ATOM     38  C   UNL A   1      46.714  31.530  27.565  1.00  0.00     0.031 C 
ATOM     39  C   UNL A   1      44.789  32.381  28.881  1.00  0.00     0.037 A 
BRANCH  26  40
ATOM     40  C   UNL A   1      39.214  30.834  31.084  1.00  0.00     0.064 A 
ATOM     41  C   UNL A   1      38.146  31.557  30.531  1.00  0.00     0.173 A 
ATOM     42  C   UNL A   1      39.146  30.496  32.443  1.00  0.00     0.173 A 
ATOM     43  F   UNL A   1      38.177  31.929  29.243  1.00  0.00    -0.203 F 
ATOM     44  C   UNL A   1      37.070  31.959  31.320  1.00  0.00     0.198 A 
ATOM     45  C   UNL A   1      38.057  30.879  33.222  1.00  0.00     0.198 A 
ATOM     46  F   UNL A   1      40.145  29.813  33.020  1.00  0.00    -0.203 F 
ATOM     47  F   UNL A   1      36.091  32.704  30.787  1.00  0.00    -0.200 F 
ATOM     48  C   UNL A   1      37.026  31.618  32.664  1.00  0.00     0.200 A 
ATOM     49  F   UNL A   1      38.017  30.549  34.521  1.00  0.00    -0.200 F 
ATOM     50  F   UNL A   1      35.998  32.019  33.425  1.00  0.00    -0.200 F 
ENDBRANCH  26  40
BRANCH  27  51
ATOM     51  C   UNL A   1      47.219  27.663  25.992  1.00  0.00     0.064 A 
ATOM     52  C   UNL A   1      48.284  27.127  26.726  1.00  0.00     0.173 A 
ATOM     53  C   UNL A   1      47.362  27.763  24.602  1.00  0.00     0.173 A 
ATOM     54  F   UNL A   1      48.204  27.049  28.062  1.00  0.00    -0.203 F 
ATOM     55  C   UNL A   1      49.453  26.709  26.090  1.00  0.00     0.198 A 
ATOM     56  C   UNL A   1      48.523  27.330  23.966  1.00  0.00     0.198 A 
ATOM     57  F   UNL A   1      46.381  28.306  23.868  1.00  0.00    -0.203 F 
ATOM     58  F   UNL A   1      50.475  26.236  26.815  1.00  0.00    -0.200 F 
ATOM     59  C   UNL A   1      49.569  26.806  24.711  1.00  0.00     0.200 A 
ATOM     60  F   UNL A   1      48.641  27.447  22.636  1.00  0.00    -0.200 F 
ATOM     61  F   UNL A   1      50.698  26.420  24.102  1.00  0.00    -0.200 F 
ENDBRANCH  27  51
BRANCH  39  62
ATOM     62  C   UNL A   1      45.538  33.666  29.036  1.00  0.00     0.064 A 
ATOM     63  C   UNL A   1      46.434  33.869  30.095  1.00  0.00     0.173 A 
ATOM     64  C   UNL A   1      45.370  34.697  28.102  1.00  0.00     0.173 A 
ATOM     65  F   UNL A   1      46.608  32.917  31.023  1.00  0.00    -0.203 F 
ATOM     66  C   UNL A   1      47.124  35.070  30.222  1.00  0.00     0.198 A 
ATOM     67  C   UNL A   1      46.078  35.888  28.220  1.00  0.00     0.198 A 
ATOM     68  F   UNL A   1      44.520  34.547  27.075  1.00  0.00    -0.203 F 
ATOM     69  F   UNL A   1      47.946  35.262  31.263  1.00  0.00    -0.200 F 
ATOM     70  C   UNL A   1      46.950  36.075  29.282  1.00  0.00     0.200 A 
ATOM     71  F   UNL A   1      45.912  36.856  27.308  1.00  0.00    -0.200 F 
ATOM     72  F   UNL A   1      47.617  37.231  29.404  1.00  0.00    -0.200 F 
ENDBRANCH  39  62
ENDBRANCH  13  14
ENDBRANCH   6   8
ENDBRANCH   5   6
ENDBRANCH   4   5
ENDBRANCH   3   4
ENDBRANCH   2   3
ENDBRANCH   1   2
BRANCH   1  73
ATOM     73  C   UNL A   1      33.418  24.196  23.299  1.00  0.00     0.188 C 
BRANCH  73  74
ATOM     74  O   UNL A   1      32.684  25.333  23.766  1.00  0.00    -0.376 OA
BRANCH  74  75
ATOM     75  C   UNL A   1      31.295  25.380  23.449  1.00  0.00     0.202 C 
BRANCH  75  76
ATOM     76  C   UNL A   1      30.344  25.268  24.642  1.00  0.00     0.261 C 
BRANCH  76  77
ATOM     77  O   UNL A   1      31.025  25.019  25.882  1.00  0.00    -0.457 OA
BRANCH  77  78
ATOM     78  C   UNL A   1      30.640  23.876  26.529  1.00  0.00     0.380 C 
ATOM     79  O   UNL A   1      29.643  23.801  27.248  1.00  0.00    -0.242 OA
BRANCH  78  80
ATOM     80  C   UNL A   1      31.545  22.738  26.342  1.00  0.00     0.281 A 
ATOM     81  N   UNL A   1      32.757  22.597  26.914  1.00  0.00    -0.049 NA
ATOM     82  N   UNL A   1      31.215  21.706  25.493  1.00  0.00    -0.181 NA
ATOM     83  O   UNL A   1      33.259  21.423  26.323  1.00  0.00    -0.333 OA
ATOM     84  C   UNL A   1      32.283  20.951  25.487  1.00  0.00     0.259 A 
BRANCH  84  85
ATOM     85  C   UNL A   1      32.525  19.707  24.764  1.00  0.00     0.058 A 
ATOM     86  C   UNL A   1      32.868  18.532  25.457  1.00  0.00     0.015 A 
ATOM     87  C   UNL A   1      32.365  19.623  23.365  1.00  0.00     0.053 A 
ATOM     88  C   UNL A   1      33.024  17.315  24.782  1.00  0.00     0.001 A 
ATOM     89  C   UNL A   1      32.521  18.403  22.697  1.00  0.00     0.021 A 
ATOM     90  Cl  UNL A   1      31.989  20.985  22.362  1.00  0.00    -0.083 Cl
ATOM     91  C   UNL A   1      32.844  17.251  23.404  1.00  0.00     0.002 A 
ENDBRANCH  84  85
ENDBRANCH  78  80
ENDBRANCH  77  78
ENDBRANCH  76  77
ENDBRANCH  75  76
ENDBRANCH  74  75
ENDBRANCH  73  74
ENDBRANCH   1  73
TORSDOF 18
ENDMDL
