MODEL 1
REMARK VINA RESULT:      -8.8      0.000      0.000
REMARK SMILES COc1ccc(-c2ncn(CC(=O)OCCOCCOCCOC(=O)c3ccc(-c4c5nc(c(-c6c(F)c(F)c(F)c(F)c6F)c6ccc([nH]6)c(-c6c(F)c(F)c(F)c(F)c6F)c6nc(c(-c7c(F)c(F)c(F)c(F)c7F)c7ccc4[nH]7)C=C6)C=C5)cc3)c2-c2ccc(OC)cc2)cc1
REMARK SMILES IDX 18 1 17 2 16 3 15 4 14 5 12 6 13 7 11 8 10 9 7 10 8 11 89 12
REMARK SMILES IDX 9 13 6 14 3 15 4 16 99 17 5 18 98 19 2 20 1 21 90 22 91 23
REMARK SMILES IDX 97 24 92 25 96 26 93 27 94 28 95 29 19 30 20 31 21 32 22 33
REMARK SMILES IDX 23 34 24 35 25 36 26 37 27 38 88 39 28 40 87 41 29 42 30 43
REMARK SMILES IDX 31 44 81 45 32 46 86 47 80 48 82 49 33 50 85 51 79 52 78 53
REMARK SMILES IDX 34 55 66 56 46 57 65 58 47 59 50 60 64 61 83 62 48 63 49 64
REMARK SMILES IDX 63 66 84 67 51 68 35 69 36 70 44 71 37 72 38 73 42 74 45 75
REMARK SMILES IDX 39 76 40 77 43 78 41 79 67 80 68 81 76 82 69 83 70 84 74 85
REMARK SMILES IDX 77 86 71 87 72 88 75 89 73 90 52 91 53 92 61 93 54 94 55 95
REMARK SMILES IDX 59 96 62 97 56 98 57 99 60 100 58 101
REMARK H PARENT 82 54 50 65
REMARK Flexibility Score: inf
ROOT
ATOM      1  C   UNL A   1      47.746  26.102  25.437  1.00  0.00     0.188 C 
ENDROOT
BRANCH   1   2
ATOM      2  O   UNL A   1      47.764  26.888  26.617  1.00  0.00    -0.376 OA
BRANCH   2   3
ATOM      3  C   UNL A   1      48.959  26.804  27.365  1.00  0.00     0.202 C 
BRANCH   3   4
ATOM      4  C   UNL A   1      49.048  25.597  28.332  1.00  0.00     0.261 C 
BRANCH   4   5
ATOM      5  O   UNL A   1      49.974  25.727  29.476  1.00  0.00    -0.462 OA
BRANCH   5   6
ATOM      6  C   UNL A   1      49.491  25.745  30.743  1.00  0.00     0.326 C 
ATOM      7  O   UNL A   1      49.797  24.868  31.551  1.00  0.00    -0.250 OA
BRANCH   6   8
ATOM      8  C   UNL A   1      48.568  26.907  31.197  1.00  0.00     0.246 C 
BRANCH   8   9
ATOM      9  N   UNL A   1      48.098  27.171  32.586  1.00  0.00    -0.319 N 
ATOM     10  C   UNL A   1      46.870  27.590  34.386  1.00  0.00     0.096 A 
ATOM     11  N   UNL A   1      47.575  28.729  34.115  1.00  0.00    -0.236 NA
ATOM     12  C   UNL A   1      47.112  26.554  33.451  1.00  0.00     0.076 A 
ATOM     13  C   UNL A   1      48.300  28.452  33.069  1.00  0.00     0.201 A 
BRANCH  10  14
ATOM     14  C   UNL A   1      46.082  27.514  35.610  1.00  0.00     0.003 A 
ATOM     15  C   UNL A   1      45.093  27.321  38.235  1.00  0.00     0.118 A 
ATOM     16  C   UNL A   1      45.512  28.551  37.732  1.00  0.00     0.047 A 
ATOM     17  C   UNL A   1      45.024  26.221  37.375  1.00  0.00     0.047 A 
ATOM     18  C   UNL A   1      45.966  28.655  36.412  1.00  0.00     0.014 A 
ATOM     19  C   UNL A   1      45.525  26.313  36.064  1.00  0.00     0.014 A 
BRANCH  15  20
ATOM     20  O   UNL A   1      44.785  27.306  39.568  1.00  0.00    -0.497 OA
ATOM     21  C   UNL A   1      45.856  26.965  40.445  1.00  0.00     0.278 C 
ENDBRANCH  15  20
ENDBRANCH  10  14
BRANCH  12  22
ATOM     22  C   UNL A   1      46.619  25.089  33.532  1.00  0.00     0.001 A 
ATOM     23  C   UNL A   1      47.658  23.928  34.320  1.00  0.00     0.014 A 
ATOM     24  C   UNL A   1      44.934  24.654  33.117  1.00  0.00     0.014 A 
ATOM     25  C   UNL A   1      47.210  22.328  34.826  1.00  0.00     0.047 A 
ATOM     26  C   UNL A   1      44.258  23.042  33.645  1.00  0.00     0.047 A 
ATOM     27  C   UNL A   1      45.534  21.756  34.541  1.00  0.00     0.118 A 
BRANCH  27  28
ATOM     28  O   UNL A   1      45.368  20.436  35.020  1.00  0.00    -0.497 OA
ATOM     29  C   UNL A   1      45.773  20.147  36.349  1.00  0.00     0.278 C 
ENDBRANCH  27  28
ENDBRANCH  12  22
ENDBRANCH   8   9
ENDBRANCH   6   8
ENDBRANCH   5   6
ENDBRANCH   4   5
ENDBRANCH   3   4
ENDBRANCH   2   3
ENDBRANCH   1   2
BRANCH   1  30
ATOM     30  C   UNL A   1      46.861  24.816  25.419  1.00  0.00     0.188 C 
BRANCH  30  31
ATOM     31  O   UNL A   1      45.719  24.928  24.585  1.00  0.00    -0.376 OA
BRANCH  31  32
ATOM     32  C   UNL A   1      44.506  24.528  25.192  1.00  0.00     0.202 C 
BRANCH  32  33
ATOM     33  C   UNL A   1      44.179  23.089  24.850  1.00  0.00     0.261 C 
BRANCH  33  34
ATOM     34  O   UNL A   1      42.784  22.792  24.993  1.00  0.00    -0.460 OA
BRANCH  34  35
ATOM     35  C   UNL A   1      42.414  22.123  26.120  1.00  0.00     0.338 C 
ATOM     36  O   UNL A   1      42.668  20.950  26.313  1.00  0.00    -0.246 OA
BRANCH  35  37
ATOM     37  C   UNL A   1      41.268  22.971  26.699  1.00  0.00     0.060 A 
ATOM     38  C   UNL A   1      39.719  24.170  26.210  1.00  0.00     0.016 A 
ATOM     39  C   UNL A   1      42.402  23.540  27.980  1.00  0.00     0.016 A 
ATOM     40  C   UNL A   1      39.648  25.791  27.046  1.00  0.00     0.010 A 
ATOM     41  C   UNL A   1      42.213  25.023  28.653  1.00  0.00     0.010 A 
ATOM     42  C   UNL A   1      40.963  26.165  28.194  1.00  0.00    -0.014 A 
BRANCH  42  43
ATOM     43  C   UNL A   1      41.179  27.423  28.904  1.00  0.00     0.031 A 
ATOM     44  C   UNL A   1      42.311  28.175  28.353  1.00  0.00     0.074 A 
ATOM     45  C   UNL A   1      40.235  27.953  29.733  1.00  0.00     0.049 A 
ATOM     46  N   UNL A   1      43.431  28.420  28.944  1.00  0.00    -0.248 NA
ATOM     47  C   UNL A   1      42.294  28.535  26.931  1.00  0.00     0.031 C 
ATOM     48  C   UNL A   1      38.988  27.357  30.263  1.00  0.00     0.029 A 
ATOM     49  N   UNL A   1      40.098  29.245  30.152  1.00  0.00    -0.354 N 
ATOM     50  C   UNL A   1      44.133  29.200  28.039  1.00  0.00     0.074 A 
ATOM     51  C   UNL A   1      43.541  28.970  26.750  1.00  0.00     0.031 C 
ATOM     52  C   UNL A   1      38.101  28.322  30.595  1.00  0.00     0.029 A 
ATOM     53  C   UNL A   1      38.809  29.581  30.588  1.00  0.00     0.049 A 
ATOM     54  H   UNL A   1      40.843  29.889  30.147  1.00  0.00     0.167 HD
ATOM     55  C   UNL A   1      44.856  30.265  28.478  1.00  0.00     0.037 A 
ATOM     56  C   UNL A   1      38.366  30.792  31.013  1.00  0.00     0.037 A 
ATOM     57  C   UNL A   1      45.078  30.194  29.903  1.00  0.00     0.049 A 
ATOM     58  C   UNL A   1      39.575  31.533  31.441  1.00  0.00     0.074 A 
ATOM     59  C   UNL A   1      45.633  29.247  30.741  1.00  0.00     0.029 A 
ATOM     60  N   UNL A   1      44.304  30.998  30.706  1.00  0.00    -0.354 N 
ATOM     61  N   UNL A   1      40.310  31.169  32.456  1.00  0.00    -0.248 NA
ATOM     62  C   UNL A   1      40.233  32.371  30.455  1.00  0.00     0.031 C 
ATOM     63  C   UNL A   1      44.809  29.247  31.906  1.00  0.00     0.029 A 
ATOM     64  C   UNL A   1      43.856  30.258  31.773  1.00  0.00     0.049 A 
ATOM     65  H   UNL A   1      44.104  31.948  30.542  1.00  0.00     0.167 HD
ATOM     66  C   UNL A   1      41.614  31.332  32.015  1.00  0.00     0.074 A 
ATOM     67  C   UNL A   1      41.503  32.175  30.822  1.00  0.00     0.031 C 
ATOM     68  C   UNL A   1      42.607  30.507  32.466  1.00  0.00     0.037 A 
BRANCH  55  69
ATOM     69  C   UNL A   1      44.982  31.542  27.692  1.00  0.00     0.064 A 
ATOM     70  C   UNL A   1      46.222  31.873  27.123  1.00  0.00     0.173 A 
ATOM     71  C   UNL A   1      44.008  32.567  27.682  1.00  0.00     0.173 A 
ATOM     72  F   UNL A   1      47.228  30.987  27.130  1.00  0.00    -0.203 F 
ATOM     73  C   UNL A   1      46.473  33.147  26.607  1.00  0.00     0.198 A 
ATOM     74  C   UNL A   1      44.240  33.813  27.109  1.00  0.00     0.198 A 
ATOM     75  F   UNL A   1      42.839  32.450  28.322  1.00  0.00    -0.203 F 
ATOM     76  F   UNL A   1      47.702  33.455  26.173  1.00  0.00    -0.200 F 
ATOM     77  C   UNL A   1      45.482  34.112  26.595  1.00  0.00     0.200 A 
ATOM     78  F   UNL A   1      43.273  34.740  27.134  1.00  0.00    -0.200 F 
ATOM     79  F   UNL A   1      45.736  35.346  26.139  1.00  0.00    -0.200 F 
ENDBRANCH  55  69
BRANCH  56  80
ATOM     80  C   UNL A   1      37.037  31.434  30.858  1.00  0.00     0.064 A 
ATOM     81  C   UNL A   1      36.271  31.794  31.981  1.00  0.00     0.173 A 
ATOM     82  C   UNL A   1      36.625  31.979  29.626  1.00  0.00     0.173 A 
ATOM     83  F   UNL A   1      36.610  31.346  33.198  1.00  0.00    -0.203 F 
ATOM     84  C   UNL A   1      35.191  32.681  31.886  1.00  0.00     0.198 A 
ATOM     85  C   UNL A   1      35.544  32.864  29.531  1.00  0.00     0.198 A 
ATOM     86  F   UNL A   1      37.321  31.736  28.505  1.00  0.00    -0.203 F 
ATOM     87  F   UNL A   1      34.531  33.053  32.992  1.00  0.00    -0.200 F 
ATOM     88  C   UNL A   1      34.839  33.228  30.664  1.00  0.00     0.200 A 
ATOM     89  F   UNL A   1      35.234  33.413  28.348  1.00  0.00    -0.200 F 
ATOM     90  F   UNL A   1      33.853  34.133  30.584  1.00  0.00    -0.200 F 
ENDBRANCH  56  80
BRANCH  68  91
ATOM     91  C   UNL A   1      42.303  29.625  33.659  1.00  0.00     0.064 A 
ATOM     92  C   UNL A   1      41.989  28.255  33.583  1.00  0.00     0.173 A 
ATOM     93  C   UNL A   1      42.484  30.154  34.942  1.00  0.00     0.173 A 
ATOM     94  F   UNL A   1      41.883  27.636  32.407  1.00  0.00    -0.203 F 
ATOM     95  C   UNL A   1      41.833  27.467  34.725  1.00  0.00     0.198 A 
ATOM     96  C   UNL A   1      42.359  29.361  36.082  1.00  0.00     0.198 A 
ATOM     97  F   UNL A   1      42.836  31.440  35.091  1.00  0.00    -0.203 F 
ATOM     98  F   UNL A   1      41.534  26.164  34.608  1.00  0.00    -0.200 F 
ATOM     99  C   UNL A   1      42.026  28.020  35.975  1.00  0.00     0.200 A 
ATOM    100  F   UNL A   1      42.594  29.893  37.290  1.00  0.00    -0.200 F 
ATOM    101  F   UNL A   1      41.919  27.259  37.073  1.00  0.00    -0.200 F 
ENDBRANCH  68  91
ENDBRANCH  42  43
ENDBRANCH  35  37
ENDBRANCH  34  35
ENDBRANCH  33  34
ENDBRANCH  32  33
ENDBRANCH  31  32
ENDBRANCH  30  31
ENDBRANCH   1  30
TORSDOF 22
ENDMDL
MODEL 2
REMARK VINA RESULT:      -8.6      4.573      9.715
REMARK SMILES COc1ccc(-c2ncn(CC(=O)OCCOCCOCCOC(=O)c3ccc(-c4c5nc(c(-c6c(F)c(F)c(F)c(F)c6F)c6ccc([nH]6)c(-c6c(F)c(F)c(F)c(F)c6F)c6nc(c(-c7c(F)c(F)c(F)c(F)c7F)c7ccc4[nH]7)C=C6)C=C5)cc3)c2-c2ccc(OC)cc2)cc1
REMARK SMILES IDX 18 1 17 2 16 3 15 4 14 5 12 6 13 7 11 8 10 9 7 10 8 11 89 12
REMARK SMILES IDX 9 13 6 14 3 15 4 16 99 17 5 18 98 19 2 20 1 21 90 22 91 23
REMARK SMILES IDX 97 24 92 25 96 26 93 27 94 28 95 29 19 30 20 31 21 32 22 33
REMARK SMILES IDX 23 34 24 35 25 36 26 37 27 38 88 39 28 40 87 41 29 42 30 43
REMARK SMILES IDX 31 44 81 45 32 46 86 47 80 48 82 49 33 50 85 51 79 52 78 53
REMARK SMILES IDX 34 55 66 56 46 57 65 58 47 59 50 60 64 61 83 62 48 63 49 64
REMARK SMILES IDX 63 66 84 67 51 68 35 69 36 70 44 71 37 72 38 73 42 74 45 75
REMARK SMILES IDX 39 76 40 77 43 78 41 79 67 80 68 81 76 82 69 83 70 84 74 85
REMARK SMILES IDX 77 86 71 87 72 88 75 89 73 90 52 91 53 92 61 93 54 94 55 95
REMARK SMILES IDX 59 96 62 97 56 98 57 99 60 100 58 101
REMARK H PARENT 82 54 50 65
REMARK Flexibility Score: inf
ROOT
ATOM      1  C   UNL A   1      48.830  21.550  34.887  1.00  0.00     0.188 C 
ENDROOT
BRANCH   1   2
ATOM      2  O   UNL A   1      49.865  22.172  35.631  1.00  0.00    -0.376 OA
BRANCH   2   3
ATOM      3  C   UNL A   1      49.447  22.771  36.839  1.00  0.00     0.202 C 
BRANCH   3   4
ATOM      4  C   UNL A   1      49.962  22.084  38.129  1.00  0.00     0.261 C 
BRANCH   4   5
ATOM      5  O   UNL A   1      48.972  21.326  38.920  1.00  0.00    -0.462 OA
BRANCH   5   6
ATOM      6  C   UNL A   1      48.205  20.379  38.324  1.00  0.00     0.326 C 
ATOM      7  O   UNL A   1      48.680  19.293  37.993  1.00  0.00    -0.250 OA
BRANCH   6   8
ATOM      8  C   UNL A   1      46.696  20.651  38.087  1.00  0.00     0.246 C 
BRANCH   8   9
ATOM      9  N   UNL A   1      46.109  21.499  37.011  1.00  0.00    -0.319 N 
ATOM     10  C   UNL A   1      44.783  22.793  35.790  1.00  0.00     0.096 A 
ATOM     11  N   UNL A   1      44.791  21.563  35.196  1.00  0.00    -0.236 NA
ATOM     12  C   UNL A   1      45.568  22.842  36.969  1.00  0.00     0.076 A 
ATOM     13  C   UNL A   1      45.589  20.828  35.917  1.00  0.00     0.201 A 
BRANCH  10  14
ATOM     14  C   UNL A   1      44.112  23.902  35.124  1.00  0.00     0.003 A 
ATOM     15  C   UNL A   1      43.166  26.377  34.183  1.00  0.00     0.118 A 
ATOM     16  C   UNL A   1      44.326  25.820  33.647  1.00  0.00     0.047 A 
ATOM     17  C   UNL A   1      42.399  25.626  35.078  1.00  0.00     0.047 A 
ATOM     18  C   UNL A   1      44.774  24.569  34.086  1.00  0.00     0.014 A 
ATOM     19  C   UNL A   1      42.874  24.390  35.555  1.00  0.00     0.014 A 
BRANCH  15  20
ATOM     20  O   UNL A   1      42.884  27.653  33.774  1.00  0.00    -0.497 OA
ATOM     21  C   UNL A   1      42.692  27.822  32.372  1.00  0.00     0.278 C 
ENDBRANCH  15  20
ENDBRANCH  10  14
BRANCH  12  22
ATOM     22  C   UNL A   1      45.918  24.097  37.804  1.00  0.00     0.001 A 
ATOM     23  C   UNL A   1      46.781  25.387  37.004  1.00  0.00     0.014 A 
ATOM     24  C   UNL A   1      45.212  24.357  39.427  1.00  0.00     0.014 A 
ATOM     25  C   UNL A   1      47.001  27.001  37.607  1.00  0.00     0.047 A 
ATOM     26  C   UNL A   1      45.271  26.016  40.187  1.00  0.00     0.047 A 
ATOM     27  C   UNL A   1      46.299  27.446  39.196  1.00  0.00     0.118 A 
BRANCH  27  28
ATOM     28  O   UNL A   1      46.587  28.796  39.509  1.00  0.00    -0.497 OA
ATOM     29  C   UNL A   1      47.138  29.086  40.784  1.00  0.00     0.278 C 
ENDBRANCH  27  28
ENDBRANCH  12  22
ENDBRANCH   8   9
ENDBRANCH   6   8
ENDBRANCH   5   6
ENDBRANCH   4   5
ENDBRANCH   3   4
ENDBRANCH   2   3
ENDBRANCH   1   2
BRANCH   1  30
ATOM     30  C   UNL A   1      49.153  20.214  34.146  1.00  0.00     0.188 C 
BRANCH  30  31
ATOM     31  O   UNL A   1      50.028  20.378  33.041  1.00  0.00    -0.376 OA
BRANCH  31  32
ATOM     32  C   UNL A   1      51.385  20.096  33.320  1.00  0.00     0.202 C 
BRANCH  32  33
ATOM     33  C   UNL A   1      52.257  21.304  33.045  1.00  0.00     0.261 C 
BRANCH  33  34
ATOM     34  O   UNL A   1      51.491  22.482  32.762  1.00  0.00    -0.460 OA
BRANCH  34  35
ATOM     35  C   UNL A   1      52.118  23.677  32.941  1.00  0.00     0.338 C 
ATOM     36  O   UNL A   1      53.246  23.779  33.384  1.00  0.00    -0.246 OA
BRANCH  35  37
ATOM     37  C   UNL A   1      50.970  24.700  32.982  1.00  0.00     0.060 A 
ATOM     38  C   UNL A   1      49.059  24.985  33.571  1.00  0.00     0.016 A 
ATOM     39  C   UNL A   1      51.416  25.193  31.306  1.00  0.00     0.016 A 
ATOM     40  C   UNL A   1      47.908  25.637  32.314  1.00  0.00     0.010 A 
ATOM     41  C   UNL A   1      50.275  25.774  30.282  1.00  0.00     0.010 A 
ATOM     42  C   UNL A   1      48.575  25.937  30.686  1.00  0.00    -0.014 A 
BRANCH  42  43
ATOM     43  C   UNL A   1      47.838  26.358  29.497  1.00  0.00     0.031 A 
ATOM     44  C   UNL A   1      46.706  25.473  29.212  1.00  0.00     0.074 A 
ATOM     45  C   UNL A   1      48.001  27.597  28.952  1.00  0.00     0.049 A 
ATOM     46  N   UNL A   1      46.580  24.688  28.197  1.00  0.00    -0.248 NA
ATOM     47  C   UNL A   1      45.685  25.277  30.247  1.00  0.00     0.031 C 
ATOM     48  C   UNL A   1      49.016  28.638  29.234  1.00  0.00     0.029 A 
ATOM     49  N   UNL A   1      47.157  28.282  28.125  1.00  0.00    -0.354 N 
ATOM     50  C   UNL A   1      45.328  24.117  28.356  1.00  0.00     0.074 A 
ATOM     51  C   UNL A   1      44.983  24.262  29.743  1.00  0.00     0.031 C 
ATOM     52  C   UNL A   1      48.550  29.862  28.899  1.00  0.00     0.029 A 
ATOM     53  C   UNL A   1      47.351  29.670  28.116  1.00  0.00     0.049 A 
ATOM     54  H   UNL A   1      46.468  27.837  27.580  1.00  0.00     0.167 HD
ATOM     55  C   UNL A   1      44.516  23.947  27.279  1.00  0.00     0.037 A 
ATOM     56  C   UNL A   1      46.639  30.602  27.434  1.00  0.00     0.037 A 
ATOM     57  C   UNL A   1      45.256  24.060  26.044  1.00  0.00     0.049 A 
ATOM     58  C   UNL A   1      45.997  29.876  26.314  1.00  0.00     0.074 A 
ATOM     59  C   UNL A   1      46.367  23.422  25.529  1.00  0.00     0.029 A 
ATOM     60  N   UNL A   1      45.142  25.237  25.343  1.00  0.00    -0.354 N 
ATOM     61  N   UNL A   1      46.674  29.324  25.344  1.00  0.00    -0.248 NA
ATOM     62  C   UNL A   1      44.664  29.345  26.534  1.00  0.00     0.031 C 
ATOM     63  C   UNL A   1      47.121  24.444  24.879  1.00  0.00     0.029 A 
ATOM     64  C   UNL A   1      46.393  25.633  24.935  1.00  0.00     0.049 A 
ATOM     65  H   UNL A   1      44.302  25.718  25.163  1.00  0.00     0.167 HD
ATOM     66  C   UNL A   1      46.056  28.099  25.146  1.00  0.00     0.074 A 
ATOM     67  C   UNL A   1      44.765  28.215  25.827  1.00  0.00     0.031 C 
ATOM     68  C   UNL A   1      46.782  27.015  24.734  1.00  0.00     0.037 A 
BRANCH  55  69
ATOM     69  C   UNL A   1      43.022  24.101  27.355  1.00  0.00     0.064 A 
ATOM     70  C   UNL A   1      42.480  25.339  27.734  1.00  0.00     0.173 A 
ATOM     71  C   UNL A   1      42.109  23.020  27.308  1.00  0.00     0.173 A 
ATOM     72  F   UNL A   1      43.272  26.414  27.858  1.00  0.00    -0.203 F 
ATOM     73  C   UNL A   1      41.131  25.477  28.068  1.00  0.00     0.198 A 
ATOM     74  C   UNL A   1      40.754  23.175  27.578  1.00  0.00     0.198 A 
ATOM     75  F   UNL A   1      42.506  21.757  27.114  1.00  0.00    -0.203 F 
ATOM     76  F   UNL A   1      40.679  26.650  28.528  1.00  0.00    -0.200 F 
ATOM     77  C   UNL A   1      40.268  24.398  27.983  1.00  0.00     0.200 A 
ATOM     78  F   UNL A   1      39.944  22.109  27.516  1.00  0.00    -0.200 F 
ATOM     79  F   UNL A   1      38.985  24.521  28.344  1.00  0.00    -0.200 F 
ENDBRANCH  55  69
BRANCH  56  80
ATOM     80  C   UNL A   1      46.283  31.995  27.803  1.00  0.00     0.064 A 
ATOM     81  C   UNL A   1      46.845  33.091  27.124  1.00  0.00     0.173 A 
ATOM     82  C   UNL A   1      45.168  32.276  28.618  1.00  0.00     0.173 A 
ATOM     83  F   UNL A   1      47.889  32.910  26.304  1.00  0.00    -0.203 F 
ATOM     84  C   UNL A   1      46.297  34.377  27.216  1.00  0.00     0.198 A 
ATOM     85  C   UNL A   1      44.622  33.562  28.710  1.00  0.00     0.198 A 
ATOM     86  F   UNL A   1      44.530  31.290  29.265  1.00  0.00    -0.203 F 
ATOM     87  F   UNL A   1      46.822  35.380  26.496  1.00  0.00    -0.200 F 
ATOM     88  C   UNL A   1      45.177  34.608  27.994  1.00  0.00     0.200 A 
ATOM     89  F   UNL A   1      43.517  33.767  29.440  1.00  0.00    -0.200 F 
ATOM     90  F   UNL A   1      44.609  35.822  28.024  1.00  0.00    -0.200 F 
ENDBRANCH  56  80
BRANCH  68  91
ATOM     91  C   UNL A   1      48.187  27.259  24.226  1.00  0.00     0.064 A 
ATOM     92  C   UNL A   1      49.361  27.004  24.961  1.00  0.00     0.173 A 
ATOM     93  C   UNL A   1      48.357  27.627  22.887  1.00  0.00     0.173 A 
ATOM     94  F   UNL A   1      49.305  26.563  26.218  1.00  0.00    -0.203 F 
ATOM     95  C   UNL A   1      50.631  27.140  24.398  1.00  0.00     0.198 A 
ATOM     96  C   UNL A   1      49.624  27.732  22.314  1.00  0.00     0.198 A 
ATOM     97  F   UNL A   1      47.284  27.836  22.110  1.00  0.00    -0.203 F 
ATOM     98  F   UNL A   1      51.724  26.885  25.133  1.00  0.00    -0.200 F 
ATOM     99  C   UNL A   1      50.761  27.497  23.070  1.00  0.00     0.200 A 
ATOM    100  F   UNL A   1      49.742  28.033  21.013  1.00  0.00    -0.200 F 
ATOM    101  F   UNL A   1      51.977  27.587  22.513  1.00  0.00    -0.200 F 
ENDBRANCH  68  91
ENDBRANCH  42  43
ENDBRANCH  35  37
ENDBRANCH  34  35
ENDBRANCH  33  34
ENDBRANCH  32  33
ENDBRANCH  31  32
ENDBRANCH  30  31
ENDBRANCH   1  30
TORSDOF 22
ENDMDL
MODEL 3
REMARK VINA RESULT:      -8.5      4.077      8.689
REMARK SMILES COc1ccc(-c2ncn(CC(=O)OCCOCCOCCOC(=O)c3ccc(-c4c5nc(c(-c6c(F)c(F)c(F)c(F)c6F)c6ccc([nH]6)c(-c6c(F)c(F)c(F)c(F)c6F)c6nc(c(-c7c(F)c(F)c(F)c(F)c7F)c7ccc4[nH]7)C=C6)C=C5)cc3)c2-c2ccc(OC)cc2)cc1
REMARK SMILES IDX 18 1 17 2 16 3 15 4 14 5 12 6 13 7 11 8 10 9 7 10 8 11 89 12
REMARK SMILES IDX 9 13 6 14 3 15 4 16 99 17 5 18 98 19 2 20 1 21 90 22 91 23
REMARK SMILES IDX 97 24 92 25 96 26 93 27 94 28 95 29 19 30 20 31 21 32 22 33
REMARK SMILES IDX 23 34 24 35 25 36 26 37 27 38 88 39 28 40 87 41 29 42 30 43
REMARK SMILES IDX 31 44 81 45 32 46 86 47 80 48 82 49 33 50 85 51 79 52 78 53
REMARK SMILES IDX 34 55 66 56 46 57 65 58 47 59 50 60 64 61 83 62 48 63 49 64
REMARK SMILES IDX 63 66 84 67 51 68 35 69 36 70 44 71 37 72 38 73 42 74 45 75
REMARK SMILES IDX 39 76 40 77 43 78 41 79 67 80 68 81 76 82 69 83 70 84 74 85
REMARK SMILES IDX 77 86 71 87 72 88 75 89 73 90 52 91 53 92 61 93 54 94 55 95
REMARK SMILES IDX 59 96 62 97 56 98 57 99 60 100 58 101
REMARK H PARENT 82 54 50 65
REMARK Flexibility Score: inf
ROOT
ATOM      1  C   UNL A   1      50.753  33.664  27.721  1.00  0.00     0.188 C 
ENDROOT
BRANCH   1   2
ATOM      2  O   UNL A   1      50.405  32.298  27.863  1.00  0.00    -0.376 OA
BRANCH   2   3
ATOM      3  C   UNL A   1      49.534  31.804  26.868  1.00  0.00     0.202 C 
BRANCH   3   4
ATOM      4  C   UNL A   1      48.033  31.783  27.255  1.00  0.00     0.261 C 
BRANCH   4   5
ATOM      5  O   UNL A   1      47.063  31.615  26.153  1.00  0.00    -0.462 OA
BRANCH   5   6
ATOM      6  C   UNL A   1      45.752  31.402  26.427  1.00  0.00     0.326 C 
ATOM      7  O   UNL A   1      44.869  31.879  25.714  1.00  0.00    -0.250 OA
BRANCH   6   8
ATOM      8  C   UNL A   1      45.355  30.513  27.635  1.00  0.00     0.246 C 
BRANCH   8   9
ATOM      9  N   UNL A   1      44.789  29.137  27.571  1.00  0.00    -0.319 N 
ATOM     10  C   UNL A   1      44.053  27.155  26.895  1.00  0.00     0.096 A 
ATOM     11  N   UNL A   1      42.953  27.888  27.243  1.00  0.00    -0.236 NA
ATOM     12  C   UNL A   1      45.264  27.875  27.040  1.00  0.00     0.076 A 
ATOM     13  C   UNL A   1      43.410  29.036  27.653  1.00  0.00     0.201 A 
BRANCH  10  14
ATOM     14  C   UNL A   1      43.892  25.748  26.551  1.00  0.00     0.003 A 
ATOM     15  C   UNL A   1      43.022  23.190  25.773  1.00  0.00     0.118 A 
ATOM     16  C   UNL A   1      43.420  24.118  24.812  1.00  0.00     0.047 A 
ATOM     17  C   UNL A   1      43.206  23.489  27.126  1.00  0.00     0.047 A 
ATOM     18  C   UNL A   1      43.892  25.377  25.201  1.00  0.00     0.014 A 
ATOM     19  C   UNL A   1      43.635  24.770  27.518  1.00  0.00     0.014 A 
BRANCH  15  20
ATOM     20  O   UNL A   1      42.464  22.040  25.284  1.00  0.00    -0.497 OA
ATOM     21  C   UNL A   1      42.386  20.954  26.203  1.00  0.00     0.278 C 
ENDBRANCH  15  20
ENDBRANCH  10  14
BRANCH  12  22
ATOM     22  C   UNL A   1      46.702  27.320  26.895  1.00  0.00     0.001 A 
ATOM     23  C   UNL A   1      47.764  28.112  25.757  1.00  0.00     0.014 A 
ATOM     24  C   UNL A   1      47.354  26.122  28.053  1.00  0.00     0.014 A 
ATOM     25  C   UNL A   1      49.485  27.903  25.644  1.00  0.00     0.047 A 
ATOM     26  C   UNL A   1      49.155  25.832  28.139  1.00  0.00     0.047 A 
ATOM     27  C   UNL A   1      50.307  26.782  26.777  1.00  0.00     0.118 A 
BRANCH  27  28
ATOM     28  O   UNL A   1      51.699  26.749  26.526  1.00  0.00    -0.497 OA
ATOM     29  C   UNL A   1      52.377  25.510  26.664  1.00  0.00     0.278 C 
ENDBRANCH  27  28
ENDBRANCH  12  22
ENDBRANCH   8   9
ENDBRANCH   6   8
ENDBRANCH   5   6
ENDBRANCH   4   5
ENDBRANCH   3   4
ENDBRANCH   2   3
ENDBRANCH   1   2
BRANCH   1  30
ATOM     30  C   UNL A   1      50.364  34.393  26.396  1.00  0.00     0.188 C 
BRANCH  30  31
ATOM     31  O   UNL A   1      49.217  35.219  26.521  1.00  0.00    -0.376 OA
BRANCH  31  32
ATOM     32  C   UNL A   1      48.762  35.781  25.306  1.00  0.00     0.202 C 
BRANCH  32  33
ATOM     33  C   UNL A   1      47.825  36.943  25.565  1.00  0.00     0.261 C 
BRANCH  33  34
ATOM     34  O   UNL A   1      46.532  36.517  26.013  1.00  0.00    -0.460 OA
BRANCH  34  35
ATOM     35  C   UNL A   1      46.185  36.852  27.286  1.00  0.00     0.338 C 
ATOM     36  O   UNL A   1      46.968  36.834  28.218  1.00  0.00    -0.246 OA
BRANCH  35  37
ATOM     37  C   UNL A   1      44.655  36.702  27.309  1.00  0.00     0.060 A 
ATOM     38  C   UNL A   1      42.931  37.638  27.789  1.00  0.00     0.016 A 
ATOM     39  C   UNL A   1      44.879  35.006  27.879  1.00  0.00     0.016 A 
ATOM     40  C   UNL A   1      41.771  36.713  28.854  1.00  0.00     0.010 A 
ATOM     41  C   UNL A   1      43.746  34.294  28.827  1.00  0.00     0.010 A 
ATOM     42  C   UNL A   1      42.282  35.087  29.382  1.00  0.00    -0.014 A 
BRANCH  42  43
ATOM     43  C   UNL A   1      41.580  34.201  30.308  1.00  0.00     0.031 A 
ATOM     44  C   UNL A   1      42.327  34.009  31.554  1.00  0.00     0.074 A 
ATOM     45  C   UNL A   1      40.262  33.890  30.145  1.00  0.00     0.049 A 
ATOM     46  N   UNL A   1      42.868  32.913  31.964  1.00  0.00    -0.248 NA
ATOM     47  C   UNL A   1      42.688  35.188  32.349  1.00  0.00     0.031 C 
ATOM     48  C   UNL A   1      39.357  34.136  29.000  1.00  0.00     0.029 A 
ATOM     49  N   UNL A   1      39.376  33.426  31.075  1.00  0.00    -0.354 N 
ATOM     50  C   UNL A   1      43.398  33.234  33.203  1.00  0.00     0.074 A 
ATOM     51  C   UNL A   1      43.536  34.664  33.235  1.00  0.00     0.031 C 
ATOM     52  C   UNL A   1      38.069  34.164  29.406  1.00  0.00     0.029 A 
ATOM     53  C   UNL A   1      38.029  33.649  30.756  1.00  0.00     0.049 A 
ATOM     54  H   UNL A   1      39.659  32.973  31.902  1.00  0.00     0.167 HD
ATOM     55  C   UNL A   1      43.293  32.356  34.235  1.00  0.00     0.037 A 
ATOM     56  C   UNL A   1      36.938  33.342  31.503  1.00  0.00     0.037 A 
ATOM     57  C   UNL A   1      42.955  31.033  33.764  1.00  0.00     0.049 A 
ATOM     58  C   UNL A   1      37.376  32.274  32.431  1.00  0.00     0.074 A 
ATOM     59  C   UNL A   1      43.523  30.166  32.852  1.00  0.00     0.029 A 
ATOM     60  N   UNL A   1      41.651  30.623  33.909  1.00  0.00    -0.354 N 
ATOM     61  N   UNL A   1      37.740  31.087  32.029  1.00  0.00    -0.248 NA
ATOM     62  C   UNL A   1      37.875  32.679  33.733  1.00  0.00     0.031 C 
ATOM     63  C   UNL A   1      42.424  29.578  32.157  1.00  0.00     0.029 A 
ATOM     64  C   UNL A   1      41.239  30.030  32.740  1.00  0.00     0.049 A 
ATOM     65  H   UNL A   1      41.102  30.735  34.719  1.00  0.00     0.167 HD
ATOM     66  C   UNL A   1      38.863  30.795  32.788  1.00  0.00     0.074 A 
ATOM     67  C   UNL A   1      38.831  31.759  33.890  1.00  0.00     0.031 C 
ATOM     68  C   UNL A   1      39.868  30.025  32.272  1.00  0.00     0.037 A 
BRANCH  55  69
ATOM     69  C   UNL A   1      43.085  32.795  35.660  1.00  0.00     0.064 A 
ATOM     70  C   UNL A   1      43.943  32.306  36.657  1.00  0.00     0.173 A 
ATOM     71  C   UNL A   1      41.935  33.477  36.120  1.00  0.00     0.173 A 
ATOM     72  F   UNL A   1      45.034  31.600  36.325  1.00  0.00    -0.203 F 
ATOM     73  C   UNL A   1      43.655  32.466  38.014  1.00  0.00     0.198 A 
ATOM     74  C   UNL A   1      41.684  33.692  37.471  1.00  0.00     0.198 A 
ATOM     75  F   UNL A   1      40.953  33.863  35.296  1.00  0.00    -0.203 F 
ATOM     76  F   UNL A   1      44.443  31.891  38.931  1.00  0.00    -0.200 F 
ATOM     77  C   UNL A   1      42.531  33.164  38.420  1.00  0.00     0.200 A 
ATOM     78  F   UNL A   1      40.574  34.348  37.840  1.00  0.00    -0.200 F 
ATOM     79  F   UNL A   1      42.232  33.281  39.720  1.00  0.00    -0.200 F 
ENDBRANCH  55  69
BRANCH  56  80
ATOM     80  C   UNL A   1      35.641  34.050  31.638  1.00  0.00     0.064 A 
ATOM     81  C   UNL A   1      35.448  35.026  32.632  1.00  0.00     0.173 A 
ATOM     82  C   UNL A   1      34.671  34.006  30.616  1.00  0.00     0.173 A 
ATOM     83  F   UNL A   1      36.339  35.159  33.625  1.00  0.00    -0.203 F 
ATOM     84  C   UNL A   1      34.381  35.931  32.583  1.00  0.00     0.198 A 
ATOM     85  C   UNL A   1      33.603  34.910  30.569  1.00  0.00     0.198 A 
ATOM     86  F   UNL A   1      34.794  33.145  29.595  1.00  0.00    -0.203 F 
ATOM     87  F   UNL A   1      34.274  36.891  33.513  1.00  0.00    -0.200 F 
ATOM     88  C   UNL A   1      33.469  35.884  31.542  1.00  0.00     0.200 A 
ATOM     89  F   UNL A   1      32.746  34.876  29.539  1.00  0.00    -0.200 F 
ATOM     90  F   UNL A   1      32.491  36.796  31.455  1.00  0.00    -0.200 F 
ENDBRANCH  56  80
BRANCH  68  91
ATOM     91  C   UNL A   1      39.591  29.272  30.987  1.00  0.00     0.064 A 
ATOM     92  C   UNL A   1      39.912  29.740  29.699  1.00  0.00     0.173 A 
ATOM     93  C   UNL A   1      39.116  27.958  31.074  1.00  0.00     0.173 A 
ATOM     94  F   UNL A   1      40.452  30.945  29.518  1.00  0.00    -0.203 F 
ATOM     95  C   UNL A   1      39.737  28.952  28.561  1.00  0.00     0.198 A 
ATOM     96  C   UNL A   1      38.971  27.159  29.941  1.00  0.00     0.198 A 
ATOM     97  F   UNL A   1      38.839  27.426  32.274  1.00  0.00    -0.203 F 
ATOM     98  F   UNL A   1      40.057  29.436  27.350  1.00  0.00    -0.200 F 
ATOM     99  C   UNL A   1      39.274  27.657  28.684  1.00  0.00     0.200 A 
ATOM    100  F   UNL A   1      38.567  25.888  30.072  1.00  0.00    -0.200 F 
ATOM    101  F   UNL A   1      39.145  26.881  27.598  1.00  0.00    -0.200 F 
ENDBRANCH  68  91
ENDBRANCH  42  43
ENDBRANCH  35  37
ENDBRANCH  34  35
ENDBRANCH  33  34
ENDBRANCH  32  33
ENDBRANCH  31  32
ENDBRANCH  30  31
ENDBRANCH   1  30
TORSDOF 22
ENDMDL
