MODEL 1
REMARK VINA RESULT:      -8.8      0.000      0.000
REMARK SMILES C=CCN(CC(=O)OCCOCCOCCOC(=O)c1ccc(-c2c3nc(c(-c4c(F)c(F)c(F)c(F)c4F)c4ccc([nH]4)c(-c4c(F)c(F)c(F)c(F)c4F)c4nc(c(-c5c(F)c(F)c(F)c(F)c5F)c5ccc2[nH]5)C=C4)C=C3)cc1)C(=O)C1C[NH2+]C1
REMARK SMILES IDX 12 1 11 2 10 3 9 4 8 5 6 6 7 7 5 8 4 9 3 10 2 11 1 12 83 13
REMARK SMILES IDX 84 14 85 15 86 16 88 17 87 18 13 21 14 22 15 23 16 24 17 25
REMARK SMILES IDX 18 26 19 27 20 28 21 29 82 30 22 31 81 32 23 33 24 34 25 35
REMARK SMILES IDX 75 36 26 37 80 38 74 39 76 40 27 41 79 42 73 43 72 44 28 46
REMARK SMILES IDX 60 47 40 48 59 49 41 50 44 51 58 52 77 53 42 54 43 55 57 57
REMARK SMILES IDX 78 58 45 59 29 60 30 61 38 62 31 63 32 64 36 65 39 66 33 67
REMARK SMILES IDX 34 68 37 69 35 70 61 71 62 72 70 73 63 74 64 75 68 76 71 77
REMARK SMILES IDX 65 78 66 79 69 80 67 81 46 82 47 83 55 84 48 85 49 86 53 87
REMARK SMILES IDX 56 88 50 89 51 90 54 91 52 92
REMARK H PARENT 87 19 87 20 76 45 44 56
REMARK Flexibility Score: inf
ROOT
ATOM      1  C   UNL A   1      32.914  28.883  23.426  1.00  0.00     0.188 C 
ENDROOT
BRANCH   1   2
ATOM      2  O   UNL A   1      31.668  28.370  22.960  1.00  0.00    -0.376 OA
BRANCH   2   3
ATOM      3  C   UNL A   1      31.589  26.960  22.754  1.00  0.00     0.202 C 
BRANCH   3   4
ATOM      4  C   UNL A   1      31.193  26.177  24.006  1.00  0.00     0.261 C 
BRANCH   4   5
ATOM      5  O   UNL A   1      32.016  25.001  24.162  1.00  0.00    -0.462 OA
BRANCH   5   6
ATOM      6  C   UNL A   1      33.085  25.123  24.994  1.00  0.00     0.325 C 
ATOM      7  O   UNL A   1      33.174  25.943  25.901  1.00  0.00    -0.250 OA
BRANCH   6   8
ATOM      8  C   UNL A   1      34.163  24.057  24.759  1.00  0.00     0.242 C 
BRANCH   8   9
ATOM      9  N   UNL A   1      34.143  22.862  25.613  1.00  0.00    -0.327 N 
BRANCH   9  10
ATOM     10  C   UNL A   1      35.428  22.289  25.990  1.00  0.00     0.147 C 
BRANCH  10  11
ATOM     11  C   UNL A   1      36.075  21.778  24.731  1.00  0.00    -0.014 C 
ATOM     12  C   UNL A   1      37.260  21.151  24.699  1.00  0.00     0.006 C 
ENDBRANCH  10  11
ENDBRANCH   9  10
BRANCH   9  13
ATOM     13  C   UNL A   1      32.995  22.257  26.135  1.00  0.00     0.237 C 
ATOM     14  O   UNL A   1      32.613  22.517  27.284  1.00  0.00    -0.274 OA
BRANCH  13  15
ATOM     15  C   UNL A   1      32.213  21.274  25.249  1.00  0.00     0.188 C 
ATOM     16  C   UNL A   1      32.581  21.270  23.743  1.00  0.00     0.280 C 
ATOM     17  C   UNL A   1      32.643  19.795  25.195  1.00  0.00     0.280 C 
ATOM     18  N   UNL A   1      32.437  19.802  23.734  1.00  0.00    -0.345 N 
ATOM     19  H   UNL A   1      33.160  19.313  23.206  1.00  0.00     0.346 HD
ATOM     20  H   UNL A   1      31.618  19.358  23.319  1.00  0.00     0.346 HD
ENDBRANCH  13  15
ENDBRANCH   9  13
ENDBRANCH   8   9
ENDBRANCH   6   8
ENDBRANCH   5   6
ENDBRANCH   4   5
ENDBRANCH   3   4
ENDBRANCH   2   3
ENDBRANCH   1   2
BRANCH   1  21
ATOM     21  C   UNL A   1      32.969  29.305  24.903  1.00  0.00     0.188 C 
BRANCH  21  22
ATOM     22  O   UNL A   1      31.846  30.044  25.371  1.00  0.00    -0.376 OA
BRANCH  22  23
ATOM     23  C   UNL A   1      31.867  30.428  26.745  1.00  0.00     0.202 C 
BRANCH  23  24
ATOM     24  C   UNL A   1      31.893  31.940  26.948  1.00  0.00     0.261 C 
BRANCH  24  25
ATOM     25  O   UNL A   1      33.193  32.347  27.418  1.00  0.00    -0.460 OA
BRANCH  25  26
ATOM     26  C   UNL A   1      33.177  33.517  28.091  1.00  0.00     0.338 C 
ATOM     27  O   UNL A   1      32.392  34.440  27.925  1.00  0.00    -0.246 OA
BRANCH  26  28
ATOM     28  C   UNL A   1      34.259  33.563  29.097  1.00  0.00     0.060 A 
ATOM     29  C   UNL A   1      35.436  34.282  28.879  1.00  0.00     0.016 A 
ATOM     30  C   UNL A   1      34.151  32.735  30.213  1.00  0.00     0.016 A 
ATOM     31  C   UNL A   1      36.554  34.060  29.693  1.00  0.00     0.010 A 
ATOM     32  C   UNL A   1      35.245  32.568  31.064  1.00  0.00     0.010 A 
ATOM     33  C   UNL A   1      36.487  33.158  30.765  1.00  0.00    -0.014 A 
BRANCH  33  34
ATOM     34  C   UNL A   1      37.707  32.660  31.471  1.00  0.00     0.031 A 
ATOM     35  C   UNL A   1      38.545  31.596  30.801  1.00  0.00     0.074 A 
ATOM     36  C   UNL A   1      38.109  33.125  32.669  1.00  0.00     0.049 A 
ATOM     37  N   UNL A   1      39.421  30.770  31.319  1.00  0.00    -0.248 NA
ATOM     38  C   UNL A   1      38.349  31.425  29.352  1.00  0.00     0.031 C 
ATOM     39  C   UNL A   1      37.494  34.217  33.417  1.00  0.00     0.029 A 
ATOM     40  N   UNL A   1      39.155  32.721  33.467  1.00  0.00    -0.354 N 
ATOM     41  C   UNL A   1      39.795  29.920  30.285  1.00  0.00     0.074 A 
ATOM     42  C   UNL A   1      39.077  30.347  29.103  1.00  0.00     0.031 C 
ATOM     43  C   UNL A   1      38.193  34.422  34.547  1.00  0.00     0.029 A 
ATOM     44  C   UNL A   1      39.245  33.414  34.650  1.00  0.00     0.049 A 
ATOM     45  H   UNL A   1      39.779  32.003  33.215  1.00  0.00     0.167 HD
ATOM     46  C   UNL A   1      40.646  28.866  30.323  1.00  0.00     0.037 A 
ATOM     47  C   UNL A   1      40.049  33.227  35.716  1.00  0.00     0.037 A 
ATOM     48  C   UNL A   1      41.444  28.508  31.466  1.00  0.00     0.049 A 
ATOM     49  C   UNL A   1      41.010  32.067  35.737  1.00  0.00     0.074 A 
ATOM     50  C   UNL A   1      42.320  27.447  31.614  1.00  0.00     0.029 A 
ATOM     51  N   UNL A   1      41.497  29.238  32.643  1.00  0.00    -0.354 N 
ATOM     52  N   UNL A   1      41.236  31.159  34.820  1.00  0.00    -0.248 NA
ATOM     53  C   UNL A   1      41.802  31.886  36.963  1.00  0.00     0.031 C 
ATOM     54  C   UNL A   1      42.900  27.532  32.885  1.00  0.00     0.029 A 
ATOM     55  C   UNL A   1      42.404  28.661  33.515  1.00  0.00     0.049 A 
ATOM     56  H   UNL A   1      40.967  30.047  32.831  1.00  0.00     0.167 HD
ATOM     57  C   UNL A   1      42.191  30.305  35.354  1.00  0.00     0.074 A 
ATOM     58  C   UNL A   1      42.526  30.816  36.666  1.00  0.00     0.031 C 
ATOM     59  C   UNL A   1      42.733  29.186  34.813  1.00  0.00     0.037 A 
BRANCH  46  60
ATOM     60  C   UNL A   1      40.728  27.994  29.107  1.00  0.00     0.064 A 
ATOM     61  C   UNL A   1      41.629  28.245  28.064  1.00  0.00     0.173 A 
ATOM     62  C   UNL A   1      39.907  26.858  29.009  1.00  0.00     0.173 A 
ATOM     63  F   UNL A   1      42.421  29.326  28.104  1.00  0.00    -0.203 F 
ATOM     64  C   UNL A   1      41.692  27.402  26.956  1.00  0.00     0.198 A 
ATOM     65  C   UNL A   1      39.991  26.004  27.914  1.00  0.00     0.198 A 
ATOM     66  F   UNL A   1      39.030  26.572  29.984  1.00  0.00    -0.203 F 
ATOM     67  F   UNL A   1      42.532  27.681  25.952  1.00  0.00    -0.200 F 
ATOM     68  C   UNL A   1      40.880  26.279  26.886  1.00  0.00     0.200 A 
ATOM     69  F   UNL A   1      39.213  24.913  27.855  1.00  0.00    -0.200 F 
ATOM     70  F   UNL A   1      40.949  25.464  25.825  1.00  0.00    -0.200 F 
ENDBRANCH  46  60
BRANCH  47  71
ATOM     71  C   UNL A   1      39.950  34.138  36.885  1.00  0.00     0.064 A 
ATOM     72  C   UNL A   1      39.089  33.845  37.952  1.00  0.00     0.173 A 
ATOM     73  C   UNL A   1      40.703  35.320  36.958  1.00  0.00     0.173 A 
ATOM     74  F   UNL A   1      38.325  32.743  37.910  1.00  0.00    -0.203 F 
ATOM     75  C   UNL A   1      38.980  34.702  39.044  1.00  0.00     0.198 A 
ATOM     76  C   UNL A   1      40.614  36.160  38.065  1.00  0.00     0.198 A 
ATOM     77  F   UNL A   1      41.535  35.647  35.960  1.00  0.00    -0.203 F 
ATOM     78  F   UNL A   1      38.120  34.418  40.032  1.00  0.00    -0.200 F 
ATOM     79  C   UNL A   1      39.749  35.854  39.104  1.00  0.00     0.200 A 
ATOM     80  F   UNL A   1      41.368  37.267  38.124  1.00  0.00    -0.200 F 
ATOM     81  F   UNL A   1      39.652  36.673  40.160  1.00  0.00    -0.200 F 
ENDBRANCH  47  71
BRANCH  59  82
ATOM     82  C   UNL A   1      43.760  28.456  35.625  1.00  0.00     0.064 A 
ATOM     83  C   UNL A   1      45.132  28.677  35.437  1.00  0.00     0.173 A 
ATOM     84  C   UNL A   1      43.368  27.551  36.621  1.00  0.00     0.173 A 
ATOM     85  F   UNL A   1      45.555  29.524  34.487  1.00  0.00    -0.203 F 
ATOM     86  C   UNL A   1      46.076  27.998  36.203  1.00  0.00     0.198 A 
ATOM     87  C   UNL A   1      44.313  26.889  37.399  1.00  0.00     0.198 A 
ATOM     88  F   UNL A   1      42.066  27.310  36.841  1.00  0.00    -0.203 F 
ATOM     89  F   UNL A   1      47.383  28.195  35.982  1.00  0.00    -0.200 F 
ATOM     90  C   UNL A   1      45.665  27.109  37.186  1.00  0.00     0.200 A 
ATOM     91  F   UNL A   1      43.916  26.034  38.352  1.00  0.00    -0.200 F 
ATOM     92  F   UNL A   1      46.576  26.456  37.922  1.00  0.00    -0.200 F 
ENDBRANCH  59  82
ENDBRANCH  33  34
ENDBRANCH  26  28
ENDBRANCH  25  26
ENDBRANCH  24  25
ENDBRANCH  23  24
ENDBRANCH  22  23
ENDBRANCH  21  22
ENDBRANCH   1  21
TORSDOF 22
ENDMDL
MODEL 2
REMARK VINA RESULT:      -8.6      3.114      8.275
REMARK SMILES C=CCN(CC(=O)OCCOCCOCCOC(=O)c1ccc(-c2c3nc(c(-c4c(F)c(F)c(F)c(F)c4F)c4ccc([nH]4)c(-c4c(F)c(F)c(F)c(F)c4F)c4nc(c(-c5c(F)c(F)c(F)c(F)c5F)c5ccc2[nH]5)C=C4)C=C3)cc1)C(=O)C1C[NH2+]C1
REMARK SMILES IDX 12 1 11 2 10 3 9 4 8 5 6 6 7 7 5 8 4 9 3 10 2 11 1 12 83 13
REMARK SMILES IDX 84 14 85 15 86 16 88 17 87 18 13 21 14 22 15 23 16 24 17 25
REMARK SMILES IDX 18 26 19 27 20 28 21 29 82 30 22 31 81 32 23 33 24 34 25 35
REMARK SMILES IDX 75 36 26 37 80 38 74 39 76 40 27 41 79 42 73 43 72 44 28 46
REMARK SMILES IDX 60 47 40 48 59 49 41 50 44 51 58 52 77 53 42 54 43 55 57 57
REMARK SMILES IDX 78 58 45 59 29 60 30 61 38 62 31 63 32 64 36 65 39 66 33 67
REMARK SMILES IDX 34 68 37 69 35 70 61 71 62 72 70 73 63 74 64 75 68 76 71 77
REMARK SMILES IDX 65 78 66 79 69 80 67 81 46 82 47 83 55 84 48 85 49 86 53 87
REMARK SMILES IDX 56 88 50 89 51 90 54 91 52 92
REMARK H PARENT 87 19 87 20 76 45 44 56
REMARK Flexibility Score: inf
ROOT
ATOM      1  C   UNL A   1      40.435  20.034  26.045  1.00  0.00     0.188 C 
ENDROOT
BRANCH   1   2
ATOM      2  O   UNL A   1      39.252  20.829  26.014  1.00  0.00    -0.376 OA
BRANCH   2   3
ATOM      3  C   UNL A   1      38.269  20.485  25.038  1.00  0.00     0.202 C 
BRANCH   3   4
ATOM      4  C   UNL A   1      37.230  21.581  24.798  1.00  0.00     0.261 C 
BRANCH   4   5
ATOM      5  O   UNL A   1      35.989  21.271  25.468  1.00  0.00    -0.462 OA
BRANCH   5   6
ATOM      6  C   UNL A   1      34.851  21.507  24.763  1.00  0.00     0.325 C 
ATOM      7  O   UNL A   1      33.764  20.989  24.996  1.00  0.00    -0.250 OA
BRANCH   6   8
ATOM      8  C   UNL A   1      35.019  22.579  23.677  1.00  0.00     0.242 C 
BRANCH   8   9
ATOM      9  N   UNL A   1      34.284  23.840  23.840  1.00  0.00    -0.327 N 
BRANCH   9  10
ATOM     10  C   UNL A   1      33.311  24.183  22.811  1.00  0.00     0.147 C 
BRANCH  10  11
ATOM     11  C   UNL A   1      32.170  23.210  22.934  1.00  0.00    -0.014 C 
ATOM     12  C   UNL A   1      30.960  23.532  23.414  1.00  0.00     0.006 C 
ENDBRANCH  10  11
ENDBRANCH   9  10
BRANCH   9  13
ATOM     13  C   UNL A   1      34.404  24.716  24.924  1.00  0.00     0.237 C 
ATOM     14  O   UNL A   1      35.327  24.587  25.739  1.00  0.00    -0.274 OA
BRANCH  13  15
ATOM     15  C   UNL A   1      33.374  25.848  25.073  1.00  0.00     0.188 C 
ATOM     16  C   UNL A   1      32.281  25.639  26.152  1.00  0.00     0.280 C 
ATOM     17  C   UNL A   1      33.734  27.094  25.906  1.00  0.00     0.280 C 
ATOM     18  N   UNL A   1      32.385  27.069  26.503  1.00  0.00    -0.345 N 
ATOM     19  H   UNL A   1      32.365  27.257  27.505  1.00  0.00     0.346 HD
ATOM     20  H   UNL A   1      31.670  27.733  26.208  1.00  0.00     0.346 HD
ENDBRANCH  13  15
ENDBRANCH   9  13
ENDBRANCH   8   9
ENDBRANCH   6   8
ENDBRANCH   5   6
ENDBRANCH   4   5
ENDBRANCH   3   4
ENDBRANCH   2   3
ENDBRANCH   1   2
BRANCH   1  21
ATOM     21  C   UNL A   1      41.333  20.196  27.282  1.00  0.00     0.188 C 
BRANCH  21  22
ATOM     22  O   UNL A   1      42.333  21.206  27.186  1.00  0.00    -0.376 OA
BRANCH  22  23
ATOM     23  C   UNL A   1      41.924  22.535  27.502  1.00  0.00     0.202 C 
BRANCH  23  24
ATOM     24  C   UNL A   1      41.870  23.455  26.286  1.00  0.00     0.261 C 
BRANCH  24  25
ATOM     25  O   UNL A   1      40.720  24.320  26.379  1.00  0.00    -0.460 OA
BRANCH  25  26
ATOM     26  C   UNL A   1      40.974  25.589  25.996  1.00  0.00     0.338 C 
ATOM     27  O   UNL A   1      41.592  25.938  25.000  1.00  0.00    -0.246 OA
BRANCH  26  28
ATOM     28  C   UNL A   1      40.396  26.555  26.953  1.00  0.00     0.060 A 
ATOM     29  C   UNL A   1      40.714  27.914  26.908  1.00  0.00     0.016 A 
ATOM     30  C   UNL A   1      39.644  26.056  28.015  1.00  0.00     0.016 A 
ATOM     31  C   UNL A   1      40.409  28.742  27.996  1.00  0.00     0.010 A 
ATOM     32  C   UNL A   1      39.279  26.898  29.066  1.00  0.00     0.010 A 
ATOM     33  C   UNL A   1      39.733  28.229  29.114  1.00  0.00    -0.014 A 
BRANCH  33  34
ATOM     34  C   UNL A   1      39.646  28.972  30.408  1.00  0.00     0.031 A 
ATOM     35  C   UNL A   1      38.580  30.033  30.562  1.00  0.00     0.074 A 
ATOM     36  C   UNL A   1      40.457  28.731  31.455  1.00  0.00     0.049 A 
ATOM     37  N   UNL A   1      38.505  31.028  31.412  1.00  0.00    -0.248 NA
ATOM     38  C   UNL A   1      37.459  29.977  29.609  1.00  0.00     0.031 C 
ATOM     39  C   UNL A   1      41.470  27.683  31.533  1.00  0.00     0.029 A 
ATOM     40  N   UNL A   1      40.547  29.372  32.669  1.00  0.00    -0.354 N 
ATOM     41  C   UNL A   1      37.393  31.769  31.027  1.00  0.00     0.074 A 
ATOM     42  C   UNL A   1      36.806  31.095  29.889  1.00  0.00     0.031 C 
ATOM     43  C   UNL A   1      42.053  27.726  32.743  1.00  0.00     0.029 A 
ATOM     44  C   UNL A   1      41.525  28.866  33.489  1.00  0.00     0.049 A 
ATOM     45  H   UNL A   1      39.964  30.123  32.926  1.00  0.00     0.167 HD
ATOM     46  C   UNL A   1      36.918  32.918  31.564  1.00  0.00     0.037 A 
ATOM     47  C   UNL A   1      41.979  29.299  34.682  1.00  0.00     0.037 A 
ATOM     48  C   UNL A   1      37.432  33.530  32.761  1.00  0.00     0.049 A 
ATOM     49  C   UNL A   1      41.426  30.565  35.282  1.00  0.00     0.074 A 
ATOM     50  C   UNL A   1      37.034  34.705  33.374  1.00  0.00     0.029 A 
ATOM     51  N   UNL A   1      38.427  32.981  33.554  1.00  0.00    -0.354 N 
ATOM     52  N   UNL A   1      40.489  31.360  34.825  1.00  0.00    -0.248 NA
ATOM     53  C   UNL A   1      42.021  31.012  36.550  1.00  0.00     0.031 C 
ATOM     54  C   UNL A   1      37.795  34.871  34.538  1.00  0.00     0.029 A 
ATOM     55  C   UNL A   1      38.645  33.784  34.660  1.00  0.00     0.049 A 
ATOM     56  H   UNL A   1      38.909  32.145  33.358  1.00  0.00     0.167 HD
ATOM     57  C   UNL A   1      40.383  32.395  35.744  1.00  0.00     0.074 A 
ATOM     58  C   UNL A   1      41.331  32.116  36.802  1.00  0.00     0.031 C 
ATOM     59  C   UNL A   1      39.584  33.489  35.709  1.00  0.00     0.037 A 
BRANCH  46  60
ATOM     60  C   UNL A   1      35.809  33.619  30.837  1.00  0.00     0.064 A 
ATOM     61  C   UNL A   1      34.599  33.951  31.457  1.00  0.00     0.173 A 
ATOM     62  C   UNL A   1      35.988  33.997  29.495  1.00  0.00     0.173 A 
ATOM     63  F   UNL A   1      34.375  33.597  32.731  1.00  0.00    -0.203 F 
ATOM     64  C   UNL A   1      33.597  34.620  30.757  1.00  0.00     0.198 A 
ATOM     65  C   UNL A   1      34.995  34.688  28.806  1.00  0.00     0.198 A 
ATOM     66  F   UNL A   1      37.132  33.705  28.857  1.00  0.00    -0.203 F 
ATOM     67  F   UNL A   1      32.431  34.894  31.357  1.00  0.00    -0.200 F 
ATOM     68  C   UNL A   1      33.799  34.994  29.436  1.00  0.00     0.200 A 
ATOM     69  F   UNL A   1      35.199  35.059  27.534  1.00  0.00    -0.200 F 
ATOM     70  F   UNL A   1      32.838  35.646  28.767  1.00  0.00    -0.200 F 
ENDBRANCH  46  60
BRANCH  47  71
ATOM     71  C   UNL A   1      43.059  28.552  35.378  1.00  0.00     0.064 A 
ATOM     72  C   UNL A   1      42.752  27.569  36.329  1.00  0.00     0.173 A 
ATOM     73  C   UNL A   1      44.413  28.809  35.117  1.00  0.00     0.173 A 
ATOM     74  F   UNL A   1      41.472  27.313  36.637  1.00  0.00    -0.203 F 
ATOM     75  C   UNL A   1      43.759  26.875  36.996  1.00  0.00     0.198 A 
ATOM     76  C   UNL A   1      45.418  28.093  35.763  1.00  0.00     0.198 A 
ATOM     77  F   UNL A   1      44.757  29.744  34.221  1.00  0.00    -0.203 F 
ATOM     78  F   UNL A   1      43.440  25.968  37.929  1.00  0.00    -0.200 F 
ATOM     79  C   UNL A   1      45.090  27.132  36.706  1.00  0.00     0.200 A 
ATOM     80  F   UNL A   1      46.703  28.337  35.471  1.00  0.00    -0.200 F 
ATOM     81  F   UNL A   1      46.059  26.456  37.340  1.00  0.00    -0.200 F 
ENDBRANCH  47  71
BRANCH  59  82
ATOM     82  C   UNL A   1      39.679  34.450  36.855  1.00  0.00     0.064 A 
ATOM     83  C   UNL A   1      40.565  35.536  36.826  1.00  0.00     0.173 A 
ATOM     84  C   UNL A   1      38.855  34.300  37.980  1.00  0.00     0.173 A 
ATOM     85  F   UNL A   1      41.382  35.712  35.777  1.00  0.00    -0.203 F 
ATOM     86  C   UNL A   1      40.639  36.427  37.894  1.00  0.00     0.198 A 
ATOM     87  C   UNL A   1      38.917  35.204  39.037  1.00  0.00     0.198 A 
ATOM     88  F   UNL A   1      37.988  33.279  38.051  1.00  0.00    -0.203 F 
ATOM     89  F   UNL A   1      41.520  37.436  37.863  1.00  0.00    -0.200 F 
ATOM     90  C   UNL A   1      39.811  36.262  38.995  1.00  0.00     0.200 A 
ATOM     91  F   UNL A   1      38.113  35.048  40.098  1.00  0.00    -0.200 F 
ATOM     92  F   UNL A   1      39.884  37.120  40.023  1.00  0.00    -0.200 F 
ENDBRANCH  59  82
ENDBRANCH  33  34
ENDBRANCH  26  28
ENDBRANCH  25  26
ENDBRANCH  24  25
ENDBRANCH  23  24
ENDBRANCH  22  23
ENDBRANCH  21  22
ENDBRANCH   1  21
TORSDOF 22
ENDMDL
MODEL 3
REMARK VINA RESULT:      -8.6      3.391      8.479
REMARK SMILES C=CCN(CC(=O)OCCOCCOCCOC(=O)c1ccc(-c2c3nc(c(-c4c(F)c(F)c(F)c(F)c4F)c4ccc([nH]4)c(-c4c(F)c(F)c(F)c(F)c4F)c4nc(c(-c5c(F)c(F)c(F)c(F)c5F)c5ccc2[nH]5)C=C4)C=C3)cc1)C(=O)C1C[NH2+]C1
REMARK SMILES IDX 12 1 11 2 10 3 9 4 8 5 6 6 7 7 5 8 4 9 3 10 2 11 1 12 83 13
REMARK SMILES IDX 84 14 85 15 86 16 88 17 87 18 13 21 14 22 15 23 16 24 17 25
REMARK SMILES IDX 18 26 19 27 20 28 21 29 82 30 22 31 81 32 23 33 24 34 25 35
REMARK SMILES IDX 75 36 26 37 80 38 74 39 76 40 27 41 79 42 73 43 72 44 28 46
REMARK SMILES IDX 60 47 40 48 59 49 41 50 44 51 58 52 77 53 42 54 43 55 57 57
REMARK SMILES IDX 78 58 45 59 29 60 30 61 38 62 31 63 32 64 36 65 39 66 33 67
REMARK SMILES IDX 34 68 37 69 35 70 61 71 62 72 70 73 63 74 64 75 68 76 71 77
REMARK SMILES IDX 65 78 66 79 69 80 67 81 46 82 47 83 55 84 48 85 49 86 53 87
REMARK SMILES IDX 56 88 50 89 51 90 54 91 52 92
REMARK H PARENT 87 19 87 20 76 45 44 56
REMARK Flexibility Score: inf
ROOT
ATOM      1  C   UNL A   1      39.580  23.004  27.075  1.00  0.00     0.188 C 
ENDROOT
BRANCH   1   2
ATOM      2  O   UNL A   1      38.661  22.707  26.026  1.00  0.00    -0.376 OA
BRANCH   2   3
ATOM      3  C   UNL A   1      38.570  21.343  25.615  1.00  0.00     0.202 C 
BRANCH   3   4
ATOM      4  C   UNL A   1      37.452  21.078  24.606  1.00  0.00     0.261 C 
BRANCH   4   5
ATOM      5  O   UNL A   1      36.330  20.425  25.237  1.00  0.00    -0.462 OA
BRANCH   5   6
ATOM      6  C   UNL A   1      35.296  21.228  25.603  1.00  0.00     0.325 C 
ATOM      7  O   UNL A   1      35.277  21.925  26.613  1.00  0.00    -0.250 OA
BRANCH   6   8
ATOM      8  C   UNL A   1      34.160  21.268  24.572  1.00  0.00     0.242 C 
BRANCH   8   9
ATOM      9  N   UNL A   1      32.799  20.973  25.040  1.00  0.00    -0.327 N 
BRANCH   9  10
ATOM     10  C   UNL A   1      32.459  19.575  25.264  1.00  0.00     0.147 C 
BRANCH  10  11
ATOM     11  C   UNL A   1      32.903  18.807  24.049  1.00  0.00    -0.014 C 
ATOM     12  C   UNL A   1      32.290  18.870  22.858  1.00  0.00     0.006 C 
ENDBRANCH  10  11
ENDBRANCH   9  10
BRANCH   9  13
ATOM     13  C   UNL A   1      31.819  21.926  25.335  1.00  0.00     0.237 C 
ATOM     14  O   UNL A   1      30.724  21.580  25.800  1.00  0.00    -0.274 OA
BRANCH  13  15
ATOM     15  C   UNL A   1      32.134  23.410  25.082  1.00  0.00     0.188 C 
ATOM     16  C   UNL A   1      30.927  24.381  25.123  1.00  0.00     0.280 C 
ATOM     17  C   UNL A   1      32.668  24.277  26.240  1.00  0.00     0.280 C 
ATOM     18  N   UNL A   1      31.775  25.372  25.812  1.00  0.00    -0.345 N 
ATOM     19  H   UNL A   1      31.312  25.859  26.579  1.00  0.00     0.346 HD
ATOM     20  H   UNL A   1      32.143  26.183  25.315  1.00  0.00     0.346 HD
ENDBRANCH  13  15
ENDBRANCH   9  13
ENDBRANCH   8   9
ENDBRANCH   6   8
ENDBRANCH   5   6
ENDBRANCH   4   5
ENDBRANCH   3   4
ENDBRANCH   2   3
ENDBRANCH   1   2
BRANCH   1  21
ATOM     21  C   UNL A   1      40.747  22.021  27.257  1.00  0.00     0.188 C 
BRANCH  21  22
ATOM     22  O   UNL A   1      41.924  22.568  27.843  1.00  0.00    -0.376 OA
BRANCH  22  23
ATOM     23  C   UNL A   1      43.166  22.150  27.281  1.00  0.00     0.202 C 
BRANCH  23  24
ATOM     24  C   UNL A   1      43.137  22.051  25.759  1.00  0.00     0.261 C 
BRANCH  24  25
ATOM     25  O   UNL A   1      42.502  23.220  25.206  1.00  0.00    -0.460 OA
BRANCH  25  26
ATOM     26  C   UNL A   1      43.353  24.249  25.009  1.00  0.00     0.338 C 
ATOM     27  O   UNL A   1      44.422  24.205  24.417  1.00  0.00    -0.246 OA
BRANCH  26  28
ATOM     28  C   UNL A   1      42.829  25.491  25.614  1.00  0.00     0.060 A 
ATOM     29  C   UNL A   1      43.646  26.602  25.836  1.00  0.00     0.016 A 
ATOM     30  C   UNL A   1      41.528  25.479  26.114  1.00  0.00     0.016 A 
ATOM     31  C   UNL A   1      43.213  27.633  26.681  1.00  0.00     0.010 A 
ATOM     32  C   UNL A   1      41.073  26.540  26.898  1.00  0.00     0.010 A 
ATOM     33  C   UNL A   1      41.938  27.587  27.265  1.00  0.00    -0.014 A 
BRANCH  33  34
ATOM     34  C   UNL A   1      41.540  28.486  28.391  1.00  0.00     0.031 A 
ATOM     35  C   UNL A   1      42.468  28.611  29.578  1.00  0.00     0.074 A 
ATOM     36  C   UNL A   1      40.403  29.208  28.394  1.00  0.00     0.049 A 
ATOM     37  N   UNL A   1      42.219  29.031  30.794  1.00  0.00    -0.248 NA
ATOM     38  C   UNL A   1      43.860  28.182  29.367  1.00  0.00     0.031 C 
ATOM     39  C   UNL A   1      39.440  29.299  27.301  1.00  0.00     0.029 A 
ATOM     40  N   UNL A   1      39.871  30.013  29.375  1.00  0.00    -0.354 N 
ATOM     41  C   UNL A   1      43.389  28.813  31.514  1.00  0.00     0.074 A 
ATOM     42  C   UNL A   1      44.357  28.256  30.593  1.00  0.00     0.031 C 
ATOM     43  C   UNL A   1      38.454  30.140  27.655  1.00  0.00     0.029 A 
ATOM     44  C   UNL A   1      38.664  30.573  29.034  1.00  0.00     0.049 A 
ATOM     45  H   UNL A   1      40.314  30.172  30.240  1.00  0.00     0.167 HD
ATOM     46  C   UNL A   1      43.627  29.042  32.828  1.00  0.00     0.037 A 
ATOM     47  C   UNL A   1      37.802  31.307  29.765  1.00  0.00     0.037 A 
ATOM     48  C   UNL A   1      42.706  29.697  33.718  1.00  0.00     0.049 A 
ATOM     49  C   UNL A   1      38.088  31.576  31.220  1.00  0.00     0.074 A 
ATOM     50  C   UNL A   1      42.843  29.957  35.071  1.00  0.00     0.029 A 
ATOM     51  N   UNL A   1      41.494  30.242  33.327  1.00  0.00    -0.354 N 
ATOM     52  N   UNL A   1      39.121  31.218  31.942  1.00  0.00    -0.248 NA
ATOM     53  C   UNL A   1      37.067  32.324  31.968  1.00  0.00     0.031 C 
ATOM     54  C   UNL A   1      41.708  30.655  35.500  1.00  0.00     0.029 A 
ATOM     55  C   UNL A   1      40.880  30.853  34.407  1.00  0.00     0.049 A 
ATOM     56  H   UNL A   1      41.123  30.201  32.415  1.00  0.00     0.167 HD
ATOM     57  C   UNL A   1      38.876  31.694  33.223  1.00  0.00     0.074 A 
ATOM     58  C   UNL A   1      37.609  32.392  33.176  1.00  0.00     0.031 C 
ATOM     59  C   UNL A   1      39.625  31.552  34.343  1.00  0.00     0.037 A 
BRANCH  46  60
ATOM     60  C   UNL A   1      44.919  28.539  33.398  1.00  0.00     0.064 A 
ATOM     61  C   UNL A   1      46.067  29.338  33.470  1.00  0.00     0.173 A 
ATOM     62  C   UNL A   1      44.989  27.236  33.917  1.00  0.00     0.173 A 
ATOM     63  F   UNL A   1      46.054  30.583  32.972  1.00  0.00    -0.203 F 
ATOM     64  C   UNL A   1      47.247  28.845  34.024  1.00  0.00     0.198 A 
ATOM     65  C   UNL A   1      46.162  26.755  34.494  1.00  0.00     0.198 A 
ATOM     66  F   UNL A   1      43.915  26.432  33.876  1.00  0.00    -0.203 F 
ATOM     67  F   UNL A   1      48.345  29.611  34.048  1.00  0.00    -0.200 F 
ATOM     68  C   UNL A   1      47.291  27.558  34.542  1.00  0.00     0.200 A 
ATOM     69  F   UNL A   1      46.197  25.516  35.005  1.00  0.00    -0.200 F 
ATOM     70  F   UNL A   1      48.423  27.089  35.084  1.00  0.00    -0.200 F 
ENDBRANCH  46  60
BRANCH  47  71
ATOM     71  C   UNL A   1      36.548  31.809  29.145  1.00  0.00     0.064 A 
ATOM     72  C   UNL A   1      35.489  30.934  28.862  1.00  0.00     0.173 A 
ATOM     73  C   UNL A   1      36.384  33.162  28.815  1.00  0.00     0.173 A 
ATOM     74  F   UNL A   1      35.613  29.626  29.129  1.00  0.00    -0.203 F 
ATOM     75  C   UNL A   1      34.317  31.395  28.267  1.00  0.00     0.198 A 
ATOM     76  C   UNL A   1      35.200  33.625  28.248  1.00  0.00     0.198 A 
ATOM     77  F   UNL A   1      37.371  34.036  29.060  1.00  0.00    -0.203 F 
ATOM     78  F   UNL A   1      33.335  30.532  27.971  1.00  0.00    -0.200 F 
ATOM     79  C   UNL A   1      34.170  32.740  27.968  1.00  0.00     0.200 A 
ATOM     80  F   UNL A   1      35.058  34.929  27.971  1.00  0.00    -0.200 F 
ATOM     81  F   UNL A   1      33.037  33.185  27.406  1.00  0.00    -0.200 F 
ENDBRANCH  47  71
BRANCH  59  82
ATOM     82  C   UNL A   1      39.110  32.184  35.601  1.00  0.00     0.064 A 
ATOM     83  C   UNL A   1      39.378  33.525  35.907  1.00  0.00     0.173 A 
ATOM     84  C   UNL A   1      38.315  31.450  36.493  1.00  0.00     0.173 A 
ATOM     85  F   UNL A   1      40.145  34.263  35.091  1.00  0.00    -0.203 F 
ATOM     86  C   UNL A   1      38.887  34.104  37.075  1.00  0.00     0.198 A 
ATOM     87  C   UNL A   1      37.808  32.036  37.649  1.00  0.00     0.198 A 
ATOM     88  F   UNL A   1      38.026  30.164  36.240  1.00  0.00    -0.203 F 
ATOM     89  F   UNL A   1      39.187  35.376  37.368  1.00  0.00    -0.200 F 
ATOM     90  C   UNL A   1      38.099  33.360  37.942  1.00  0.00     0.200 A 
ATOM     91  F   UNL A   1      37.042  31.319  38.483  1.00  0.00    -0.200 F 
ATOM     92  F   UNL A   1      37.628  33.918  39.066  1.00  0.00    -0.200 F 
ENDBRANCH  59  82
ENDBRANCH  33  34
ENDBRANCH  26  28
ENDBRANCH  25  26
ENDBRANCH  24  25
ENDBRANCH  23  24
ENDBRANCH  22  23
ENDBRANCH  21  22
ENDBRANCH   1  21
TORSDOF 22
ENDMDL
