MODEL 1
REMARK VINA RESULT:     -11.6      0.000      0.000
REMARK SMILES O=C(C[NH+]1CCN(C(=O)c2ccc(F)c(F)c2F)CC1)OCCOCCOCCOC(=O)c1ccc(-c2c3nc(c(-c4c(F)c(F)c(F)c(F)c4F)c4ccc([nH]4)c(-c4c(F)c(F)c(F)c(F)c4F)c4nc(c(-c5c(F)c(F)c(F)c(F)c5F)c5ccc2[nH]5)C=C4)C=C3)cc1
REMARK SMILES IDX 25 1 24 2 23 3 22 4 21 5 2 6 1 7 3 8 4 9 5 10 20 11 6 13
REMARK SMILES IDX 19 14 7 15 8 16 9 17 10 18 11 19 17 20 12 21 15 22 18 23
REMARK SMILES IDX 13 24 16 25 14 26 26 27 27 28 28 29 29 30 30 31 31 32 32 33
REMARK SMILES IDX 33 34 34 35 95 36 35 37 94 38 36 39 37 40 38 41 88 42 39 43
REMARK SMILES IDX 93 44 87 45 89 46 40 47 92 48 86 49 85 50 41 52 73 53 53 54
REMARK SMILES IDX 72 55 54 56 57 57 71 58 90 59 55 60 56 61 70 63 91 64 58 65
REMARK SMILES IDX 42 66 43 67 51 68 44 69 45 70 49 71 52 72 46 73 47 74 50 75
REMARK SMILES IDX 48 76 74 77 75 78 83 79 76 80 77 81 81 82 84 83 78 84 79 85
REMARK SMILES IDX 82 86 80 87 59 88 60 89 68 90 61 91 62 92 66 93 69 94 63 95
REMARK SMILES IDX 64 96 67 97 65 98
REMARK H PARENT 4 12 89 51 57 62
REMARK Flexibility Score: inf
ROOT
ATOM      1  C   UNL A   1      34.144  35.220  28.408  1.00  0.00     0.188 C 
ENDROOT
BRANCH   1   2
ATOM      2  O   UNL A   1      35.006  34.172  28.000  1.00  0.00    -0.376 OA
BRANCH   2   3
ATOM      3  C   UNL A   1      34.722  32.879  28.497  1.00  0.00     0.202 C 
BRANCH   3   4
ATOM      4  C   UNL A   1      35.396  31.843  27.607  1.00  0.00     0.261 C 
BRANCH   4   5
ATOM      5  O   UNL A   1      35.021  30.475  27.880  1.00  0.00    -0.459 OA
BRANCH   5   6
ATOM      6  C   UNL A   1      33.902  29.851  27.468  1.00  0.00     0.361 C 
ATOM      7  O   UNL A   1      32.804  30.371  27.663  1.00  0.00    -0.245 OA
BRANCH   6   8
ATOM      8  C   UNL A   1      33.995  28.505  26.754  1.00  0.00     0.386 C 
BRANCH   8   9
ATOM      9  N   UNL A   1      34.107  28.616  25.285  1.00  0.00    -0.323 N 
ATOM     10  C   UNL A   1      34.174  27.252  24.685  1.00  0.00     0.284 C 
ATOM     11  C   UNL A   1      32.930  29.319  24.718  1.00  0.00     0.284 C 
ATOM     12  H   UNL A   1      34.953  29.146  25.069  1.00  0.00     0.348 HD
ATOM     13  C   UNL A   1      32.852  26.435  24.726  1.00  0.00     0.181 C 
ATOM     14  C   UNL A   1      31.624  28.562  24.988  1.00  0.00     0.181 C 
ATOM     15  N   UNL A   1      31.703  27.255  24.329  1.00  0.00    -0.327 N 
ATOM     16  C   UNL A   1      30.816  26.805  23.364  1.00  0.00     0.257 C 
ATOM     17  O   UNL A   1      30.854  25.694  22.848  1.00  0.00    -0.269 OA
BRANCH  16  18
ATOM     18  C   UNL A   1      29.803  27.767  22.904  1.00  0.00     0.079 A 
ATOM     19  C   UNL A   1      30.210  28.891  22.165  1.00  0.00     0.020 A 
ATOM     20  C   UNL A   1      28.488  27.636  23.339  1.00  0.00     0.174 A 
ATOM     21  C   UNL A   1      29.297  29.916  21.920  1.00  0.00     0.043 A 
ATOM     22  C   UNL A   1      27.579  28.648  23.068  1.00  0.00     0.195 A 
ATOM     23  F   UNL A   1      28.110  26.582  24.077  1.00  0.00    -0.203 F 
ATOM     24  C   UNL A   1      27.987  29.787  22.377  1.00  0.00     0.161 A 
ATOM     25  F   UNL A   1      26.316  28.553  23.510  1.00  0.00    -0.200 F 
ATOM     26  F   UNL A   1      27.125  30.789  22.164  1.00  0.00    -0.204 F 
ENDBRANCH  16  18
ENDBRANCH   8   9
ENDBRANCH   6   8
ENDBRANCH   5   6
ENDBRANCH   4   5
ENDBRANCH   3   4
ENDBRANCH   2   3
ENDBRANCH   1   2
BRANCH   1  27
ATOM     27  C   UNL A   1      33.434  34.905  29.732  1.00  0.00     0.188 C 
BRANCH  27  28
ATOM     28  O   UNL A   1      33.951  35.393  30.963  1.00  0.00    -0.376 OA
BRANCH  28  29
ATOM     29  C   UNL A   1      34.885  34.617  31.695  1.00  0.00     0.202 C 
BRANCH  29  30
ATOM     30  C   UNL A   1      34.314  33.470  32.538  1.00  0.00     0.261 C 
BRANCH  30  31
ATOM     31  O   UNL A   1      34.906  32.177  32.300  1.00  0.00    -0.460 OA
BRANCH  31  32
ATOM     32  C   UNL A   1      36.093  31.953  32.918  1.00  0.00     0.338 C 
ATOM     33  O   UNL A   1      36.414  32.299  34.042  1.00  0.00    -0.246 OA
BRANCH  32  34
ATOM     34  C   UNL A   1      36.976  31.102  32.085  1.00  0.00     0.060 A 
ATOM     35  C   UNL A   1      37.838  30.206  32.734  1.00  0.00     0.016 A 
ATOM     36  C   UNL A   1      37.064  31.276  30.702  1.00  0.00     0.016 A 
ATOM     37  C   UNL A   1      38.830  29.530  32.014  1.00  0.00     0.010 A 
ATOM     38  C   UNL A   1      38.070  30.611  29.985  1.00  0.00     0.010 A 
ATOM     39  C   UNL A   1      38.987  29.769  30.643  1.00  0.00    -0.014 A 
BRANCH  39  40
ATOM     40  C   UNL A   1      40.217  29.310  29.940  1.00  0.00     0.031 A 
ATOM     41  C   UNL A   1      41.362  30.276  29.776  1.00  0.00     0.074 A 
ATOM     42  C   UNL A   1      40.340  28.055  29.468  1.00  0.00     0.049 A 
ATOM     43  N   UNL A   1      42.493  30.128  29.132  1.00  0.00    -0.248 NA
ATOM     44  C   UNL A   1      41.211  31.586  30.430  1.00  0.00     0.031 C 
ATOM     45  C   UNL A   1      39.347  26.996  29.612  1.00  0.00     0.029 A 
ATOM     46  N   UNL A   1      41.363  27.466  28.761  1.00  0.00    -0.354 N 
ATOM     47  C   UNL A   1      43.183  31.321  29.300  1.00  0.00     0.074 A 
ATOM     48  C   UNL A   1      42.337  32.193  30.087  1.00  0.00     0.031 C 
ATOM     49  C   UNL A   1      39.803  25.887  29.001  1.00  0.00     0.029 A 
ATOM     50  C   UNL A   1      41.104  26.169  28.390  1.00  0.00     0.049 A 
ATOM     51  H   UNL A   1      42.204  27.930  28.541  1.00  0.00     0.167 HD
ATOM     52  C   UNL A   1      44.414  31.659  28.849  1.00  0.00     0.037 A 
ATOM     53  C   UNL A   1      41.818  25.315  27.628  1.00  0.00     0.037 A 
ATOM     54  C   UNL A   1      45.266  30.798  28.073  1.00  0.00     0.049 A 
ATOM     55  C   UNL A   1      43.146  25.749  27.053  1.00  0.00     0.074 A 
ATOM     56  C   UNL A   1      46.533  31.061  27.579  1.00  0.00     0.029 A 
ATOM     57  N   UNL A   1      44.941  29.512  27.674  1.00  0.00    -0.354 N 
ATOM     58  N   UNL A   1      43.786  26.881  27.211  1.00  0.00    -0.248 NA
ATOM     59  C   UNL A   1      43.846  24.786  26.187  1.00  0.00     0.031 C 
ATOM     60  C   UNL A   1      46.954  29.953  26.840  1.00  0.00     0.029 A 
ATOM     61  C   UNL A   1      45.973  28.978  26.919  1.00  0.00     0.049 A 
ATOM     62  H   UNL A   1      44.101  29.047  27.895  1.00  0.00     0.167 HD
ATOM     63  C   UNL A   1      44.970  26.757  26.493  1.00  0.00     0.074 A 
ATOM     64  C   UNL A   1      44.966  25.438  25.901  1.00  0.00     0.031 C 
ATOM     65  C   UNL A   1      45.970  27.659  26.342  1.00  0.00     0.037 A 
BRANCH  52  66
ATOM     66  C   UNL A   1      44.925  33.032  29.169  1.00  0.00     0.064 A 
ATOM     67  C   UNL A   1      45.645  33.262  30.352  1.00  0.00     0.173 A 
ATOM     68  C   UNL A   1      44.630  34.133  28.353  1.00  0.00     0.173 A 
ATOM     69  F   UNL A   1      45.945  32.242  31.169  1.00  0.00    -0.203 F 
ATOM     70  C   UNL A   1      46.033  34.549  30.715  1.00  0.00     0.198 A 
ATOM     71  C   UNL A   1      45.042  35.415  28.705  1.00  0.00     0.198 A 
ATOM     72  F   UNL A   1      43.954  33.961  27.206  1.00  0.00    -0.203 F 
ATOM     73  F   UNL A   1      46.687  34.750  31.867  1.00  0.00    -0.200 F 
ATOM     74  C   UNL A   1      45.733  35.623  29.891  1.00  0.00     0.200 A 
ATOM     75  F   UNL A   1      44.770  36.450  27.899  1.00  0.00    -0.200 F 
ATOM     76  F   UNL A   1      46.111  36.861  30.239  1.00  0.00    -0.200 F 
ENDBRANCH  52  66
BRANCH  53  77
ATOM     77  C   UNL A   1      41.286  23.956  27.344  1.00  0.00     0.064 A 
ATOM     78  C   UNL A   1      41.875  22.812  27.903  1.00  0.00     0.173 A 
ATOM     79  C   UNL A   1      40.168  23.776  26.518  1.00  0.00     0.173 A 
ATOM     80  F   UNL A   1      42.941  22.931  28.707  1.00  0.00    -0.203 F 
ATOM     81  C   UNL A   1      41.379  21.540  27.630  1.00  0.00     0.198 A 
ATOM     82  C   UNL A   1      39.655  22.503  26.267  1.00  0.00     0.198 A 
ATOM     83  F   UNL A   1      39.550  24.841  25.989  1.00  0.00    -0.203 F 
ATOM     84  F   UNL A   1      41.978  20.463  28.156  1.00  0.00    -0.200 F 
ATOM     85  C   UNL A   1      40.266  21.386  26.817  1.00  0.00     0.200 A 
ATOM     86  F   UNL A   1      38.560  22.364  25.509  1.00  0.00    -0.200 F 
ATOM     87  F   UNL A   1      39.777  20.163  26.572  1.00  0.00    -0.200 F 
ENDBRANCH  53  77
BRANCH  65  88
ATOM     88  C   UNL A   1      47.169  27.262  25.528  1.00  0.00     0.064 A 
ATOM     89  C   UNL A   1      48.255  26.612  26.135  1.00  0.00     0.173 A 
ATOM     90  C   UNL A   1      47.287  27.612  24.176  1.00  0.00     0.173 A 
ATOM     91  F   UNL A   1      48.198  26.265  27.430  1.00  0.00    -0.203 F 
ATOM     92  C   UNL A   1      49.423  26.347  25.423  1.00  0.00     0.198 A 
ATOM     93  C   UNL A   1      48.447  27.322  23.460  1.00  0.00     0.198 A 
ATOM     94  F   UNL A   1      46.273  28.226  23.547  1.00  0.00    -0.203 F 
ATOM     95  F   UNL A   1      50.462  25.764  26.036  1.00  0.00    -0.200 F 
ATOM     96  C   UNL A   1      49.517  26.701  24.087  1.00  0.00     0.200 A 
ATOM     97  F   UNL A   1      48.529  27.647  22.162  1.00  0.00    -0.200 F 
ATOM     98  F   UNL A   1      50.640  26.445  23.402  1.00  0.00    -0.200 F 
ENDBRANCH  65  88
ENDBRANCH  39  40
ENDBRANCH  32  34
ENDBRANCH  31  32
ENDBRANCH  30  31
ENDBRANCH  29  30
ENDBRANCH  28  29
ENDBRANCH  27  28
ENDBRANCH   1  27
TORSDOF 19
ENDMDL
MODEL 2
REMARK VINA RESULT:     -11.5      3.374      8.642
REMARK SMILES O=C(C[NH+]1CCN(C(=O)c2ccc(F)c(F)c2F)CC1)OCCOCCOCCOC(=O)c1ccc(-c2c3nc(c(-c4c(F)c(F)c(F)c(F)c4F)c4ccc([nH]4)c(-c4c(F)c(F)c(F)c(F)c4F)c4nc(c(-c5c(F)c(F)c(F)c(F)c5F)c5ccc2[nH]5)C=C4)C=C3)cc1
REMARK SMILES IDX 25 1 24 2 23 3 22 4 21 5 2 6 1 7 3 8 4 9 5 10 20 11 6 13
REMARK SMILES IDX 19 14 7 15 8 16 9 17 10 18 11 19 17 20 12 21 15 22 18 23
REMARK SMILES IDX 13 24 16 25 14 26 26 27 27 28 28 29 29 30 30 31 31 32 32 33
REMARK SMILES IDX 33 34 34 35 95 36 35 37 94 38 36 39 37 40 38 41 88 42 39 43
REMARK SMILES IDX 93 44 87 45 89 46 40 47 92 48 86 49 85 50 41 52 73 53 53 54
REMARK SMILES IDX 72 55 54 56 57 57 71 58 90 59 55 60 56 61 70 63 91 64 58 65
REMARK SMILES IDX 42 66 43 67 51 68 44 69 45 70 49 71 52 72 46 73 47 74 50 75
REMARK SMILES IDX 48 76 74 77 75 78 83 79 76 80 77 81 81 82 84 83 78 84 79 85
REMARK SMILES IDX 82 86 80 87 59 88 60 89 68 90 61 91 62 92 66 93 69 94 63 95
REMARK SMILES IDX 64 96 67 97 65 98
REMARK H PARENT 4 12 89 51 57 62
REMARK Flexibility Score: inf
ROOT
ATOM      1  C   UNL A   1      33.127  20.605  24.543  1.00  0.00     0.188 C 
ENDROOT
BRANCH   1   2
ATOM      2  O   UNL A   1      32.722  21.907  24.158  1.00  0.00    -0.376 OA
BRANCH   2   3
ATOM      3  C   UNL A   1      32.553  22.141  22.773  1.00  0.00     0.202 C 
BRANCH   3   4
ATOM      4  C   UNL A   1      33.234  23.452  22.402  1.00  0.00     0.261 C 
BRANCH   4   5
ATOM      5  O   UNL A   1      32.528  24.244  21.421  1.00  0.00    -0.459 OA
BRANCH   5   6
ATOM      6  C   UNL A   1      32.907  25.438  20.930  1.00  0.00     0.361 C 
ATOM      7  O   UNL A   1      32.909  25.627  19.714  1.00  0.00    -0.245 OA
BRANCH   6   8
ATOM      8  C   UNL A   1      33.326  26.558  21.879  1.00  0.00     0.386 C 
BRANCH   8   9
ATOM      9  N   UNL A   1      32.221  27.463  22.258  1.00  0.00    -0.323 N 
ATOM     10  C   UNL A   1      31.234  26.721  23.097  1.00  0.00     0.284 C 
ATOM     11  C   UNL A   1      32.728  28.614  23.042  1.00  0.00     0.284 C 
ATOM     12  H   UNL A   1      31.781  27.804  21.403  1.00  0.00     0.348 HD
ATOM     13  C   UNL A   1      31.709  26.366  24.534  1.00  0.00     0.181 C 
ATOM     14  C   UNL A   1      33.384  28.172  24.356  1.00  0.00     0.181 C 
ATOM     15  N   UNL A   1      32.369  27.506  25.178  1.00  0.00    -0.327 N 
ATOM     16  C   UNL A   1      31.991  27.915  26.447  1.00  0.00     0.257 C 
ATOM     17  O   UNL A   1      31.176  27.330  27.152  1.00  0.00    -0.269 OA
BRANCH  16  18
ATOM     18  C   UNL A   1      32.581  29.171  26.934  1.00  0.00     0.079 A 
ATOM     19  C   UNL A   1      31.824  30.354  26.870  1.00  0.00     0.020 A 
ATOM     20  C   UNL A   1      33.923  29.199  27.301  1.00  0.00     0.174 A 
ATOM     21  C   UNL A   1      32.446  31.577  27.116  1.00  0.00     0.043 A 
ATOM     22  C   UNL A   1      34.527  30.419  27.571  1.00  0.00     0.195 A 
ATOM     23  F   UNL A   1      34.653  28.075  27.324  1.00  0.00    -0.203 F 
ATOM     24  C   UNL A   1      33.796  31.600  27.463  1.00  0.00     0.161 A 
ATOM     25  F   UNL A   1      35.828  30.466  27.892  1.00  0.00    -0.200 F 
ATOM     26  F   UNL A   1      34.392  32.780  27.668  1.00  0.00    -0.204 F 
ENDBRANCH  16  18
ENDBRANCH   8   9
ENDBRANCH   6   8
ENDBRANCH   5   6
ENDBRANCH   4   5
ENDBRANCH   3   4
ENDBRANCH   2   3
ENDBRANCH   1   2
BRANCH   1  27
ATOM     27  C   UNL A   1      34.596  20.563  24.988  1.00  0.00     0.188 C 
BRANCH  27  28
ATOM     28  O   UNL A   1      35.363  19.376  24.835  1.00  0.00    -0.376 OA
BRANCH  28  29
ATOM     29  C   UNL A   1      36.779  19.440  24.875  1.00  0.00     0.202 C 
BRANCH  29  30
ATOM     30  C   UNL A   1      37.412  20.812  24.617  1.00  0.00     0.261 C 
BRANCH  30  31
ATOM     31  O   UNL A   1      37.822  21.534  25.796  1.00  0.00    -0.460 OA
BRANCH  31  32
ATOM     32  C   UNL A   1      39.133  21.420  26.126  1.00  0.00     0.338 C 
ATOM     33  O   UNL A   1      39.884  20.500  25.851  1.00  0.00    -0.246 OA
BRANCH  32  34
ATOM     34  C   UNL A   1      39.622  22.645  26.802  1.00  0.00     0.060 A 
ATOM     35  C   UNL A   1      39.059  23.875  26.435  1.00  0.00     0.016 A 
ATOM     36  C   UNL A   1      40.711  22.610  27.677  1.00  0.00     0.016 A 
ATOM     37  C   UNL A   1      39.619  25.075  26.890  1.00  0.00     0.010 A 
ATOM     38  C   UNL A   1      41.282  23.814  28.117  1.00  0.00     0.010 A 
ATOM     39  C   UNL A   1      40.768  25.053  27.691  1.00  0.00    -0.014 A 
BRANCH  39  40
ATOM     40  C   UNL A   1      41.547  26.302  27.915  1.00  0.00     0.031 A 
ATOM     41  C   UNL A   1      40.893  27.440  28.656  1.00  0.00     0.074 A 
ATOM     42  C   UNL A   1      42.818  26.434  27.493  1.00  0.00     0.049 A 
ATOM     43  N   UNL A   1      41.343  28.647  28.896  1.00  0.00    -0.248 NA
ATOM     44  C   UNL A   1      39.552  27.180  29.203  1.00  0.00     0.031 C 
ATOM     45  C   UNL A   1      43.599  25.398  26.825  1.00  0.00     0.029 A 
ATOM     46  N   UNL A   1      43.673  27.510  27.563  1.00  0.00    -0.354 N 
ATOM     47  C   UNL A   1      40.343  29.288  29.615  1.00  0.00     0.074 A 
ATOM     48  C   UNL A   1      39.252  28.347  29.754  1.00  0.00     0.031 C 
ATOM     49  C   UNL A   1      44.816  25.891  26.534  1.00  0.00     0.029 A 
ATOM     50  C   UNL A   1      44.888  27.290  26.962  1.00  0.00     0.049 A 
ATOM     51  H   UNL A   1      43.437  28.358  28.004  1.00  0.00     0.167 HD
ATOM     52  C   UNL A   1      40.335  30.543  30.123  1.00  0.00     0.037 A 
ATOM     53  C   UNL A   1      45.929  28.124  26.758  1.00  0.00     0.037 A 
ATOM     54  C   UNL A   1      41.416  31.484  29.998  1.00  0.00     0.049 A 
ATOM     55  C   UNL A   1      45.858  29.551  27.247  1.00  0.00     0.074 A 
ATOM     56  C   UNL A   1      41.492  32.776  30.488  1.00  0.00     0.029 A 
ATOM     57  N   UNL A   1      42.607  31.237  29.334  1.00  0.00    -0.354 N 
ATOM     58  N   UNL A   1      44.906  30.150  27.919  1.00  0.00    -0.248 NA
ATOM     59  C   UNL A   1      47.007  30.420  26.942  1.00  0.00     0.031 C 
ATOM     60  C   UNL A   1      42.708  33.329  30.079  1.00  0.00     0.029 A 
ATOM     61  C   UNL A   1      43.413  32.364  29.380  1.00  0.00     0.049 A 
ATOM     62  H   UNL A   1      42.844  30.388  28.895  1.00  0.00     0.167 HD
ATOM     63  C   UNL A   1      45.349  31.448  28.142  1.00  0.00     0.074 A 
ATOM     64  C   UNL A   1      46.660  31.554  27.539  1.00  0.00     0.031 C 
ATOM     65  C   UNL A   1      44.722  32.460  28.789  1.00  0.00     0.037 A 
BRANCH  52  66
ATOM     66  C   UNL A   1      39.109  30.992  30.860  1.00  0.00     0.064 A 
ATOM     67  C   UNL A   1      38.967  30.723  32.231  1.00  0.00     0.173 A 
ATOM     68  C   UNL A   1      38.040  31.610  30.196  1.00  0.00     0.173 A 
ATOM     69  F   UNL A   1      39.960  30.128  32.908  1.00  0.00    -0.203 F 
ATOM     70  C   UNL A   1      37.791  31.039  32.904  1.00  0.00     0.198 A 
ATOM     71  C   UNL A   1      36.875  31.949  30.879  1.00  0.00     0.198 A 
ATOM     72  F   UNL A   1      38.133  31.898  28.889  1.00  0.00    -0.203 F 
ATOM     73  F   UNL A   1      37.664  30.740  34.204  1.00  0.00    -0.200 F 
ATOM     74  C   UNL A   1      36.747  31.653  32.229  1.00  0.00     0.200 A 
ATOM     75  F   UNL A   1      35.874  32.560  30.230  1.00  0.00    -0.200 F 
ATOM     76  F   UNL A   1      35.616  31.961  32.879  1.00  0.00    -0.200 F 
ENDBRANCH  52  66
BRANCH  53  77
ATOM     77  C   UNL A   1      47.135  27.638  26.035  1.00  0.00     0.064 A 
ATOM     78  C   UNL A   1      47.210  27.679  24.635  1.00  0.00     0.173 A 
ATOM     79  C   UNL A   1      48.241  27.135  26.733  1.00  0.00     0.173 A 
ATOM     80  F   UNL A   1      46.182  28.159  23.921  1.00  0.00    -0.203 F 
ATOM     81  C   UNL A   1      48.338  27.216  23.961  1.00  0.00     0.198 A 
ATOM     82  C   UNL A   1      49.381  26.698  26.058  1.00  0.00     0.198 A 
ATOM     83  F   UNL A   1      48.230  27.109  28.073  1.00  0.00    -0.203 F 
ATOM     84  F   UNL A   1      48.371  27.243  22.621  1.00  0.00    -0.200 F 
ATOM     85  C   UNL A   1      49.425  26.731  24.673  1.00  0.00     0.200 A 
ATOM     86  F   UNL A   1      50.441  26.262  26.752  1.00  0.00    -0.200 F 
ATOM     87  F   UNL A   1      50.517  26.307  24.023  1.00  0.00    -0.200 F 
ENDBRANCH  53  77
BRANCH  65  88
ATOM     88  C   UNL A   1      45.440  33.774  28.918  1.00  0.00     0.064 A 
ATOM     89  C   UNL A   1      46.259  34.030  30.028  1.00  0.00     0.173 A 
ATOM     90  C   UNL A   1      45.237  34.813  27.999  1.00  0.00     0.173 A 
ATOM     91  F   UNL A   1      46.477  33.072  30.943  1.00  0.00    -0.203 F 
ATOM     92  C   UNL A   1      46.833  35.284  30.224  1.00  0.00     0.198 A 
ATOM     93  C   UNL A   1      45.833  36.059  28.185  1.00  0.00     0.198 A 
ATOM     94  F   UNL A   1      44.470  34.617  26.916  1.00  0.00    -0.203 F 
ATOM     95  F   UNL A   1      47.577  35.516  31.314  1.00  0.00    -0.200 F 
ATOM     96  C   UNL A   1      46.620  36.297  29.302  1.00  0.00     0.200 A 
ATOM     97  F   UNL A   1      45.643  37.031  27.283  1.00  0.00    -0.200 F 
ATOM     98  F   UNL A   1      47.173  37.503  29.490  1.00  0.00    -0.200 F 
ENDBRANCH  65  88
ENDBRANCH  39  40
ENDBRANCH  32  34
ENDBRANCH  31  32
ENDBRANCH  30  31
ENDBRANCH  29  30
ENDBRANCH  28  29
ENDBRANCH  27  28
ENDBRANCH   1  27
TORSDOF 19
ENDMDL
MODEL 3
REMARK VINA RESULT:     -11.2      3.477      8.682
REMARK SMILES O=C(C[NH+]1CCN(C(=O)c2ccc(F)c(F)c2F)CC1)OCCOCCOCCOC(=O)c1ccc(-c2c3nc(c(-c4c(F)c(F)c(F)c(F)c4F)c4ccc([nH]4)c(-c4c(F)c(F)c(F)c(F)c4F)c4nc(c(-c5c(F)c(F)c(F)c(F)c5F)c5ccc2[nH]5)C=C4)C=C3)cc1
REMARK SMILES IDX 25 1 24 2 23 3 22 4 21 5 2 6 1 7 3 8 4 9 5 10 20 11 6 13
REMARK SMILES IDX 19 14 7 15 8 16 9 17 10 18 11 19 17 20 12 21 15 22 18 23
REMARK SMILES IDX 13 24 16 25 14 26 26 27 27 28 28 29 29 30 30 31 31 32 32 33
REMARK SMILES IDX 33 34 34 35 95 36 35 37 94 38 36 39 37 40 38 41 88 42 39 43
REMARK SMILES IDX 93 44 87 45 89 46 40 47 92 48 86 49 85 50 41 52 73 53 53 54
REMARK SMILES IDX 72 55 54 56 57 57 71 58 90 59 55 60 56 61 70 63 91 64 58 65
REMARK SMILES IDX 42 66 43 67 51 68 44 69 45 70 49 71 52 72 46 73 47 74 50 75
REMARK SMILES IDX 48 76 74 77 75 78 83 79 76 80 77 81 81 82 84 83 78 84 79 85
REMARK SMILES IDX 82 86 80 87 59 88 60 89 68 90 61 91 62 92 66 93 69 94 63 95
REMARK SMILES IDX 64 96 67 97 65 98
REMARK H PARENT 4 12 89 51 57 62
REMARK Flexibility Score: inf
ROOT
ATOM      1  C   UNL A   1      36.655  22.978  25.902  1.00  0.00     0.188 C 
ENDROOT
BRANCH   1   2
ATOM      2  O   UNL A   1      35.246  23.097  25.991  1.00  0.00    -0.376 OA
BRANCH   2   3
ATOM      3  C   UNL A   1      34.660  22.836  27.251  1.00  0.00     0.202 C 
BRANCH   3   4
ATOM      4  C   UNL A   1      34.021  21.453  27.228  1.00  0.00     0.261 C 
BRANCH   4   5
ATOM      5  O   UNL A   1      33.939  20.847  25.919  1.00  0.00    -0.459 OA
BRANCH   5   6
ATOM      6  C   UNL A   1      32.849  20.779  25.132  1.00  0.00     0.361 C 
ATOM      7  O   UNL A   1      32.146  19.770  25.145  1.00  0.00    -0.245 OA
BRANCH   6   8
ATOM      8  C   UNL A   1      32.481  21.956  24.232  1.00  0.00     0.386 C 
BRANCH   8   9
ATOM      9  N   UNL A   1      31.088  22.421  24.397  1.00  0.00    -0.323 N 
ATOM     10  C   UNL A   1      30.881  22.890  25.798  1.00  0.00     0.284 C 
ATOM     11  C   UNL A   1      30.796  23.547  23.478  1.00  0.00     0.284 C 
ATOM     12  H   UNL A   1      30.465  21.641  24.183  1.00  0.00     0.348 HD
ATOM     13  C   UNL A   1      31.586  24.225  26.169  1.00  0.00     0.181 C 
ATOM     14  C   UNL A   1      31.685  24.765  23.760  1.00  0.00     0.181 C 
ATOM     15  N   UNL A   1      31.406  25.235  25.120  1.00  0.00    -0.327 N 
ATOM     16  C   UNL A   1      30.957  26.507  25.437  1.00  0.00     0.257 C 
ATOM     17  O   UNL A   1      30.769  26.915  26.578  1.00  0.00    -0.269 OA
BRANCH  16  18
ATOM     18  C   UNL A   1      30.637  27.391  24.305  1.00  0.00     0.079 A 
ATOM     19  C   UNL A   1      31.618  28.276  23.827  1.00  0.00     0.020 A 
ATOM     20  C   UNL A   1      29.330  27.449  23.832  1.00  0.00     0.174 A 
ATOM     21  C   UNL A   1      31.259  29.265  22.913  1.00  0.00     0.043 A 
ATOM     22  C   UNL A   1      28.987  28.420  22.902  1.00  0.00     0.195 A 
ATOM     23  F   UNL A   1      28.386  26.630  24.317  1.00  0.00    -0.203 F 
ATOM     24  C   UNL A   1      29.943  29.331  22.459  1.00  0.00     0.161 A 
ATOM     25  F   UNL A   1      27.724  28.511  22.462  1.00  0.00    -0.200 F 
ATOM     26  F   UNL A   1      29.601  30.303  21.605  1.00  0.00    -0.204 F 
ENDBRANCH  16  18
ENDBRANCH   8   9
ENDBRANCH   6   8
ENDBRANCH   5   6
ENDBRANCH   4   5
ENDBRANCH   3   4
ENDBRANCH   2   3
ENDBRANCH   1   2
BRANCH   1  27
ATOM     27  C   UNL A   1      37.088  22.035  24.772  1.00  0.00     0.188 C 
BRANCH  27  28
ATOM     28  O   UNL A   1      38.136  21.096  24.975  1.00  0.00    -0.376 OA
BRANCH  28  29
ATOM     29  C   UNL A   1      39.243  21.440  25.791  1.00  0.00     0.202 C 
BRANCH  29  30
ATOM     30  C   UNL A   1      39.945  20.286  26.516  1.00  0.00     0.261 C 
BRANCH  30  31
ATOM     31  O   UNL A   1      40.637  19.351  25.663  1.00  0.00    -0.460 OA
BRANCH  31  32
ATOM     32  C   UNL A   1      41.925  19.091  26.001  1.00  0.00     0.338 C 
ATOM     33  O   UNL A   1      42.482  18.007  25.997  1.00  0.00    -0.246 OA
BRANCH  32  34
ATOM     34  C   UNL A   1      42.664  20.342  26.292  1.00  0.00     0.060 A 
ATOM     35  C   UNL A   1      42.618  20.853  27.597  1.00  0.00     0.016 A 
ATOM     36  C   UNL A   1      43.274  21.081  25.275  1.00  0.00     0.016 A 
ATOM     37  C   UNL A   1      43.125  22.127  27.878  1.00  0.00     0.010 A 
ATOM     38  C   UNL A   1      43.765  22.366  25.555  1.00  0.00     0.010 A 
ATOM     39  C   UNL A   1      43.654  22.914  26.847  1.00  0.00    -0.014 A 
BRANCH  39  40
ATOM     40  C   UNL A   1      43.899  24.366  27.066  1.00  0.00     0.031 A 
ATOM     41  C   UNL A   1      45.298  24.899  26.892  1.00  0.00     0.074 A 
ATOM     42  C   UNL A   1      42.907  25.215  27.394  1.00  0.00     0.049 A 
ATOM     43  N   UNL A   1      45.765  26.104  27.108  1.00  0.00    -0.248 NA
ATOM     44  C   UNL A   1      46.306  23.944  26.405  1.00  0.00     0.031 C 
ATOM     45  C   UNL A   1      41.499  24.857  27.530  1.00  0.00     0.029 A 
ATOM     46  N   UNL A   1      42.943  26.560  27.679  1.00  0.00    -0.354 N 
ATOM     47  C   UNL A   1      47.116  26.049  26.788  1.00  0.00     0.074 A 
ATOM     48  C   UNL A   1      47.401  24.689  26.385  1.00  0.00     0.031 C 
ATOM     49  C   UNL A   1      40.804  25.953  27.885  1.00  0.00     0.029 A 
ATOM     50  C   UNL A   1      41.724  27.082  28.037  1.00  0.00     0.049 A 
ATOM     51  H   UNL A   1      43.766  27.100  27.630  1.00  0.00     0.167 HD
ATOM     52  C   UNL A   1      48.034  27.044  26.818  1.00  0.00     0.037 A 
ATOM     53  C   UNL A   1      41.391  28.319  28.463  1.00  0.00     0.037 A 
ATOM     54  C   UNL A   1      47.760  28.401  27.209  1.00  0.00     0.049 A 
ATOM     55  C   UNL A   1      42.452  29.386  28.582  1.00  0.00     0.074 A 
ATOM     56  C   UNL A   1      48.634  29.472  27.262  1.00  0.00     0.029 A 
ATOM     57  N   UNL A   1      46.523  28.872  27.617  1.00  0.00    -0.354 N 
ATOM     58  N   UNL A   1      43.727  29.323  28.285  1.00  0.00    -0.248 NA
ATOM     59  C   UNL A   1      42.027  30.696  29.104  1.00  0.00     0.031 C 
ATOM     60  C   UNL A   1      47.938  30.582  27.749  1.00  0.00     0.029 A 
ATOM     61  C   UNL A   1      46.617  30.215  27.947  1.00  0.00     0.049 A 
ATOM     62  H   UNL A   1      45.700  28.334  27.664  1.00  0.00     0.167 HD
ATOM     63  C   UNL A   1      44.247  30.584  28.554  1.00  0.00     0.074 A 
ATOM     64  C   UNL A   1      43.152  31.397  29.034  1.00  0.00     0.031 C 
ATOM     65  C   UNL A   1      45.521  31.024  28.413  1.00  0.00     0.037 A 
BRANCH  52  66
ATOM     66  C   UNL A   1      49.442  26.708  26.426  1.00  0.00     0.064 A 
ATOM     67  C   UNL A   1      50.374  26.313  27.399  1.00  0.00     0.173 A 
ATOM     68  C   UNL A   1      49.892  26.858  25.106  1.00  0.00     0.173 A 
ATOM     69  F   UNL A   1      49.993  26.161  28.676  1.00  0.00    -0.203 F 
ATOM     70  C   UNL A   1      51.708  26.101  27.068  1.00  0.00     0.198 A 
ATOM     71  C   UNL A   1      51.222  26.620  24.774  1.00  0.00     0.198 A 
ATOM     72  F   UNL A   1      49.036  27.223  24.139  1.00  0.00    -0.203 F 
ATOM     73  F   UNL A   1      52.588  25.760  28.019  1.00  0.00    -0.200 F 
ATOM     74  C   UNL A   1      52.131  26.252  25.756  1.00  0.00     0.200 A 
ATOM     75  F   UNL A   1      51.626  26.747  23.502  1.00  0.00    -0.200 F 
ATOM     76  F   UNL A   1      53.416  26.044  25.437  1.00  0.00    -0.200 F 
ENDBRANCH  52  66
BRANCH  53  77
ATOM     77  C   UNL A   1      39.980  28.619  28.828  1.00  0.00     0.064 A 
ATOM     78  C   UNL A   1      39.080  29.141  27.888  1.00  0.00     0.173 A 
ATOM     79  C   UNL A   1      39.503  28.376  30.123  1.00  0.00     0.173 A 
ATOM     80  F   UNL A   1      39.485  29.383  26.633  1.00  0.00    -0.203 F 
ATOM     81  C   UNL A   1      37.762  29.428  28.235  1.00  0.00     0.198 A 
ATOM     82  C   UNL A   1      38.175  28.638  30.462  1.00  0.00     0.198 A 
ATOM     83  F   UNL A   1      40.316  27.845  31.047  1.00  0.00    -0.203 F 
ATOM     84  F   UNL A   1      36.931  29.951  27.323  1.00  0.00    -0.200 F 
ATOM     85  C   UNL A   1      37.309  29.171  29.520  1.00  0.00     0.200 A 
ATOM     86  F   UNL A   1      37.734  28.356  31.695  1.00  0.00    -0.200 F 
ATOM     87  F   UNL A   1      36.034  29.427  29.846  1.00  0.00    -0.200 F 
ENDBRANCH  53  77
BRANCH  65  88
ATOM     88  C   UNL A   1      45.819  32.457  28.750  1.00  0.00     0.064 A 
ATOM     89  C   UNL A   1      45.717  33.454  27.767  1.00  0.00     0.173 A 
ATOM     90  C   UNL A   1      46.302  32.829  30.013  1.00  0.00     0.173 A 
ATOM     91  F   UNL A   1      45.271  33.150  26.539  1.00  0.00    -0.203 F 
ATOM     92  C   UNL A   1      46.107  34.766  28.030  1.00  0.00     0.198 A 
ATOM     93  C   UNL A   1      46.667  34.147  30.280  1.00  0.00     0.198 A 
ATOM     94  F   UNL A   1      46.411  31.915  30.990  1.00  0.00    -0.203 F 
ATOM     95  F   UNL A   1      46.039  35.690  27.063  1.00  0.00    -0.200 F 
ATOM     96  C   UNL A   1      46.580  35.110  29.287  1.00  0.00     0.200 A 
ATOM     97  F   UNL A   1      47.106  34.484  31.501  1.00  0.00    -0.200 F 
ATOM     98  F   UNL A   1      46.954  36.372  29.540  1.00  0.00    -0.200 F 
ENDBRANCH  65  88
ENDBRANCH  39  40
ENDBRANCH  32  34
ENDBRANCH  31  32
ENDBRANCH  30  31
ENDBRANCH  29  30
ENDBRANCH  28  29
ENDBRANCH  27  28
ENDBRANCH   1  27
TORSDOF 19
ENDMDL
