MODEL 1
REMARK VINA RESULT:     -11.8      0.000      0.000
REMARK SMILES Cn1ncc(C(=O)OCCOCCOCCOC(=O)c2ccc(-c3c4nc(c(-c5c(F)c(F)c(F)c(F)c5F)c5ccc([nH]5)c(-c5c(F)c(F)c(F)c(F)c5F)c5nc(c(-c6c(F)c(F)c(F)c(F)c6F)c6ccc3[nH]6)C=C5)C=C4)cc2)c1C(=O)Nc1nccc(-c2ccc(OC(F)F)cc2)n1
REMARK SMILES IDX 11 1 10 2 9 3 8 4 6 5 7 6 5 7 1 8 2 9 3 10 83 11 4 12 84 13
REMARK SMILES IDX 85 14 86 15 87 17 88 18 102 19 89 20 91 21 90 22 92 23 93 24
REMARK SMILES IDX 101 25 94 26 100 27 95 28 96 29 97 30 98 31 99 32 12 33
REMARK SMILES IDX 13 34 14 35 15 36 16 37 17 38 18 39 19 40 20 41 21 42 82 43
REMARK SMILES IDX 22 44 81 45 23 46 24 47 25 48 75 49 26 50 80 51 74 52 76 53
REMARK SMILES IDX 27 54 79 55 73 56 72 57 28 59 60 60 40 61 59 62 41 63 44 64
REMARK SMILES IDX 58 65 77 66 42 67 43 68 57 70 78 71 45 72 29 73 30 74 38 75
REMARK SMILES IDX 31 76 32 77 36 78 39 79 33 80 34 81 37 82 35 83 61 84 62 85
REMARK SMILES IDX 70 86 63 87 64 88 68 89 71 90 65 91 66 92 69 93 67 94 46 95
REMARK SMILES IDX 47 96 55 97 48 98 49 99 53 100 56 101 50 102 51 103 54 104
REMARK SMILES IDX 52 105
REMARK H PARENT 86 16 76 58 44 69
REMARK Flexibility Score: inf
ROOT
ATOM      1  O   UNL A   1      31.402  27.710  26.231  1.00  0.00    -0.376 OA
ENDROOT
BRANCH   1   2
ATOM      2  C   UNL A   1      31.018  26.365  26.496  1.00  0.00     0.202 C 
BRANCH   2   3
ATOM      3  C   UNL A   1      32.078  25.266  26.497  1.00  0.00     0.261 C 
BRANCH   3   4
ATOM      4  O   UNL A   1      31.628  24.105  27.201  1.00  0.00    -0.460 OA
BRANCH   4   5
ATOM      5  C   UNL A   1      31.470  23.002  26.417  1.00  0.00     0.342 C 
ATOM      6  O   UNL A   1      30.429  22.669  25.883  1.00  0.00    -0.246 OA
BRANCH   5   7
ATOM      7  C   UNL A   1      32.730  22.370  26.079  1.00  0.00     0.111 A 
ATOM      8  C   UNL A   1      35.665  22.184  24.243  1.00  0.00     0.174 C 
ATOM      9  N   UNL A   1      34.558  21.788  25.083  1.00  0.00    -0.262 N 
ATOM     10  N   UNL A   1      34.856  21.669  26.398  1.00  0.00    -0.180 NA
ATOM     11  C   UNL A   1      33.203  21.916  24.839  1.00  0.00     0.140 A 
ATOM     12  C   UNL A   1      33.774  22.155  26.993  1.00  0.00     0.151 A 
BRANCH  11  13
ATOM     13  C   UNL A   1      32.425  21.871  23.614  1.00  0.00     0.277 C 
ATOM     14  O   UNL A   1      32.080  20.779  23.147  1.00  0.00    -0.267 OA
ATOM     15  N   UNL A   1      31.923  22.938  22.934  1.00  0.00    -0.289 N 
ATOM     16  H   UNL A   1      31.261  22.661  22.260  1.00  0.00     0.173 HD
BRANCH  15  17
ATOM     17  C   UNL A   1      32.100  24.301  22.943  1.00  0.00     0.230 A 
ATOM     18  N   UNL A   1      33.391  24.647  22.820  1.00  0.00    -0.221 NA
ATOM     19  N   UNL A   1      31.090  25.171  22.985  1.00  0.00    -0.213 NA
ATOM     20  C   UNL A   1      33.663  25.946  22.620  1.00  0.00     0.117 A 
ATOM     21  C   UNL A   1      31.409  26.484  22.840  1.00  0.00     0.076 A 
ATOM     22  C   UNL A   1      32.699  26.918  22.610  1.00  0.00     0.049 A 
BRANCH  21  23
ATOM     23  C   UNL A   1      30.285  27.425  22.850  1.00  0.00     0.001 A 
ATOM     24  C   UNL A   1      30.406  28.704  22.295  1.00  0.00     0.014 A 
ATOM     25  C   UNL A   1      29.055  27.070  23.427  1.00  0.00     0.014 A 
ATOM     26  C   UNL A   1      29.333  29.602  22.330  1.00  0.00     0.047 A 
ATOM     27  C   UNL A   1      27.989  27.976  23.482  1.00  0.00     0.047 A 
ATOM     28  C   UNL A   1      28.125  29.251  22.940  1.00  0.00     0.126 A 
BRANCH  28  29
ATOM     29  O   UNL A   1      27.176  30.233  22.938  1.00  0.00    -0.435 OA
BRANCH  29  30
ATOM     30  C   UNL A   1      27.541  31.522  23.416  1.00  0.00     0.542 C 
ATOM     31  F   UNL A   1      28.648  31.428  24.193  1.00  0.00    -0.167 F 
ATOM     32  F   UNL A   1      27.819  32.345  22.377  1.00  0.00    -0.167 F 
ENDBRANCH  29  30
ENDBRANCH  28  29
ENDBRANCH  21  23
ENDBRANCH  15  17
ENDBRANCH  11  13
ENDBRANCH   5   7
ENDBRANCH   4   5
ENDBRANCH   3   4
ENDBRANCH   2   3
ENDBRANCH   1   2
BRANCH   1  33
ATOM     33  C   UNL A   1      31.786  28.569  27.292  1.00  0.00     0.188 C 
BRANCH  33  34
ATOM     34  C   UNL A   1      33.112  29.362  27.247  1.00  0.00     0.188 C 
BRANCH  34  35
ATOM     35  O   UNL A   1      33.121  30.776  27.187  1.00  0.00    -0.376 OA
BRANCH  35  36
ATOM     36  C   UNL A   1      31.929  31.479  26.878  1.00  0.00     0.202 C 
BRANCH  36  37
ATOM     37  C   UNL A   1      31.847  32.982  27.127  1.00  0.00     0.261 C 
BRANCH  37  38
ATOM     38  O   UNL A   1      33.131  33.605  27.266  1.00  0.00    -0.460 OA
BRANCH  38  39
ATOM     39  C   UNL A   1      33.260  34.398  28.353  1.00  0.00     0.338 C 
ATOM     40  O   UNL A   1      32.543  35.324  28.695  1.00  0.00    -0.246 OA
BRANCH  39  41
ATOM     41  C   UNL A   1      34.359  33.901  29.196  1.00  0.00     0.060 A 
ATOM     42  C   UNL A   1      35.668  34.260  28.853  1.00  0.00     0.016 A 
ATOM     43  C   UNL A   1      34.110  33.026  30.253  1.00  0.00     0.016 A 
ATOM     44  C   UNL A   1      36.743  33.706  29.544  1.00  0.00     0.010 A 
ATOM     45  C   UNL A   1      35.189  32.457  30.934  1.00  0.00     0.010 A 
ATOM     46  C   UNL A   1      36.508  32.768  30.558  1.00  0.00    -0.014 A 
BRANCH  46  47
ATOM     47  C   UNL A   1      37.638  31.991  31.116  1.00  0.00     0.031 A 
ATOM     48  C   UNL A   1      38.110  32.301  32.508  1.00  0.00     0.074 A 
ATOM     49  C   UNL A   1      38.231  31.023  30.399  1.00  0.00     0.049 A 
ATOM     50  N   UNL A   1      39.106  31.787  33.184  1.00  0.00    -0.248 NA
ATOM     51  C   UNL A   1      37.357  33.334  33.239  1.00  0.00     0.031 C 
ATOM     52  C   UNL A   1      37.839  30.607  29.055  1.00  0.00     0.029 A 
ATOM     53  N   UNL A   1      39.301  30.220  30.705  1.00  0.00    -0.354 N 
ATOM     54  C   UNL A   1      39.098  32.430  34.414  1.00  0.00     0.074 A 
ATOM     55  C   UNL A   1      38.018  33.392  34.386  1.00  0.00     0.031 C 
ATOM     56  C   UNL A   1      38.671  29.635  28.641  1.00  0.00     0.029 A 
ATOM     57  C   UNL A   1      39.667  29.381  29.683  1.00  0.00     0.049 A 
ATOM     58  H   UNL A   1      39.763  30.245  31.574  1.00  0.00     0.167 HD
ATOM     59  C   UNL A   1      39.914  32.229  35.475  1.00  0.00     0.037 A 
ATOM     60  C   UNL A   1      40.702  28.525  29.594  1.00  0.00     0.037 A 
ATOM     61  C   UNL A   1      40.993  31.278  35.501  1.00  0.00     0.049 A 
ATOM     62  C   UNL A   1      41.645  28.377  30.761  1.00  0.00     0.074 A 
ATOM     63  C   UNL A   1      41.865  30.988  36.536  1.00  0.00     0.029 A 
ATOM     64  N   UNL A   1      41.354  30.468  34.434  1.00  0.00    -0.354 N 
ATOM     65  N   UNL A   1      41.613  28.963  31.932  1.00  0.00    -0.248 NA
ATOM     66  C   UNL A   1      42.770  27.446  30.589  1.00  0.00     0.031 C 
ATOM     67  C   UNL A   1      42.782  30.035  36.081  1.00  0.00     0.029 A 
ATOM     68  C   UNL A   1      42.453  29.698  34.777  1.00  0.00     0.049 A 
ATOM     69  H   UNL A   1      40.898  30.445  33.563  1.00  0.00     0.167 HD
ATOM     70  C   UNL A   1      42.691  28.455  32.644  1.00  0.00     0.074 A 
ATOM     71  C   UNL A   1      43.354  27.504  31.778  1.00  0.00     0.031 C 
ATOM     72  C   UNL A   1      43.097  28.751  33.904  1.00  0.00     0.037 A 
BRANCH  59  73
ATOM     73  C   UNL A   1      39.683  33.073  36.691  1.00  0.00     0.064 A 
ATOM     74  C   UNL A   1      38.758  32.702  37.676  1.00  0.00     0.173 A 
ATOM     75  C   UNL A   1      40.419  34.250  36.889  1.00  0.00     0.173 A 
ATOM     76  F   UNL A   1      38.019  31.592  37.526  1.00  0.00    -0.203 F 
ATOM     77  C   UNL A   1      38.562  33.491  38.807  1.00  0.00     0.198 A 
ATOM     78  C   UNL A   1      40.239  35.025  38.032  1.00  0.00     0.198 A 
ATOM     79  F   UNL A   1      41.318  34.648  35.976  1.00  0.00    -0.203 F 
ATOM     80  F   UNL A   1      37.644  33.137  39.718  1.00  0.00    -0.200 F 
ATOM     81  C   UNL A   1      39.306  34.647  38.986  1.00  0.00     0.200 A 
ATOM     82  F   UNL A   1      40.965  36.136  38.208  1.00  0.00    -0.200 F 
ATOM     83  F   UNL A   1      39.121  35.401  40.079  1.00  0.00    -0.200 F 
ENDBRANCH  59  73
BRANCH  60  84
ATOM     84  C   UNL A   1      40.916  27.747  28.347  1.00  0.00     0.064 A 
ATOM     85  C   UNL A   1      40.288  26.510  28.150  1.00  0.00     0.173 A 
ATOM     86  C   UNL A   1      41.778  28.211  27.342  1.00  0.00     0.173 A 
ATOM     87  F   UNL A   1      39.481  26.012  29.097  1.00  0.00    -0.203 F 
ATOM     88  C   UNL A   1      40.528  25.757  27.003  1.00  0.00     0.198 A 
ATOM     89  C   UNL A   1      41.996  27.469  26.183  1.00  0.00     0.198 A 
ATOM     90  F   UNL A   1      42.409  29.385  27.486  1.00  0.00    -0.203 F 
ATOM     91  F   UNL A   1      39.953  24.555  26.860  1.00  0.00    -0.200 F 
ATOM     92  C   UNL A   1      41.377  26.239  26.018  1.00  0.00     0.200 A 
ATOM     93  F   UNL A   1      42.815  27.940  25.233  1.00  0.00    -0.200 F 
ATOM     94  F   UNL A   1      41.610  25.513  24.917  1.00  0.00    -0.200 F 
ENDBRANCH  60  84
BRANCH  72  95
ATOM     95  C   UNL A   1      44.294  28.017  34.434  1.00  0.00     0.064 A 
ATOM     96  C   UNL A   1      45.588  28.542  34.316  1.00  0.00     0.173 A 
ATOM     97  C   UNL A   1      44.138  26.797  35.109  1.00  0.00     0.173 A 
ATOM     98  F   UNL A   1      45.791  29.699  33.666  1.00  0.00    -0.203 F 
ATOM     99  C   UNL A   1      46.686  27.864  34.837  1.00  0.00     0.198 A 
ATOM    100  C   UNL A   1      45.235  26.134  35.653  1.00  0.00     0.198 A 
ATOM    101  F   UNL A   1      42.919  26.255  35.255  1.00  0.00    -0.203 F 
ATOM    102  F   UNL A   1      47.919  28.365  34.679  1.00  0.00    -0.200 F 
ATOM    103  C   UNL A   1      46.507  26.664  35.511  1.00  0.00     0.200 A 
ATOM    104  F   UNL A   1      45.059  24.982  36.315  1.00  0.00    -0.200 F 
ATOM    105  F   UNL A   1      47.565  26.016  36.020  1.00  0.00    -0.200 F 
ENDBRANCH  72  95
ENDBRANCH  46  47
ENDBRANCH  39  41
ENDBRANCH  38  39
ENDBRANCH  37  38
ENDBRANCH  36  37
ENDBRANCH  35  36
ENDBRANCH  34  35
ENDBRANCH  33  34
ENDBRANCH   1  33
TORSDOF 22
ENDMDL
MODEL 2
REMARK VINA RESULT:     -10.5      4.918      9.687
REMARK SMILES Cn1ncc(C(=O)OCCOCCOCCOC(=O)c2ccc(-c3c4nc(c(-c5c(F)c(F)c(F)c(F)c5F)c5ccc([nH]5)c(-c5c(F)c(F)c(F)c(F)c5F)c5nc(c(-c6c(F)c(F)c(F)c(F)c6F)c6ccc3[nH]6)C=C5)C=C4)cc2)c1C(=O)Nc1nccc(-c2ccc(OC(F)F)cc2)n1
REMARK SMILES IDX 11 1 10 2 9 3 8 4 6 5 7 6 5 7 1 8 2 9 3 10 83 11 4 12 84 13
REMARK SMILES IDX 85 14 86 15 87 17 88 18 102 19 89 20 91 21 90 22 92 23 93 24
REMARK SMILES IDX 101 25 94 26 100 27 95 28 96 29 97 30 98 31 99 32 12 33
REMARK SMILES IDX 13 34 14 35 15 36 16 37 17 38 18 39 19 40 20 41 21 42 82 43
REMARK SMILES IDX 22 44 81 45 23 46 24 47 25 48 75 49 26 50 80 51 74 52 76 53
REMARK SMILES IDX 27 54 79 55 73 56 72 57 28 59 60 60 40 61 59 62 41 63 44 64
REMARK SMILES IDX 58 65 77 66 42 67 43 68 57 70 78 71 45 72 29 73 30 74 38 75
REMARK SMILES IDX 31 76 32 77 36 78 39 79 33 80 34 81 37 82 35 83 61 84 62 85
REMARK SMILES IDX 70 86 63 87 64 88 68 89 71 90 65 91 66 92 69 93 67 94 46 95
REMARK SMILES IDX 47 96 55 97 48 98 49 99 53 100 56 101 50 102 51 103 54 104
REMARK SMILES IDX 52 105
REMARK H PARENT 86 16 76 58 44 69
REMARK Flexibility Score: inf
ROOT
ATOM      1  O   UNL A   1      33.691  30.368  26.890  1.00  0.00    -0.376 OA
ENDROOT
BRANCH   1   2
ATOM      2  C   UNL A   1      32.420  29.792  27.170  1.00  0.00     0.202 C 
BRANCH   2   3
ATOM      3  C   UNL A   1      31.906  28.646  26.302  1.00  0.00     0.261 C 
BRANCH   3   4
ATOM      4  O   UNL A   1      32.879  28.243  25.336  1.00  0.00    -0.460 OA
BRANCH   4   5
ATOM      5  C   UNL A   1      32.452  28.322  24.045  1.00  0.00     0.342 C 
ATOM      6  O   UNL A   1      32.890  29.093  23.211  1.00  0.00    -0.246 OA
BRANCH   5   7
ATOM      7  C   UNL A   1      31.569  27.233  23.678  1.00  0.00     0.111 A 
ATOM      8  C   UNL A   1      30.692  23.879  23.657  1.00  0.00     0.174 C 
ATOM      9  N   UNL A   1      30.741  25.275  23.289  1.00  0.00    -0.262 N 
ATOM     10  N   UNL A   1      29.670  26.004  23.682  1.00  0.00    -0.180 NA
ATOM     11  C   UNL A   1      31.846  26.047  22.982  1.00  0.00     0.140 A 
ATOM     12  C   UNL A   1      30.215  27.160  24.043  1.00  0.00     0.151 A 
BRANCH  11  13
ATOM     13  C   UNL A   1      33.112  25.728  22.346  1.00  0.00     0.277 C 
ATOM     14  O   UNL A   1      33.427  26.290  21.291  1.00  0.00    -0.267 OA
ATOM     15  N   UNL A   1      34.085  24.917  22.844  1.00  0.00    -0.289 N 
ATOM     16  H   UNL A   1      34.929  25.015  22.346  1.00  0.00     0.173 HD
BRANCH  15  17
ATOM     17  C   UNL A   1      34.197  23.996  23.858  1.00  0.00     0.230 A 
ATOM     18  N   UNL A   1      34.359  24.577  25.057  1.00  0.00    -0.221 NA
ATOM     19  N   UNL A   1      34.071  22.682  23.671  1.00  0.00    -0.213 NA
ATOM     20  C   UNL A   1      34.283  23.786  26.139  1.00  0.00     0.117 A 
ATOM     21  C   UNL A   1      34.060  21.905  24.786  1.00  0.00     0.076 A 
ATOM     22  C   UNL A   1      34.122  22.429  26.062  1.00  0.00     0.049 A 
BRANCH  21  23
ATOM     23  C   UNL A   1      33.884  20.466  24.568  1.00  0.00     0.001 A 
ATOM     24  C   UNL A   1      32.648  19.938  24.178  1.00  0.00     0.014 A 
ATOM     25  C   UNL A   1      34.955  19.575  24.752  1.00  0.00     0.014 A 
ATOM     26  C   UNL A   1      32.487  18.559  23.994  1.00  0.00     0.047 A 
ATOM     27  C   UNL A   1      34.787  18.195  24.588  1.00  0.00     0.047 A 
ATOM     28  C   UNL A   1      33.549  17.678  24.217  1.00  0.00     0.126 A 
BRANCH  28  29
ATOM     29  O   UNL A   1      33.246  16.359  24.037  1.00  0.00    -0.435 OA
BRANCH  29  30
ATOM     30  C   UNL A   1      33.111  15.537  25.191  1.00  0.00     0.542 C 
ATOM     31  F   UNL A   1      32.132  14.621  24.991  1.00  0.00    -0.167 F 
ATOM     32  F   UNL A   1      34.269  14.876  25.431  1.00  0.00    -0.167 F 
ENDBRANCH  29  30
ENDBRANCH  28  29
ENDBRANCH  21  23
ENDBRANCH  15  17
ENDBRANCH  11  13
ENDBRANCH   5   7
ENDBRANCH   4   5
ENDBRANCH   3   4
ENDBRANCH   2   3
ENDBRANCH   1   2
BRANCH   1  33
ATOM     33  C   UNL A   1      34.370  31.123  27.880  1.00  0.00     0.188 C 
BRANCH  33  34
ATOM     34  C   UNL A   1      34.066  32.623  28.099  1.00  0.00     0.188 C 
BRANCH  34  35
ATOM     35  O   UNL A   1      34.487  33.295  29.271  1.00  0.00    -0.376 OA
BRANCH  35  36
ATOM     36  C   UNL A   1      35.424  32.681  30.141  1.00  0.00     0.202 C 
BRANCH  36  37
ATOM     37  C   UNL A   1      35.004  32.290  31.556  1.00  0.00     0.261 C 
BRANCH  37  38
ATOM     38  O   UNL A   1      35.918  31.383  32.188  1.00  0.00    -0.460 OA
BRANCH  38  39
ATOM     39  C   UNL A   1      36.877  31.977  32.934  1.00  0.00     0.338 C 
ATOM     40  O   UNL A   1      36.758  32.502  34.029  1.00  0.00    -0.246 OA
BRANCH  39  41
ATOM     41  C   UNL A   1      38.186  31.789  32.291  1.00  0.00     0.060 A 
ATOM     42  C   UNL A   1      38.439  32.475  31.096  1.00  0.00     0.016 A 
ATOM     43  C   UNL A   1      39.115  30.886  32.808  1.00  0.00     0.016 A 
ATOM     44  C   UNL A   1      39.612  32.225  30.388  1.00  0.00     0.010 A 
ATOM     45  C   UNL A   1      40.282  30.623  32.087  1.00  0.00     0.010 A 
ATOM     46  C   UNL A   1      40.517  31.265  30.858  1.00  0.00    -0.014 A 
BRANCH  46  47
ATOM     47  C   UNL A   1      41.627  30.813  29.989  1.00  0.00     0.031 A 
ATOM     48  C   UNL A   1      41.559  29.438  29.388  1.00  0.00     0.074 A 
ATOM     49  C   UNL A   1      42.675  31.613  29.733  1.00  0.00     0.049 A 
ATOM     50  N   UNL A   1      42.431  28.812  28.638  1.00  0.00    -0.248 NA
ATOM     51  C   UNL A   1      40.342  28.659  29.673  1.00  0.00     0.031 C 
ATOM     52  C   UNL A   1      42.834  32.979  30.228  1.00  0.00     0.029 A 
ATOM     53  N   UNL A   1      43.810  31.383  28.998  1.00  0.00    -0.354 N 
ATOM     54  C   UNL A   1      41.870  27.573  28.362  1.00  0.00     0.074 A 
ATOM     55  C   UNL A   1      40.596  27.520  29.046  1.00  0.00     0.031 C 
ATOM     56  C   UNL A   1      44.013  33.461  29.796  1.00  0.00     0.029 A 
ATOM     57  C   UNL A   1      44.697  32.429  29.018  1.00  0.00     0.049 A 
ATOM     58  H   UNL A   1      43.973  30.546  28.505  1.00  0.00     0.167 HD
ATOM     59  C   UNL A   1      42.370  26.573  27.600  1.00  0.00     0.037 A 
ATOM     60  C   UNL A   1      45.931  32.528  28.487  1.00  0.00     0.037 A 
ATOM     61  C   UNL A   1      43.640  26.622  26.927  1.00  0.00     0.049 A 
ATOM     62  C   UNL A   1      46.498  31.368  27.709  1.00  0.00     0.074 A 
ATOM     63  C   UNL A   1      44.226  25.666  26.116  1.00  0.00     0.029 A 
ATOM     64  N   UNL A   1      44.527  27.686  26.997  1.00  0.00    -0.354 N 
ATOM     65  N   UNL A   1      45.950  30.213  27.423  1.00  0.00    -0.248 NA
ATOM     66  C   UNL A   1      47.860  31.530  27.178  1.00  0.00     0.031 C 
ATOM     67  C   UNL A   1      45.487  26.132  25.732  1.00  0.00     0.029 A 
ATOM     68  C   UNL A   1      45.668  27.399  26.266  1.00  0.00     0.049 A 
ATOM     69  H   UNL A   1      44.369  28.521  27.493  1.00  0.00     0.167 HD
ATOM     70  C   UNL A   1      46.884  29.523  26.662  1.00  0.00     0.074 A 
ATOM     71  C   UNL A   1      48.032  30.393  26.519  1.00  0.00     0.031 C 
ATOM     72  C   UNL A   1      46.799  28.279  26.128  1.00  0.00     0.037 A 
BRANCH  59  73
ATOM     73  C   UNL A   1      41.547  25.327  27.472  1.00  0.00     0.064 A 
ATOM     74  C   UNL A   1      40.441  25.264  26.613  1.00  0.00     0.173 A 
ATOM     75  C   UNL A   1      41.888  24.174  28.193  1.00  0.00     0.173 A 
ATOM     76  F   UNL A   1      40.067  26.345  25.913  1.00  0.00    -0.203 F 
ATOM     77  C   UNL A   1      39.692  24.096  26.496  1.00  0.00     0.198 A 
ATOM     78  C   UNL A   1      41.152  22.999  28.056  1.00  0.00     0.198 A 
ATOM     79  F   UNL A   1      42.939  24.183  29.027  1.00  0.00    -0.203 F 
ATOM     80  F   UNL A   1      38.616  24.069  25.698  1.00  0.00    -0.200 F 
ATOM     81  C   UNL A   1      40.052  22.964  27.212  1.00  0.00     0.200 A 
ATOM     82  F   UNL A   1      41.506  21.904  28.742  1.00  0.00    -0.200 F 
ATOM     83  F   UNL A   1      39.334  21.839  27.093  1.00  0.00    -0.200 F 
ENDBRANCH  59  73
BRANCH  60  84
ATOM     84  C   UNL A   1      46.726  33.766  28.684  1.00  0.00     0.064 A 
ATOM     85  C   UNL A   1      46.599  34.854  27.810  1.00  0.00     0.173 A 
ATOM     86  C   UNL A   1      47.652  33.874  29.732  1.00  0.00     0.173 A 
ATOM     87  F   UNL A   1      45.750  34.783  26.775  1.00  0.00    -0.203 F 
ATOM     88  C   UNL A   1      47.381  35.996  27.965  1.00  0.00     0.198 A 
ATOM     89  C   UNL A   1      48.414  35.027  29.903  1.00  0.00     0.198 A 
ATOM     90  F   UNL A   1      47.817  32.858  30.592  1.00  0.00    -0.203 F 
ATOM     91  F   UNL A   1      47.276  37.002  27.087  1.00  0.00    -0.200 F 
ATOM     92  C   UNL A   1      48.284  36.084  29.014  1.00  0.00     0.200 A 
ATOM     93  F   UNL A   1      49.283  35.111  30.919  1.00  0.00    -0.200 F 
ATOM     94  F   UNL A   1      49.038  37.182  29.161  1.00  0.00    -0.200 F 
ENDBRANCH  60  84
BRANCH  72  95
ATOM     95  C   UNL A   1      47.964  27.796  25.315  1.00  0.00     0.064 A 
ATOM     96  C   UNL A   1      49.121  27.286  25.921  1.00  0.00     0.173 A 
ATOM     97  C   UNL A   1      47.902  27.799  23.914  1.00  0.00     0.173 A 
ATOM     98  F   UNL A   1      49.234  27.275  27.258  1.00  0.00    -0.203 F 
ATOM     99  C   UNL A   1      50.182  26.814  25.154  1.00  0.00     0.198 A 
ATOM    100  C   UNL A   1      48.954  27.301  23.149  1.00  0.00     0.198 A 
ATOM    101  F   UNL A   1      46.814  28.269  23.285  1.00  0.00    -0.203 F 
ATOM    102  F   UNL A   1      51.294  26.367  25.753  1.00  0.00    -0.200 F 
ATOM    103  C   UNL A   1      50.094  26.816  23.769  1.00  0.00     0.200 A 
ATOM    104  F   UNL A   1      48.862  27.292  21.812  1.00  0.00    -0.200 F 
ATOM    105  F   UNL A   1      51.114  26.353  23.032  1.00  0.00    -0.200 F 
ENDBRANCH  72  95
ENDBRANCH  46  47
ENDBRANCH  39  41
ENDBRANCH  38  39
ENDBRANCH  37  38
ENDBRANCH  36  37
ENDBRANCH  35  36
ENDBRANCH  34  35
ENDBRANCH  33  34
ENDBRANCH   1  33
TORSDOF 22
ENDMDL
MODEL 3
REMARK VINA RESULT:      -9.6      7.047     15.917
REMARK SMILES Cn1ncc(C(=O)OCCOCCOCCOC(=O)c2ccc(-c3c4nc(c(-c5c(F)c(F)c(F)c(F)c5F)c5ccc([nH]5)c(-c5c(F)c(F)c(F)c(F)c5F)c5nc(c(-c6c(F)c(F)c(F)c(F)c6F)c6ccc3[nH]6)C=C5)C=C4)cc2)c1C(=O)Nc1nccc(-c2ccc(OC(F)F)cc2)n1
REMARK SMILES IDX 11 1 10 2 9 3 8 4 6 5 7 6 5 7 1 8 2 9 3 10 83 11 4 12 84 13
REMARK SMILES IDX 85 14 86 15 87 17 88 18 102 19 89 20 91 21 90 22 92 23 93 24
REMARK SMILES IDX 101 25 94 26 100 27 95 28 96 29 97 30 98 31 99 32 12 33
REMARK SMILES IDX 13 34 14 35 15 36 16 37 17 38 18 39 19 40 20 41 21 42 82 43
REMARK SMILES IDX 22 44 81 45 23 46 24 47 25 48 75 49 26 50 80 51 74 52 76 53
REMARK SMILES IDX 27 54 79 55 73 56 72 57 28 59 60 60 40 61 59 62 41 63 44 64
REMARK SMILES IDX 58 65 77 66 42 67 43 68 57 70 78 71 45 72 29 73 30 74 38 75
REMARK SMILES IDX 31 76 32 77 36 78 39 79 33 80 34 81 37 82 35 83 61 84 62 85
REMARK SMILES IDX 70 86 63 87 64 88 68 89 71 90 65 91 66 92 69 93 67 94 46 95
REMARK SMILES IDX 47 96 55 97 48 98 49 99 53 100 56 101 50 102 51 103 54 104
REMARK SMILES IDX 52 105
REMARK H PARENT 86 16 76 58 44 69
REMARK Flexibility Score: inf
ROOT
ATOM      1  O   UNL A   1      50.848  20.055  33.936  1.00  0.00    -0.376 OA
ENDROOT
BRANCH   1   2
ATOM      2  C   UNL A   1      49.924  20.160  35.015  1.00  0.00     0.202 C 
BRANCH   2   3
ATOM      3  C   UNL A   1      48.432  20.281  34.718  1.00  0.00     0.261 C 
BRANCH   3   4
ATOM      4  O   UNL A   1      47.742  20.960  35.771  1.00  0.00    -0.460 OA
BRANCH   4   5
ATOM      5  C   UNL A   1      46.454  20.553  35.949  1.00  0.00     0.342 C 
ATOM      6  O   UNL A   1      45.529  20.819  35.205  1.00  0.00    -0.246 OA
BRANCH   5   7
ATOM      7  C   UNL A   1      46.318  19.565  37.001  1.00  0.00     0.111 A 
ATOM      8  C   UNL A   1      45.771  18.668  40.305  1.00  0.00     0.174 C 
ATOM      9  N   UNL A   1      46.187  18.586  38.924  1.00  0.00    -0.262 N 
ATOM     10  N   UNL A   1      45.378  17.845  38.129  1.00  0.00    -0.180 NA
ATOM     11  C   UNL A   1      47.006  19.447  38.217  1.00  0.00     0.140 A 
ATOM     12  C   UNL A   1      45.365  18.533  36.994  1.00  0.00     0.151 A 
BRANCH  11  13
ATOM     13  C   UNL A   1      48.139  20.262  38.618  1.00  0.00     0.277 C 
ATOM     14  O   UNL A   1      49.272  19.767  38.642  1.00  0.00    -0.267 OA
ATOM     15  N   UNL A   1      48.120  21.595  38.893  1.00  0.00    -0.289 N 
ATOM     16  H   UNL A   1      49.029  21.970  38.936  1.00  0.00     0.173 HD
BRANCH  15  17
ATOM     17  C   UNL A   1      47.163  22.554  39.125  1.00  0.00     0.230 A 
ATOM     18  N   UNL A   1      46.173  22.104  39.913  1.00  0.00    -0.221 NA
ATOM     19  N   UNL A   1      47.260  23.809  38.684  1.00  0.00    -0.213 NA
ATOM     20  C   UNL A   1      45.289  23.007  40.365  1.00  0.00     0.117 A 
ATOM     21  C   UNL A   1      46.312  24.682  39.114  1.00  0.00     0.076 A 
ATOM     22  C   UNL A   1      45.317  24.326  40.002  1.00  0.00     0.049 A 
BRANCH  21  23
ATOM     23  C   UNL A   1      46.452  26.066  38.650  1.00  0.00     0.001 A 
ATOM     24  C   UNL A   1      47.712  26.667  38.534  1.00  0.00     0.014 A 
ATOM     25  C   UNL A   1      45.323  26.830  38.317  1.00  0.00     0.014 A 
ATOM     26  C   UNL A   1      47.832  27.995  38.111  1.00  0.00     0.047 A 
ATOM     27  C   UNL A   1      45.443  28.166  37.915  1.00  0.00     0.047 A 
ATOM     28  C   UNL A   1      46.698  28.759  37.818  1.00  0.00     0.126 A 
BRANCH  28  29
ATOM     29  O   UNL A   1      46.955  30.050  37.454  1.00  0.00    -0.435 OA
BRANCH  29  30
ATOM     30  C   UNL A   1      45.875  30.840  36.970  1.00  0.00     0.542 C 
ATOM     31  F   UNL A   1      46.028  32.125  37.374  1.00  0.00    -0.167 F 
ATOM     32  F   UNL A   1      45.852  30.820  35.615  1.00  0.00    -0.167 F 
ENDBRANCH  29  30
ENDBRANCH  28  29
ENDBRANCH  21  23
ENDBRANCH  15  17
ENDBRANCH  11  13
ENDBRANCH   5   7
ENDBRANCH   4   5
ENDBRANCH   3   4
ENDBRANCH   2   3
ENDBRANCH   1   2
BRANCH   1  33
ATOM     33  C   UNL A   1      51.553  21.199  33.482  1.00  0.00     0.188 C 
BRANCH  33  34
ATOM     34  C   UNL A   1      50.947  22.616  33.593  1.00  0.00     0.188 C 
BRANCH  34  35
ATOM     35  O   UNL A   1      51.604  23.643  34.310  1.00  0.00    -0.376 OA
BRANCH  35  36
ATOM     36  C   UNL A   1      51.131  24.978  34.229  1.00  0.00     0.202 C 
BRANCH  36  37
ATOM     37  C   UNL A   1      50.482  25.629  35.447  1.00  0.00     0.261 C 
BRANCH  37  38
ATOM     38  O   UNL A   1      49.226  26.255  35.154  1.00  0.00    -0.460 OA
BRANCH  38  39
ATOM     39  C   UNL A   1      48.154  25.434  35.231  1.00  0.00     0.338 C 
ATOM     40  O   UNL A   1      48.126  24.270  35.593  1.00  0.00    -0.246 OA
BRANCH  39  41
ATOM     41  C   UNL A   1      46.931  26.195  34.932  1.00  0.00     0.060 A 
ATOM     42  C   UNL A   1      45.699  25.540  35.057  1.00  0.00     0.016 A 
ATOM     43  C   UNL A   1      47.001  27.503  34.453  1.00  0.00     0.016 A 
ATOM     44  C   UNL A   1      44.529  26.182  34.659  1.00  0.00     0.010 A 
ATOM     45  C   UNL A   1      45.828  28.139  34.037  1.00  0.00     0.010 A 
ATOM     46  C   UNL A   1      44.594  27.467  34.107  1.00  0.00    -0.014 A 
BRANCH  46  47
ATOM     47  C   UNL A   1      43.400  28.047  33.452  1.00  0.00     0.031 A 
ATOM     48  C   UNL A   1      43.137  27.718  32.009  1.00  0.00     0.074 A 
ATOM     49  C   UNL A   1      42.561  28.848  34.128  1.00  0.00     0.049 A 
ATOM     50  N   UNL A   1      42.186  28.145  31.218  1.00  0.00    -0.248 NA
ATOM     51  C   UNL A   1      44.076  26.781  31.370  1.00  0.00     0.031 C 
ATOM     52  C   UNL A   1      42.691  29.209  35.538  1.00  0.00     0.029 A 
ATOM     53  N   UNL A   1      41.435  29.512  33.710  1.00  0.00    -0.354 N 
ATOM     54  C   UNL A   1      42.410  27.531  29.994  1.00  0.00     0.074 A 
ATOM     55  C   UNL A   1      43.602  26.723  30.134  1.00  0.00     0.031 C 
ATOM     56  C   UNL A   1      41.691  30.046  35.865  1.00  0.00     0.029 A 
ATOM     57  C   UNL A   1      40.870  30.297  34.682  1.00  0.00     0.049 A 
ATOM     58  H   UNL A   1      41.070  29.432  32.799  1.00  0.00     0.167 HD
ATOM     59  C   UNL A   1      41.681  27.626  28.857  1.00  0.00     0.037 A 
ATOM     60  C   UNL A   1      39.822  31.140  34.612  1.00  0.00     0.037 A 
ATOM     61  C   UNL A   1      40.501  28.434  28.715  1.00  0.00     0.049 A 
ATOM     62  C   UNL A   1      39.074  31.288  33.311  1.00  0.00     0.074 A 
ATOM     63  C   UNL A   1      39.683  28.583  27.608  1.00  0.00     0.029 A 
ATOM     64  N   UNL A   1      39.976  29.243  29.712  1.00  0.00    -0.354 N 
ATOM     65  N   UNL A   1      39.271  30.680  32.168  1.00  0.00    -0.248 NA
ATOM     66  C   UNL A   1      37.957  32.244  33.295  1.00  0.00     0.031 C 
ATOM     67  C   UNL A   1      38.689  29.516  27.921  1.00  0.00     0.029 A 
ATOM     68  C   UNL A   1      38.860  29.914  29.238  1.00  0.00     0.049 A 
ATOM     69  H   UNL A   1      40.342  29.328  30.621  1.00  0.00     0.167 HD
ATOM     70  C   UNL A   1      38.291  31.157  31.307  1.00  0.00     0.074 A 
ATOM     71  C   UNL A   1      37.493  32.098  32.063  1.00  0.00     0.031 C 
ATOM     72  C   UNL A   1      38.072  30.843  30.006  1.00  0.00     0.037 A 
BRANCH  59  73
ATOM     73  C   UNL A   1      42.157  26.848  27.667  1.00  0.00     0.064 A 
ATOM     74  C   UNL A   1      43.030  27.410  26.726  1.00  0.00     0.173 A 
ATOM     75  C   UNL A   1      41.758  25.517  27.484  1.00  0.00     0.173 A 
ATOM     76  F   UNL A   1      43.428  28.686  26.850  1.00  0.00    -0.203 F 
ATOM     77  C   UNL A   1      43.472  26.672  25.631  1.00  0.00     0.198 A 
ATOM     78  C   UNL A   1      42.221  24.773  26.402  1.00  0.00     0.198 A 
ATOM     79  F   UNL A   1      40.925  24.933  28.358  1.00  0.00    -0.203 F 
ATOM     80  F   UNL A   1      44.277  27.241  24.722  1.00  0.00    -0.200 F 
ATOM     81  C   UNL A   1      43.072  25.354  25.474  1.00  0.00     0.200 A 
ATOM     82  F   UNL A   1      41.841  23.496  26.256  1.00  0.00    -0.200 F 
ATOM     83  F   UNL A   1      43.504  24.642  24.423  1.00  0.00    -0.200 F 
ENDBRANCH  59  73
BRANCH  60  84
ATOM     84  C   UNL A   1      39.420  31.925  35.807  1.00  0.00     0.064 A 
ATOM     85  C   UNL A   1      38.407  31.473  36.663  1.00  0.00     0.173 A 
ATOM     86  C   UNL A   1      40.021  33.158  36.099  1.00  0.00     0.173 A 
ATOM     87  F   UNL A   1      37.782  30.315  36.405  1.00  0.00    -0.203 F 
ATOM     88  C   UNL A   1      37.996  32.233  37.755  1.00  0.00     0.198 A 
ATOM     89  C   UNL A   1      39.629  33.905  37.208  1.00  0.00     0.198 A 
ATOM     90  F   UNL A   1      40.991  33.639  35.308  1.00  0.00    -0.203 F 
ATOM     91  F   UNL A   1      36.991  31.802  38.529  1.00  0.00    -0.200 F 
ATOM     92  C   UNL A   1      38.611  33.446  38.030  1.00  0.00     0.200 A 
ATOM     93  F   UNL A   1      40.227  35.074  37.472  1.00  0.00    -0.200 F 
ATOM     94  F   UNL A   1      38.213  34.178  39.079  1.00  0.00    -0.200 F 
ENDBRANCH  60  84
BRANCH  72  95
ATOM     95  C   UNL A   1      36.907  31.498  29.324  1.00  0.00     0.064 A 
ATOM     96  C   UNL A   1      35.759  30.773  28.974  1.00  0.00     0.173 A 
ATOM     97  C   UNL A   1      36.920  32.875  29.061  1.00  0.00     0.173 A 
ATOM     98  F   UNL A   1      35.703  29.450  29.192  1.00  0.00    -0.203 F 
ATOM     99  C   UNL A   1      34.674  31.400  28.368  1.00  0.00     0.198 A 
ATOM    100  C   UNL A   1      35.823  33.505  28.479  1.00  0.00     0.198 A 
ATOM    101  F   UNL A   1      37.992  33.616  29.384  1.00  0.00    -0.203 F 
ATOM    102  F   UNL A   1      33.603  30.681  28.006  1.00  0.00    -0.200 F 
ATOM    103  C   UNL A   1      34.705  32.766  28.127  1.00  0.00     0.200 A 
ATOM    104  F   UNL A   1      35.849  34.827  28.260  1.00  0.00    -0.200 F 
ATOM    105  F   UNL A   1      33.655  33.370  27.552  1.00  0.00    -0.200 F 
ENDBRANCH  72  95
ENDBRANCH  46  47
ENDBRANCH  39  41
ENDBRANCH  38  39
ENDBRANCH  37  38
ENDBRANCH  36  37
ENDBRANCH  35  36
ENDBRANCH  34  35
ENDBRANCH  33  34
ENDBRANCH   1  33
TORSDOF 22
ENDMDL
