MODEL 1
REMARK VINA RESULT:     -11.6      0.000      0.000
REMARK SMILES C[C@@H](Oc1ccc(C(C)(C)C)cc1)C(=O)Oc1cccc(C(=O)OCCOCCOCCOC(=O)c2ccc(-c3c4nc(c(-c5c(F)c(F)c(F)c(F)c5F)c5ccc([nH]5)c(-c5c(F)c(F)c(F)c(F)c5F)c5nc(c(-c6c(F)c(F)c(F)c(F)c6F)c6ccc3[nH]6)C=C5)C=C4)cc2)c1
REMARK SMILES IDX 26 1 25 2 24 3 22 4 23 5 21 6 17 7 18 8 99 9 19 10 20 11
REMARK SMILES IDX 16 12 14 13 15 14 2 15 1 16 3 17 4 18 5 19 13 20 6 21 12 22
REMARK SMILES IDX 7 23 8 24 9 25 10 26 11 27 27 28 28 29 29 30 30 31 31 32
REMARK SMILES IDX 32 33 33 34 34 35 35 36 36 37 37 38 98 39 38 40 97 41 39 42
REMARK SMILES IDX 40 43 41 44 91 45 42 46 96 47 90 48 92 49 43 50 95 51 89 52
REMARK SMILES IDX 88 53 44 55 76 56 56 57 75 58 57 59 60 60 74 61 93 62 58 63
REMARK SMILES IDX 59 64 73 66 94 67 61 68 45 69 46 70 54 71 47 72 48 73 52 74
REMARK SMILES IDX 55 75 49 76 50 77 53 78 51 79 77 80 78 81 86 82 79 83 80 84
REMARK SMILES IDX 84 85 87 86 81 87 82 88 85 89 83 90 62 91 63 92 71 93 64 94
REMARK SMILES IDX 65 95 69 96 72 97 66 98 67 99 70 100 68 101
REMARK H PARENT 92 54 60 65
REMARK Flexibility Score: inf
ROOT
ATOM      1  C   UNL A   1      31.918  22.787  27.169  1.00  0.00     0.202 C 
ENDROOT
BRANCH   1   2
ATOM      2  C   UNL A   1      33.419  22.638  27.436  1.00  0.00     0.261 C 
BRANCH   2   3
ATOM      3  O   UNL A   1      33.960  21.391  26.988  1.00  0.00    -0.460 OA
BRANCH   3   4
ATOM      4  C   UNL A   1      34.863  21.471  25.975  1.00  0.00     0.338 C 
ATOM      5  O   UNL A   1      36.032  21.151  26.006  1.00  0.00    -0.246 OA
BRANCH   4   6
ATOM      6  C   UNL A   1      34.147  21.819  24.725  1.00  0.00     0.063 A 
ATOM      7  C   UNL A   1      33.648  23.326  22.923  1.00  0.00     0.131 A 
ATOM      8  C   UNL A   1      32.679  22.443  22.438  1.00  0.00     0.047 A 
ATOM      9  C   UNL A   1      34.355  23.043  24.089  1.00  0.00     0.063 A 
ATOM     10  C   UNL A   1      32.456  21.232  23.094  1.00  0.00     0.005 A 
ATOM     11  C   UNL A   1      33.204  20.910  24.227  1.00  0.00     0.016 A 
BRANCH   7  12
ATOM     12  O   UNL A   1      33.838  24.511  22.191  1.00  0.00    -0.424 OA
BRANCH  12  13
ATOM     13  C   UNL A   1      33.484  25.721  22.793  1.00  0.00     0.352 C 
ATOM     14  O   UNL A   1      34.067  26.266  23.726  1.00  0.00    -0.247 OA
BRANCH  13  15
ATOM     15  C   UNL A   1      32.353  26.389  22.019  1.00  0.00     0.279 C 
ATOM     16  C   UNL A   1      32.218  25.596  20.717  1.00  0.00     0.066 C 
BRANCH  15  17
ATOM     17  O   UNL A   1      31.148  26.397  22.794  1.00  0.00    -0.479 OA
BRANCH  17  18
ATOM     18  C   UNL A   1      30.474  27.586  22.719  1.00  0.00     0.120 A 
ATOM     19  C   UNL A   1      31.175  28.747  22.417  1.00  0.00     0.047 A 
ATOM     20  C   UNL A   1      29.128  27.666  23.050  1.00  0.00     0.047 A 
ATOM     21  C   UNL A   1      30.506  29.980  22.390  1.00  0.00     0.008 A 
ATOM     22  C   UNL A   1      28.458  28.890  23.000  1.00  0.00     0.008 A 
ATOM     23  C   UNL A   1      29.125  30.076  22.663  1.00  0.00    -0.042 A 
BRANCH  23  24
ATOM     24  C   UNL A   1      28.404  31.435  22.647  1.00  0.00    -0.013 C 
ATOM     25  C   UNL A   1      27.744  31.634  21.267  1.00  0.00     0.016 C 
ATOM     26  C   UNL A   1      27.319  31.494  23.744  1.00  0.00     0.016 C 
ATOM     27  C   UNL A   1      29.349  32.637  22.890  1.00  0.00     0.016 C 
ENDBRANCH  23  24
ENDBRANCH  17  18
ENDBRANCH  15  17
ENDBRANCH  13  15
ENDBRANCH  12  13
ENDBRANCH   7  12
ENDBRANCH   4   6
ENDBRANCH   3   4
ENDBRANCH   2   3
ENDBRANCH   1   2
BRANCH   1  28
ATOM     28  O   UNL A   1      31.285  24.056  27.253  1.00  0.00    -0.376 OA
BRANCH  28  29
ATOM     29  C   UNL A   1      31.439  24.996  26.206  1.00  0.00     0.188 C 
BRANCH  29  30
ATOM     30  C   UNL A   1      32.082  26.375  26.460  1.00  0.00     0.188 C 
BRANCH  30  31
ATOM     31  O   UNL A   1      31.265  27.495  26.696  1.00  0.00    -0.376 OA
BRANCH  31  32
ATOM     32  C   UNL A   1      31.541  28.749  26.097  1.00  0.00     0.202 C 
BRANCH  32  33
ATOM     33  C   UNL A   1      31.905  30.041  26.848  1.00  0.00     0.261 C 
BRANCH  33  34
ATOM     34  O   UNL A   1      33.024  30.791  26.373  1.00  0.00    -0.460 OA
BRANCH  34  35
ATOM     35  C   UNL A   1      33.461  31.762  27.213  1.00  0.00     0.338 C 
ATOM     36  O   UNL A   1      32.848  32.735  27.613  1.00  0.00    -0.246 OA
BRANCH  35  37
ATOM     37  C   UNL A   1      34.791  31.389  27.721  1.00  0.00     0.060 A 
ATOM     38  C   UNL A   1      35.058  30.038  27.982  1.00  0.00     0.016 A 
ATOM     39  C   UNL A   1      35.744  32.372  27.989  1.00  0.00     0.016 A 
ATOM     40  C   UNL A   1      36.280  29.667  28.539  1.00  0.00     0.010 A 
ATOM     41  C   UNL A   1      36.959  31.999  28.567  1.00  0.00     0.010 A 
ATOM     42  C   UNL A   1      37.220  30.651  28.872  1.00  0.00    -0.014 A 
BRANCH  42  43
ATOM     43  C   UNL A   1      38.395  30.310  29.709  1.00  0.00     0.031 A 
ATOM     44  C   UNL A   1      39.395  29.329  29.164  1.00  0.00     0.074 A 
ATOM     45  C   UNL A   1      38.560  30.841  30.933  1.00  0.00     0.049 A 
ATOM     46  N   UNL A   1      40.429  28.781  29.750  1.00  0.00    -0.248 NA
ATOM     47  C   UNL A   1      39.198  28.902  27.769  1.00  0.00     0.031 C 
ATOM     48  C   UNL A   1      37.684  31.832  31.552  1.00  0.00     0.029 A 
ATOM     49  N   UNL A   1      39.520  30.596  31.884  1.00  0.00    -0.354 N 
ATOM     50  C   UNL A   1      40.993  27.938  28.803  1.00  0.00     0.074 A 
ATOM     51  C   UNL A   1      40.181  28.029  27.609  1.00  0.00     0.031 C 
ATOM     52  C   UNL A   1      38.131  32.092  32.794  1.00  0.00     0.029 A 
ATOM     53  C   UNL A   1      39.300  31.257  33.068  1.00  0.00     0.049 A 
ATOM     54  H   UNL A   1      40.291  30.002  31.733  1.00  0.00     0.167 HD
ATOM     55  C   UNL A   1      42.092  27.156  28.920  1.00  0.00     0.037 A 
ATOM     56  C   UNL A   1      39.950  31.166  34.245  1.00  0.00     0.037 A 
ATOM     57  C   UNL A   1      42.901  27.071  30.106  1.00  0.00     0.049 A 
ATOM     58  C   UNL A   1      41.131  30.233  34.370  1.00  0.00     0.074 A 
ATOM     59  C   UNL A   1      44.047  26.323  30.316  1.00  0.00     0.029 A 
ATOM     60  N   UNL A   1      42.644  27.752  31.286  1.00  0.00    -0.354 N 
ATOM     61  N   UNL A   1      41.675  29.458  33.464  1.00  0.00    -0.248 NA
ATOM     62  C   UNL A   1      41.788  30.165  35.684  1.00  0.00     0.031 C 
ATOM     63  C   UNL A   1      44.453  26.512  31.640  1.00  0.00     0.029 A 
ATOM     64  C   UNL A   1      43.597  27.424  32.236  1.00  0.00     0.049 A 
ATOM     65  H   UNL A   1      41.896  28.376  31.428  1.00  0.00     0.167 HD
ATOM     66  C   UNL A   1      42.757  28.844  34.084  1.00  0.00     0.074 A 
ATOM     67  C   UNL A   1      42.798  29.340  35.443  1.00  0.00     0.031 C 
ATOM     68  C   UNL A   1      43.641  27.951  33.575  1.00  0.00     0.037 A 
BRANCH  55  69
ATOM     69  C   UNL A   1      42.474  26.308  27.744  1.00  0.00     0.064 A 
ATOM     70  C   UNL A   1      43.422  26.736  26.802  1.00  0.00     0.173 A 
ATOM     71  C   UNL A   1      41.927  25.025  27.591  1.00  0.00     0.173 A 
ATOM     72  F   UNL A   1      43.962  27.960  26.897  1.00  0.00    -0.203 F 
ATOM     73  C   UNL A   1      43.794  25.917  25.741  1.00  0.00     0.198 A 
ATOM     74  C   UNL A   1      42.323  24.198  26.544  1.00  0.00     0.198 A 
ATOM     75  F   UNL A   1      41.019  24.569  28.466  1.00  0.00    -0.203 F 
ATOM     76  F   UNL A   1      44.674  26.359  24.832  1.00  0.00    -0.200 F 
ATOM     77  C   UNL A   1      43.252  24.645  25.618  1.00  0.00     0.200 A 
ATOM     78  F   UNL A   1      41.808  22.966  26.435  1.00  0.00    -0.200 F 
ATOM     79  F   UNL A   1      43.625  23.851  24.605  1.00  0.00    -0.200 F 
ENDBRANCH  55  69
BRANCH  56  80
ATOM     80  C   UNL A   1      39.489  31.954  35.420  1.00  0.00     0.064 A 
ATOM     81  C   UNL A   1      38.601  31.406  36.357  1.00  0.00     0.173 A 
ATOM     82  C   UNL A   1      39.885  33.288  35.602  1.00  0.00     0.173 A 
ATOM     83  F   UNL A   1      38.170  30.144  36.211  1.00  0.00    -0.203 F 
ATOM     84  C   UNL A   1      38.101  32.170  37.410  1.00  0.00     0.198 A 
ATOM     85  C   UNL A   1      39.409  34.042  36.674  1.00  0.00     0.198 A 
ATOM     86  F   UNL A   1      40.728  33.864  34.732  1.00  0.00    -0.203 F 
ATOM     87  F   UNL A   1      37.203  31.641  38.251  1.00  0.00    -0.200 F 
ATOM     88  C   UNL A   1      38.509  33.486  37.570  1.00  0.00     0.200 A 
ATOM     89  F   UNL A   1      39.812  35.310  36.828  1.00  0.00    -0.200 F 
ATOM     90  F   UNL A   1      38.022  34.223  38.577  1.00  0.00    -0.200 F 
ENDBRANCH  56  80
BRANCH  68  91
ATOM     91  C   UNL A   1      44.768  27.499  34.458  1.00  0.00     0.064 A 
ATOM     92  C   UNL A   1      44.704  26.304  35.188  1.00  0.00     0.173 A 
ATOM     93  C   UNL A   1      45.956  28.245  34.521  1.00  0.00     0.173 A 
ATOM     94  F   UNL A   1      43.587  25.561  35.171  1.00  0.00    -0.203 F 
ATOM     95  C   UNL A   1      45.781  25.881  35.963  1.00  0.00     0.198 A 
ATOM     96  C   UNL A   1      47.041  27.804  35.272  1.00  0.00     0.198 A 
ATOM     97  F   UNL A   1      46.072  29.391  33.834  1.00  0.00    -0.203 F 
ATOM     98  F   UNL A   1      45.685  24.756  36.684  1.00  0.00    -0.200 F 
ATOM     99  C   UNL A   1      46.951  26.626  35.997  1.00  0.00     0.200 A 
ATOM    100  F   UNL A   1      48.176  28.516  35.289  1.00  0.00    -0.200 F 
ATOM    101  F   UNL A   1      47.991  26.209  36.732  1.00  0.00    -0.200 F 
ENDBRANCH  68  91
ENDBRANCH  42  43
ENDBRANCH  35  37
ENDBRANCH  34  35
ENDBRANCH  33  34
ENDBRANCH  32  33
ENDBRANCH  31  32
ENDBRANCH  30  31
ENDBRANCH  29  30
ENDBRANCH  28  29
ENDBRANCH   1  28
TORSDOF 23
ENDMDL
MODEL 2
REMARK VINA RESULT:     -11.2      0.571      6.971
REMARK SMILES C[C@@H](Oc1ccc(C(C)(C)C)cc1)C(=O)Oc1cccc(C(=O)OCCOCCOCCOC(=O)c2ccc(-c3c4nc(c(-c5c(F)c(F)c(F)c(F)c5F)c5ccc([nH]5)c(-c5c(F)c(F)c(F)c(F)c5F)c5nc(c(-c6c(F)c(F)c(F)c(F)c6F)c6ccc3[nH]6)C=C5)C=C4)cc2)c1
REMARK SMILES IDX 26 1 25 2 24 3 22 4 23 5 21 6 17 7 18 8 99 9 19 10 20 11
REMARK SMILES IDX 16 12 14 13 15 14 2 15 1 16 3 17 4 18 5 19 13 20 6 21 12 22
REMARK SMILES IDX 7 23 8 24 9 25 10 26 11 27 27 28 28 29 29 30 30 31 31 32
REMARK SMILES IDX 32 33 33 34 34 35 35 36 36 37 37 38 98 39 38 40 97 41 39 42
REMARK SMILES IDX 40 43 41 44 91 45 42 46 96 47 90 48 92 49 43 50 95 51 89 52
REMARK SMILES IDX 88 53 44 55 76 56 56 57 75 58 57 59 60 60 74 61 93 62 58 63
REMARK SMILES IDX 59 64 73 66 94 67 61 68 45 69 46 70 54 71 47 72 48 73 52 74
REMARK SMILES IDX 55 75 49 76 50 77 53 78 51 79 77 80 78 81 86 82 79 83 80 84
REMARK SMILES IDX 84 85 87 86 81 87 82 88 85 89 83 90 62 91 63 92 71 93 64 94
REMARK SMILES IDX 65 95 69 96 72 97 66 98 67 99 70 100 68 101
REMARK H PARENT 92 54 60 65
REMARK Flexibility Score: inf
ROOT
ATOM      1  C   UNL A   1      31.830  22.840  27.058  1.00  0.00     0.202 C 
ENDROOT
BRANCH   1   2
ATOM      2  C   UNL A   1      33.345  22.681  27.225  1.00  0.00     0.261 C 
BRANCH   2   3
ATOM      3  O   UNL A   1      33.832  21.394  26.832  1.00  0.00    -0.460 OA
BRANCH   3   4
ATOM      4  C   UNL A   1      34.733  21.391  25.814  1.00  0.00     0.338 C 
ATOM      5  O   UNL A   1      35.873  20.982  25.843  1.00  0.00    -0.246 OA
BRANCH   4   6
ATOM      6  C   UNL A   1      34.038  21.780  24.564  1.00  0.00     0.063 A 
ATOM      7  C   UNL A   1      33.590  23.333  22.789  1.00  0.00     0.131 A 
ATOM      8  C   UNL A   1      32.610  22.480  22.274  1.00  0.00     0.047 A 
ATOM      9  C   UNL A   1      34.277  23.012  23.956  1.00  0.00     0.063 A 
ATOM     10  C   UNL A   1      32.355  21.259  22.902  1.00  0.00     0.005 A 
ATOM     11  C   UNL A   1      33.084  20.900  24.036  1.00  0.00     0.016 A 
BRANCH   7  12
ATOM     12  O   UNL A   1      33.810  24.529  22.084  1.00  0.00    -0.424 OA
BRANCH  12  13
ATOM     13  C   UNL A   1      33.473  25.733  22.707  1.00  0.00     0.352 C 
ATOM     14  O   UNL A   1      34.065  26.255  23.647  1.00  0.00    -0.247 OA
BRANCH  13  15
ATOM     15  C   UNL A   1      32.346  26.426  21.948  1.00  0.00     0.279 C 
ATOM     16  C   UNL A   1      32.239  25.696  20.608  1.00  0.00     0.066 C 
BRANCH  15  17
ATOM     17  O   UNL A   1      31.130  26.387  22.704  1.00  0.00    -0.479 OA
BRANCH  17  18
ATOM     18  C   UNL A   1      30.495  27.598  22.757  1.00  0.00     0.120 A 
ATOM     19  C   UNL A   1      29.160  27.650  23.136  1.00  0.00     0.047 A 
ATOM     20  C   UNL A   1      31.132  28.757  22.330  1.00  0.00     0.047 A 
ATOM     21  C   UNL A   1      28.483  28.880  23.142  1.00  0.00     0.008 A 
ATOM     22  C   UNL A   1      30.465  29.982  22.359  1.00  0.00     0.008 A 
ATOM     23  C   UNL A   1      29.128  30.079  22.772  1.00  0.00    -0.042 A 
BRANCH  23  24
ATOM     24  C   UNL A   1      28.373  31.419  22.766  1.00  0.00    -0.013 C 
ATOM     25  C   UNL A   1      27.206  31.339  23.772  1.00  0.00     0.016 C 
ATOM     26  C   UNL A   1      29.311  32.580  23.165  1.00  0.00     0.016 C 
ATOM     27  C   UNL A   1      27.776  31.784  21.385  1.00  0.00     0.016 C 
ENDBRANCH  23  24
ENDBRANCH  17  18
ENDBRANCH  15  17
ENDBRANCH  13  15
ENDBRANCH  12  13
ENDBRANCH   7  12
ENDBRANCH   4   6
ENDBRANCH   3   4
ENDBRANCH   2   3
ENDBRANCH   1   2
BRANCH   1  28
ATOM     28  O   UNL A   1      31.213  24.114  27.181  1.00  0.00    -0.376 OA
BRANCH  28  29
ATOM     29  C   UNL A   1      31.417  25.098  26.183  1.00  0.00     0.188 C 
BRANCH  29  30
ATOM     30  C   UNL A   1      32.111  26.436  26.514  1.00  0.00     0.188 C 
BRANCH  30  31
ATOM     31  O   UNL A   1      31.337  27.589  26.736  1.00  0.00    -0.376 OA
BRANCH  31  32
ATOM     32  C   UNL A   1      31.705  28.841  26.183  1.00  0.00     0.202 C 
BRANCH  32  33
ATOM     33  C   UNL A   1      32.154  30.077  26.981  1.00  0.00     0.261 C 
BRANCH  33  34
ATOM     34  O   UNL A   1      33.295  30.794  26.507  1.00  0.00    -0.460 OA
BRANCH  34  35
ATOM     35  C   UNL A   1      33.827  31.673  27.390  1.00  0.00     0.338 C 
ATOM     36  O   UNL A   1      33.311  32.677  27.850  1.00  0.00    -0.246 OA
BRANCH  35  37
ATOM     37  C   UNL A   1      35.120  31.151  27.861  1.00  0.00     0.060 A 
ATOM     38  C   UNL A   1      35.271  29.767  28.018  1.00  0.00     0.016 A 
ATOM     39  C   UNL A   1      36.153  32.027  28.196  1.00  0.00     0.016 A 
ATOM     40  C   UNL A   1      36.457  29.252  28.538  1.00  0.00     0.010 A 
ATOM     41  C   UNL A   1      37.332  31.510  28.737  1.00  0.00     0.010 A 
ATOM     42  C   UNL A   1      37.478  30.125  28.938  1.00  0.00    -0.014 A 
BRANCH  42  43
ATOM     43  C   UNL A   1      38.619  29.623  29.740  1.00  0.00     0.031 A 
ATOM     44  C   UNL A   1      38.835  30.204  31.108  1.00  0.00     0.074 A 
ATOM     45  C   UNL A   1      39.455  28.688  29.258  1.00  0.00     0.049 A 
ATOM     46  N   UNL A   1      39.826  30.021  31.944  1.00  0.00    -0.248 NA
ATOM     47  C   UNL A   1      37.796  31.125  31.600  1.00  0.00     0.031 C 
ATOM     48  C   UNL A   1      39.325  28.019  27.966  1.00  0.00     0.029 A 
ATOM     49  N   UNL A   1      40.600  28.157  29.799  1.00  0.00    -0.354 N 
ATOM     50  C   UNL A   1      39.536  30.812  33.047  1.00  0.00     0.074 A 
ATOM     51  C   UNL A   1      38.290  31.492  32.773  1.00  0.00     0.031 C 
ATOM     52  C   UNL A   1      40.366  27.184  27.800  1.00  0.00     0.029 A 
ATOM     53  C   UNL A   1      41.255  27.291  28.957  1.00  0.00     0.049 A 
ATOM     54  H   UNL A   1      40.922  28.377  30.704  1.00  0.00     0.167 HD
ATOM     55  C   UNL A   1      40.250  30.957  34.189  1.00  0.00     0.037 A 
ATOM     56  C   UNL A   1      42.451  26.687  29.096  1.00  0.00     0.037 A 
ATOM     57  C   UNL A   1      41.487  30.277  34.462  1.00  0.00     0.049 A 
ATOM     58  C   UNL A   1      43.260  26.921  30.349  1.00  0.00     0.074 A 
ATOM     59  C   UNL A   1      42.275  30.343  35.598  1.00  0.00     0.029 A 
ATOM     60  N   UNL A   1      42.120  29.412  33.584  1.00  0.00    -0.354 N 
ATOM     61  N   UNL A   1      42.970  27.649  31.400  1.00  0.00    -0.248 NA
ATOM     62  C   UNL A   1      44.564  26.247  30.435  1.00  0.00     0.031 C 
ATOM     63  C   UNL A   1      43.410  29.557  35.386  1.00  0.00     0.029 A 
ATOM     64  C   UNL A   1      43.302  28.953  34.144  1.00  0.00     0.049 A 
ATOM     65  H   UNL A   1      41.782  29.159  32.694  1.00  0.00     0.167 HD
ATOM     66  C   UNL A   1      44.031  27.488  32.284  1.00  0.00     0.074 A 
ATOM     67  C   UNL A   1      44.971  26.589  31.649  1.00  0.00     0.031 C 
ATOM     68  C   UNL A   1      44.211  28.034  33.511  1.00  0.00     0.037 A 
BRANCH  55  69
ATOM     69  C   UNL A   1      39.726  31.908  35.223  1.00  0.00     0.064 A 
ATOM     70  C   UNL A   1      40.035  33.276  35.192  1.00  0.00     0.173 A 
ATOM     71  C   UNL A   1      38.855  31.453  36.225  1.00  0.00     0.173 A 
ATOM     72  F   UNL A   1      40.874  33.757  34.263  1.00  0.00    -0.203 F 
ATOM     73  C   UNL A   1      39.504  34.150  36.136  1.00  0.00     0.198 A 
ATOM     74  C   UNL A   1      38.305  32.334  37.150  1.00  0.00     0.198 A 
ATOM     75  F   UNL A   1      38.527  30.154  36.297  1.00  0.00    -0.203 F 
ATOM     76  F   UNL A   1      39.840  35.447  36.109  1.00  0.00    -0.200 F 
ATOM     77  C   UNL A   1      38.632  33.681  37.108  1.00  0.00     0.200 A 
ATOM     78  F   UNL A   1      37.453  31.881  38.080  1.00  0.00    -0.200 F 
ATOM     79  F   UNL A   1      38.109  34.527  38.006  1.00  0.00    -0.200 F 
ENDBRANCH  55  69
BRANCH  56  80
ATOM     80  C   UNL A   1      42.985  25.820  28.011  1.00  0.00     0.064 A 
ATOM     81  C   UNL A   1      42.690  24.450  27.966  1.00  0.00     0.173 A 
ATOM     82  C   UNL A   1      43.845  26.332  27.027  1.00  0.00     0.173 A 
ATOM     83  F   UNL A   1      41.896  23.907  28.900  1.00  0.00    -0.203 F 
ATOM     84  C   UNL A   1      43.258  23.620  27.001  1.00  0.00     0.198 A 
ATOM     85  C   UNL A   1      44.388  25.508  26.043  1.00  0.00     0.198 A 
ATOM     86  F   UNL A   1      44.167  27.634  27.027  1.00  0.00    -0.203 F 
ATOM     87  F   UNL A   1      43.010  22.305  27.022  1.00  0.00    -0.200 F 
ATOM     88  C   UNL A   1      44.103  24.151  26.037  1.00  0.00     0.200 A 
ATOM     89  F   UNL A   1      45.198  26.026  25.110  1.00  0.00    -0.200 F 
ATOM     90  F   UNL A   1      44.656  23.352  25.115  1.00  0.00    -0.200 F 
ENDBRANCH  56  80
BRANCH  68  91
ATOM     91  C   UNL A   1      45.432  27.629  34.285  1.00  0.00     0.064 A 
ATOM     92  C   UNL A   1      46.645  28.323  34.172  1.00  0.00     0.173 A 
ATOM     93  C   UNL A   1      45.364  26.569  35.203  1.00  0.00     0.173 A 
ATOM     94  F   UNL A   1      46.766  29.335  33.301  1.00  0.00    -0.203 F 
ATOM     95  C   UNL A   1      47.751  27.958  34.937  1.00  0.00     0.198 A 
ATOM     96  C   UNL A   1      46.462  26.226  35.987  1.00  0.00     0.198 A 
ATOM     97  F   UNL A   1      44.224  25.879  35.356  1.00  0.00    -0.203 F 
ATOM     98  F   UNL A   1      48.912  28.609  34.785  1.00  0.00    -0.200 F 
ATOM     99  C   UNL A   1      47.656  26.917  35.849  1.00  0.00     0.200 A 
ATOM    100  F   UNL A   1      46.362  25.233  36.880  1.00  0.00    -0.200 F 
ATOM    101  F   UNL A   1      48.718  26.578  36.594  1.00  0.00    -0.200 F 
ENDBRANCH  68  91
ENDBRANCH  42  43
ENDBRANCH  35  37
ENDBRANCH  34  35
ENDBRANCH  33  34
ENDBRANCH  32  33
ENDBRANCH  31  32
ENDBRANCH  30  31
ENDBRANCH  29  30
ENDBRANCH  28  29
ENDBRANCH   1  28
TORSDOF 23
ENDMDL
MODEL 3
REMARK VINA RESULT:     -11.2      3.036      7.733
REMARK SMILES C[C@@H](Oc1ccc(C(C)(C)C)cc1)C(=O)Oc1cccc(C(=O)OCCOCCOCCOC(=O)c2ccc(-c3c4nc(c(-c5c(F)c(F)c(F)c(F)c5F)c5ccc([nH]5)c(-c5c(F)c(F)c(F)c(F)c5F)c5nc(c(-c6c(F)c(F)c(F)c(F)c6F)c6ccc3[nH]6)C=C5)C=C4)cc2)c1
REMARK SMILES IDX 26 1 25 2 24 3 22 4 23 5 21 6 17 7 18 8 99 9 19 10 20 11
REMARK SMILES IDX 16 12 14 13 15 14 2 15 1 16 3 17 4 18 5 19 13 20 6 21 12 22
REMARK SMILES IDX 7 23 8 24 9 25 10 26 11 27 27 28 28 29 29 30 30 31 31 32
REMARK SMILES IDX 32 33 33 34 34 35 35 36 36 37 37 38 98 39 38 40 97 41 39 42
REMARK SMILES IDX 40 43 41 44 91 45 42 46 96 47 90 48 92 49 43 50 95 51 89 52
REMARK SMILES IDX 88 53 44 55 76 56 56 57 75 58 57 59 60 60 74 61 93 62 58 63
REMARK SMILES IDX 59 64 73 66 94 67 61 68 45 69 46 70 54 71 47 72 48 73 52 74
REMARK SMILES IDX 55 75 49 76 50 77 53 78 51 79 77 80 78 81 86 82 79 83 80 84
REMARK SMILES IDX 84 85 87 86 81 87 82 88 85 89 83 90 62 91 63 92 71 93 64 94
REMARK SMILES IDX 65 95 69 96 72 97 66 98 67 99 70 100 68 101
REMARK H PARENT 92 54 60 65
REMARK Flexibility Score: inf
ROOT
ATOM      1  C   UNL A   1      39.188  21.974  26.158  1.00  0.00     0.202 C 
ENDROOT
BRANCH   1   2
ATOM      2  C   UNL A   1      38.091  21.463  25.219  1.00  0.00     0.261 C 
BRANCH   2   3
ATOM      3  O   UNL A   1      36.778  21.518  25.787  1.00  0.00    -0.460 OA
BRANCH   3   4
ATOM      4  C   UNL A   1      36.031  22.600  25.440  1.00  0.00     0.338 C 
ATOM      5  O   UNL A   1      36.345  23.768  25.525  1.00  0.00    -0.246 OA
BRANCH   4   6
ATOM      6  C   UNL A   1      34.821  22.132  24.724  1.00  0.00     0.063 A 
ATOM      7  C   UNL A   1      32.983  22.488  23.220  1.00  0.00     0.131 A 
ATOM      8  C   UNL A   1      32.491  21.211  23.501  1.00  0.00     0.047 A 
ATOM      9  C   UNL A   1      34.121  22.973  23.859  1.00  0.00     0.063 A 
ATOM     10  C   UNL A   1      33.180  20.383  24.388  1.00  0.00     0.005 A 
ATOM     11  C   UNL A   1      34.356  20.836  24.986  1.00  0.00     0.016 A 
BRANCH   7  12
ATOM     12  O   UNL A   1      32.253  23.250  22.292  1.00  0.00    -0.424 OA
BRANCH  12  13
ATOM     13  C   UNL A   1      32.933  23.781  21.194  1.00  0.00     0.352 C 
ATOM     14  O   UNL A   1      33.552  23.144  20.346  1.00  0.00    -0.247 OA
BRANCH  13  15
ATOM     15  C   UNL A   1      32.666  25.278  21.076  1.00  0.00     0.279 C 
ATOM     16  C   UNL A   1      32.578  25.566  19.575  1.00  0.00     0.066 C 
BRANCH  15  17
ATOM     17  O   UNL A   1      31.472  25.635  21.783  1.00  0.00    -0.479 OA
BRANCH  17  18
ATOM     18  C   UNL A   1      31.723  26.323  22.939  1.00  0.00     0.120 A 
ATOM     19  C   UNL A   1      30.757  26.353  23.936  1.00  0.00     0.047 A 
ATOM     20  C   UNL A   1      32.878  27.082  23.082  1.00  0.00     0.047 A 
ATOM     21  C   UNL A   1      30.981  27.099  25.104  1.00  0.00     0.008 A 
ATOM     22  C   UNL A   1      33.110  27.805  24.253  1.00  0.00     0.008 A 
ATOM     23  C   UNL A   1      32.173  27.827  25.296  1.00  0.00    -0.042 A 
BRANCH  23  24
ATOM     24  C   UNL A   1      32.402  28.656  26.572  1.00  0.00    -0.013 C 
ATOM     25  C   UNL A   1      32.045  30.128  26.283  1.00  0.00     0.016 C 
ATOM     26  C   UNL A   1      31.521  28.136  27.730  1.00  0.00     0.016 C 
ATOM     27  C   UNL A   1      33.865  28.621  27.076  1.00  0.00     0.016 C 
ENDBRANCH  23  24
ENDBRANCH  17  18
ENDBRANCH  15  17
ENDBRANCH  13  15
ENDBRANCH  12  13
ENDBRANCH   7  12
ENDBRANCH   4   6
ENDBRANCH   3   4
ENDBRANCH   2   3
ENDBRANCH   1   2
BRANCH   1  28
ATOM     28  O   UNL A   1      40.018  21.068  26.869  1.00  0.00    -0.376 OA
BRANCH  28  29
ATOM     29  C   UNL A   1      40.584  19.953  26.203  1.00  0.00     0.188 C 
BRANCH  29  30
ATOM     30  C   UNL A   1      41.901  19.316  26.694  1.00  0.00     0.188 C 
BRANCH  30  31
ATOM     31  O   UNL A   1      43.062  19.418  25.906  1.00  0.00    -0.376 OA
BRANCH  31  32
ATOM     32  C   UNL A   1      43.565  20.677  25.493  1.00  0.00     0.202 C 
BRANCH  32  33
ATOM     33  C   UNL A   1      43.498  21.980  26.307  1.00  0.00     0.261 C 
BRANCH  33  34
ATOM     34  O   UNL A   1      42.572  22.981  25.881  1.00  0.00    -0.460 OA
BRANCH  34  35
ATOM     35  C   UNL A   1      43.126  24.178  25.569  1.00  0.00     0.338 C 
ATOM     36  O   UNL A   1      43.884  24.435  24.651  1.00  0.00    -0.246 OA
BRANCH  35  37
ATOM     37  C   UNL A   1      42.545  25.213  26.441  1.00  0.00     0.060 A 
ATOM     38  C   UNL A   1      43.086  26.505  26.405  1.00  0.00     0.016 A 
ATOM     39  C   UNL A   1      41.514  24.892  27.324  1.00  0.00     0.016 A 
ATOM     40  C   UNL A   1      42.609  27.482  27.277  1.00  0.00     0.010 A 
ATOM     41  C   UNL A   1      41.053  25.867  28.211  1.00  0.00     0.010 A 
ATOM     42  C   UNL A   1      41.618  27.155  28.212  1.00  0.00    -0.014 A 
BRANCH  42  43
ATOM     43  C   UNL A   1      41.298  28.088  29.319  1.00  0.00     0.031 A 
ATOM     44  C   UNL A   1      42.079  27.968  30.597  1.00  0.00     0.074 A 
ATOM     45  C   UNL A   1      40.325  29.007  29.200  1.00  0.00     0.049 A 
ATOM     46  N   UNL A   1      41.905  28.580  31.741  1.00  0.00    -0.248 NA
ATOM     47  C   UNL A   1      43.209  27.023  30.587  1.00  0.00     0.031 C 
ATOM     48  C   UNL A   1      39.529  29.248  28.000  1.00  0.00     0.029 A 
ATOM     49  N   UNL A   1      39.826  29.895  30.121  1.00  0.00    -0.354 N 
ATOM     50  C   UNL A   1      42.888  28.083  32.586  1.00  0.00     0.074 A 
ATOM     51  C   UNL A   1      43.646  27.108  31.835  1.00  0.00     0.031 C 
ATOM     52  C   UNL A   1      38.620  30.204  28.265  1.00  0.00     0.029 A 
ATOM     53  C   UNL A   1      38.747  30.611  29.664  1.00  0.00     0.049 A 
ATOM     54  H   UNL A   1      40.205  30.007  31.024  1.00  0.00     0.167 HD
ATOM     55  C   UNL A   1      43.134  28.414  33.875  1.00  0.00     0.037 A 
ATOM     56  C   UNL A   1      37.936  31.468  30.316  1.00  0.00     0.037 A 
ATOM     57  C   UNL A   1      42.381  29.387  34.619  1.00  0.00     0.049 A 
ATOM     58  C   UNL A   1      38.190  31.766  31.774  1.00  0.00     0.074 A 
ATOM     59  C   UNL A   1      42.567  29.806  35.926  1.00  0.00     0.029 A 
ATOM     60  N   UNL A   1      41.293  30.088  34.123  1.00  0.00    -0.354 N 
ATOM     61  N   UNL A   1      39.137  31.314  32.560  1.00  0.00    -0.248 NA
ATOM     62  C   UNL A   1      37.262  32.696  32.434  1.00  0.00     0.031 C 
ATOM     63  C   UNL A   1      41.559  30.723  36.236  1.00  0.00     0.029 A 
ATOM     64  C   UNL A   1      40.783  30.921  35.105  1.00  0.00     0.049 A 
ATOM     65  H   UNL A   1      40.936  30.007  33.209  1.00  0.00     0.167 HD
ATOM     66  C   UNL A   1      38.943  31.932  33.790  1.00  0.00     0.074 A 
ATOM     67  C   UNL A   1      37.791  32.797  33.646  1.00  0.00     0.031 C 
ATOM     68  C   UNL A   1      39.654  31.799  34.936  1.00  0.00     0.037 A 
BRANCH  55  69
ATOM     69  C   UNL A   1      44.249  27.699  34.578  1.00  0.00     0.064 A 
ATOM     70  C   UNL A   1      45.545  28.234  34.641  1.00  0.00     0.173 A 
ATOM     71  C   UNL A   1      44.004  26.490  35.246  1.00  0.00     0.173 A 
ATOM     72  F   UNL A   1      45.833  29.379  34.005  1.00  0.00    -0.203 F 
ATOM     73  C   UNL A   1      46.556  27.576  35.334  1.00  0.00     0.198 A 
ATOM     74  C   UNL A   1      45.011  25.850  35.962  1.00  0.00     0.198 A 
ATOM     75  F   UNL A   1      42.781  25.938  35.218  1.00  0.00    -0.203 F 
ATOM     76  F   UNL A   1      47.795  28.086  35.352  1.00  0.00    -0.200 F 
ATOM     77  C   UNL A   1      46.287  26.390  36.002  1.00  0.00     0.200 A 
ATOM     78  F   UNL A   1      44.744  24.711  36.617  1.00  0.00    -0.200 F 
ATOM     79  F   UNL A   1      47.258  25.766  36.683  1.00  0.00    -0.200 F 
ENDBRANCH  55  69
BRANCH  56  80
ATOM     80  C   UNL A   1      36.782  32.092  29.613  1.00  0.00     0.064 A 
ATOM     81  C   UNL A   1      36.793  33.450  29.267  1.00  0.00     0.173 A 
ATOM     82  C   UNL A   1      35.622  31.356  29.323  1.00  0.00     0.173 A 
ATOM     83  F   UNL A   1      37.866  34.204  29.550  1.00  0.00    -0.203 F 
ATOM     84  C   UNL A   1      35.679  34.056  28.687  1.00  0.00     0.198 A 
ATOM     85  C   UNL A   1      34.521  31.955  28.714  1.00  0.00     0.198 A 
ATOM     86  F   UNL A   1      35.556  30.054  29.639  1.00  0.00    -0.203 F 
ATOM     87  F   UNL A   1      35.694  35.370  28.428  1.00  0.00    -0.200 F 
ATOM     88  C   UNL A   1      34.546  33.307  28.408  1.00  0.00     0.200 A 
ATOM     89  F   UNL A   1      33.432  31.226  28.439  1.00  0.00    -0.200 F 
ATOM     90  F   UNL A   1      33.473  33.892  27.859  1.00  0.00    -0.200 F 
ENDBRANCH  56  80
BRANCH  68  91
ATOM     91  C   UNL A   1      39.260  32.651  36.108  1.00  0.00     0.064 A 
ATOM     92  C   UNL A   1      38.414  32.173  37.119  1.00  0.00     0.173 A 
ATOM     93  C   UNL A   1      39.793  33.941  36.252  1.00  0.00     0.173 A 
ATOM     94  F   UNL A   1      37.868  30.951  37.023  1.00  0.00    -0.203 F 
ATOM     95  C   UNL A   1      38.100  32.965  38.221  1.00  0.00     0.198 A 
ATOM     96  C   UNL A   1      39.502  34.718  37.369  1.00  0.00     0.198 A 
ATOM     97  F   UNL A   1      40.615  34.441  35.318  1.00  0.00    -0.203 F 
ATOM     98  F   UNL A   1      37.258  32.505  39.156  1.00  0.00    -0.200 F 
ATOM     99  C   UNL A   1      38.651  34.232  38.351  1.00  0.00     0.200 A 
ATOM    100  F   UNL A   1      40.049  35.933  37.500  1.00  0.00    -0.200 F 
ATOM    101  F   UNL A   1      38.360  34.985  39.420  1.00  0.00    -0.200 F 
ENDBRANCH  68  91
ENDBRANCH  42  43
ENDBRANCH  35  37
ENDBRANCH  34  35
ENDBRANCH  33  34
ENDBRANCH  32  33
ENDBRANCH  31  32
ENDBRANCH  30  31
ENDBRANCH  29  30
ENDBRANCH  28  29
ENDBRANCH   1  28
TORSDOF 23
ENDMDL
