MODEL 1
REMARK VINA RESULT:     -11.3      0.000      0.000
REMARK SMILES O=C(OCCOCCOCCOC(=O)c1ccc(C[N@H+]2CC[N@H+]3CCCC[C@@H]3C2)c(F)c1)c1ccc(-c2c3nc(c(-c4c(F)c(F)c(F)c(F)c4F)c4ccc([nH]4)c(-c4c(F)c(F)c(F)c(F)c4F)c4nc(c(-c5c(F)c(F)c(F)c(F)c5F)c5ccc2[nH]5)C=C4)C=C3)cc1
REMARK SMILES IDX 7 1 6 2 5 3 4 4 3 5 2 6 1 7 33 8 34 9 95 10 35 11 94 12
REMARK SMILES IDX 36 13 37 14 38 15 88 16 39 17 93 18 87 19 89 20 40 21 92 22
REMARK SMILES IDX 86 23 85 24 41 26 73 27 53 28 72 29 54 30 57 31 71 32 90 33
REMARK SMILES IDX 55 34 56 35 70 37 91 38 58 39 42 40 43 41 51 42 44 43 45 44
REMARK SMILES IDX 49 45 52 46 46 47 47 48 50 49 48 50 74 51 75 52 83 53 76 54
REMARK SMILES IDX 77 55 81 56 84 57 78 58 79 59 82 60 80 61 59 62 60 63 68 64
REMARK SMILES IDX 61 65 62 66 66 67 69 68 63 69 64 70 67 71 65 72 8 73 9 74
REMARK SMILES IDX 10 75 11 76 12 77 13 78 14 79 15 80 16 81 32 82 17 83 30 84
REMARK SMILES IDX 18 85 31 86 19 87 20 88 21 89 29 90 22 92 28 93 23 94 27 95
REMARK SMILES IDX 24 96 26 98 25 99
REMARK H PARENT 89 25 57 36 20 91 23 97
REMARK Flexibility Score: inf
ROOT
ATOM      1  C   UNL A   1      38.064  22.981  25.719  1.00  0.00     0.188 C 
ENDROOT
BRANCH   1   2
ATOM      2  O   UNL A   1      38.512  21.738  26.258  1.00  0.00    -0.376 OA
BRANCH   2   3
ATOM      3  C   UNL A   1      38.585  20.682  25.291  1.00  0.00     0.202 C 
BRANCH   3   4
ATOM      4  C   UNL A   1      39.165  19.317  25.741  1.00  0.00     0.261 C 
BRANCH   4   5
ATOM      5  O   UNL A   1      40.603  19.195  25.753  1.00  0.00    -0.460 OA
BRANCH   5   6
ATOM      6  C   UNL A   1      41.559  19.660  26.584  1.00  0.00     0.338 C 
ATOM      7  O   UNL A   1      42.247  18.842  27.195  1.00  0.00    -0.246 OA
BRANCH   6   8
ATOM      8  C   UNL A   1      41.828  21.108  26.822  1.00  0.00     0.060 A 
ATOM      9  C   UNL A   1      41.851  21.727  28.069  1.00  0.00     0.016 A 
ATOM     10  C   UNL A   1      42.164  21.892  25.712  1.00  0.00     0.016 A 
ATOM     11  C   UNL A   1      42.097  23.096  28.226  1.00  0.00     0.010 A 
ATOM     12  C   UNL A   1      42.488  23.246  25.870  1.00  0.00     0.010 A 
ATOM     13  C   UNL A   1      42.434  23.880  27.134  1.00  0.00    -0.014 A 
BRANCH  13  14
ATOM     14  C   UNL A   1      42.741  25.338  27.218  1.00  0.00     0.031 A 
ATOM     15  C   UNL A   1      44.158  25.737  27.010  1.00  0.00     0.074 A 
ATOM     16  C   UNL A   1      41.857  26.356  27.361  1.00  0.00     0.049 A 
ATOM     17  N   UNL A   1      44.693  26.909  27.189  1.00  0.00    -0.248 NA
ATOM     18  C   UNL A   1      45.049  24.743  26.384  1.00  0.00     0.031 C 
ATOM     19  C   UNL A   1      40.453  26.359  27.003  1.00  0.00     0.029 A 
ATOM     20  N   UNL A   1      42.012  27.598  27.955  1.00  0.00    -0.354 N 
ATOM     21  C   UNL A   1      45.906  26.843  26.542  1.00  0.00     0.074 A 
ATOM     22  C   UNL A   1      46.128  25.472  26.144  1.00  0.00     0.031 C 
ATOM     23  C   UNL A   1      39.835  27.407  27.579  1.00  0.00     0.029 A 
ATOM     24  C   UNL A   1      40.797  28.157  28.345  1.00  0.00     0.049 A 
ATOM     25  H   UNL A   1      42.882  28.037  28.087  1.00  0.00     0.167 HD
ATOM     26  C   UNL A   1      46.673  27.891  26.194  1.00  0.00     0.037 A 
ATOM     27  C   UNL A   1      40.536  29.127  29.252  1.00  0.00     0.037 A 
ATOM     28  C   UNL A   1      46.396  29.243  26.588  1.00  0.00     0.049 A 
ATOM     29  C   UNL A   1      41.669  30.067  29.462  1.00  0.00     0.074 A 
ATOM     30  C   UNL A   1      47.108  30.386  26.289  1.00  0.00     0.029 A 
ATOM     31  N   UNL A   1      45.327  29.627  27.390  1.00  0.00    -0.354 N 
ATOM     32  N   UNL A   1      42.867  29.987  28.950  1.00  0.00    -0.248 NA
ATOM     33  C   UNL A   1      41.378  31.316  30.172  1.00  0.00     0.031 C 
ATOM     34  C   UNL A   1      46.528  31.448  26.989  1.00  0.00     0.029 A 
ATOM     35  C   UNL A   1      45.425  30.978  27.681  1.00  0.00     0.049 A 
ATOM     36  H   UNL A   1      44.609  29.031  27.701  1.00  0.00     0.167 HD
ATOM     37  C   UNL A   1      43.414  31.234  29.118  1.00  0.00     0.074 A 
ATOM     38  C   UNL A   1      42.475  32.009  29.907  1.00  0.00     0.031 C 
ATOM     39  C   UNL A   1      44.537  31.713  28.544  1.00  0.00     0.037 A 
BRANCH  26  40
ATOM     40  C   UNL A   1      47.851  27.598  25.335  1.00  0.00     0.064 A 
ATOM     41  C   UNL A   1      49.080  27.283  25.922  1.00  0.00     0.173 A 
ATOM     42  C   UNL A   1      47.764  27.630  23.935  1.00  0.00     0.173 A 
ATOM     43  F   UNL A   1      49.192  27.212  27.256  1.00  0.00    -0.203 F 
ATOM     44  C   UNL A   1      50.197  27.034  25.134  1.00  0.00     0.198 A 
ATOM     45  C   UNL A   1      48.879  27.362  23.149  1.00  0.00     0.198 A 
ATOM     46  F   UNL A   1      46.590  27.883  23.333  1.00  0.00    -0.203 F 
ATOM     47  F   UNL A   1      51.369  26.747  25.714  1.00  0.00    -0.200 F 
ATOM     48  C   UNL A   1      50.096  27.076  23.750  1.00  0.00     0.200 A 
ATOM     49  F   UNL A   1      48.775  27.370  21.813  1.00  0.00    -0.200 F 
ATOM     50  F   UNL A   1      51.174  26.827  22.993  1.00  0.00    -0.200 F 
ENDBRANCH  26  40
BRANCH  27  51
ATOM     51  C   UNL A   1      39.248  29.393  29.963  1.00  0.00     0.064 A 
ATOM     52  C   UNL A   1      38.228  30.083  29.268  1.00  0.00     0.173 A 
ATOM     53  C   UNL A   1      38.932  28.947  31.248  1.00  0.00     0.173 A 
ATOM     54  F   UNL A   1      38.436  30.476  28.002  1.00  0.00    -0.203 F 
ATOM     55  C   UNL A   1      37.004  30.399  29.859  1.00  0.00     0.198 A 
ATOM     56  C   UNL A   1      37.692  29.241  31.835  1.00  0.00     0.198 A 
ATOM     57  F   UNL A   1      39.819  28.222  31.943  1.00  0.00    -0.203 F 
ATOM     58  F   UNL A   1      36.096  31.118  29.184  1.00  0.00    -0.200 F 
ATOM     59  C   UNL A   1      36.739  29.985  31.151  1.00  0.00     0.200 A 
ATOM     60  F   UNL A   1      37.420  28.809  33.074  1.00  0.00    -0.200 F 
ATOM     61  F   UNL A   1      35.572  30.296  31.731  1.00  0.00    -0.200 F 
ENDBRANCH  27  51
BRANCH  39  62
ATOM     62  C   UNL A   1      44.802  33.159  28.763  1.00  0.00     0.064 A 
ATOM     63  C   UNL A   1      44.326  34.105  27.845  1.00  0.00     0.173 A 
ATOM     64  C   UNL A   1      45.518  33.601  29.880  1.00  0.00     0.173 A 
ATOM     65  F   UNL A   1      43.609  33.720  26.779  1.00  0.00    -0.203 F 
ATOM     66  C   UNL A   1      44.597  35.454  28.023  1.00  0.00     0.198 A 
ATOM     67  C   UNL A   1      45.751  34.953  30.074  1.00  0.00     0.198 A 
ATOM     68  F   UNL A   1      45.935  32.722  30.805  1.00  0.00    -0.203 F 
ATOM     69  F   UNL A   1      44.168  36.345  27.119  1.00  0.00    -0.200 F 
ATOM     70  C   UNL A   1      45.306  35.877  29.138  1.00  0.00     0.200 A 
ATOM     71  F   UNL A   1      46.391  35.366  31.176  1.00  0.00    -0.200 F 
ATOM     72  F   UNL A   1      45.551  37.181  29.319  1.00  0.00    -0.200 F 
ENDBRANCH  39  62
ENDBRANCH  13  14
ENDBRANCH   6   8
ENDBRANCH   5   6
ENDBRANCH   4   5
ENDBRANCH   3   4
ENDBRANCH   2   3
ENDBRANCH   1   2
BRANCH   1  73
ATOM     73  C   UNL A   1      36.898  22.948  24.733  1.00  0.00     0.188 C 
BRANCH  73  74
ATOM     74  O   UNL A   1      35.614  23.349  25.170  1.00  0.00    -0.376 OA
BRANCH  74  75
ATOM     75  C   UNL A   1      35.148  22.881  26.425  1.00  0.00     0.202 C 
BRANCH  75  76
ATOM     76  C   UNL A   1      34.419  21.528  26.545  1.00  0.00     0.261 C 
BRANCH  76  77
ATOM     77  O   UNL A   1      33.094  21.463  26.002  1.00  0.00    -0.460 OA
BRANCH  77  78
ATOM     78  C   UNL A   1      32.968  21.004  24.732  1.00  0.00     0.338 C 
ATOM     79  O   UNL A   1      33.309  19.902  24.324  1.00  0.00    -0.246 OA
BRANCH  78  80
ATOM     80  C   UNL A   1      32.533  22.113  23.838  1.00  0.00     0.063 A 
ATOM     81  C   UNL A   1      33.361  22.432  22.754  1.00  0.00     0.016 A 
ATOM     82  C   UNL A   1      31.433  22.928  24.124  1.00  0.00     0.055 A 
ATOM     83  C   UNL A   1      33.199  23.650  22.080  1.00  0.00     0.013 A 
ATOM     84  C   UNL A   1      31.265  24.124  23.428  1.00  0.00     0.132 A 
ATOM     85  C   UNL A   1      32.218  24.560  22.507  1.00  0.00     0.042 A 
ATOM     86  F   UNL A   1      30.272  24.946  23.799  1.00  0.00    -0.206 F 
BRANCH  85  87
ATOM     87  C   UNL A   1      32.332  26.028  22.165  1.00  0.00     0.302 C 
BRANCH  87  88
ATOM     88  N   UNL A   1      33.482  26.751  22.734  1.00  0.00    -0.322 N 
ATOM     89  C   UNL A   1      33.611  28.158  22.341  1.00  0.00     0.324 C 
ATOM     90  C   UNL A   1      33.689  26.648  24.183  1.00  0.00     0.328 C 
ATOM     91  H   UNL A   1      34.224  26.215  22.286  1.00  0.00     0.348 HD
ATOM     92  C   UNL A   1      32.850  29.171  23.226  1.00  0.00     0.324 C 
ATOM     93  C   UNL A   1      32.834  27.575  25.081  1.00  0.00     0.239 C 
ATOM     94  N   UNL A   1      32.902  28.976  24.680  1.00  0.00    -0.323 N 
ATOM     95  C   UNL A   1      33.195  27.461  26.564  1.00  0.00     0.071 C 
ATOM     96  C   UNL A   1      31.896  29.775  25.384  1.00  0.00     0.262 C 
ATOM     97  H   UNL A   1      33.822  29.314  24.962  1.00  0.00     0.348 HD
ATOM     98  C   UNL A   1      32.242  28.285  27.429  1.00  0.00     0.012 C 
ATOM     99  C   UNL A   1      32.051  29.707  26.906  1.00  0.00     0.062 C 
ENDBRANCH  87  88
ENDBRANCH  85  87
ENDBRANCH  78  80
ENDBRANCH  77  78
ENDBRANCH  76  77
ENDBRANCH  75  76
ENDBRANCH  74  75
ENDBRANCH  73  74
ENDBRANCH   1  73
TORSDOF 19
ENDMDL
MODEL 2
REMARK VINA RESULT:     -10.8      4.502      8.927
REMARK SMILES O=C(OCCOCCOCCOC(=O)c1ccc(C[N@H+]2CC[N@H+]3CCCC[C@@H]3C2)c(F)c1)c1ccc(-c2c3nc(c(-c4c(F)c(F)c(F)c(F)c4F)c4ccc([nH]4)c(-c4c(F)c(F)c(F)c(F)c4F)c4nc(c(-c5c(F)c(F)c(F)c(F)c5F)c5ccc2[nH]5)C=C4)C=C3)cc1
REMARK SMILES IDX 7 1 6 2 5 3 4 4 3 5 2 6 1 7 33 8 34 9 95 10 35 11 94 12
REMARK SMILES IDX 36 13 37 14 38 15 88 16 39 17 93 18 87 19 89 20 40 21 92 22
REMARK SMILES IDX 86 23 85 24 41 26 73 27 53 28 72 29 54 30 57 31 71 32 90 33
REMARK SMILES IDX 55 34 56 35 70 37 91 38 58 39 42 40 43 41 51 42 44 43 45 44
REMARK SMILES IDX 49 45 52 46 46 47 47 48 50 49 48 50 74 51 75 52 83 53 76 54
REMARK SMILES IDX 77 55 81 56 84 57 78 58 79 59 82 60 80 61 59 62 60 63 68 64
REMARK SMILES IDX 61 65 62 66 66 67 69 68 63 69 64 70 67 71 65 72 8 73 9 74
REMARK SMILES IDX 10 75 11 76 12 77 13 78 14 79 15 80 16 81 32 82 17 83 30 84
REMARK SMILES IDX 18 85 31 86 19 87 20 88 21 89 29 90 22 92 28 93 23 94 27 95
REMARK SMILES IDX 24 96 26 98 25 99
REMARK H PARENT 89 25 57 36 20 91 23 97
REMARK Flexibility Score: inf
ROOT
ATOM      1  C   UNL A   1      44.582  20.529  25.021  1.00  0.00     0.188 C 
ENDROOT
BRANCH   1   2
ATOM      2  O   UNL A   1      45.763  21.235  25.402  1.00  0.00    -0.376 OA
BRANCH   2   3
ATOM      3  C   UNL A   1      45.971  22.451  24.670  1.00  0.00     0.202 C 
BRANCH   3   4
ATOM      4  C   UNL A   1      46.148  23.765  25.471  1.00  0.00     0.261 C 
BRANCH   4   5
ATOM      5  O   UNL A   1      45.267  24.856  25.132  1.00  0.00    -0.460 OA
BRANCH   5   6
ATOM      6  C   UNL A   1      45.298  26.180  25.395  1.00  0.00     0.338 C 
ATOM      7  O   UNL A   1      45.915  26.912  24.622  1.00  0.00    -0.246 OA
BRANCH   6   8
ATOM      8  C   UNL A   1      44.642  26.813  26.576  1.00  0.00     0.060 A 
ATOM      9  C   UNL A   1      44.930  28.083  27.070  1.00  0.00     0.016 A 
ATOM     10  C   UNL A   1      43.598  26.109  27.188  1.00  0.00     0.016 A 
ATOM     11  C   UNL A   1      44.287  28.617  28.193  1.00  0.00     0.010 A 
ATOM     12  C   UNL A   1      42.898  26.670  28.264  1.00  0.00     0.010 A 
ATOM     13  C   UNL A   1      43.251  27.930  28.804  1.00  0.00    -0.014 A 
BRANCH  13  14
ATOM     14  C   UNL A   1      42.493  28.441  29.984  1.00  0.00     0.031 A 
ATOM     15  C   UNL A   1      41.336  29.331  29.704  1.00  0.00     0.074 A 
ATOM     16  C   UNL A   1      42.675  28.103  31.285  1.00  0.00     0.049 A 
ATOM     17  N   UNL A   1      40.632  30.018  30.554  1.00  0.00    -0.248 NA
ATOM     18  C   UNL A   1      40.813  29.335  28.325  1.00  0.00     0.031 C 
ATOM     19  C   UNL A   1      43.267  26.886  31.804  1.00  0.00     0.029 A 
ATOM     20  N   UNL A   1      42.447  28.834  32.439  1.00  0.00    -0.354 N 
ATOM     21  C   UNL A   1      39.501  30.382  29.859  1.00  0.00     0.074 A 
ATOM     22  C   UNL A   1      39.693  30.026  28.472  1.00  0.00     0.031 C 
ATOM     23  C   UNL A   1      43.571  27.043  33.105  1.00  0.00     0.029 A 
ATOM     24  C   UNL A   1      43.192  28.369  33.520  1.00  0.00     0.049 A 
ATOM     25  H   UNL A   1      41.829  29.598  32.490  1.00  0.00     0.167 HD
ATOM     26  C   UNL A   1      38.355  30.834  30.397  1.00  0.00     0.037 A 
ATOM     27  C   UNL A   1      43.541  28.992  34.669  1.00  0.00     0.037 A 
ATOM     28  C   UNL A   1      38.201  31.147  31.790  1.00  0.00     0.049 A 
ATOM     29  C   UNL A   1      42.602  30.074  35.070  1.00  0.00     0.074 A 
ATOM     30  C   UNL A   1      37.080  31.611  32.445  1.00  0.00     0.029 A 
ATOM     31  N   UNL A   1      39.213  31.044  32.738  1.00  0.00    -0.354 N 
ATOM     32  N   UNL A   1      41.578  30.520  34.396  1.00  0.00    -0.248 NA
ATOM     33  C   UNL A   1      42.715  30.583  36.441  1.00  0.00     0.031 C 
ATOM     34  C   UNL A   1      37.438  31.884  33.768  1.00  0.00     0.029 A 
ATOM     35  C   UNL A   1      38.767  31.540  33.951  1.00  0.00     0.049 A 
ATOM     36  H   UNL A   1      40.109  30.674  32.571  1.00  0.00     0.167 HD
ATOM     37  C   UNL A   1      40.826  31.221  35.306  1.00  0.00     0.074 A 
ATOM     38  C   UNL A   1      41.583  31.263  36.542  1.00  0.00     0.031 C 
ATOM     39  C   UNL A   1      39.562  31.663  35.146  1.00  0.00     0.037 A 
BRANCH  26  40
ATOM     40  C   UNL A   1      37.200  30.986  29.474  1.00  0.00     0.064 A 
ATOM     41  C   UNL A   1      36.415  29.876  29.151  1.00  0.00     0.173 A 
ATOM     42  C   UNL A   1      36.871  32.228  28.908  1.00  0.00     0.173 A 
ATOM     43  F   UNL A   1      36.680  28.680  29.698  1.00  0.00    -0.203 F 
ATOM     44  C   UNL A   1      35.349  29.995  28.268  1.00  0.00     0.198 A 
ATOM     45  C   UNL A   1      35.793  32.347  28.038  1.00  0.00     0.198 A 
ATOM     46  F   UNL A   1      37.573  33.327  29.228  1.00  0.00    -0.203 F 
ATOM     47  F   UNL A   1      34.616  28.918  27.960  1.00  0.00    -0.200 F 
ATOM     48  C   UNL A   1      35.040  31.229  27.711  1.00  0.00     0.200 A 
ATOM     49  F   UNL A   1      35.475  33.544  27.527  1.00  0.00    -0.200 F 
ATOM     50  F   UNL A   1      34.007  31.342  26.866  1.00  0.00    -0.200 F 
ENDBRANCH  26  40
BRANCH  27  51
ATOM     51  C   UNL A   1      44.674  28.656  35.586  1.00  0.00     0.064 A 
ATOM     52  C   UNL A   1      44.456  27.691  36.596  1.00  0.00     0.173 A 
ATOM     53  C   UNL A   1      45.971  29.165  35.482  1.00  0.00     0.173 A 
ATOM     54  F   UNL A   1      43.253  27.105  36.706  1.00  0.00    -0.203 F 
ATOM     55  C   UNL A   1      45.445  27.334  37.513  1.00  0.00     0.198 A 
ATOM     56  C   UNL A   1      46.974  28.787  36.387  1.00  0.00     0.198 A 
ATOM     57  F   UNL A   1      46.275  30.029  34.504  1.00  0.00    -0.203 F 
ATOM     58  F   UNL A   1      45.169  26.467  38.498  1.00  0.00    -0.200 F 
ATOM     59  C   UNL A   1      46.705  27.891  37.414  1.00  0.00     0.200 A 
ATOM     60  F   UNL A   1      48.207  29.299  36.269  1.00  0.00    -0.200 F 
ATOM     61  F   UNL A   1      47.657  27.564  38.298  1.00  0.00    -0.200 F 
ENDBRANCH  27  51
BRANCH  39  62
ATOM     62  C   UNL A   1      38.926  32.238  36.360  1.00  0.00     0.064 A 
ATOM     63  C   UNL A   1      39.148  33.580  36.698  1.00  0.00     0.173 A 
ATOM     64  C   UNL A   1      38.100  31.462  37.179  1.00  0.00     0.173 A 
ATOM     65  F   UNL A   1      39.911  34.362  35.920  1.00  0.00    -0.203 F 
ATOM     66  C   UNL A   1      38.587  34.117  37.848  1.00  0.00     0.198 A 
ATOM     67  C   UNL A   1      37.509  32.015  38.305  1.00  0.00     0.198 A 
ATOM     68  F   UNL A   1      37.823  30.192  36.848  1.00  0.00    -0.203 F 
ATOM     69  F   UNL A   1      38.837  35.390  38.179  1.00  0.00    -0.200 F 
ATOM     70  C   UNL A   1      37.766  33.335  38.648  1.00  0.00     0.200 A 
ATOM     71  F   UNL A   1      36.676  31.275  39.049  1.00  0.00    -0.200 F 
ATOM     72  F   UNL A   1      37.211  33.860  39.748  1.00  0.00    -0.200 F 
ENDBRANCH  39  62
ENDBRANCH  13  14
ENDBRANCH   6   8
ENDBRANCH   5   6
ENDBRANCH   4   5
ENDBRANCH   3   4
ENDBRANCH   2   3
ENDBRANCH   1   2
BRANCH   1  73
ATOM     73  C   UNL A   1      43.308  20.796  25.819  1.00  0.00     0.188 C 
BRANCH  73  74
ATOM     74  O   UNL A   1      42.247  21.504  25.208  1.00  0.00    -0.376 OA
BRANCH  74  75
ATOM     75  C   UNL A   1      41.641  22.569  25.923  1.00  0.00     0.202 C 
BRANCH  75  76
ATOM     76  C   UNL A   1      40.281  22.381  26.624  1.00  0.00     0.261 C 
BRANCH  76  77
ATOM     77  O   UNL A   1      39.112  22.605  25.824  1.00  0.00    -0.460 OA
BRANCH  77  78
ATOM     78  C   UNL A   1      38.280  23.601  26.214  1.00  0.00     0.338 C 
ATOM     79  O   UNL A   1      38.522  24.460  27.051  1.00  0.00    -0.246 OA
BRANCH  78  80
ATOM     80  C   UNL A   1      36.931  23.391  25.618  1.00  0.00     0.063 A 
ATOM     81  C   UNL A   1      36.871  23.000  24.274  1.00  0.00     0.016 A 
ATOM     82  C   UNL A   1      35.748  23.712  26.291  1.00  0.00     0.055 A 
ATOM     83  C   UNL A   1      35.668  23.108  23.563  1.00  0.00     0.013 A 
ATOM     84  C   UNL A   1      34.552  23.789  25.581  1.00  0.00     0.132 A 
ATOM     85  C   UNL A   1      34.528  23.628  24.196  1.00  0.00     0.042 A 
ATOM     86  F   UNL A   1      33.452  24.212  26.222  1.00  0.00    -0.206 F 
BRANCH  85  87
ATOM     87  C   UNL A   1      33.399  24.217  23.380  1.00  0.00     0.302 C 
BRANCH  87  88
ATOM     88  N   UNL A   1      33.711  25.426  22.598  1.00  0.00    -0.322 N 
ATOM     89  C   UNL A   1      32.900  25.637  21.395  1.00  0.00     0.324 C 
ATOM     90  C   UNL A   1      33.802  26.694  23.332  1.00  0.00     0.328 C 
ATOM     91  H   UNL A   1      34.658  25.174  22.316  1.00  0.00     0.348 HD
ATOM     92  C   UNL A   1      31.580  26.413  21.608  1.00  0.00     0.324 C 
ATOM     93  C   UNL A   1      32.470  27.411  23.658  1.00  0.00     0.239 C 
ATOM     94  N   UNL A   1      31.617  27.589  22.487  1.00  0.00    -0.323 N 
ATOM     95  C   UNL A   1      32.677  28.768  24.335  1.00  0.00     0.071 C 
ATOM     96  C   UNL A   1      30.276  28.036  22.874  1.00  0.00     0.262 C 
ATOM     97  H   UNL A   1      32.043  28.327  21.928  1.00  0.00     0.348 HD
ATOM     98  C   UNL A   1      31.344  29.382  24.764  1.00  0.00     0.012 C 
ATOM     99  C   UNL A   1      30.299  29.355  23.652  1.00  0.00     0.062 C 
ENDBRANCH  87  88
ENDBRANCH  85  87
ENDBRANCH  78  80
ENDBRANCH  77  78
ENDBRANCH  76  77
ENDBRANCH  75  76
ENDBRANCH  74  75
ENDBRANCH  73  74
ENDBRANCH   1  73
TORSDOF 19
ENDMDL
MODEL 3
REMARK VINA RESULT:     -10.7      1.468      2.330
REMARK SMILES O=C(OCCOCCOCCOC(=O)c1ccc(C[N@H+]2CC[N@H+]3CCCC[C@@H]3C2)c(F)c1)c1ccc(-c2c3nc(c(-c4c(F)c(F)c(F)c(F)c4F)c4ccc([nH]4)c(-c4c(F)c(F)c(F)c(F)c4F)c4nc(c(-c5c(F)c(F)c(F)c(F)c5F)c5ccc2[nH]5)C=C4)C=C3)cc1
REMARK SMILES IDX 7 1 6 2 5 3 4 4 3 5 2 6 1 7 33 8 34 9 95 10 35 11 94 12
REMARK SMILES IDX 36 13 37 14 38 15 88 16 39 17 93 18 87 19 89 20 40 21 92 22
REMARK SMILES IDX 86 23 85 24 41 26 73 27 53 28 72 29 54 30 57 31 71 32 90 33
REMARK SMILES IDX 55 34 56 35 70 37 91 38 58 39 42 40 43 41 51 42 44 43 45 44
REMARK SMILES IDX 49 45 52 46 46 47 47 48 50 49 48 50 74 51 75 52 83 53 76 54
REMARK SMILES IDX 77 55 81 56 84 57 78 58 79 59 82 60 80 61 59 62 60 63 68 64
REMARK SMILES IDX 61 65 62 66 66 67 69 68 63 69 64 70 67 71 65 72 8 73 9 74
REMARK SMILES IDX 10 75 11 76 12 77 13 78 14 79 15 80 16 81 32 82 17 83 30 84
REMARK SMILES IDX 18 85 31 86 19 87 20 88 21 89 29 90 22 92 28 93 23 94 27 95
REMARK SMILES IDX 24 96 26 98 25 99
REMARK H PARENT 89 25 57 36 20 91 23 97
REMARK Flexibility Score: inf
ROOT
ATOM      1  C   UNL A   1      37.384  22.176  24.656  1.00  0.00     0.188 C 
ENDROOT
BRANCH   1   2
ATOM      2  O   UNL A   1      38.248  21.359  25.444  1.00  0.00    -0.376 OA
BRANCH   2   3
ATOM      3  C   UNL A   1      38.296  19.990  25.019  1.00  0.00     0.202 C 
BRANCH   3   4
ATOM      4  C   UNL A   1      39.138  18.994  25.855  1.00  0.00     0.261 C 
BRANCH   4   5
ATOM      5  O   UNL A   1      40.562  18.991  25.621  1.00  0.00    -0.460 OA
BRANCH   5   6
ATOM      6  C   UNL A   1      41.611  19.468  26.324  1.00  0.00     0.338 C 
ATOM      7  O   UNL A   1      42.278  18.672  26.985  1.00  0.00    -0.246 OA
BRANCH   6   8
ATOM      8  C   UNL A   1      42.007  20.906  26.364  1.00  0.00     0.060 A 
ATOM      9  C   UNL A   1      42.724  21.569  25.372  1.00  0.00     0.016 A 
ATOM     10  C   UNL A   1      41.553  21.670  27.445  1.00  0.00     0.016 A 
ATOM     11  C   UNL A   1      43.077  22.920  25.474  1.00  0.00     0.010 A 
ATOM     12  C   UNL A   1      41.837  23.040  27.516  1.00  0.00     0.010 A 
ATOM     13  C   UNL A   1      42.630  23.685  26.538  1.00  0.00    -0.014 A 
BRANCH  13  14
ATOM     14  C   UNL A   1      42.934  25.137  26.707  1.00  0.00     0.031 A 
ATOM     15  C   UNL A   1      44.354  25.548  26.546  1.00  0.00     0.074 A 
ATOM     16  C   UNL A   1      42.046  26.146  26.889  1.00  0.00     0.049 A 
ATOM     17  N   UNL A   1      44.883  26.708  26.798  1.00  0.00    -0.248 NA
ATOM     18  C   UNL A   1      45.257  24.590  25.883  1.00  0.00     0.031 C 
ATOM     19  C   UNL A   1      40.648  26.167  26.507  1.00  0.00     0.029 A 
ATOM     20  N   UNL A   1      42.188  27.353  27.553  1.00  0.00    -0.354 N 
ATOM     21  C   UNL A   1      46.108  26.679  26.171  1.00  0.00     0.074 A 
ATOM     22  C   UNL A   1      46.339  25.332  25.703  1.00  0.00     0.031 C 
ATOM     23  C   UNL A   1      40.019  27.181  27.129  1.00  0.00     0.029 A 
ATOM     24  C   UNL A   1      40.966  27.890  27.951  1.00  0.00     0.049 A 
ATOM     25  H   UNL A   1      43.056  27.785  27.725  1.00  0.00     0.167 HD
ATOM     26  C   UNL A   1      46.880  27.744  25.893  1.00  0.00     0.037 A 
ATOM     27  C   UNL A   1      40.688  28.808  28.905  1.00  0.00     0.037 A 
ATOM     28  C   UNL A   1      46.594  29.073  26.356  1.00  0.00     0.049 A 
ATOM     29  C   UNL A   1      41.816  29.736  29.186  1.00  0.00     0.074 A 
ATOM     30  C   UNL A   1      47.309  30.231  26.132  1.00  0.00     0.029 A 
ATOM     31  N   UNL A   1      45.510  29.412  27.158  1.00  0.00    -0.354 N 
ATOM     32  N   UNL A   1      43.022  29.685  28.692  1.00  0.00    -0.248 NA
ATOM     33  C   UNL A   1      41.510  30.945  29.958  1.00  0.00     0.031 C 
ATOM     34  C   UNL A   1      46.716  31.253  26.878  1.00  0.00     0.029 A 
ATOM     35  C   UNL A   1      45.601  30.745  27.524  1.00  0.00     0.049 A 
ATOM     36  H   UNL A   1      44.788  28.799  27.424  1.00  0.00     0.167 HD
ATOM     37  C   UNL A   1      43.565  30.921  28.938  1.00  0.00     0.074 A 
ATOM     38  C   UNL A   1      42.611  31.651  29.751  1.00  0.00     0.031 C 
ATOM     39  C   UNL A   1      44.697  31.431  28.410  1.00  0.00     0.037 A 
BRANCH  26  40
ATOM     40  C   UNL A   1      48.073  27.499  25.041  1.00  0.00     0.064 A 
ATOM     41  C   UNL A   1      49.289  27.145  25.631  1.00  0.00     0.173 A 
ATOM     42  C   UNL A   1      48.013  27.616  23.644  1.00  0.00     0.173 A 
ATOM     43  F   UNL A   1      49.376  26.992  26.960  1.00  0.00    -0.203 F 
ATOM     44  C   UNL A   1      50.421  26.939  24.851  1.00  0.00     0.198 A 
ATOM     45  C   UNL A   1      49.142  27.393  22.865  1.00  0.00     0.198 A 
ATOM     46  F   UNL A   1      46.852  27.910  23.036  1.00  0.00    -0.203 F 
ATOM     47  F   UNL A   1      51.581  26.613  25.434  1.00  0.00    -0.200 F 
ATOM     48  C   UNL A   1      50.347  27.065  23.470  1.00  0.00     0.200 A 
ATOM     49  F   UNL A   1      49.063  27.482  21.530  1.00  0.00    -0.200 F 
ATOM     50  F   UNL A   1      51.438  26.858  22.720  1.00  0.00    -0.200 F 
ENDBRANCH  26  40
BRANCH  27  51
ATOM     51  C   UNL A   1      39.387  29.035  29.606  1.00  0.00     0.064 A 
ATOM     52  C   UNL A   1      38.349  29.687  28.902  1.00  0.00     0.173 A 
ATOM     53  C   UNL A   1      39.078  28.584  30.892  1.00  0.00     0.173 A 
ATOM     54  F   UNL A   1      38.551  30.080  27.635  1.00  0.00    -0.203 F 
ATOM     55  C   UNL A   1      37.111  29.964  29.484  1.00  0.00     0.198 A 
ATOM     56  C   UNL A   1      37.825  28.840  31.470  1.00  0.00     0.198 A 
ATOM     57  F   UNL A   1      39.984  27.893  31.596  1.00  0.00    -0.203 F 
ATOM     58  F   UNL A   1      36.183  30.649  28.799  1.00  0.00    -0.200 F 
ATOM     59  C   UNL A   1      36.852  29.548  30.775  1.00  0.00     0.200 A 
ATOM     60  F   UNL A   1      37.559  28.404  32.709  1.00  0.00    -0.200 F 
ATOM     61  F   UNL A   1      35.671  29.822  31.347  1.00  0.00    -0.200 F 
ENDBRANCH  27  51
BRANCH  39  62
ATOM     62  C   UNL A   1      44.955  32.863  28.712  1.00  0.00     0.064 A 
ATOM     63  C   UNL A   1      45.711  33.216  29.838  1.00  0.00     0.173 A 
ATOM     64  C   UNL A   1      44.458  33.877  27.886  1.00  0.00     0.173 A 
ATOM     65  F   UNL A   1      46.229  32.270  30.635  1.00  0.00    -0.203 F 
ATOM     66  C   UNL A   1      45.930  34.551  30.147  1.00  0.00     0.198 A 
ATOM     67  C   UNL A   1      44.713  35.208  28.178  1.00  0.00     0.198 A 
ATOM     68  F   UNL A   1      43.781  33.566  26.770  1.00  0.00    -0.203 F 
ATOM     69  F   UNL A   1      46.623  34.876  31.247  1.00  0.00    -0.200 F 
ATOM     70  C   UNL A   1      45.433  35.545  29.316  1.00  0.00     0.200 A 
ATOM     71  F   UNL A   1      44.278  36.165  27.348  1.00  0.00    -0.200 F 
ATOM     72  F   UNL A   1      45.660  36.832  29.606  1.00  0.00    -0.200 F 
ENDBRANCH  39  62
ENDBRANCH  13  14
ENDBRANCH   6   8
ENDBRANCH   5   6
ENDBRANCH   4   5
ENDBRANCH   3   4
ENDBRANCH   2   3
ENDBRANCH   1   2
BRANCH   1  73
ATOM     73  C   UNL A   1      35.906  21.796  24.598  1.00  0.00     0.188 C 
BRANCH  73  74
ATOM     74  O   UNL A   1      35.216  21.525  25.802  1.00  0.00    -0.376 OA
BRANCH  74  75
ATOM     75  C   UNL A   1      34.070  20.691  25.755  1.00  0.00     0.202 C 
BRANCH  75  76
ATOM     76  C   UNL A   1      33.268  20.520  24.450  1.00  0.00     0.261 C 
BRANCH  76  77
ATOM     77  O   UNL A   1      32.193  21.444  24.232  1.00  0.00    -0.460 OA
BRANCH  77  78
ATOM     78  C   UNL A   1      32.498  22.611  23.615  1.00  0.00     0.338 C 
ATOM     79  O   UNL A   1      33.050  22.734  22.530  1.00  0.00    -0.246 OA
BRANCH  78  80
ATOM     80  C   UNL A   1      32.244  23.750  24.541  1.00  0.00     0.063 A 
ATOM     81  C   UNL A   1      30.911  24.128  24.751  1.00  0.00     0.016 A 
ATOM     82  C   UNL A   1      33.271  24.536  25.074  1.00  0.00     0.055 A 
ATOM     83  C   UNL A   1      30.615  25.371  25.325  1.00  0.00     0.013 A 
ATOM     84  C   UNL A   1      32.964  25.757  25.670  1.00  0.00     0.132 A 
ATOM     85  C   UNL A   1      31.657  26.246  25.673  1.00  0.00     0.042 A 
ATOM     86  F   UNL A   1      33.972  26.547  26.068  1.00  0.00    -0.206 F 
BRANCH  85  87
ATOM     87  C   UNL A   1      31.399  27.729  25.812  1.00  0.00     0.302 C 
BRANCH  87  88
ATOM     88  N   UNL A   1      31.824  28.582  24.689  1.00  0.00    -0.322 N 
ATOM     89  C   UNL A   1      31.757  27.970  23.359  1.00  0.00     0.324 C 
ATOM     90  C   UNL A   1      31.247  29.930  24.615  1.00  0.00     0.328 C 
ATOM     91  H   UNL A   1      32.803  28.690  24.953  1.00  0.00     0.348 HD
ATOM     92  C   UNL A   1      30.402  28.106  22.629  1.00  0.00     0.324 C 
ATOM     93  C   UNL A   1      29.833  30.053  23.998  1.00  0.00     0.239 C 
ATOM     94  N   UNL A   1      29.722  29.406  22.695  1.00  0.00    -0.323 N 
ATOM     95  C   UNL A   1      29.363  31.505  23.877  1.00  0.00     0.071 C 
ATOM     96  C   UNL A   1      28.324  29.324  22.264  1.00  0.00     0.262 C 
ATOM     97  H   UNL A   1      30.218  30.001  22.032  1.00  0.00     0.348 HD
ATOM     98  C   UNL A   1      27.915  31.579  23.393  1.00  0.00     0.012 C 
ATOM     99  C   UNL A   1      27.656  30.700  22.172  1.00  0.00     0.062 C 
ENDBRANCH  87  88
ENDBRANCH  85  87
ENDBRANCH  78  80
ENDBRANCH  77  78
ENDBRANCH  76  77
ENDBRANCH  75  76
ENDBRANCH  74  75
ENDBRANCH  73  74
ENDBRANCH   1  73
TORSDOF 19
ENDMDL
