MODEL 1
REMARK VINA RESULT:     -11.7      0.000      0.000
REMARK SMILES Cc1nnc(SCC(=O)Nc2cccc(C(=O)OCCOCCOCCOC(=O)c3ccc(-c4c5nc(c(-c6c(F)c(F)c(F)c(F)c6F)c6ccc([nH]6)c(-c6c(F)c(F)c(F)c(F)c6F)c6nc(c(-c7c(F)c(F)c(F)c(F)c7F)c7ccc4[nH]7)C=C6)C=C5)cc3)c2)n1-c1ccccc1
REMARK SMILES IDX 21 1 20 2 19 3 18 4 16 5 17 6 15 7 11 8 12 9 93 10 13 11
REMARK SMILES IDX 14 12 10 13 8 14 9 15 7 17 6 18 5 19 1 20 2 21 3 22 94 23
REMARK SMILES IDX 4 24 95 25 96 26 100 27 97 28 99 29 98 30 22 31 23 32 24 33
REMARK SMILES IDX 25 34 26 35 27 36 28 37 29 38 30 39 31 40 92 41 32 42 91 43
REMARK SMILES IDX 33 44 34 45 35 46 85 47 36 48 90 49 84 50 86 51 37 52 89 53
REMARK SMILES IDX 83 54 82 55 38 57 70 58 50 59 69 60 51 61 54 62 68 63 87 64
REMARK SMILES IDX 52 65 53 66 67 68 88 69 55 70 39 71 40 72 48 73 41 74 42 75
REMARK SMILES IDX 46 76 49 77 43 78 44 79 47 80 45 81 71 82 72 83 80 84 73 85
REMARK SMILES IDX 74 86 78 87 81 88 75 89 76 90 79 91 77 92 56 93 57 94 65 95
REMARK SMILES IDX 58 96 59 97 63 98 66 99 60 100 61 101 64 102 62 103
REMARK H PARENT 10 16 86 56 54 67
REMARK Flexibility Score: inf
ROOT
ATOM      1  O   UNL A   1      41.428  19.400  25.412  1.00  0.00    -0.376 OA
ENDROOT
BRANCH   1   2
ATOM      2  C   UNL A   1      40.325  19.901  26.154  1.00  0.00     0.202 C 
BRANCH   2   3
ATOM      3  C   UNL A   1      39.558  21.213  25.896  1.00  0.00     0.261 C 
BRANCH   3   4
ATOM      4  O   UNL A   1      38.200  21.091  25.503  1.00  0.00    -0.460 OA
BRANCH   4   5
ATOM      5  C   UNL A   1      37.398  22.170  25.642  1.00  0.00     0.338 C 
ATOM      6  O   UNL A   1      37.717  23.346  25.574  1.00  0.00    -0.246 OA
BRANCH   5   7
ATOM      7  C   UNL A   1      36.003  21.682  25.720  1.00  0.00     0.062 A 
ATOM      8  C   UNL A   1      33.819  21.828  26.717  1.00  0.00     0.042 A 
ATOM      9  C   UNL A   1      33.401  20.710  25.999  1.00  0.00     0.026 A 
ATOM     10  C   UNL A   1      35.134  22.237  26.653  1.00  0.00     0.041 A 
ATOM     11  C   UNL A   1      34.281  20.105  25.100  1.00  0.00     0.003 A 
ATOM     12  C   UNL A   1      35.570  20.618  24.927  1.00  0.00     0.016 A 
BRANCH   8  13
ATOM     13  N   UNL A   1      32.868  22.570  27.410  1.00  0.00    -0.325 N 
ATOM     14  C   UNL A   1      31.849  23.265  26.826  1.00  0.00     0.234 C 
ATOM     15  O   UNL A   1      30.793  23.220  27.477  1.00  0.00    -0.274 OA
ATOM     16  H   UNL A   1      32.935  22.597  28.392  1.00  0.00     0.169 HD
BRANCH  14  17
ATOM     17  C   UNL A   1      31.838  23.811  25.405  1.00  0.00     0.178 C 
BRANCH  17  18
ATOM     18  S   UNL A   1      33.158  24.852  24.759  1.00  0.00    -0.076 SA
BRANCH  18  19
ATOM     19  C   UNL A   1      32.554  26.007  23.622  1.00  0.00     0.196 A 
ATOM     20  C   UNL A   1      30.753  29.037  22.758  1.00  0.00     0.090 C 
ATOM     21  C   UNL A   1      31.399  27.709  22.853  1.00  0.00     0.135 A 
ATOM     22  N   UNL A   1      31.351  26.745  21.957  1.00  0.00    -0.134 NA
ATOM     23  N   UNL A   1      32.163  27.293  23.922  1.00  0.00    -0.274 N 
ATOM     24  N   UNL A   1      32.064  25.674  22.446  1.00  0.00    -0.123 NA
BRANCH  23  25
ATOM     25  C   UNL A   1      32.488  28.025  25.068  1.00  0.00     0.049 A 
ATOM     26  C   UNL A   1      33.769  28.558  25.152  1.00  0.00     0.027 A 
ATOM     27  C   UNL A   1      31.634  27.998  26.169  1.00  0.00     0.027 A 
ATOM     28  C   UNL A   1      34.257  28.959  26.391  1.00  0.00     0.002 A 
ATOM     29  C   UNL A   1      32.120  28.439  27.398  1.00  0.00     0.002 A 
ATOM     30  C   UNL A   1      33.441  28.880  27.517  1.00  0.00     0.000 A 
ENDBRANCH  23  25
ENDBRANCH  18  19
ENDBRANCH  17  18
ENDBRANCH  14  17
ENDBRANCH   8  13
ENDBRANCH   5   7
ENDBRANCH   4   5
ENDBRANCH   3   4
ENDBRANCH   2   3
ENDBRANCH   1   2
BRANCH   1  31
ATOM     31  C   UNL A   1      42.557  18.836  26.035  1.00  0.00     0.188 C 
BRANCH  31  32
ATOM     32  C   UNL A   1      43.901  18.839  25.286  1.00  0.00     0.188 C 
BRANCH  32  33
ATOM     33  O   UNL A   1      44.163  19.808  24.300  1.00  0.00    -0.376 OA
BRANCH  33  34
ATOM     34  C   UNL A   1      44.773  21.055  24.590  1.00  0.00     0.202 C 
BRANCH  34  35
ATOM     35  C   UNL A   1      44.084  22.417  24.501  1.00  0.00     0.261 C 
BRANCH  35  36
ATOM     36  O   UNL A   1      42.797  22.521  25.074  1.00  0.00    -0.460 OA
BRANCH  36  37
ATOM     37  C   UNL A   1      42.817  22.836  26.385  1.00  0.00     0.338 C 
ATOM     38  O   UNL A   1      42.669  22.089  27.337  1.00  0.00    -0.246 OA
BRANCH  37  39
ATOM     39  C   UNL A   1      42.959  24.284  26.519  1.00  0.00     0.060 A 
ATOM     40  C   UNL A   1      43.904  24.739  27.440  1.00  0.00     0.016 A 
ATOM     41  C   UNL A   1      41.939  25.102  26.015  1.00  0.00     0.016 A 
ATOM     42  C   UNL A   1      43.669  25.946  28.053  1.00  0.00     0.010 A 
ATOM     43  C   UNL A   1      41.695  26.296  26.643  1.00  0.00     0.010 A 
ATOM     44  C   UNL A   1      42.507  26.652  27.717  1.00  0.00    -0.014 A 
BRANCH  44  45
ATOM     45  C   UNL A   1      42.218  27.862  28.451  1.00  0.00     0.031 A 
ATOM     46  C   UNL A   1      43.263  28.888  28.255  1.00  0.00     0.074 A 
ATOM     47  C   UNL A   1      41.078  28.032  29.149  1.00  0.00     0.049 A 
ATOM     48  N   UNL A   1      44.065  29.359  29.148  1.00  0.00    -0.248 NA
ATOM     49  C   UNL A   1      43.586  29.292  26.876  1.00  0.00     0.031 C 
ATOM     50  C   UNL A   1      39.902  27.162  29.198  1.00  0.00     0.029 A 
ATOM     51  N   UNL A   1      40.695  29.098  29.903  1.00  0.00    -0.354 N 
ATOM     52  C   UNL A   1      44.856  30.284  28.480  1.00  0.00     0.074 A 
ATOM     53  C   UNL A   1      44.658  30.057  27.074  1.00  0.00     0.031 C 
ATOM     54  C   UNL A   1      38.865  27.844  29.740  1.00  0.00     0.029 A 
ATOM     55  C   UNL A   1      39.332  29.147  30.180  1.00  0.00     0.049 A 
ATOM     56  H   UNL A   1      41.331  29.778  30.226  1.00  0.00     0.167 HD
ATOM     57  C   UNL A   1      45.371  31.348  29.150  1.00  0.00     0.037 A 
ATOM     58  C   UNL A   1      38.661  30.234  30.644  1.00  0.00     0.037 A 
ATOM     59  C   UNL A   1      45.437  31.080  30.566  1.00  0.00     0.049 A 
ATOM     60  C   UNL A   1      39.672  31.145  31.251  1.00  0.00     0.074 A 
ATOM     61  C   UNL A   1      46.035  30.093  31.329  1.00  0.00     0.029 A 
ATOM     62  N   UNL A   1      44.494  31.656  31.384  1.00  0.00    -0.354 N 
ATOM     63  N   UNL A   1      40.313  30.876  32.356  1.00  0.00    -0.248 NA
ATOM     64  C   UNL A   1      40.321  32.105  30.368  1.00  0.00     0.031 C 
ATOM     65  C   UNL A   1      45.092  29.796  32.356  1.00  0.00     0.029 A 
ATOM     66  C   UNL A   1      44.020  30.675  32.215  1.00  0.00     0.049 A 
ATOM     67  H   UNL A   1      44.213  32.599  31.373  1.00  0.00     0.167 HD
ATOM     68  C   UNL A   1      41.618  31.267  32.104  1.00  0.00     0.074 A 
ATOM     69  C   UNL A   1      41.552  32.072  30.885  1.00  0.00     0.031 C 
ATOM     70  C   UNL A   1      42.671  30.656  32.722  1.00  0.00     0.037 A 
BRANCH  57  71
ATOM     71  C   UNL A   1      45.390  32.745  28.578  1.00  0.00     0.064 A 
ATOM     72  C   UNL A   1      44.165  33.342  28.224  1.00  0.00     0.173 A 
ATOM     73  C   UNL A   1      46.546  33.385  28.074  1.00  0.00     0.173 A 
ATOM     74  F   UNL A   1      43.003  32.812  28.633  1.00  0.00    -0.203 F 
ATOM     75  C   UNL A   1      44.102  34.431  27.352  1.00  0.00     0.198 A 
ATOM     76  C   UNL A   1      46.481  34.505  27.250  1.00  0.00     0.198 A 
ATOM     77  F   UNL A   1      47.779  32.898  28.253  1.00  0.00    -0.203 F 
ATOM     78  F   UNL A   1      42.911  34.875  26.932  1.00  0.00    -0.200 F 
ATOM     79  C   UNL A   1      45.259  35.006  26.861  1.00  0.00     0.200 A 
ATOM     80  F   UNL A   1      47.615  35.034  26.771  1.00  0.00    -0.200 F 
ATOM     81  F   UNL A   1      45.201  36.007  25.973  1.00  0.00    -0.200 F 
ENDBRANCH  57  71
BRANCH  58  82
ATOM     82  C   UNL A   1      37.292  30.706  30.301  1.00  0.00     0.064 A 
ATOM     83  C   UNL A   1      36.419  31.166  31.307  1.00  0.00     0.173 A 
ATOM     84  C   UNL A   1      36.910  30.992  28.977  1.00  0.00     0.173 A 
ATOM     85  F   UNL A   1      36.716  30.972  32.600  1.00  0.00    -0.203 F 
ATOM     86  C   UNL A   1      35.267  31.904  31.006  1.00  0.00     0.198 A 
ATOM     87  C   UNL A   1      35.755  31.720  28.678  1.00  0.00     0.198 A 
ATOM     88  F   UNL A   1      37.694  30.660  27.943  1.00  0.00    -0.203 F 
ATOM     89  F   UNL A   1      34.504  32.388  31.997  1.00  0.00    -0.200 F 
ATOM     90  C   UNL A   1      34.944  32.192  29.692  1.00  0.00     0.200 A 
ATOM     91  F   UNL A   1      35.473  32.019  27.402  1.00  0.00    -0.200 F 
ATOM     92  F   UNL A   1      33.881  32.956  29.405  1.00  0.00    -0.200 F 
ENDBRANCH  58  82
BRANCH  70  93
ATOM     93  C   UNL A   1      42.389  29.725  33.866  1.00  0.00     0.064 A 
ATOM     94  C   UNL A   1      41.992  28.383  33.720  1.00  0.00     0.173 A 
ATOM     95  C   UNL A   1      42.693  30.170  35.160  1.00  0.00     0.173 A 
ATOM     96  F   UNL A   1      41.783  27.852  32.508  1.00  0.00    -0.203 F 
ATOM     97  C   UNL A   1      41.867  27.544  34.827  1.00  0.00     0.198 A 
ATOM     98  C   UNL A   1      42.608  29.317  36.257  1.00  0.00     0.198 A 
ATOM     99  F   UNL A   1      43.127  31.425  35.355  1.00  0.00    -0.203 F 
ATOM    100  F   UNL A   1      41.477  26.271  34.665  1.00  0.00    -0.200 F 
ATOM    101  C   UNL A   1      42.185  28.010  36.092  1.00  0.00     0.200 A 
ATOM    102  F   UNL A   1      42.967  29.759  37.470  1.00  0.00    -0.200 F 
ATOM    103  F   UNL A   1      42.112  27.190  37.151  1.00  0.00    -0.200 F 
ENDBRANCH  70  93
ENDBRANCH  44  45
ENDBRANCH  37  39
ENDBRANCH  36  37
ENDBRANCH  35  36
ENDBRANCH  34  35
ENDBRANCH  33  34
ENDBRANCH  32  33
ENDBRANCH  31  32
ENDBRANCH   1  31
TORSDOF 22
ENDMDL
MODEL 2
REMARK VINA RESULT:     -11.6      1.986      3.042
REMARK SMILES Cc1nnc(SCC(=O)Nc2cccc(C(=O)OCCOCCOCCOC(=O)c3ccc(-c4c5nc(c(-c6c(F)c(F)c(F)c(F)c6F)c6ccc([nH]6)c(-c6c(F)c(F)c(F)c(F)c6F)c6nc(c(-c7c(F)c(F)c(F)c(F)c7F)c7ccc4[nH]7)C=C6)C=C5)cc3)c2)n1-c1ccccc1
REMARK SMILES IDX 21 1 20 2 19 3 18 4 16 5 17 6 15 7 11 8 12 9 93 10 13 11
REMARK SMILES IDX 14 12 10 13 8 14 9 15 7 17 6 18 5 19 1 20 2 21 3 22 94 23
REMARK SMILES IDX 4 24 95 25 96 26 100 27 97 28 99 29 98 30 22 31 23 32 24 33
REMARK SMILES IDX 25 34 26 35 27 36 28 37 29 38 30 39 31 40 92 41 32 42 91 43
REMARK SMILES IDX 33 44 34 45 35 46 85 47 36 48 90 49 84 50 86 51 37 52 89 53
REMARK SMILES IDX 83 54 82 55 38 57 70 58 50 59 69 60 51 61 54 62 68 63 87 64
REMARK SMILES IDX 52 65 53 66 67 68 88 69 55 70 39 71 40 72 48 73 41 74 42 75
REMARK SMILES IDX 46 76 49 77 43 78 44 79 47 80 45 81 71 82 72 83 80 84 73 85
REMARK SMILES IDX 74 86 78 87 81 88 75 89 76 90 79 91 77 92 56 93 57 94 65 95
REMARK SMILES IDX 58 96 59 97 63 98 66 99 60 100 61 101 64 102 62 103
REMARK H PARENT 10 16 86 56 54 67
REMARK Flexibility Score: inf
ROOT
ATOM      1  O   UNL A   1      41.112  20.678  25.732  1.00  0.00    -0.376 OA
ENDROOT
BRANCH   1   2
ATOM      2  C   UNL A   1      39.752  20.426  26.052  1.00  0.00     0.202 C 
BRANCH   2   3
ATOM      3  C   UNL A   1      38.513  20.969  25.312  1.00  0.00     0.261 C 
BRANCH   3   4
ATOM      4  O   UNL A   1      37.624  21.778  26.066  1.00  0.00    -0.460 OA
BRANCH   4   5
ATOM      5  C   UNL A   1      37.308  22.999  25.582  1.00  0.00     0.338 C 
ATOM      6  O   UNL A   1      38.016  23.993  25.553  1.00  0.00    -0.246 OA
BRANCH   5   7
ATOM      7  C   UNL A   1      35.990  22.887  24.918  1.00  0.00     0.062 A 
ATOM      8  C   UNL A   1      33.709  22.125  24.973  1.00  0.00     0.042 A 
ATOM      9  C   UNL A   1      33.525  22.536  23.655  1.00  0.00     0.026 A 
ATOM     10  C   UNL A   1      34.957  22.207  25.553  1.00  0.00     0.041 A 
ATOM     11  C   UNL A   1      34.572  23.170  22.983  1.00  0.00     0.003 A 
ATOM     12  C   UNL A   1      35.792  23.386  23.629  1.00  0.00     0.016 A 
BRANCH   8  13
ATOM     13  N   UNL A   1      32.597  21.732  25.711  1.00  0.00    -0.325 N 
ATOM     14  C   UNL A   1      31.449  22.458  25.832  1.00  0.00     0.234 C 
ATOM     15  O   UNL A   1      30.427  21.755  25.844  1.00  0.00    -0.274 OA
ATOM     16  H   UNL A   1      32.643  20.867  26.181  1.00  0.00     0.169 HD
BRANCH  14  17
ATOM     17  C   UNL A   1      31.326  23.968  25.682  1.00  0.00     0.178 C 
BRANCH  17  18
ATOM     18  S   UNL A   1      32.498  25.114  26.429  1.00  0.00    -0.076 SA
BRANCH  18  19
ATOM     19  C   UNL A   1      31.865  26.722  26.483  1.00  0.00     0.196 A 
ATOM     20  C   UNL A   1      31.653  30.141  25.286  1.00  0.00     0.090 C 
ATOM     21  C   UNL A   1      31.677  28.862  26.029  1.00  0.00     0.135 A 
ATOM     22  N   UNL A   1      31.479  28.700  27.322  1.00  0.00    -0.134 NA
ATOM     23  N   UNL A   1      31.912  27.634  25.452  1.00  0.00    -0.274 N 
ATOM     24  N   UNL A   1      31.611  27.360  27.607  1.00  0.00    -0.123 NA
BRANCH  23  25
ATOM     25  C   UNL A   1      32.138  27.361  24.100  1.00  0.00     0.049 A 
ATOM     26  C   UNL A   1      31.070  26.882  23.350  1.00  0.00     0.027 A 
ATOM     27  C   UNL A   1      33.442  27.344  23.608  1.00  0.00     0.027 A 
ATOM     28  C   UNL A   1      31.322  26.255  22.133  1.00  0.00     0.002 A 
ATOM     29  C   UNL A   1      33.678  26.749  22.369  1.00  0.00     0.002 A 
ATOM     30  C   UNL A   1      32.626  26.170  21.654  1.00  0.00     0.000 A 
ENDBRANCH  23  25
ENDBRANCH  18  19
ENDBRANCH  17  18
ENDBRANCH  14  17
ENDBRANCH   8  13
ENDBRANCH   5   7
ENDBRANCH   4   5
ENDBRANCH   3   4
ENDBRANCH   2   3
ENDBRANCH   1   2
BRANCH   1  31
ATOM     31  C   UNL A   1      42.172  20.041  26.405  1.00  0.00     0.188 C 
BRANCH  31  32
ATOM     32  C   UNL A   1      42.370  18.526  26.219  1.00  0.00     0.188 C 
BRANCH  32  33
ATOM     33  O   UNL A   1      43.430  18.039  25.432  1.00  0.00    -0.376 OA
BRANCH  33  34
ATOM     34  C   UNL A   1      44.654  18.737  25.274  1.00  0.00     0.202 C 
BRANCH  34  35
ATOM     35  C   UNL A   1      45.118  19.428  23.991  1.00  0.00     0.261 C 
BRANCH  35  36
ATOM     36  O   UNL A   1      44.584  20.709  23.725  1.00  0.00    -0.460 OA
BRANCH  36  37
ATOM     37  C   UNL A   1      45.321  21.714  24.238  1.00  0.00     0.338 C 
ATOM     38  O   UNL A   1      46.500  21.956  24.037  1.00  0.00    -0.246 OA
BRANCH  37  39
ATOM     39  C   UNL A   1      44.500  22.465  25.184  1.00  0.00     0.060 A 
ATOM     40  C   UNL A   1      43.552  23.334  24.641  1.00  0.00     0.016 A 
ATOM     41  C   UNL A   1      44.929  22.550  26.515  1.00  0.00     0.016 A 
ATOM     42  C   UNL A   1      43.224  24.454  25.365  1.00  0.00     0.010 A 
ATOM     43  C   UNL A   1      44.616  23.679  27.227  1.00  0.00     0.010 A 
ATOM     44  C   UNL A   1      43.848  24.658  26.602  1.00  0.00    -0.014 A 
BRANCH  44  45
ATOM     45  C   UNL A   1      43.578  25.895  27.297  1.00  0.00     0.031 A 
ATOM     46  C   UNL A   1      44.560  26.944  26.955  1.00  0.00     0.074 A 
ATOM     47  C   UNL A   1      42.500  26.064  28.088  1.00  0.00     0.049 A 
ATOM     48  N   UNL A   1      45.421  27.491  27.745  1.00  0.00    -0.248 NA
ATOM     49  C   UNL A   1      44.743  27.284  25.534  1.00  0.00     0.031 C 
ATOM     50  C   UNL A   1      41.368  25.157  28.288  1.00  0.00     0.029 A 
ATOM     51  N   UNL A   1      42.145  27.155  28.819  1.00  0.00    -0.354 N 
ATOM     52  C   UNL A   1      46.112  28.405  26.962  1.00  0.00     0.074 A 
ATOM     53  C   UNL A   1      45.798  28.095  25.593  1.00  0.00     0.031 C 
ATOM     54  C   UNL A   1      40.358  25.831  28.887  1.00  0.00     0.029 A 
ATOM     55  C   UNL A   1      40.812  27.172  29.216  1.00  0.00     0.049 A 
ATOM     56  H   UNL A   1      42.780  27.873  29.047  1.00  0.00     0.167 HD
ATOM     57  C   UNL A   1      46.643  29.520  27.527  1.00  0.00     0.037 A 
ATOM     58  C   UNL A   1      40.142  28.259  29.684  1.00  0.00     0.037 A 
ATOM     59  C   UNL A   1      46.846  29.331  28.943  1.00  0.00     0.049 A 
ATOM     60  C   UNL A   1      41.168  29.235  30.149  1.00  0.00     0.074 A 
ATOM     61  C   UNL A   1      47.548  28.408  29.697  1.00  0.00     0.029 A 
ATOM     62  N   UNL A   1      45.959  29.918  29.813  1.00  0.00    -0.354 N 
ATOM     63  N   UNL A   1      41.915  29.048  31.203  1.00  0.00    -0.248 NA
ATOM     64  C   UNL A   1      41.696  30.168  29.163  1.00  0.00     0.031 C 
ATOM     65  C   UNL A   1      46.714  28.134  30.820  1.00  0.00     0.029 A 
ATOM     66  C   UNL A   1      45.600  28.967  30.734  1.00  0.00     0.049 A 
ATOM     67  H   UNL A   1      45.641  30.849  29.781  1.00  0.00     0.167 HD
ATOM     68  C   UNL A   1      43.176  29.470  30.813  1.00  0.00     0.074 A 
ATOM     69  C   UNL A   1      42.970  30.205  29.566  1.00  0.00     0.031 C 
ATOM     70  C   UNL A   1      44.303  28.930  31.362  1.00  0.00     0.037 A 
BRANCH  57  71
ATOM     71  C   UNL A   1      46.556  30.884  26.886  1.00  0.00     0.064 A 
ATOM     72  C   UNL A   1      47.701  31.703  26.890  1.00  0.00     0.173 A 
ATOM     73  C   UNL A   1      45.344  31.537  26.563  1.00  0.00     0.173 A 
ATOM     74  F   UNL A   1      48.903  31.194  27.198  1.00  0.00    -0.203 F 
ATOM     75  C   UNL A   1      47.621  33.082  26.687  1.00  0.00     0.198 A 
ATOM     76  C   UNL A   1      45.276  32.903  26.306  1.00  0.00     0.198 A 
ATOM     77  F   UNL A   1      44.158  30.920  26.595  1.00  0.00    -0.203 F 
ATOM     78  F   UNL A   1      48.714  33.839  26.841  1.00  0.00    -0.200 F 
ATOM     79  C   UNL A   1      46.408  33.682  26.402  1.00  0.00     0.200 A 
ATOM     80  F   UNL A   1      44.087  33.466  26.051  1.00  0.00    -0.200 F 
ATOM     81  F   UNL A   1      46.317  35.012  26.273  1.00  0.00    -0.200 F 
ENDBRANCH  57  71
BRANCH  58  82
ATOM     82  C   UNL A   1      38.731  28.664  29.445  1.00  0.00     0.064 A 
ATOM     83  C   UNL A   1      37.869  28.935  30.526  1.00  0.00     0.173 A 
ATOM     84  C   UNL A   1      38.276  29.075  28.178  1.00  0.00     0.173 A 
ATOM     85  F   UNL A   1      38.232  28.613  31.777  1.00  0.00    -0.203 F 
ATOM     86  C   UNL A   1      36.657  29.616  30.354  1.00  0.00     0.198 A 
ATOM     87  C   UNL A   1      37.062  29.745  28.006  1.00  0.00     0.198 A 
ATOM     88  F   UNL A   1      39.038  28.927  27.087  1.00  0.00    -0.203 F 
ATOM     89  F   UNL A   1      35.903  29.921  31.420  1.00  0.00    -0.200 F 
ATOM     90  C   UNL A   1      36.262  30.032  29.095  1.00  0.00     0.200 A 
ATOM     91  F   UNL A   1      36.707  30.171  26.785  1.00  0.00    -0.200 F 
ATOM     92  F   UNL A   1      35.137  30.743  28.937  1.00  0.00    -0.200 F 
ENDBRANCH  58  82
BRANCH  70  93
ATOM     93  C   UNL A   1      44.162  28.052  32.573  1.00  0.00     0.064 A 
ATOM     94  C   UNL A   1      43.923  26.667  32.527  1.00  0.00     0.173 A 
ATOM     95  C   UNL A   1      44.442  28.617  33.825  1.00  0.00     0.173 A 
ATOM     96  F   UNL A   1      43.750  26.033  31.359  1.00  0.00    -0.203 F 
ATOM     97  C   UNL A   1      43.926  25.896  33.690  1.00  0.00     0.198 A 
ATOM     98  C   UNL A   1      44.485  27.838  34.977  1.00  0.00     0.198 A 
ATOM     99  F   UNL A   1      44.728  29.925  33.923  1.00  0.00    -0.203 F 
ATOM    100  F   UNL A   1      43.687  24.578  33.624  1.00  0.00    -0.200 F 
ATOM    101  C   UNL A   1      44.216  26.482  34.911  1.00  0.00     0.200 A 
ATOM    102  F   UNL A   1      44.818  28.401  36.146  1.00  0.00    -0.200 F 
ATOM    103  F   UNL A   1      44.268  25.733  36.023  1.00  0.00    -0.200 F 
ENDBRANCH  70  93
ENDBRANCH  44  45
ENDBRANCH  37  39
ENDBRANCH  36  37
ENDBRANCH  35  36
ENDBRANCH  34  35
ENDBRANCH  33  34
ENDBRANCH  32  33
ENDBRANCH  31  32
ENDBRANCH   1  31
TORSDOF 22
ENDMDL
MODEL 3
REMARK VINA RESULT:     -11.0      3.819      9.629
REMARK SMILES Cc1nnc(SCC(=O)Nc2cccc(C(=O)OCCOCCOCCOC(=O)c3ccc(-c4c5nc(c(-c6c(F)c(F)c(F)c(F)c6F)c6ccc([nH]6)c(-c6c(F)c(F)c(F)c(F)c6F)c6nc(c(-c7c(F)c(F)c(F)c(F)c7F)c7ccc4[nH]7)C=C6)C=C5)cc3)c2)n1-c1ccccc1
REMARK SMILES IDX 21 1 20 2 19 3 18 4 16 5 17 6 15 7 11 8 12 9 93 10 13 11
REMARK SMILES IDX 14 12 10 13 8 14 9 15 7 17 6 18 5 19 1 20 2 21 3 22 94 23
REMARK SMILES IDX 4 24 95 25 96 26 100 27 97 28 99 29 98 30 22 31 23 32 24 33
REMARK SMILES IDX 25 34 26 35 27 36 28 37 29 38 30 39 31 40 92 41 32 42 91 43
REMARK SMILES IDX 33 44 34 45 35 46 85 47 36 48 90 49 84 50 86 51 37 52 89 53
REMARK SMILES IDX 83 54 82 55 38 57 70 58 50 59 69 60 51 61 54 62 68 63 87 64
REMARK SMILES IDX 52 65 53 66 67 68 88 69 55 70 39 71 40 72 48 73 41 74 42 75
REMARK SMILES IDX 46 76 49 77 43 78 44 79 47 80 45 81 71 82 72 83 80 84 73 85
REMARK SMILES IDX 74 86 78 87 81 88 75 89 76 90 79 91 77 92 56 93 57 94 65 95
REMARK SMILES IDX 58 96 59 97 63 98 66 99 60 100 61 101 64 102 62 103
REMARK H PARENT 10 16 86 56 54 67
REMARK Flexibility Score: inf
ROOT
ATOM      1  O   UNL A   1      33.442  34.020  28.189  1.00  0.00    -0.376 OA
ENDROOT
BRANCH   1   2
ATOM      2  C   UNL A   1      34.549  33.201  28.536  1.00  0.00     0.202 C 
BRANCH   2   3
ATOM      3  C   UNL A   1      34.916  31.836  27.919  1.00  0.00     0.261 C 
BRANCH   3   4
ATOM      4  O   UNL A   1      33.859  31.101  27.324  1.00  0.00    -0.460 OA
BRANCH   4   5
ATOM      5  C   UNL A   1      34.098  29.820  26.966  1.00  0.00     0.338 C 
ATOM      6  O   UNL A   1      34.839  29.021  27.516  1.00  0.00    -0.246 OA
BRANCH   5   7
ATOM      7  C   UNL A   1      33.160  29.480  25.873  1.00  0.00     0.062 A 
ATOM      8  C   UNL A   1      32.662  28.180  23.911  1.00  0.00     0.042 A 
ATOM      9  C   UNL A   1      31.484  28.897  23.718  1.00  0.00     0.026 A 
ATOM     10  C   UNL A   1      33.534  28.543  24.915  1.00  0.00     0.041 A 
ATOM     11  C   UNL A   1      31.122  29.881  24.639  1.00  0.00     0.003 A 
ATOM     12  C   UNL A   1      31.939  30.144  25.743  1.00  0.00     0.016 A 
BRANCH   8  13
ATOM     13  N   UNL A   1      32.885  27.042  23.142  1.00  0.00    -0.325 N 
ATOM     14  C   UNL A   1      32.130  25.907  23.199  1.00  0.00     0.234 C 
ATOM     15  O   UNL A   1      31.967  25.374  22.090  1.00  0.00    -0.274 OA
ATOM     16  H   UNL A   1      33.642  27.056  22.513  1.00  0.00     0.169 HD
BRANCH  14  17
ATOM     17  C   UNL A   1      31.305  25.440  24.390  1.00  0.00     0.178 C 
BRANCH  17  18
ATOM     18  S   UNL A   1      32.055  24.788  25.892  1.00  0.00    -0.076 SA
BRANCH  18  19
ATOM     19  C   UNL A   1      32.216  23.067  25.823  1.00  0.00     0.196 A 
ATOM     20  C   UNL A   1      33.759  20.023  24.590  1.00  0.00     0.090 C 
ATOM     21  C   UNL A   1      32.893  21.103  25.113  1.00  0.00     0.135 A 
ATOM     22  N   UNL A   1      31.613  21.010  25.412  1.00  0.00    -0.134 NA
ATOM     23  N   UNL A   1      33.324  22.386  25.371  1.00  0.00    -0.274 N 
ATOM     24  N   UNL A   1      31.187  22.246  25.843  1.00  0.00    -0.123 NA
BRANCH  23  25
ATOM     25  C   UNL A   1      34.618  22.893  25.221  1.00  0.00     0.049 A 
ATOM     26  C   UNL A   1      35.125  22.999  23.930  1.00  0.00     0.027 A 
ATOM     27  C   UNL A   1      35.433  23.047  26.341  1.00  0.00     0.027 A 
ATOM     28  C   UNL A   1      36.497  23.136  23.749  1.00  0.00     0.002 A 
ATOM     29  C   UNL A   1      36.802  23.225  26.148  1.00  0.00     0.002 A 
ATOM     30  C   UNL A   1      37.337  23.228  24.857  1.00  0.00     0.000 A 
ENDBRANCH  23  25
ENDBRANCH  18  19
ENDBRANCH  17  18
ENDBRANCH  14  17
ENDBRANCH   8  13
ENDBRANCH   5   7
ENDBRANCH   4   5
ENDBRANCH   3   4
ENDBRANCH   2   3
ENDBRANCH   1   2
BRANCH   1  31
ATOM     31  C   UNL A   1      33.230  35.283  28.774  1.00  0.00     0.188 C 
BRANCH  31  32
ATOM     32  C   UNL A   1      32.993  35.371  30.292  1.00  0.00     0.188 C 
BRANCH  32  33
ATOM     33  O   UNL A   1      34.072  35.256  31.188  1.00  0.00    -0.376 OA
BRANCH  33  34
ATOM     34  C   UNL A   1      33.948  34.656  32.467  1.00  0.00     0.202 C 
BRANCH  34  35
ATOM     35  C   UNL A   1      34.021  33.155  32.749  1.00  0.00     0.261 C 
BRANCH  35  36
ATOM     36  O   UNL A   1      34.913  32.398  31.958  1.00  0.00    -0.460 OA
BRANCH  36  37
ATOM     37  C   UNL A   1      36.020  32.008  32.620  1.00  0.00     0.338 C 
ATOM     38  O   UNL A   1      36.301  32.205  33.791  1.00  0.00    -0.246 OA
BRANCH  37  39
ATOM     39  C   UNL A   1      36.928  31.357  31.679  1.00  0.00     0.060 A 
ATOM     40  C   UNL A   1      36.798  29.975  31.535  1.00  0.00     0.016 A 
ATOM     41  C   UNL A   1      38.068  32.057  31.264  1.00  0.00     0.016 A 
ATOM     42  C   UNL A   1      37.922  29.258  31.208  1.00  0.00     0.010 A 
ATOM     43  C   UNL A   1      39.195  31.338  30.957  1.00  0.00     0.010 A 
ATOM     44  C   UNL A   1      39.128  29.949  31.030  1.00  0.00    -0.014 A 
BRANCH  44  45
ATOM     45  C   UNL A   1      40.323  29.171  30.799  1.00  0.00     0.031 A 
ATOM     46  C   UNL A   1      41.082  28.944  32.046  1.00  0.00     0.074 A 
ATOM     47  C   UNL A   1      40.631  28.655  29.593  1.00  0.00     0.049 A 
ATOM     48  N   UNL A   1      42.258  29.389  32.332  1.00  0.00    -0.248 NA
ATOM     49  C   UNL A   1      40.379  28.320  33.180  1.00  0.00     0.031 C 
ATOM     50  C   UNL A   1      39.819  28.638  28.376  1.00  0.00     0.029 A 
ATOM     51  N   UNL A   1      41.729  27.937  29.232  1.00  0.00    -0.354 N 
ATOM     52  C   UNL A   1      42.532  28.916  33.608  1.00  0.00     0.074 A 
ATOM     53  C   UNL A   1      41.284  28.447  34.149  1.00  0.00     0.031 C 
ATOM     54  C   UNL A   1      40.345  27.748  27.501  1.00  0.00     0.029 A 
ATOM     55  C   UNL A   1      41.586  27.225  28.045  1.00  0.00     0.049 A 
ATOM     56  H   UNL A   1      42.556  27.922  29.768  1.00  0.00     0.167 HD
ATOM     57  C   UNL A   1      43.815  28.681  33.985  1.00  0.00     0.037 A 
ATOM     58  C   UNL A   1      42.398  26.218  27.626  1.00  0.00     0.037 A 
ATOM     59  C   UNL A   1      44.736  29.441  33.175  1.00  0.00     0.049 A 
ATOM     60  C   UNL A   1      43.681  26.355  28.372  1.00  0.00     0.074 A 
ATOM     61  C   UNL A   1      44.884  30.789  32.899  1.00  0.00     0.029 A 
ATOM     62  N   UNL A   1      45.432  28.785  32.188  1.00  0.00    -0.354 N 
ATOM     63  N   UNL A   1      44.528  27.329  28.175  1.00  0.00    -0.248 NA
ATOM     64  C   UNL A   1      43.775  25.694  29.667  1.00  0.00     0.031 C 
ATOM     65  C   UNL A   1      45.214  30.850  31.514  1.00  0.00     0.029 A 
ATOM     66  C   UNL A   1      45.336  29.541  31.049  1.00  0.00     0.049 A 
ATOM     67  H   UNL A   1      45.911  27.930  32.283  1.00  0.00     0.167 HD
ATOM     68  C   UNL A   1      44.937  27.695  29.448  1.00  0.00     0.074 A 
ATOM     69  C   UNL A   1      44.486  26.615  30.325  1.00  0.00     0.031 C 
ATOM     70  C   UNL A   1      45.329  28.972  29.724  1.00  0.00     0.037 A 
BRANCH  57  71
ATOM     71  C   UNL A   1      44.228  27.457  34.766  1.00  0.00     0.064 A 
ATOM     72  C   UNL A   1      45.029  27.628  35.910  1.00  0.00     0.173 A 
ATOM     73  C   UNL A   1      44.147  26.133  34.275  1.00  0.00     0.173 A 
ATOM     74  F   UNL A   1      45.192  28.844  36.454  1.00  0.00    -0.203 F 
ATOM     75  C   UNL A   1      45.769  26.577  36.456  1.00  0.00     0.198 A 
ATOM     76  C   UNL A   1      44.842  25.076  34.856  1.00  0.00     0.198 A 
ATOM     77  F   UNL A   1      43.494  25.816  33.152  1.00  0.00    -0.203 F 
ATOM     78  F   UNL A   1      46.626  26.819  37.456  1.00  0.00    -0.200 F 
ATOM     79  C   UNL A   1      45.680  25.304  35.924  1.00  0.00     0.200 A 
ATOM     80  F   UNL A   1      44.755  23.855  34.311  1.00  0.00    -0.200 F 
ATOM     81  F   UNL A   1      46.438  24.309  36.403  1.00  0.00    -0.200 F 
ENDBRANCH  57  71
BRANCH  58  82
ATOM     82  C   UNL A   1      42.042  24.964  26.910  1.00  0.00     0.064 A 
ATOM     83  C   UNL A   1      42.863  24.469  25.878  1.00  0.00     0.173 A 
ATOM     84  C   UNL A   1      41.068  24.074  27.401  1.00  0.00     0.173 A 
ATOM     85  F   UNL A   1      43.843  25.231  25.370  1.00  0.00    -0.203 F 
ATOM     86  C   UNL A   1      42.747  23.156  25.404  1.00  0.00     0.198 A 
ATOM     87  C   UNL A   1      40.946  22.767  26.921  1.00  0.00     0.198 A 
ATOM     88  F   UNL A   1      40.273  24.413  28.425  1.00  0.00    -0.203 F 
ATOM     89  F   UNL A   1      43.598  22.702  24.474  1.00  0.00    -0.200 F 
ATOM     90  C   UNL A   1      41.797  22.302  25.937  1.00  0.00     0.200 A 
ATOM     91  F   UNL A   1      40.043  21.942  27.469  1.00  0.00    -0.200 F 
ATOM     92  F   UNL A   1      41.729  21.026  25.535  1.00  0.00    -0.200 F 
ENDBRANCH  58  82
BRANCH  70  93
ATOM     93  C   UNL A   1      45.552  29.919  28.579  1.00  0.00     0.064 A 
ATOM     94  C   UNL A   1      44.533  30.652  27.944  1.00  0.00     0.173 A 
ATOM     95  C   UNL A   1      46.875  30.212  28.222  1.00  0.00     0.173 A 
ATOM     96  F   UNL A   1      43.250  30.506  28.303  1.00  0.00    -0.203 F 
ATOM     97  C   UNL A   1      44.831  31.604  26.969  1.00  0.00     0.198 A 
ATOM     98  C   UNL A   1      47.170  31.191  27.278  1.00  0.00     0.198 A 
ATOM     99  F   UNL A   1      47.891  29.581  28.831  1.00  0.00    -0.203 F 
ATOM    100  F   UNL A   1      43.842  32.285  26.370  1.00  0.00    -0.200 F 
ATOM    101  C   UNL A   1      46.149  31.878  26.645  1.00  0.00     0.200 A 
ATOM    102  F   UNL A   1      48.448  31.488  27.008  1.00  0.00    -0.200 F 
ATOM    103  F   UNL A   1      46.438  32.827  25.743  1.00  0.00    -0.200 F 
ENDBRANCH  70  93
ENDBRANCH  44  45
ENDBRANCH  37  39
ENDBRANCH  36  37
ENDBRANCH  35  36
ENDBRANCH  34  35
ENDBRANCH  33  34
ENDBRANCH  32  33
ENDBRANCH  31  32
ENDBRANCH   1  31
TORSDOF 22
ENDMDL
