MODEL 1
REMARK VINA RESULT:     -11.9      0.000      0.000
REMARK SMILES O=C(OCCOCCOCCOC(=O)c1nnn(Cc2ccccc2Cl)c1-c1ccc(Cl)cc1)c1ccc(-c2c3nc(c(-c4c(F)c(F)c(F)c(F)c4F)c4ccc([nH]4)c(-c4c(F)c(F)c(F)c(F)c4F)c4nc(c(-c5c(F)c(F)c(F)c(F)c5F)c5ccc2[nH]5)C=C4)C=C3)cc1
REMARK SMILES IDX 7 1 6 2 5 3 4 4 3 5 2 6 1 7 35 8 36 9 97 10 37 11 96 12
REMARK SMILES IDX 38 13 39 14 40 15 90 16 41 17 95 18 89 19 91 20 42 21 94 22
REMARK SMILES IDX 88 23 87 24 43 26 75 27 55 28 74 29 56 30 59 31 73 32 92 33
REMARK SMILES IDX 57 34 58 35 72 37 93 38 60 39 44 40 45 41 53 42 46 43 47 44
REMARK SMILES IDX 51 45 54 46 48 47 49 48 52 49 50 50 76 51 77 52 85 53 78 54
REMARK SMILES IDX 79 55 83 56 86 57 80 58 81 59 84 60 82 61 61 62 62 63 70 64
REMARK SMILES IDX 63 65 64 66 68 67 71 68 65 69 66 70 69 71 67 72 8 73 9 74
REMARK SMILES IDX 10 75 11 76 12 77 13 78 14 79 15 80 16 81 27 82 17 83 18 84
REMARK SMILES IDX 28 85 29 86 34 87 30 88 33 89 31 90 32 91 19 92 20 93 21 94
REMARK SMILES IDX 25 95 22 96 24 97 26 98 23 99
REMARK H PARENT 91 25 59 36
REMARK Flexibility Score: inf
ROOT
ATOM      1  C   UNL A   1      35.839  22.578  23.901  1.00  0.00     0.188 C 
ENDROOT
BRANCH   1   2
ATOM      2  O   UNL A   1      37.055  23.020  24.494  1.00  0.00    -0.376 OA
BRANCH   2   3
ATOM      3  C   UNL A   1      37.380  22.465  25.757  1.00  0.00     0.202 C 
BRANCH   3   4
ATOM      4  C   UNL A   1      38.562  21.493  25.739  1.00  0.00     0.261 C 
BRANCH   4   5
ATOM      5  O   UNL A   1      39.850  22.092  25.957  1.00  0.00    -0.460 OA
BRANCH   5   6
ATOM      6  C   UNL A   1      40.471  22.478  27.086  1.00  0.00     0.338 C 
ATOM      7  O   UNL A   1      40.576  21.683  28.018  1.00  0.00    -0.246 OA
BRANCH   6   8
ATOM      8  C   UNL A   1      40.859  23.887  27.339  1.00  0.00     0.060 A 
ATOM      9  C   UNL A   1      41.671  24.312  28.386  1.00  0.00     0.016 A 
ATOM     10  C   UNL A   1      40.242  24.850  26.515  1.00  0.00     0.016 A 
ATOM     11  C   UNL A   1      41.783  25.671  28.667  1.00  0.00     0.010 A 
ATOM     12  C   UNL A   1      40.352  26.208  26.794  1.00  0.00     0.010 A 
ATOM     13  C   UNL A   1      41.070  26.612  27.915  1.00  0.00    -0.014 A 
BRANCH  13  14
ATOM     14  C   UNL A   1      41.029  27.981  28.425  1.00  0.00     0.031 A 
ATOM     15  C   UNL A   1      42.183  28.872  28.121  1.00  0.00     0.074 A 
ATOM     16  C   UNL A   1      39.997  28.454  29.154  1.00  0.00     0.049 A 
ATOM     17  N   UNL A   1      43.003  29.431  28.955  1.00  0.00    -0.248 NA
ATOM     18  C   UNL A   1      42.469  29.159  26.712  1.00  0.00     0.031 C 
ATOM     19  C   UNL A   1      38.671  27.862  29.347  1.00  0.00     0.029 A 
ATOM     20  N   UNL A   1      39.915  29.635  29.834  1.00  0.00    -0.354 N 
ATOM     21  C   UNL A   1      43.831  30.256  28.195  1.00  0.00     0.074 A 
ATOM     22  C   UNL A   1      43.505  29.996  26.814  1.00  0.00     0.031 C 
ATOM     23  C   UNL A   1      37.855  28.776  29.920  1.00  0.00     0.029 A 
ATOM     24  C   UNL A   1      38.638  29.952  30.263  1.00  0.00     0.049 A 
ATOM     25  H   UNL A   1      40.694  30.212  30.002  1.00  0.00     0.167 HD
ATOM     26  C   UNL A   1      44.627  31.208  28.757  1.00  0.00     0.037 A 
ATOM     27  C   UNL A   1      38.234  31.119  30.813  1.00  0.00     0.037 A 
ATOM     28  C   UNL A   1      44.851  30.970  30.156  1.00  0.00     0.049 A 
ATOM     29  C   UNL A   1      39.425  31.807  31.363  1.00  0.00     0.074 A 
ATOM     30  C   UNL A   1      45.443  29.960  30.890  1.00  0.00     0.029 A 
ATOM     31  N   UNL A   1      44.195  31.750  31.073  1.00  0.00    -0.354 N 
ATOM     32  N   UNL A   1      40.090  31.408  32.412  1.00  0.00    -0.248 NA
ATOM     33  C   UNL A   1      40.112  32.771  30.518  1.00  0.00     0.031 C 
ATOM     34  C   UNL A   1      44.715  29.913  32.114  1.00  0.00     0.029 A 
ATOM     35  C   UNL A   1      43.736  30.904  32.047  1.00  0.00     0.049 A 
ATOM     36  H   UNL A   1      44.078  32.727  31.038  1.00  0.00     0.167 HD
ATOM     37  C   UNL A   1      41.406  31.746  32.144  1.00  0.00     0.074 A 
ATOM     38  C   UNL A   1      41.342  32.682  31.029  1.00  0.00     0.031 C 
ATOM     39  C   UNL A   1      42.441  31.027  32.670  1.00  0.00     0.037 A 
BRANCH  26  40
ATOM     40  C   UNL A   1      45.001  32.516  28.108  1.00  0.00     0.064 A 
ATOM     41  C   UNL A   1      44.023  33.518  27.936  1.00  0.00     0.173 A 
ATOM     42  C   UNL A   1      46.198  32.702  27.388  1.00  0.00     0.173 A 
ATOM     43  F   UNL A   1      42.836  33.430  28.555  1.00  0.00    -0.203 F 
ATOM     44  C   UNL A   1      44.208  34.589  27.058  1.00  0.00     0.198 A 
ATOM     45  C   UNL A   1      46.400  33.800  26.550  1.00  0.00     0.198 A 
ATOM     46  F   UNL A   1      47.169  31.779  27.384  1.00  0.00    -0.203 F 
ATOM     47  F   UNL A   1      43.206  35.451  26.838  1.00  0.00    -0.200 F 
ATOM     48  C   UNL A   1      45.394  34.726  26.361  1.00  0.00     0.200 A 
ATOM     49  F   UNL A   1      47.549  33.908  25.869  1.00  0.00    -0.200 F 
ATOM     50  F   UNL A   1      45.552  35.718  25.475  1.00  0.00    -0.200 F 
ENDBRANCH  26  40
BRANCH  27  51
ATOM     51  C   UNL A   1      36.929  31.792  30.637  1.00  0.00     0.064 A 
ATOM     52  C   UNL A   1      36.050  31.976  31.714  1.00  0.00     0.173 A 
ATOM     53  C   UNL A   1      36.636  32.503  29.456  1.00  0.00     0.173 A 
ATOM     54  F   UNL A   1      36.287  31.376  32.889  1.00  0.00    -0.203 F 
ATOM     55  C   UNL A   1      34.948  32.833  31.619  1.00  0.00     0.198 A 
ATOM     56  C   UNL A   1      35.531  33.349  29.359  1.00  0.00     0.198 A 
ATOM     57  F   UNL A   1      37.466  32.464  28.404  1.00  0.00    -0.203 F 
ATOM     58  F   UNL A   1      34.163  33.032  32.687  1.00  0.00    -0.200 F 
ATOM     59  C   UNL A   1      34.695  33.524  30.445  1.00  0.00     0.200 A 
ATOM     60  F   UNL A   1      35.320  34.039  28.229  1.00  0.00    -0.200 F 
ATOM     61  F   UNL A   1      33.673  34.388  30.373  1.00  0.00    -0.200 F 
ENDBRANCH  27  51
BRANCH  39  62
ATOM     62  C   UNL A   1      42.137  30.067  33.780  1.00  0.00     0.064 A 
ATOM     63  C   UNL A   1      41.682  28.755  33.564  1.00  0.00     0.173 A 
ATOM     64  C   UNL A   1      42.483  30.427  35.089  1.00  0.00     0.173 A 
ATOM     65  F   UNL A   1      41.434  28.309  32.325  1.00  0.00    -0.203 F 
ATOM     66  C   UNL A   1      41.542  27.859  34.621  1.00  0.00     0.198 A 
ATOM     67  C   UNL A   1      42.375  29.518  36.139  1.00  0.00     0.198 A 
ATOM     68  F   UNL A   1      42.984  31.646  35.343  1.00  0.00    -0.203 F 
ATOM     69  F   UNL A   1      41.107  26.612  34.392  1.00  0.00    -0.200 F 
ATOM     70  C   UNL A   1      41.898  28.238  35.906  1.00  0.00     0.200 A 
ATOM     71  F   UNL A   1      42.770  29.870  37.371  1.00  0.00    -0.200 F 
ATOM     72  F   UNL A   1      41.812  27.359  36.914  1.00  0.00    -0.200 F 
ENDBRANCH  39  62
ENDBRANCH  13  14
ENDBRANCH   6   8
ENDBRANCH   5   6
ENDBRANCH   4   5
ENDBRANCH   3   4
ENDBRANCH   2   3
ENDBRANCH   1   2
BRANCH   1  73
ATOM     73  C   UNL A   1      35.177  21.384  24.627  1.00  0.00     0.188 C 
BRANCH  73  74
ATOM     74  O   UNL A   1      33.861  21.442  25.176  1.00  0.00    -0.376 OA
BRANCH  74  75
ATOM     75  C   UNL A   1      33.602  20.941  26.473  1.00  0.00     0.202 C 
BRANCH  75  76
ATOM     76  C   UNL A   1      33.599  22.049  27.530  1.00  0.00     0.261 C 
BRANCH  76  77
ATOM     77  O   UNL A   1      33.193  23.328  27.023  1.00  0.00    -0.458 OA
BRANCH  77  78
ATOM     78  C   UNL A   1      31.848  23.482  26.807  1.00  0.00     0.361 C 
ATOM     79  O   UNL A   1      30.965  23.196  27.601  1.00  0.00    -0.244 OA
BRANCH  78  80
ATOM     80  C   UNL A   1      31.581  23.993  25.476  1.00  0.00     0.198 A 
ATOM     81  N   UNL A   1      31.042  23.235  24.472  1.00  0.00    -0.122 NA
ATOM     82  C   UNL A   1      31.791  25.290  25.026  1.00  0.00     0.104 A 
ATOM     83  N   UNL A   1      30.904  24.008  23.407  1.00  0.00    -0.066 NA
ATOM     84  N   UNL A   1      31.440  25.213  23.696  1.00  0.00    -0.239 N 
BRANCH  82  85
ATOM     85  C   UNL A   1      32.317  26.433  25.759  1.00  0.00     0.002 A 
ATOM     86  C   UNL A   1      31.430  27.279  26.443  1.00  0.00     0.012 A 
ATOM     87  C   UNL A   1      33.666  26.795  25.665  1.00  0.00     0.012 A 
ATOM     88  C   UNL A   1      31.873  28.481  26.993  1.00  0.00     0.021 A 
ATOM     89  C   UNL A   1      34.113  27.994  26.230  1.00  0.00     0.021 A 
ATOM     90  C   UNL A   1      33.213  28.837  26.880  1.00  0.00     0.041 A 
ATOM     91  Cl  UNL A   1      33.753  30.338  27.522  1.00  0.00    -0.084 Cl
ENDBRANCH  82  85
BRANCH  84  92
ATOM     92  C   UNL A   1      31.610  26.189  22.630  1.00  0.00     0.183 C 
BRANCH  92  93
ATOM     93  C   UNL A   1      30.783  27.429  22.881  1.00  0.00    -0.008 A 
ATOM     94  C   UNL A   1      29.386  27.301  23.005  1.00  0.00     0.007 A 
ATOM     95  C   UNL A   1      31.351  28.704  23.049  1.00  0.00     0.046 A 
ATOM     96  C   UNL A   1      28.586  28.410  23.289  1.00  0.00     0.000 A 
ATOM     97  C   UNL A   1      30.547  29.809  23.343  1.00  0.00     0.021 A 
ATOM     98  Cl  UNL A   1      33.049  28.987  22.878  1.00  0.00    -0.084 Cl
ATOM     99  C   UNL A   1      29.166  29.663  23.464  1.00  0.00     0.002 A 
ENDBRANCH  92  93
ENDBRANCH  84  92
ENDBRANCH  78  80
ENDBRANCH  77  78
ENDBRANCH  76  77
ENDBRANCH  75  76
ENDBRANCH  74  75
ENDBRANCH  73  74
ENDBRANCH   1  73
TORSDOF 20
ENDMDL
MODEL 2
REMARK VINA RESULT:     -11.5      3.581      8.879
REMARK SMILES O=C(OCCOCCOCCOC(=O)c1nnn(Cc2ccccc2Cl)c1-c1ccc(Cl)cc1)c1ccc(-c2c3nc(c(-c4c(F)c(F)c(F)c(F)c4F)c4ccc([nH]4)c(-c4c(F)c(F)c(F)c(F)c4F)c4nc(c(-c5c(F)c(F)c(F)c(F)c5F)c5ccc2[nH]5)C=C4)C=C3)cc1
REMARK SMILES IDX 7 1 6 2 5 3 4 4 3 5 2 6 1 7 35 8 36 9 97 10 37 11 96 12
REMARK SMILES IDX 38 13 39 14 40 15 90 16 41 17 95 18 89 19 91 20 42 21 94 22
REMARK SMILES IDX 88 23 87 24 43 26 75 27 55 28 74 29 56 30 59 31 73 32 92 33
REMARK SMILES IDX 57 34 58 35 72 37 93 38 60 39 44 40 45 41 53 42 46 43 47 44
REMARK SMILES IDX 51 45 54 46 48 47 49 48 52 49 50 50 76 51 77 52 85 53 78 54
REMARK SMILES IDX 79 55 83 56 86 57 80 58 81 59 84 60 82 61 61 62 62 63 70 64
REMARK SMILES IDX 63 65 64 66 68 67 71 68 65 69 66 70 69 71 67 72 8 73 9 74
REMARK SMILES IDX 10 75 11 76 12 77 13 78 14 79 15 80 16 81 27 82 17 83 18 84
REMARK SMILES IDX 28 85 29 86 34 87 30 88 33 89 31 90 32 91 19 92 20 93 21 94
REMARK SMILES IDX 25 95 22 96 24 97 26 98 23 99
REMARK H PARENT 91 25 59 36
REMARK Flexibility Score: inf
ROOT
ATOM      1  C   UNL A   1      33.052  30.441  27.357  1.00  0.00     0.188 C 
ENDROOT
BRANCH   1   2
ATOM      2  O   UNL A   1      34.051  31.446  27.489  1.00  0.00    -0.376 OA
BRANCH   2   3
ATOM      3  C   UNL A   1      33.624  32.696  28.004  1.00  0.00     0.202 C 
BRANCH   3   4
ATOM      4  C   UNL A   1      34.749  33.570  28.564  1.00  0.00     0.261 C 
BRANCH   4   5
ATOM      5  O   UNL A   1      35.035  33.379  29.959  1.00  0.00    -0.460 OA
BRANCH   5   6
ATOM      6  C   UNL A   1      35.360  32.277  30.657  1.00  0.00     0.338 C 
ATOM      7  O   UNL A   1      34.861  32.097  31.767  1.00  0.00    -0.246 OA
BRANCH   6   8
ATOM      8  C   UNL A   1      36.450  31.362  30.239  1.00  0.00     0.060 A 
ATOM      9  C   UNL A   1      36.362  29.973  30.224  1.00  0.00     0.016 A 
ATOM     10  C   UNL A   1      37.691  31.974  29.965  1.00  0.00     0.016 A 
ATOM     11  C   UNL A   1      37.512  29.209  30.038  1.00  0.00     0.010 A 
ATOM     12  C   UNL A   1      38.840  31.213  29.780  1.00  0.00     0.010 A 
ATOM     13  C   UNL A   1      38.758  29.828  29.886  1.00  0.00    -0.014 A 
BRANCH  13  14
ATOM     14  C   UNL A   1      39.941  28.972  29.958  1.00  0.00     0.031 A 
ATOM     15  C   UNL A   1      40.619  28.832  31.276  1.00  0.00     0.074 A 
ATOM     16  C   UNL A   1      40.432  28.320  28.884  1.00  0.00     0.049 A 
ATOM     17  N   UNL A   1      41.827  29.178  31.596  1.00  0.00    -0.248 NA
ATOM     18  C   UNL A   1      39.847  28.253  32.381  1.00  0.00     0.031 C 
ATOM     19  C   UNL A   1      39.798  28.101  27.582  1.00  0.00     0.029 A 
ATOM     20  N   UNL A   1      41.614  27.645  28.775  1.00  0.00    -0.354 N 
ATOM     21  C   UNL A   1      42.027  28.736  32.903  1.00  0.00     0.074 A 
ATOM     22  C   UNL A   1      40.753  28.238  33.362  1.00  0.00     0.031 C 
ATOM     23  C   UNL A   1      40.508  27.180  26.891  1.00  0.00     0.029 A 
ATOM     24  C   UNL A   1      41.714  26.863  27.637  1.00  0.00     0.049 A 
ATOM     25  H   UNL A   1      42.332  27.708  29.445  1.00  0.00     0.167 HD
ATOM     26  C   UNL A   1      43.264  28.675  33.471  1.00  0.00     0.037 A 
ATOM     27  C   UNL A   1      42.690  25.972  27.349  1.00  0.00     0.037 A 
ATOM     28  C   UNL A   1      44.219  29.495  32.780  1.00  0.00     0.049 A 
ATOM     29  C   UNL A   1      43.885  26.322  28.153  1.00  0.00     0.074 A 
ATOM     30  C   UNL A   1      44.339  30.848  32.528  1.00  0.00     0.029 A 
ATOM     31  N   UNL A   1      45.151  28.891  31.978  1.00  0.00    -0.354 N 
ATOM     32  N   UNL A   1      44.626  27.376  27.954  1.00  0.00    -0.248 NA
ATOM     33  C   UNL A   1      44.061  25.668  29.440  1.00  0.00     0.031 C 
ATOM     34  C   UNL A   1      44.978  30.935  31.258  1.00  0.00     0.029 A 
ATOM     35  C   UNL A   1      45.214  29.630  30.826  1.00  0.00     0.049 A 
ATOM     36  H   UNL A   1      45.675  28.085  32.188  1.00  0.00     0.167 HD
ATOM     37  C   UNL A   1      45.051  27.751  29.217  1.00  0.00     0.074 A 
ATOM     38  C   UNL A   1      44.773  26.603  30.071  1.00  0.00     0.031 C 
ATOM     39  C   UNL A   1      45.334  29.054  29.509  1.00  0.00     0.037 A 
BRANCH  26  40
ATOM     40  C   UNL A   1      43.691  27.664  34.505  1.00  0.00     0.064 A 
ATOM     41  C   UNL A   1      43.713  26.292  34.177  1.00  0.00     0.173 A 
ATOM     42  C   UNL A   1      43.789  27.964  35.878  1.00  0.00     0.173 A 
ATOM     43  F   UNL A   1      43.600  25.891  32.901  1.00  0.00    -0.203 F 
ATOM     44  C   UNL A   1      43.764  25.298  35.157  1.00  0.00     0.198 A 
ATOM     45  C   UNL A   1      43.892  26.970  36.851  1.00  0.00     0.198 A 
ATOM     46  F   UNL A   1      43.684  29.219  36.334  1.00  0.00    -0.203 F 
ATOM     47  F   UNL A   1      43.663  24.008  34.805  1.00  0.00    -0.200 F 
ATOM     48  C   UNL A   1      43.847  25.637  36.494  1.00  0.00     0.200 A 
ATOM     49  F   UNL A   1      43.955  27.316  38.145  1.00  0.00    -0.200 F 
ATOM     50  F   UNL A   1      43.838  24.687  37.439  1.00  0.00    -0.200 F 
ENDBRANCH  26  40
BRANCH  27  51
ATOM     51  C   UNL A   1      42.550  24.684  26.637  1.00  0.00     0.064 A 
ATOM     52  C   UNL A   1      43.318  24.390  25.501  1.00  0.00     0.173 A 
ATOM     53  C   UNL A   1      41.847  23.610  27.217  1.00  0.00     0.173 A 
ATOM     54  F   UNL A   1      44.057  25.345  24.920  1.00  0.00    -0.203 F 
ATOM     55  C   UNL A   1      43.388  23.092  24.983  1.00  0.00     0.198 A 
ATOM     56  C   UNL A   1      41.909  22.319  26.694  1.00  0.00     0.198 A 
ATOM     57  F   UNL A   1      41.161  23.772  28.357  1.00  0.00    -0.203 F 
ATOM     58  F   UNL A   1      44.178  22.834  23.932  1.00  0.00    -0.200 F 
ATOM     59  C   UNL A   1      42.689  22.057  25.584  1.00  0.00     0.200 A 
ATOM     60  F   UNL A   1      41.258  21.321  27.309  1.00  0.00    -0.200 F 
ATOM     61  F   UNL A   1      42.802  20.804  25.123  1.00  0.00    -0.200 F 
ENDBRANCH  27  51
BRANCH  39  62
ATOM     62  C   UNL A   1      45.476  30.016  28.368  1.00  0.00     0.064 A 
ATOM     63  C   UNL A   1      44.384  30.650  27.752  1.00  0.00     0.173 A 
ATOM     64  C   UNL A   1      46.762  30.437  28.005  1.00  0.00     0.173 A 
ATOM     65  F   UNL A   1      43.127  30.373  28.125  1.00  0.00    -0.203 F 
ATOM     66  C   UNL A   1      44.576  31.635  26.785  1.00  0.00     0.198 A 
ATOM     67  C   UNL A   1      46.950  31.447  27.064  1.00  0.00     0.198 A 
ATOM     68  F   UNL A   1      47.839  29.911  28.609  1.00  0.00    -0.203 F 
ATOM     69  F   UNL A   1      43.520  32.228  26.212  1.00  0.00    -0.200 F 
ATOM     70  C   UNL A   1      45.859  32.039  26.450  1.00  0.00     0.200 A 
ATOM     71  F   UNL A   1      48.190  31.872  26.781  1.00  0.00    -0.200 F 
ATOM     72  F   UNL A   1      46.042  33.023  25.558  1.00  0.00    -0.200 F 
ENDBRANCH  39  62
ENDBRANCH  13  14
ENDBRANCH   6   8
ENDBRANCH   5   6
ENDBRANCH   4   5
ENDBRANCH   3   4
ENDBRANCH   2   3
ENDBRANCH   1   2
BRANCH   1  73
ATOM     73  C   UNL A   1      33.591  29.065  26.902  1.00  0.00     0.188 C 
BRANCH  73  74
ATOM     74  O   UNL A   1      33.546  28.624  25.545  1.00  0.00    -0.376 OA
BRANCH  74  75
ATOM     75  C   UNL A   1      32.526  29.077  24.677  1.00  0.00     0.202 C 
BRANCH  75  76
ATOM     76  C   UNL A   1      32.788  28.681  23.221  1.00  0.00     0.261 C 
BRANCH  76  77
ATOM     77  O   UNL A   1      33.754  27.631  23.075  1.00  0.00    -0.458 OA
BRANCH  77  78
ATOM     78  C   UNL A   1      33.358  26.560  22.316  1.00  0.00     0.361 C 
ATOM     79  O   UNL A   1      33.630  26.387  21.138  1.00  0.00    -0.244 OA
BRANCH  78  80
ATOM     80  C   UNL A   1      32.518  25.653  23.076  1.00  0.00     0.198 A 
ATOM     81  N   UNL A   1      31.150  25.680  23.035  1.00  0.00    -0.122 NA
ATOM     82  C   UNL A   1      32.944  24.631  23.915  1.00  0.00     0.104 A 
ATOM     83  N   UNL A   1      30.700  24.711  23.816  1.00  0.00    -0.066 NA
ATOM     84  N   UNL A   1      31.762  24.140  24.424  1.00  0.00    -0.239 N 
BRANCH  82  85
ATOM     85  C   UNL A   1      34.306  24.223  24.231  1.00  0.00     0.002 A 
ATOM     86  C   UNL A   1      34.946  23.276  23.417  1.00  0.00     0.012 A 
ATOM     87  C   UNL A   1      34.928  24.633  25.416  1.00  0.00     0.012 A 
ATOM     88  C   UNL A   1      36.169  22.722  23.794  1.00  0.00     0.021 A 
ATOM     89  C   UNL A   1      36.162  24.089  25.787  1.00  0.00     0.021 A 
ATOM     90  C   UNL A   1      36.771  23.128  24.982  1.00  0.00     0.041 A 
ATOM     91  Cl  UNL A   1      38.258  22.417  25.469  1.00  0.00    -0.084 Cl
ENDBRANCH  82  85
BRANCH  84  92
ATOM     92  C   UNL A   1      31.536  23.184  25.496  1.00  0.00     0.183 C 
BRANCH  92  93
ATOM     93  C   UNL A   1      32.232  21.870  25.219  1.00  0.00    -0.008 A 
ATOM     94  C   UNL A   1      31.919  21.172  24.037  1.00  0.00     0.007 A 
ATOM     95  C   UNL A   1      33.218  21.336  26.066  1.00  0.00     0.046 A 
ATOM     96  C   UNL A   1      32.573  19.982  23.712  1.00  0.00     0.000 A 
ATOM     97  C   UNL A   1      33.878  20.149  25.731  1.00  0.00     0.021 A 
ATOM     98  Cl  UNL A   1      33.653  22.085  27.563  1.00  0.00    -0.084 Cl
ATOM     99  C   UNL A   1      33.557  19.473  24.556  1.00  0.00     0.002 A 
ENDBRANCH  92  93
ENDBRANCH  84  92
ENDBRANCH  78  80
ENDBRANCH  77  78
ENDBRANCH  76  77
ENDBRANCH  75  76
ENDBRANCH  74  75
ENDBRANCH  73  74
ENDBRANCH   1  73
TORSDOF 20
ENDMDL
MODEL 3
REMARK VINA RESULT:     -11.0      3.589      8.873
REMARK SMILES O=C(OCCOCCOCCOC(=O)c1nnn(Cc2ccccc2Cl)c1-c1ccc(Cl)cc1)c1ccc(-c2c3nc(c(-c4c(F)c(F)c(F)c(F)c4F)c4ccc([nH]4)c(-c4c(F)c(F)c(F)c(F)c4F)c4nc(c(-c5c(F)c(F)c(F)c(F)c5F)c5ccc2[nH]5)C=C4)C=C3)cc1
REMARK SMILES IDX 7 1 6 2 5 3 4 4 3 5 2 6 1 7 35 8 36 9 97 10 37 11 96 12
REMARK SMILES IDX 38 13 39 14 40 15 90 16 41 17 95 18 89 19 91 20 42 21 94 22
REMARK SMILES IDX 88 23 87 24 43 26 75 27 55 28 74 29 56 30 59 31 73 32 92 33
REMARK SMILES IDX 57 34 58 35 72 37 93 38 60 39 44 40 45 41 53 42 46 43 47 44
REMARK SMILES IDX 51 45 54 46 48 47 49 48 52 49 50 50 76 51 77 52 85 53 78 54
REMARK SMILES IDX 79 55 83 56 86 57 80 58 81 59 84 60 82 61 61 62 62 63 70 64
REMARK SMILES IDX 63 65 64 66 68 67 71 68 65 69 66 70 69 71 67 72 8 73 9 74
REMARK SMILES IDX 10 75 11 76 12 77 13 78 14 79 15 80 16 81 27 82 17 83 18 84
REMARK SMILES IDX 28 85 29 86 34 87 30 88 33 89 31 90 32 91 19 92 20 93 21 94
REMARK SMILES IDX 25 95 22 96 24 97 26 98 23 99
REMARK H PARENT 91 25 59 36
REMARK Flexibility Score: inf
ROOT
ATOM      1  C   UNL A   1      34.010  30.484  27.285  1.00  0.00     0.188 C 
ENDROOT
BRANCH   1   2
ATOM      2  O   UNL A   1      34.694  31.724  27.429  1.00  0.00    -0.376 OA
BRANCH   2   3
ATOM      3  C   UNL A   1      33.994  32.756  28.103  1.00  0.00     0.202 C 
BRANCH   3   4
ATOM      4  C   UNL A   1      34.886  33.857  28.680  1.00  0.00     0.261 C 
BRANCH   4   5
ATOM      5  O   UNL A   1      35.675  33.471  29.818  1.00  0.00    -0.460 OA
BRANCH   5   6
ATOM      6  C   UNL A   1      35.756  32.310  30.491  1.00  0.00     0.338 C 
ATOM      7  O   UNL A   1      35.098  32.163  31.519  1.00  0.00    -0.246 OA
BRANCH   6   8
ATOM      8  C   UNL A   1      36.758  31.268  30.163  1.00  0.00     0.060 A 
ATOM      9  C   UNL A   1      36.512  29.898  30.164  1.00  0.00     0.016 A 
ATOM     10  C   UNL A   1      38.077  31.727  29.964  1.00  0.00     0.016 A 
ATOM     11  C   UNL A   1      37.575  29.003  30.069  1.00  0.00     0.010 A 
ATOM     12  C   UNL A   1      39.140  30.835  29.870  1.00  0.00     0.010 A 
ATOM     13  C   UNL A   1      38.891  29.472  29.992  1.00  0.00    -0.014 A 
BRANCH  13  14
ATOM     14  C   UNL A   1      39.960  28.489  30.158  1.00  0.00     0.031 A 
ATOM     15  C   UNL A   1      40.501  28.274  31.528  1.00  0.00     0.074 A 
ATOM     16  C   UNL A   1      40.466  27.785  29.125  1.00  0.00     0.049 A 
ATOM     17  N   UNL A   1      41.708  28.482  31.954  1.00  0.00    -0.248 NA
ATOM     18  C   UNL A   1      39.577  27.786  32.558  1.00  0.00     0.031 C 
ATOM     19  C   UNL A   1      39.926  27.636  27.771  1.00  0.00     0.029 A 
ATOM     20  N   UNL A   1      41.570  26.981  29.112  1.00  0.00    -0.354 N 
ATOM     21  C   UNL A   1      41.743  28.022  33.269  1.00  0.00     0.074 A 
ATOM     22  C   UNL A   1      40.387  27.671  33.613  1.00  0.00     0.031 C 
ATOM     23  C   UNL A   1      40.586  26.642  27.136  1.00  0.00     0.029 A 
ATOM     24  C   UNL A   1      41.679  26.191  27.980  1.00  0.00     0.049 A 
ATOM     25  H   UNL A   1      42.229  26.962  29.842  1.00  0.00     0.167 HD
ATOM     26  C   UNL A   1      42.912  27.822  33.942  1.00  0.00     0.037 A 
ATOM     27  C   UNL A   1      42.571  25.196  27.769  1.00  0.00     0.037 A 
ATOM     28  C   UNL A   1      44.009  28.529  33.343  1.00  0.00     0.049 A 
ATOM     29  C   UNL A   1      43.723  25.409  28.676  1.00  0.00     0.074 A 
ATOM     30  C   UNL A   1      44.302  29.860  33.114  1.00  0.00     0.029 A 
ATOM     31  N   UNL A   1      44.934  27.824  32.618  1.00  0.00    -0.354 N 
ATOM     32  N   UNL A   1      44.593  26.373  28.551  1.00  0.00    -0.248 NA
ATOM     33  C   UNL A   1      43.713  24.741  29.967  1.00  0.00     0.031 C 
ATOM     34  C   UNL A   1      45.055  29.874  31.904  1.00  0.00     0.029 A 
ATOM     35  C   UNL A   1      45.179  28.550  31.483  1.00  0.00     0.049 A 
ATOM     36  H   UNL A   1      45.344  26.963  32.866  1.00  0.00     0.167 HD
ATOM     37  C   UNL A   1      44.945  26.700  29.850  1.00  0.00     0.074 A 
ATOM     38  C   UNL A   1      44.468  25.591  30.666  1.00  0.00     0.031 C 
ATOM     39  C   UNL A   1      45.347  27.963  30.176  1.00  0.00     0.037 A 
BRANCH  26  40
ATOM     40  C   UNL A   1      43.132  26.771  34.999  1.00  0.00     0.064 A 
ATOM     41  C   UNL A   1      43.357  27.158  36.337  1.00  0.00     0.173 A 
ATOM     42  C   UNL A   1      43.423  25.426  34.696  1.00  0.00     0.173 A 
ATOM     43  F   UNL A   1      43.136  28.422  36.731  1.00  0.00    -0.203 F 
ATOM     44  C   UNL A   1      43.895  26.280  37.281  1.00  0.00     0.198 A 
ATOM     45  C   UNL A   1      43.913  24.537  35.654  1.00  0.00     0.198 A 
ATOM     46  F   UNL A   1      43.347  24.953  33.446  1.00  0.00    -0.203 F 
ATOM     47  F   UNL A   1      44.202  26.725  38.507  1.00  0.00    -0.200 F 
ATOM     48  C   UNL A   1      44.178  24.971  36.938  1.00  0.00     0.200 A 
ATOM     49  F   UNL A   1      44.198  23.276  35.300  1.00  0.00    -0.200 F 
ATOM     50  F   UNL A   1      44.748  24.143  37.823  1.00  0.00    -0.200 F 
ENDBRANCH  26  40
BRANCH  27  51
ATOM     51  C   UNL A   1      42.349  23.931  27.036  1.00  0.00     0.064 A 
ATOM     52  C   UNL A   1      43.294  23.440  26.125  1.00  0.00     0.173 A 
ATOM     53  C   UNL A   1      41.321  23.045  27.417  1.00  0.00     0.173 A 
ATOM     54  F   UNL A   1      44.332  24.201  25.752  1.00  0.00    -0.203 F 
ATOM     55  C   UNL A   1      43.223  22.132  25.632  1.00  0.00     0.198 A 
ATOM     56  C   UNL A   1      41.244  21.746  26.918  1.00  0.00     0.198 A 
ATOM     57  F   UNL A   1      40.425  23.392  28.352  1.00  0.00    -0.203 F 
ATOM     58  F   UNL A   1      44.176  21.675  24.809  1.00  0.00    -0.200 F 
ATOM     59  C   UNL A   1      42.202  21.285  26.035  1.00  0.00     0.200 A 
ATOM     60  F   UNL A   1      40.274  20.926  27.345  1.00  0.00    -0.200 F 
ATOM     61  F   UNL A   1      42.166  20.015  25.608  1.00  0.00    -0.200 F 
ENDBRANCH  27  51
BRANCH  39  62
ATOM     62  C   UNL A   1      45.694  28.901  29.060  1.00  0.00     0.064 A 
ATOM     63  C   UNL A   1      46.970  28.968  28.476  1.00  0.00     0.173 A 
ATOM     64  C   UNL A   1      44.661  29.625  28.449  1.00  0.00     0.173 A 
ATOM     65  F   UNL A   1      47.980  28.220  28.942  1.00  0.00    -0.203 F 
ATOM     66  C   UNL A   1      47.208  29.759  27.354  1.00  0.00     0.198 A 
ATOM     67  C   UNL A   1      44.894  30.387  27.307  1.00  0.00     0.198 A 
ATOM     68  F   UNL A   1      43.409  29.546  28.926  1.00  0.00    -0.203 F 
ATOM     69  F   UNL A   1      48.433  29.807  26.813  1.00  0.00    -0.200 F 
ATOM     70  C   UNL A   1      46.167  30.460  26.765  1.00  0.00     0.200 A 
ATOM     71  F   UNL A   1      43.875  31.021  26.709  1.00  0.00    -0.200 F 
ATOM     72  F   UNL A   1      46.384  31.180  25.655  1.00  0.00    -0.200 F 
ENDBRANCH  39  62
ENDBRANCH  13  14
ENDBRANCH   6   8
ENDBRANCH   5   6
ENDBRANCH   4   5
ENDBRANCH   3   4
ENDBRANCH   2   3
ENDBRANCH   1   2
BRANCH   1  73
ATOM     73  C   UNL A   1      32.491  30.622  27.033  1.00  0.00     0.188 C 
BRANCH  73  74
ATOM     74  O   UNL A   1      31.583  29.526  27.141  1.00  0.00    -0.376 OA
BRANCH  74  75
ATOM     75  C   UNL A   1      32.068  28.204  27.277  1.00  0.00     0.202 C 
BRANCH  75  76
ATOM     76  C   UNL A   1      31.301  27.214  26.396  1.00  0.00     0.261 C 
BRANCH  76  77
ATOM     77  O   UNL A   1      31.313  25.870  26.896  1.00  0.00    -0.458 OA
BRANCH  77  78
ATOM     78  C   UNL A   1      30.343  25.041  26.395  1.00  0.00     0.361 C 
ATOM     79  O   UNL A   1      29.142  25.268  26.403  1.00  0.00    -0.244 OA
BRANCH  78  80
ATOM     80  C   UNL A   1      30.912  23.808  25.883  1.00  0.00     0.198 A 
ATOM     81  N   UNL A   1      30.567  22.568  26.349  1.00  0.00    -0.122 NA
ATOM     82  C   UNL A   1      31.842  23.685  24.858  1.00  0.00     0.104 A 
ATOM     83  N   UNL A   1      31.245  21.669  25.653  1.00  0.00    -0.066 NA
ATOM     84  N   UNL A   1      32.083  22.329  24.825  1.00  0.00    -0.239 N 
BRANCH  82  85
ATOM     85  C   UNL A   1      32.459  24.735  24.060  1.00  0.00     0.002 A 
ATOM     86  C   UNL A   1      33.567  25.427  24.573  1.00  0.00     0.012 A 
ATOM     87  C   UNL A   1      31.875  25.175  22.866  1.00  0.00     0.012 A 
ATOM     88  C   UNL A   1      34.063  26.558  23.926  1.00  0.00     0.021 A 
ATOM     89  C   UNL A   1      32.382  26.301  22.209  1.00  0.00     0.021 A 
ATOM     90  C   UNL A   1      33.464  26.994  22.747  1.00  0.00     0.041 A 
ATOM     91  Cl  UNL A   1      34.048  28.412  21.970  1.00  0.00    -0.084 Cl
ENDBRANCH  82  85
BRANCH  84  92
ATOM     92  C   UNL A   1      33.094  21.581  24.095  1.00  0.00     0.183 C 
BRANCH  92  93
ATOM     93  C   UNL A   1      34.482  22.113  24.373  1.00  0.00    -0.008 A 
ATOM     94  C   UNL A   1      35.236  22.635  23.306  1.00  0.00     0.007 A 
ATOM     95  C   UNL A   1      35.038  22.156  25.664  1.00  0.00     0.046 A 
ATOM     96  C   UNL A   1      36.501  23.185  23.521  1.00  0.00     0.000 A 
ATOM     97  C   UNL A   1      36.300  22.718  25.877  1.00  0.00     0.021 A 
ATOM     98  Cl  UNL A   1      34.220  21.507  27.042  1.00  0.00    -0.084 Cl
ATOM     99  C   UNL A   1      37.032  23.233  24.808  1.00  0.00     0.002 A 
ENDBRANCH  92  93
ENDBRANCH  84  92
ENDBRANCH  78  80
ENDBRANCH  77  78
ENDBRANCH  76  77
ENDBRANCH  75  76
ENDBRANCH  74  75
ENDBRANCH  73  74
ENDBRANCH   1  73
TORSDOF 20
ENDMDL
