MODEL 1
REMARK VINA RESULT:     -11.5      0.000      0.000
REMARK SMILES CC(C)(C)c1cc2c(cc1Cl)C=C(C(=O)OCCOCCOCCOC(=O)c1ccc(-c3c4nc(c(-c5c(F)c(F)c(F)c(F)c5F)c5ccc([nH]5)c(-c5c(F)c(F)c(F)c(F)c5F)c5nc(c(-c6c(F)c(F)c(F)c(F)c6F)c6ccc3[nH]6)C=C5)C=C4)cc1)[C@H](C(F)(F)F)O2
REMARK SMILES IDX 21 1 20 2 19 3 18 4 17 5 16 6 14 7 15 8 13 9 5 10 6 11 10 12
REMARK SMILES IDX 7 13 9 14 11 15 8 16 96 17 12 18 91 19 2 20 1 21 3 22 4 23
REMARK SMILES IDX 92 24 93 25 94 26 95 27 22 28 23 29 24 30 25 31 26 32 27 33
REMARK SMILES IDX 28 34 29 35 90 36 30 37 89 38 31 39 32 40 33 41 83 42 34 43
REMARK SMILES IDX 88 44 82 45 84 46 35 47 87 48 81 49 80 50 36 52 68 53 48 54
REMARK SMILES IDX 67 55 49 56 52 57 66 58 85 59 50 60 51 61 65 63 86 64 53 65
REMARK SMILES IDX 37 66 38 67 46 68 39 69 40 70 44 71 47 72 41 73 42 74 45 75
REMARK SMILES IDX 43 76 69 77 70 78 78 79 71 80 72 81 76 82 79 83 73 84 74 85
REMARK SMILES IDX 77 86 75 87 54 88 55 89 63 90 56 91 57 92 61 93 64 94 58 95
REMARK SMILES IDX 59 96 62 97 60 98
REMARK H PARENT 84 51 52 62
REMARK Flexibility Score: inf
ROOT
ATOM      1  C   UNL A   1      32.063  29.957  26.485  1.00  0.00     0.188 C 
ENDROOT
BRANCH   1   2
ATOM      2  C   UNL A   1      32.897  29.492  25.277  1.00  0.00     0.188 C 
BRANCH   2   3
ATOM      3  O   UNL A   1      32.283  29.314  24.019  1.00  0.00    -0.376 OA
BRANCH   3   4
ATOM      4  C   UNL A   1      31.159  28.455  23.882  1.00  0.00     0.202 C 
BRANCH   4   5
ATOM      5  C   UNL A   1      31.102  27.048  24.490  1.00  0.00     0.261 C 
BRANCH   5   6
ATOM      6  O   UNL A   1      31.934  26.071  23.847  1.00  0.00    -0.460 OA
BRANCH   6   7
ATOM      7  C   UNL A   1      32.986  25.641  24.578  1.00  0.00     0.338 C 
ATOM      8  O   UNL A   1      33.854  26.338  25.078  1.00  0.00    -0.246 OA
BRANCH   7   9
ATOM      9  C   UNL A   1      32.876  24.200  24.860  1.00  0.00     0.087 C 
ATOM     10  C   UNL A   1      33.844  19.234  24.633  1.00  0.00    -0.020 A 
ATOM     11  C   UNL A   1      32.686  20.053  24.667  1.00  0.00     0.053 A 
ATOM     12  C   UNL A   1      35.073  19.903  24.827  1.00  0.00     0.045 A 
ATOM     13  C   UNL A   1      32.745  21.446  24.764  1.00  0.00     0.128 A 
ATOM     14  C   UNL A   1      35.131  21.306  24.925  1.00  0.00     0.032 A 
ATOM     15  Cl  UNL A   1      36.606  19.124  24.997  1.00  0.00    -0.084 Cl
ATOM     16  C   UNL A   1      33.973  22.079  24.868  1.00  0.00     0.019 A 
ATOM     17  O   UNL A   1      31.556  22.114  24.658  1.00  0.00    -0.475 OA
ATOM     18  C   UNL A   1      34.035  23.527  24.816  1.00  0.00     0.027 C 
ATOM     19  C   UNL A   1      31.531  23.535  24.991  1.00  0.00     0.316 C 
BRANCH  10  20
ATOM     20  C   UNL A   1      33.650  17.712  24.404  1.00  0.00    -0.012 C 
ATOM     21  C   UNL A   1      34.899  16.830  24.642  1.00  0.00     0.016 C 
ATOM     22  C   UNL A   1      33.244  17.408  22.932  1.00  0.00     0.016 C 
ATOM     23  C   UNL A   1      32.521  17.221  25.329  1.00  0.00     0.016 C 
ENDBRANCH  10  20
BRANCH  19  24
ATOM     24  C   UNL A   1      30.823  23.696  26.349  1.00  0.00     0.430 C 
ATOM     25  F   UNL A   1      31.696  23.888  27.363  1.00  0.00    -0.167 F 
ATOM     26  F   UNL A   1      29.941  24.718  26.343  1.00  0.00    -0.167 F 
ATOM     27  F   UNL A   1      30.107  22.582  26.649  1.00  0.00    -0.167 F 
ENDBRANCH  19  24
ENDBRANCH   7   9
ENDBRANCH   6   7
ENDBRANCH   5   6
ENDBRANCH   4   5
ENDBRANCH   3   4
ENDBRANCH   2   3
ENDBRANCH   1   2
BRANCH   1  28
ATOM     28  O   UNL A   1      32.392  31.129  27.192  1.00  0.00    -0.376 OA
BRANCH  28  29
ATOM     29  C   UNL A   1      31.763  32.359  26.876  1.00  0.00     0.202 C 
BRANCH  29  30
ATOM     30  C   UNL A   1      32.395  33.730  27.156  1.00  0.00     0.261 C 
BRANCH  30  31
ATOM     31  O   UNL A   1      32.160  34.271  28.459  1.00  0.00    -0.460 OA
BRANCH  31  32
ATOM     32  C   UNL A   1      33.104  35.150  28.895  1.00  0.00     0.338 C 
ATOM     33  O   UNL A   1      32.995  36.345  29.047  1.00  0.00    -0.246 OA
BRANCH  32  34
ATOM     34  C   UNL A   1      34.264  34.367  29.365  1.00  0.00     0.060 A 
ATOM     35  C   UNL A   1      35.528  34.589  28.824  1.00  0.00     0.016 A 
ATOM     36  C   UNL A   1      34.067  33.394  30.357  1.00  0.00     0.016 A 
ATOM     37  C   UNL A   1      36.608  33.843  29.293  1.00  0.00     0.010 A 
ATOM     38  C   UNL A   1      35.146  32.636  30.812  1.00  0.00     0.010 A 
ATOM     39  C   UNL A   1      36.427  32.874  30.297  1.00  0.00    -0.014 A 
BRANCH  39  40
ATOM     40  C   UNL A   1      37.616  32.251  30.924  1.00  0.00     0.031 A 
ATOM     41  C   UNL A   1      38.074  32.618  32.299  1.00  0.00     0.074 A 
ATOM     42  C   UNL A   1      38.270  31.312  30.217  1.00  0.00     0.049 A 
ATOM     43  N   UNL A   1      39.015  32.065  33.024  1.00  0.00    -0.248 NA
ATOM     44  C   UNL A   1      37.401  33.753  32.946  1.00  0.00     0.031 C 
ATOM     45  C   UNL A   1      37.927  30.906  28.854  1.00  0.00     0.029 A 
ATOM     46  N   UNL A   1      39.338  30.519  30.546  1.00  0.00    -0.354 N 
ATOM     47  C   UNL A   1      39.029  32.760  34.223  1.00  0.00     0.074 A 
ATOM     48  C   UNL A   1      38.040  33.814  34.110  1.00  0.00     0.031 C 
ATOM     49  C   UNL A   1      38.743  29.912  28.476  1.00  0.00     0.029 A 
ATOM     50  C   UNL A   1      39.679  29.628  29.559  1.00  0.00     0.049 A 
ATOM     51  H   UNL A   1      39.815  30.581  31.406  1.00  0.00     0.167 HD
ATOM     52  C   UNL A   1      39.785  32.518  35.322  1.00  0.00     0.037 A 
ATOM     53  C   UNL A   1      40.631  28.677  29.534  1.00  0.00     0.037 A 
ATOM     54  C   UNL A   1      40.780  31.477  35.413  1.00  0.00     0.049 A 
ATOM     55  C   UNL A   1      41.485  28.462  30.752  1.00  0.00     0.074 A 
ATOM     56  C   UNL A   1      41.569  31.133  36.498  1.00  0.00     0.029 A 
ATOM     57  N   UNL A   1      41.135  30.623  34.379  1.00  0.00    -0.354 N 
ATOM     58  N   UNL A   1      41.432  29.065  31.915  1.00  0.00    -0.248 NA
ATOM     59  C   UNL A   1      42.526  27.431  30.657  1.00  0.00     0.031 C 
ATOM     60  C   UNL A   1      42.439  30.112  36.104  1.00  0.00     0.029 A 
ATOM     61  C   UNL A   1      42.154  29.775  34.791  1.00  0.00     0.049 A 
ATOM     62  H   UNL A   1      40.725  30.618  33.484  1.00  0.00     0.167 HD
ATOM     63  C   UNL A   1      42.415  28.474  32.696  1.00  0.00     0.074 A 
ATOM     64  C   UNL A   1      43.035  27.449  31.881  1.00  0.00     0.031 C 
ATOM     65  C   UNL A   1      42.769  28.759  33.972  1.00  0.00     0.037 A 
BRANCH  52  66
ATOM     66  C   UNL A   1      39.565  33.378  36.533  1.00  0.00     0.064 A 
ATOM     67  C   UNL A   1      38.616  33.033  37.507  1.00  0.00     0.173 A 
ATOM     68  C   UNL A   1      40.378  34.495  36.779  1.00  0.00     0.173 A 
ATOM     69  F   UNL A   1      37.813  31.974  37.322  1.00  0.00    -0.203 F 
ATOM     70  C   UNL A   1      38.480  33.781  38.675  1.00  0.00     0.198 A 
ATOM     71  C   UNL A   1      40.260  35.224  37.960  1.00  0.00     0.198 A 
ATOM     72  F   UNL A   1      41.311  34.863  35.888  1.00  0.00    -0.203 F 
ATOM     73  F   UNL A   1      37.550  33.445  39.579  1.00  0.00    -0.200 F 
ATOM     74  C   UNL A   1      39.309  34.867  38.905  1.00  0.00     0.200 A 
ATOM     75  F   UNL A   1      41.075  36.263  38.190  1.00  0.00    -0.200 F 
ATOM     76  F   UNL A   1      39.194  35.571  40.040  1.00  0.00    -0.200 F 
ENDBRANCH  52  66
BRANCH  53  77
ATOM     77  C   UNL A   1      40.783  27.828  28.325  1.00  0.00     0.064 A 
ATOM     78  C   UNL A   1      41.616  28.223  27.270  1.00  0.00     0.173 A 
ATOM     79  C   UNL A   1      40.131  26.591  28.217  1.00  0.00     0.173 A 
ATOM     80  F   UNL A   1      42.247  29.406  27.322  1.00  0.00    -0.203 F 
ATOM     81  C   UNL A   1      41.781  27.418  26.146  1.00  0.00     0.198 A 
ATOM     82  C   UNL A   1      40.322  25.773  27.106  1.00  0.00     0.198 A 
ATOM     83  F   UNL A   1      39.331  26.165  29.205  1.00  0.00    -0.203 F 
ATOM     84  F   UNL A   1      42.556  27.835  25.136  1.00  0.00    -0.200 F 
ATOM     85  C   UNL A   1      41.142  26.190  26.069  1.00  0.00     0.200 A 
ATOM     86  F   UNL A   1      39.718  24.578  27.045  1.00  0.00    -0.200 F 
ATOM     87  F   UNL A   1      41.314  25.409  24.994  1.00  0.00    -0.200 F 
ENDBRANCH  53  77
BRANCH  65  88
ATOM     88  C   UNL A   1      43.878  27.949  34.583  1.00  0.00     0.064 A 
ATOM     89  C   UNL A   1      45.210  28.387  34.552  1.00  0.00     0.173 A 
ATOM     90  C   UNL A   1      43.597  26.754  35.265  1.00  0.00     0.173 A 
ATOM     91  F   UNL A   1      45.535  29.514  33.901  1.00  0.00    -0.203 F 
ATOM     92  C   UNL A   1      46.221  27.653  35.167  1.00  0.00     0.198 A 
ATOM     93  C   UNL A   1      44.604  26.040  35.905  1.00  0.00     0.198 A 
ATOM     94  F   UNL A   1      42.339  26.293  35.330  1.00  0.00    -0.203 F 
ATOM     95  F   UNL A   1      47.492  28.071  35.091  1.00  0.00    -0.200 F 
ATOM     96  C   UNL A   1      45.916  26.486  35.852  1.00  0.00     0.200 A 
ATOM     97  F   UNL A   1      44.306  24.922  36.581  1.00  0.00    -0.200 F 
ATOM     98  F   UNL A   1      46.888  25.791  36.459  1.00  0.00    -0.200 F 
ENDBRANCH  65  88
ENDBRANCH  39  40
ENDBRANCH  32  34
ENDBRANCH  31  32
ENDBRANCH  30  31
ENDBRANCH  29  30
ENDBRANCH  28  29
ENDBRANCH   1  28
TORSDOF 19
ENDMDL
MODEL 2
REMARK VINA RESULT:     -11.4      1.358      2.039
REMARK SMILES CC(C)(C)c1cc2c(cc1Cl)C=C(C(=O)OCCOCCOCCOC(=O)c1ccc(-c3c4nc(c(-c5c(F)c(F)c(F)c(F)c5F)c5ccc([nH]5)c(-c5c(F)c(F)c(F)c(F)c5F)c5nc(c(-c6c(F)c(F)c(F)c(F)c6F)c6ccc3[nH]6)C=C5)C=C4)cc1)[C@H](C(F)(F)F)O2
REMARK SMILES IDX 21 1 20 2 19 3 18 4 17 5 16 6 14 7 15 8 13 9 5 10 6 11 10 12
REMARK SMILES IDX 7 13 9 14 11 15 8 16 96 17 12 18 91 19 2 20 1 21 3 22 4 23
REMARK SMILES IDX 92 24 93 25 94 26 95 27 22 28 23 29 24 30 25 31 26 32 27 33
REMARK SMILES IDX 28 34 29 35 90 36 30 37 89 38 31 39 32 40 33 41 83 42 34 43
REMARK SMILES IDX 88 44 82 45 84 46 35 47 87 48 81 49 80 50 36 52 68 53 48 54
REMARK SMILES IDX 67 55 49 56 52 57 66 58 85 59 50 60 51 61 65 63 86 64 53 65
REMARK SMILES IDX 37 66 38 67 46 68 39 69 40 70 44 71 47 72 41 73 42 74 45 75
REMARK SMILES IDX 43 76 69 77 70 78 78 79 71 80 72 81 76 82 79 83 73 84 74 85
REMARK SMILES IDX 77 86 75 87 54 88 55 89 63 90 56 91 57 92 61 93 64 94 58 95
REMARK SMILES IDX 59 96 62 97 60 98
REMARK H PARENT 84 51 52 62
REMARK Flexibility Score: inf
ROOT
ATOM      1  C   UNL A   1      31.971  30.234  26.443  1.00  0.00     0.188 C 
ENDROOT
BRANCH   1   2
ATOM      2  C   UNL A   1      32.645  29.666  25.180  1.00  0.00     0.188 C 
BRANCH   2   3
ATOM      3  O   UNL A   1      31.858  29.208  24.102  1.00  0.00    -0.376 OA
BRANCH   3   4
ATOM      4  C   UNL A   1      31.258  27.922  24.144  1.00  0.00     0.202 C 
BRANCH   4   5
ATOM      5  C   UNL A   1      32.062  26.619  24.048  1.00  0.00     0.261 C 
BRANCH   5   6
ATOM      6  O   UNL A   1      31.297  25.415  24.216  1.00  0.00    -0.460 OA
BRANCH   6   7
ATOM      7  C   UNL A   1      31.517  24.751  25.372  1.00  0.00     0.338 C 
ATOM      8  O   UNL A   1      30.995  24.982  26.450  1.00  0.00    -0.246 OA
BRANCH   7   9
ATOM      9  C   UNL A   1      32.360  23.565  25.144  1.00  0.00     0.087 C 
ATOM     10  C   UNL A   1      33.621  18.742  24.247  1.00  0.00    -0.020 A 
ATOM     11  C   UNL A   1      34.072  19.779  25.105  1.00  0.00     0.053 A 
ATOM     12  C   UNL A   1      32.652  19.118  23.291  1.00  0.00     0.045 A 
ATOM     13  C   UNL A   1      33.520  21.063  25.099  1.00  0.00     0.128 A 
ATOM     14  C   UNL A   1      32.098  20.412  23.285  1.00  0.00     0.032 A 
ATOM     15  Cl  UNL A   1      32.063  18.098  22.028  1.00  0.00    -0.084 Cl
ATOM     16  C   UNL A   1      32.511  21.375  24.203  1.00  0.00     0.019 A 
ATOM     17  O   UNL A   1      33.967  21.922  26.066  1.00  0.00    -0.475 OA
ATOM     18  C   UNL A   1      31.841  22.658  24.303  1.00  0.00     0.027 C 
ATOM     19  C   UNL A   1      33.607  23.332  25.955  1.00  0.00     0.316 C 
BRANCH  10  20
ATOM     20  C   UNL A   1      34.233  17.329  24.432  1.00  0.00    -0.012 C 
ATOM     21  C   UNL A   1      33.478  16.389  25.400  1.00  0.00     0.016 C 
ATOM     22  C   UNL A   1      35.672  17.409  25.023  1.00  0.00     0.016 C 
ATOM     23  C   UNL A   1      34.313  16.650  23.053  1.00  0.00     0.016 C 
ENDBRANCH  10  20
BRANCH  19  24
ATOM     24  C   UNL A   1      34.859  24.113  25.516  1.00  0.00     0.430 C 
ATOM     25  F   UNL A   1      35.968  23.720  26.182  1.00  0.00    -0.167 F 
ATOM     26  F   UNL A   1      35.091  23.998  24.191  1.00  0.00    -0.167 F 
ATOM     27  F   UNL A   1      34.702  25.440  25.758  1.00  0.00    -0.167 F 
ENDBRANCH  19  24
ENDBRANCH   7   9
ENDBRANCH   6   7
ENDBRANCH   5   6
ENDBRANCH   4   5
ENDBRANCH   3   4
ENDBRANCH   2   3
ENDBRANCH   1   2
BRANCH   1  28
ATOM     28  O   UNL A   1      32.723  30.566  27.586  1.00  0.00    -0.376 OA
BRANCH  28  29
ATOM     29  C   UNL A   1      33.521  31.737  27.604  1.00  0.00     0.202 C 
BRANCH  29  30
ATOM     30  C   UNL A   1      32.985  33.132  27.249  1.00  0.00     0.261 C 
BRANCH  30  31
ATOM     31  O   UNL A   1      32.326  33.835  28.305  1.00  0.00    -0.460 OA
BRANCH  31  32
ATOM     32  C   UNL A   1      32.989  34.930  28.769  1.00  0.00     0.338 C 
ATOM     33  O   UNL A   1      32.609  36.078  28.787  1.00  0.00    -0.246 OA
BRANCH  32  34
ATOM     34  C   UNL A   1      34.207  34.459  29.457  1.00  0.00     0.060 A 
ATOM     35  C   UNL A   1      34.119  33.879  30.722  1.00  0.00     0.016 A 
ATOM     36  C   UNL A   1      35.447  34.611  28.821  1.00  0.00     0.016 A 
ATOM     37  C   UNL A   1      35.283  33.433  31.346  1.00  0.00     0.010 A 
ATOM     38  C   UNL A   1      36.613  34.180  29.454  1.00  0.00     0.010 A 
ATOM     39  C   UNL A   1      36.532  33.567  30.712  1.00  0.00    -0.014 A 
BRANCH  39  40
ATOM     40  C   UNL A   1      37.716  32.896  31.297  1.00  0.00     0.031 A 
ATOM     41  C   UNL A   1      38.299  33.312  32.610  1.00  0.00     0.074 A 
ATOM     42  C   UNL A   1      38.249  31.869  30.611  1.00  0.00     0.049 A 
ATOM     43  N   UNL A   1      39.249  32.736  33.304  1.00  0.00    -0.248 NA
ATOM     44  C   UNL A   1      37.758  34.532  33.224  1.00  0.00     0.031 C 
ATOM     45  C   UNL A   1      37.778  31.407  29.305  1.00  0.00     0.029 A 
ATOM     46  N   UNL A   1      39.279  31.019  30.918  1.00  0.00    -0.354 N 
ATOM     47  C   UNL A   1      39.401  33.500  34.450  1.00  0.00     0.074 A 
ATOM     48  C   UNL A   1      38.483  34.616  34.335  1.00  0.00     0.031 C 
ATOM     49  C   UNL A   1      38.492  30.332  28.940  1.00  0.00     0.029 A 
ATOM     50  C   UNL A   1      39.482  30.046  29.972  1.00  0.00     0.049 A 
ATOM     51  H   UNL A   1      39.820  31.098  31.737  1.00  0.00     0.167 HD
ATOM     52  C   UNL A   1      40.216  33.270  35.508  1.00  0.00     0.037 A 
ATOM     53  C   UNL A   1      40.360  29.025  29.946  1.00  0.00     0.037 A 
ATOM     54  C   UNL A   1      41.139  32.165  35.600  1.00  0.00     0.049 A 
ATOM     55  C   UNL A   1      41.284  28.823  31.113  1.00  0.00     0.074 A 
ATOM     56  C   UNL A   1      41.979  31.829  36.649  1.00  0.00     0.029 A 
ATOM     57  N   UNL A   1      41.356  31.223  34.603  1.00  0.00    -0.354 N 
ATOM     58  N   UNL A   1      41.359  29.499  32.234  1.00  0.00    -0.248 NA
ATOM     59  C   UNL A   1      42.239  27.712  31.017  1.00  0.00     0.031 C 
ATOM     60  C   UNL A   1      42.743  30.723  36.265  1.00  0.00     0.029 A 
ATOM     61  C   UNL A   1      42.339  30.329  35.000  1.00  0.00     0.049 A 
ATOM     62  H   UNL A   1      40.881  31.195  33.741  1.00  0.00     0.167 HD
ATOM     63  C   UNL A   1      42.352  28.884  32.984  1.00  0.00     0.074 A 
ATOM     64  C   UNL A   1      42.836  27.767  32.199  1.00  0.00     0.031 C 
ATOM     65  C   UNL A   1      42.819  29.220  34.211  1.00  0.00     0.037 A 
BRANCH  52  66
ATOM     66  C   UNL A   1      40.147  34.217  36.671  1.00  0.00     0.064 A 
ATOM     67  C   UNL A   1      39.299  33.971  37.760  1.00  0.00     0.173 A 
ATOM     68  C   UNL A   1      41.010  35.321  36.750  1.00  0.00     0.173 A 
ATOM     69  F   UNL A   1      38.453  32.929  37.735  1.00  0.00    -0.203 F 
ATOM     70  C   UNL A   1      39.306  34.801  38.879  1.00  0.00     0.198 A 
ATOM     71  C   UNL A   1      41.036  36.133  37.882  1.00  0.00     0.198 A 
ATOM     72  F   UNL A   1      41.852  35.597  35.744  1.00  0.00    -0.203 F 
ATOM     73  F   UNL A   1      38.468  34.558  39.897  1.00  0.00    -0.200 F 
ATOM     74  C   UNL A   1      40.182  35.873  38.944  1.00  0.00     0.200 A 
ATOM     75  F   UNL A   1      41.897  37.157  37.953  1.00  0.00    -0.200 F 
ATOM     76  F   UNL A   1      40.205  36.656  40.032  1.00  0.00    -0.200 F 
ENDBRANCH  52  66
BRANCH  53  77
ATOM     77  C   UNL A   1      40.362  28.095  28.789  1.00  0.00     0.064 A 
ATOM     78  C   UNL A   1      41.096  28.388  27.632  1.00  0.00     0.173 A 
ATOM     79  C   UNL A   1      39.663  26.879  28.830  1.00  0.00     0.173 A 
ATOM     80  F   UNL A   1      41.767  29.546  27.541  1.00  0.00    -0.203 F 
ATOM     81  C   UNL A   1      41.122  27.505  26.555  1.00  0.00     0.198 A 
ATOM     82  C   UNL A   1      39.715  25.984  27.765  1.00  0.00     0.198 A 
ATOM     83  F   UNL A   1      38.954  26.549  29.919  1.00  0.00    -0.203 F 
ATOM     84  F   UNL A   1      41.803  27.825  25.447  1.00  0.00    -0.200 F 
ATOM     85  C   UNL A   1      40.440  26.300  26.626  1.00  0.00     0.200 A 
ATOM     86  F   UNL A   1      39.070  24.812  27.846  1.00  0.00    -0.200 F 
ATOM     87  F   UNL A   1      40.477  25.445  25.596  1.00  0.00    -0.200 F 
ENDBRANCH  53  77
BRANCH  65  88
ATOM     88  C   UNL A   1      43.909  28.367  34.797  1.00  0.00     0.064 A 
ATOM     89  C   UNL A   1      43.621  27.176  35.479  1.00  0.00     0.173 A 
ATOM     90  C   UNL A   1      45.258  28.710  34.615  1.00  0.00     0.173 A 
ATOM     91  F   UNL A   1      42.349  26.810  35.692  1.00  0.00    -0.203 F 
ATOM     92  C   UNL A   1      44.643  26.368  35.971  1.00  0.00     0.198 A 
ATOM     93  C   UNL A   1      46.277  27.884  35.081  1.00  0.00     0.198 A 
ATOM     94  F   UNL A   1      45.589  29.836  33.965  1.00  0.00    -0.203 F 
ATOM     95  F   UNL A   1      44.344  25.254  36.654  1.00  0.00    -0.200 F 
ATOM     96  C   UNL A   1      45.969  26.716  35.763  1.00  0.00     0.200 A 
ATOM     97  F   UNL A   1      47.557  28.214  34.864  1.00  0.00    -0.200 F 
ATOM     98  F   UNL A   1      46.951  25.928  36.222  1.00  0.00    -0.200 F 
ENDBRANCH  65  88
ENDBRANCH  39  40
ENDBRANCH  32  34
ENDBRANCH  31  32
ENDBRANCH  30  31
ENDBRANCH  29  30
ENDBRANCH  28  29
ENDBRANCH   1  28
TORSDOF 19
ENDMDL
MODEL 3
REMARK VINA RESULT:     -11.2      1.473      7.242
REMARK SMILES CC(C)(C)c1cc2c(cc1Cl)C=C(C(=O)OCCOCCOCCOC(=O)c1ccc(-c3c4nc(c(-c5c(F)c(F)c(F)c(F)c5F)c5ccc([nH]5)c(-c5c(F)c(F)c(F)c(F)c5F)c5nc(c(-c6c(F)c(F)c(F)c(F)c6F)c6ccc3[nH]6)C=C5)C=C4)cc1)[C@H](C(F)(F)F)O2
REMARK SMILES IDX 21 1 20 2 19 3 18 4 17 5 16 6 14 7 15 8 13 9 5 10 6 11 10 12
REMARK SMILES IDX 7 13 9 14 11 15 8 16 96 17 12 18 91 19 2 20 1 21 3 22 4 23
REMARK SMILES IDX 92 24 93 25 94 26 95 27 22 28 23 29 24 30 25 31 26 32 27 33
REMARK SMILES IDX 28 34 29 35 90 36 30 37 89 38 31 39 32 40 33 41 83 42 34 43
REMARK SMILES IDX 88 44 82 45 84 46 35 47 87 48 81 49 80 50 36 52 68 53 48 54
REMARK SMILES IDX 67 55 49 56 52 57 66 58 85 59 50 60 51 61 65 63 86 64 53 65
REMARK SMILES IDX 37 66 38 67 46 68 39 69 40 70 44 71 47 72 41 73 42 74 45 75
REMARK SMILES IDX 43 76 69 77 70 78 78 79 71 80 72 81 76 82 79 83 73 84 74 85
REMARK SMILES IDX 77 86 75 87 54 88 55 89 63 90 56 91 57 92 61 93 64 94 58 95
REMARK SMILES IDX 59 96 62 97 60 98
REMARK H PARENT 84 51 52 62
REMARK Flexibility Score: inf
ROOT
ATOM      1  C   UNL A   1      32.125  30.378  26.904  1.00  0.00     0.188 C 
ENDROOT
BRANCH   1   2
ATOM      2  C   UNL A   1      32.473  29.899  25.483  1.00  0.00     0.188 C 
BRANCH   2   3
ATOM      3  O   UNL A   1      31.539  29.144  24.741  1.00  0.00    -0.376 OA
BRANCH   3   4
ATOM      4  C   UNL A   1      31.343  27.766  25.022  1.00  0.00     0.202 C 
BRANCH   4   5
ATOM      5  C   UNL A   1      32.079  26.646  24.275  1.00  0.00     0.261 C 
BRANCH   5   6
ATOM      6  O   UNL A   1      31.452  25.356  24.337  1.00  0.00    -0.460 OA
BRANCH   6   7
ATOM      7  C   UNL A   1      31.668  24.666  25.478  1.00  0.00     0.338 C 
ATOM      8  O   UNL A   1      31.169  24.894  26.568  1.00  0.00    -0.246 OA
BRANCH   7   9
ATOM      9  C   UNL A   1      32.469  23.459  25.218  1.00  0.00     0.087 C 
ATOM     10  C   UNL A   1      33.564  18.620  24.197  1.00  0.00    -0.020 A 
ATOM     11  C   UNL A   1      34.052  19.619  25.079  1.00  0.00     0.053 A 
ATOM     12  C   UNL A   1      32.607  19.052  23.254  1.00  0.00     0.045 A 
ATOM     13  C   UNL A   1      33.544  20.920  25.107  1.00  0.00     0.128 A 
ATOM     14  C   UNL A   1      32.096  20.364  23.282  1.00  0.00     0.032 A 
ATOM     15  Cl  UNL A   1      31.981  18.084  21.967  1.00  0.00    -0.084 Cl
ATOM     16  C   UNL A   1      32.544  21.289  24.222  1.00  0.00     0.019 A 
ATOM     17  O   UNL A   1      34.022  21.739  26.094  1.00  0.00    -0.475 OA
ATOM     18  C   UNL A   1      31.919  22.590  24.356  1.00  0.00     0.027 C 
ATOM     19  C   UNL A   1      33.710  23.163  26.019  1.00  0.00     0.316 C 
BRANCH  10  20
ATOM     20  C   UNL A   1      34.129  17.182  24.344  1.00  0.00    -0.012 C 
ATOM     21  C   UNL A   1      35.464  17.059  25.114  1.00  0.00     0.016 C 
ATOM     22  C   UNL A   1      34.429  16.547  22.954  1.00  0.00     0.016 C 
ATOM     23  C   UNL A   1      33.073  16.316  25.055  1.00  0.00     0.016 C 
ENDBRANCH  10  20
BRANCH  19  24
ATOM     24  C   UNL A   1      34.987  23.912  25.596  1.00  0.00     0.430 C 
ATOM     25  F   UNL A   1      35.339  23.643  24.319  1.00  0.00    -0.167 F 
ATOM     26  F   UNL A   1      34.860  25.249  25.734  1.00  0.00    -0.167 F 
ATOM     27  F   UNL A   1      36.035  23.549  26.380  1.00  0.00    -0.167 F 
ENDBRANCH  19  24
ENDBRANCH   7   9
ENDBRANCH   6   7
ENDBRANCH   5   6
ENDBRANCH   4   5
ENDBRANCH   3   4
ENDBRANCH   2   3
ENDBRANCH   1   2
BRANCH   1  28
ATOM     28  O   UNL A   1      33.116  30.886  27.767  1.00  0.00    -0.376 OA
BRANCH  28  29
ATOM     29  C   UNL A   1      33.617  32.199  27.589  1.00  0.00     0.202 C 
BRANCH  29  30
ATOM     30  C   UNL A   1      32.717  33.431  27.412  1.00  0.00     0.261 C 
BRANCH  30  31
ATOM     31  O   UNL A   1      32.384  34.139  28.609  1.00  0.00    -0.460 OA
BRANCH  31  32
ATOM     32  C   UNL A   1      33.253  35.130  28.951  1.00  0.00     0.338 C 
ATOM     33  O   UNL A   1      33.112  36.323  28.815  1.00  0.00    -0.246 OA
BRANCH  32  34
ATOM     34  C   UNL A   1      34.348  34.518  29.729  1.00  0.00     0.060 A 
ATOM     35  C   UNL A   1      34.081  33.899  30.949  1.00  0.00     0.016 A 
ATOM     36  C   UNL A   1      35.654  34.577  29.223  1.00  0.00     0.016 A 
ATOM     37  C   UNL A   1      35.132  33.320  31.659  1.00  0.00     0.010 A 
ATOM     38  C   UNL A   1      36.707  34.012  29.944  1.00  0.00     0.010 A 
ATOM     39  C   UNL A   1      36.445  33.360  31.156  1.00  0.00    -0.014 A 
BRANCH  39  40
ATOM     40  C   UNL A   1      37.499  32.557  31.819  1.00  0.00     0.031 A 
ATOM     41  C   UNL A   1      38.135  31.377  31.156  1.00  0.00     0.074 A 
ATOM     42  C   UNL A   1      37.890  32.939  33.048  1.00  0.00     0.049 A 
ATOM     43  N   UNL A   1      39.156  30.662  31.560  1.00  0.00    -0.248 NA
ATOM     44  C   UNL A   1      37.553  30.933  29.882  1.00  0.00     0.031 C 
ATOM     45  C   UNL A   1      37.309  34.054  33.797  1.00  0.00     0.029 A 
ATOM     46  N   UNL A   1      38.873  32.455  33.871  1.00  0.00    -0.354 N 
ATOM     47  C   UNL A   1      39.362  29.704  30.579  1.00  0.00     0.074 A 
ATOM     48  C   UNL A   1      38.324  29.891  29.585  1.00  0.00     0.031 C 
ATOM     49  C   UNL A   1      37.972  34.194  34.954  1.00  0.00     0.029 A 
ATOM     50  C   UNL A   1      39.005  33.167  35.038  1.00  0.00     0.049 A 
ATOM     51  H   UNL A   1      39.429  31.673  33.649  1.00  0.00     0.167 HD
ATOM     52  C   UNL A   1      40.344  28.773  30.512  1.00  0.00     0.037 A 
ATOM     53  C   UNL A   1      39.873  33.018  36.055  1.00  0.00     0.037 A 
ATOM     54  C   UNL A   1      41.360  28.585  31.519  1.00  0.00     0.049 A 
ATOM     55  C   UNL A   1      40.923  31.946  35.973  1.00  0.00     0.074 A 
ATOM     56  C   UNL A   1      42.418  27.692  31.520  1.00  0.00     0.029 A 
ATOM     57  N   UNL A   1      41.437  29.291  32.713  1.00  0.00    -0.354 N 
ATOM     58  N   UNL A   1      41.166  31.101  35.000  1.00  0.00    -0.248 NA
ATOM     59  C   UNL A   1      41.824  31.811  37.125  1.00  0.00     0.031 C 
ATOM     60  C   UNL A   1      43.099  27.816  32.735  1.00  0.00     0.029 A 
ATOM     61  C   UNL A   1      42.505  28.829  33.469  1.00  0.00     0.049 A 
ATOM     62  H   UNL A   1      40.825  30.013  32.982  1.00  0.00     0.167 HD
ATOM     63  C   UNL A   1      42.259  30.350  35.412  1.00  0.00     0.074 A 
ATOM     64  C   UNL A   1      42.645  30.854  36.714  1.00  0.00     0.031 C 
ATOM     65  C   UNL A   1      42.881  29.334  34.767  1.00  0.00     0.037 A 
BRANCH  52  66
ATOM     66  C   UNL A   1      40.393  27.885  29.301  1.00  0.00     0.064 A 
ATOM     67  C   UNL A   1      39.598  26.733  29.213  1.00  0.00     0.173 A 
ATOM     68  C   UNL A   1      41.155  28.243  28.179  1.00  0.00     0.173 A 
ATOM     69  F   UNL A   1      38.851  26.346  30.258  1.00  0.00    -0.203 F 
ATOM     70  C   UNL A   1      39.575  25.964  28.051  1.00  0.00     0.198 A 
ATOM     71  C   UNL A   1      41.108  27.488  27.009  1.00  0.00     0.198 A 
ATOM     72  F   UNL A   1      41.922  29.343  28.203  1.00  0.00    -0.203 F 
ATOM     73  F   UNL A   1      38.827  24.853  27.999  1.00  0.00    -0.200 F 
ATOM     74  C   UNL A   1      40.320  26.348  26.947  1.00  0.00     0.200 A 
ATOM     75  F   UNL A   1      41.813  27.872  25.936  1.00  0.00    -0.200 F 
ATOM     76  F   UNL A   1      40.278  25.621  25.823  1.00  0.00    -0.200 F 
ENDBRANCH  52  66
BRANCH  53  77
ATOM     77  C   UNL A   1      39.807  33.946  37.212  1.00  0.00     0.064 A 
ATOM     78  C   UNL A   1      40.471  35.179  37.184  1.00  0.00     0.173 A 
ATOM     79  C   UNL A   1      39.048  33.637  38.351  1.00  0.00     0.173 A 
ATOM     80  F   UNL A   1      41.221  35.511  36.123  1.00  0.00    -0.203 F 
ATOM     81  C   UNL A   1      40.389  36.064  38.257  1.00  0.00     0.198 A 
ATOM     82  C   UNL A   1      38.942  34.535  39.410  1.00  0.00     0.198 A 
ATOM     83  F   UNL A   1      38.386  32.472  38.422  1.00  0.00    -0.203 F 
ATOM     84  F   UNL A   1      41.062  37.221  38.220  1.00  0.00    -0.200 F 
ATOM     85  C   UNL A   1      39.617  35.745  39.364  1.00  0.00     0.200 A 
ATOM     86  F   UNL A   1      38.180  34.231  40.469  1.00  0.00    -0.200 F 
ATOM     87  F   UNL A   1      39.527  36.603  40.389  1.00  0.00    -0.200 F 
ENDBRANCH  53  77
BRANCH  65  88
ATOM     88  C   UNL A   1      44.056  28.694  35.450  1.00  0.00     0.064 A 
ATOM     89  C   UNL A   1      43.908  27.546  36.243  1.00  0.00     0.173 A 
ATOM     90  C   UNL A   1      45.354  29.194  35.256  1.00  0.00     0.173 A 
ATOM     91  F   UNL A   1      42.689  27.036  36.472  1.00  0.00    -0.203 F 
ATOM     92  C   UNL A   1      45.013  26.932  36.828  1.00  0.00     0.198 A 
ATOM     93  C   UNL A   1      46.458  28.560  35.817  1.00  0.00     0.198 A 
ATOM     94  F   UNL A   1      45.552  30.286  34.503  1.00  0.00    -0.203 F 
ATOM     95  F   UNL A   1      44.843  25.859  37.613  1.00  0.00    -0.200 F 
ATOM     96  C   UNL A   1      46.287  27.432  36.606  1.00  0.00     0.200 A 
ATOM     97  F   UNL A   1      47.690  29.034  35.587  1.00  0.00    -0.200 F 
ATOM     98  F   UNL A   1      47.351  26.828  37.155  1.00  0.00    -0.200 F 
ENDBRANCH  65  88
ENDBRANCH  39  40
ENDBRANCH  32  34
ENDBRANCH  31  32
ENDBRANCH  30  31
ENDBRANCH  29  30
ENDBRANCH  28  29
ENDBRANCH   1  28
TORSDOF 19
ENDMDL
