MODEL 1
REMARK VINA RESULT:     -11.4      0.000      0.000
REMARK SMILES O=C(OCCOCCOCCOC(=O)c1ccc(-n2cnc3ccccc32)nc1)c1ccc(-c2c3nc(c(-c4c(F)c(F)c(F)c(F)c4F)c4ccc([nH]4)c(-c4c(F)c(F)c(F)c(F)c4F)c4nc(c(-c5c(F)c(F)c(F)c(F)c5F)c5ccc2[nH]5)C=C4)C=C3)cc1
REMARK SMILES IDX 7 1 6 2 5 3 4 4 3 5 2 6 1 7 30 8 31 9 92 10 32 11 91 12
REMARK SMILES IDX 33 13 34 14 35 15 85 16 36 17 90 18 84 19 86 20 37 21 89 22
REMARK SMILES IDX 83 23 82 24 38 26 70 27 50 28 69 29 51 30 54 31 68 32 87 33
REMARK SMILES IDX 52 34 53 35 67 37 88 38 55 39 39 40 40 41 48 42 41 43 42 44
REMARK SMILES IDX 46 45 49 46 43 47 44 48 47 49 45 50 71 51 72 52 80 53 73 54
REMARK SMILES IDX 74 55 78 56 81 57 75 58 76 59 79 60 77 61 56 62 57 63 65 64
REMARK SMILES IDX 58 65 59 66 63 67 66 68 60 69 61 70 64 71 62 72 8 73 9 74
REMARK SMILES IDX 10 75 11 76 12 77 13 78 14 79 15 80 16 81 29 82 17 83 28 84
REMARK SMILES IDX 18 85 19 86 20 87 27 88 21 89 22 90 26 91 23 92 25 93 24 94
REMARK H PARENT 86 25 54 36
REMARK Flexibility Score: inf
ROOT
ATOM      1  C   UNL A   1      33.921  21.137  26.212  1.00  0.00     0.188 C 
ENDROOT
BRANCH   1   2
ATOM      2  O   UNL A   1      35.256  21.557  25.968  1.00  0.00    -0.376 OA
BRANCH   2   3
ATOM      3  C   UNL A   1      35.967  20.723  25.061  1.00  0.00     0.202 C 
BRANCH   3   4
ATOM      4  C   UNL A   1      37.506  20.772  25.135  1.00  0.00     0.261 C 
BRANCH   4   5
ATOM      5  O   UNL A   1      38.154  21.848  25.871  1.00  0.00    -0.460 OA
BRANCH   5   6
ATOM      6  C   UNL A   1      39.447  21.975  26.257  1.00  0.00     0.338 C 
ATOM      7  O   UNL A   1      40.203  21.014  26.318  1.00  0.00    -0.246 OA
BRANCH   6   8
ATOM      8  C   UNL A   1      39.878  23.288  26.754  1.00  0.00     0.060 A 
ATOM      9  C   UNL A   1      40.977  23.330  27.617  1.00  0.00     0.016 A 
ATOM     10  C   UNL A   1      39.118  24.430  26.501  1.00  0.00     0.016 A 
ATOM     11  C   UNL A   1      41.198  24.481  28.358  1.00  0.00     0.010 A 
ATOM     12  C   UNL A   1      39.281  25.541  27.314  1.00  0.00     0.010 A 
ATOM     13  C   UNL A   1      40.301  25.555  28.270  1.00  0.00    -0.014 A 
BRANCH  13  14
ATOM     14  C   UNL A   1      40.687  26.832  28.866  1.00  0.00     0.031 A 
ATOM     15  C   UNL A   1      41.983  27.279  28.317  1.00  0.00     0.074 A 
ATOM     16  C   UNL A   1      39.981  27.603  29.722  1.00  0.00     0.049 A 
ATOM     17  N   UNL A   1      43.090  27.376  28.974  1.00  0.00    -0.248 NA
ATOM     18  C   UNL A   1      42.116  27.463  26.860  1.00  0.00     0.031 C 
ATOM     19  C   UNL A   1      38.642  27.342  30.238  1.00  0.00     0.029 A 
ATOM     20  N   UNL A   1      40.284  28.832  30.265  1.00  0.00    -0.354 N 
ATOM     21  C   UNL A   1      43.994  27.877  28.055  1.00  0.00     0.074 A 
ATOM     22  C   UNL A   1      43.420  27.708  26.747  1.00  0.00     0.031 C 
ATOM     23  C   UNL A   1      38.176  28.430  30.880  1.00  0.00     0.029 A 
ATOM     24  C   UNL A   1      39.196  29.456  30.871  1.00  0.00     0.049 A 
ATOM     25  H   UNL A   1      41.182  29.232  30.228  1.00  0.00     0.167 HD
ATOM     26  C   UNL A   1      44.948  28.748  28.464  1.00  0.00     0.037 A 
ATOM     27  C   UNL A   1      39.082  30.713  31.364  1.00  0.00     0.037 A 
ATOM     28  C   UNL A   1      45.159  28.707  29.882  1.00  0.00     0.049 A 
ATOM     29  C   UNL A   1      40.433  31.129  31.801  1.00  0.00     0.074 A 
ATOM     30  C   UNL A   1      45.795  27.865  30.766  1.00  0.00     0.029 A 
ATOM     31  N   UNL A   1      44.313  29.499  30.607  1.00  0.00    -0.354 N 
ATOM     32  N   UNL A   1      41.047  30.591  32.821  1.00  0.00    -0.248 NA
ATOM     33  C   UNL A   1      41.273  31.933  30.918  1.00  0.00     0.031 C 
ATOM     34  C   UNL A   1      45.238  28.127  32.050  1.00  0.00     0.029 A 
ATOM     35  C   UNL A   1      44.276  29.126  31.924  1.00  0.00     0.049 A 
ATOM     36  H   UNL A   1      43.794  30.246  30.229  1.00  0.00     0.167 HD
ATOM     37  C   UNL A   1      42.375  30.608  32.453  1.00  0.00     0.074 A 
ATOM     38  C   UNL A   1      42.476  31.595  31.389  1.00  0.00     0.031 C 
ATOM     39  C   UNL A   1      43.209  29.584  32.785  1.00  0.00     0.037 A 
BRANCH  26  40
ATOM     40  C   UNL A   1      45.280  29.965  27.655  1.00  0.00     0.064 A 
ATOM     41  C   UNL A   1      46.612  30.238  27.320  1.00  0.00     0.173 A 
ATOM     42  C   UNL A   1      44.351  31.008  27.439  1.00  0.00     0.173 A 
ATOM     43  F   UNL A   1      47.573  29.337  27.574  1.00  0.00    -0.203 F 
ATOM     44  C   UNL A   1      46.985  31.474  26.786  1.00  0.00     0.198 A 
ATOM     45  C   UNL A   1      44.713  32.211  26.846  1.00  0.00     0.198 A 
ATOM     46  F   UNL A   1      43.095  30.939  27.900  1.00  0.00    -0.203 F 
ATOM     47  F   UNL A   1      48.278  31.738  26.563  1.00  0.00    -0.200 F 
ATOM     48  C   UNL A   1      46.034  32.451  26.535  1.00  0.00     0.200 A 
ATOM     49  F   UNL A   1      43.783  33.156  26.650  1.00  0.00    -0.200 F 
ATOM     50  F   UNL A   1      46.396  33.644  26.046  1.00  0.00    -0.200 F 
ENDBRANCH  26  40
BRANCH  27  51
ATOM     51  C   UNL A   1      37.869  31.565  31.495  1.00  0.00     0.064 A 
ATOM     52  C   UNL A   1      37.223  31.740  32.731  1.00  0.00     0.173 A 
ATOM     53  C   UNL A   1      37.444  32.422  30.456  1.00  0.00     0.173 A 
ATOM     54  F   UNL A   1      37.576  30.998  33.790  1.00  0.00    -0.203 F 
ATOM     55  C   UNL A   1      36.246  32.725  32.923  1.00  0.00     0.198 A 
ATOM     56  C   UNL A   1      36.456  33.392  30.644  1.00  0.00     0.198 A 
ATOM     57  F   UNL A   1      38.031  32.398  29.252  1.00  0.00    -0.203 F 
ATOM     58  F   UNL A   1      35.707  32.900  34.138  1.00  0.00    -0.200 F 
ATOM     59  C   UNL A   1      35.872  33.557  31.884  1.00  0.00     0.200 A 
ATOM     60  F   UNL A   1      36.118  34.202  29.630  1.00  0.00    -0.200 F 
ATOM     61  F   UNL A   1      34.983  34.540  32.084  1.00  0.00    -0.200 F 
ENDBRANCH  27  51
BRANCH  39  62
ATOM     62  C   UNL A   1      42.913  28.807  34.027  1.00  0.00     0.064 A 
ATOM     63  C   UNL A   1      42.050  27.703  34.099  1.00  0.00     0.173 A 
ATOM     64  C   UNL A   1      43.620  29.160  35.186  1.00  0.00     0.173 A 
ATOM     65  F   UNL A   1      41.387  27.277  33.014  1.00  0.00    -0.203 F 
ATOM     66  C   UNL A   1      41.896  26.997  35.294  1.00  0.00     0.198 A 
ATOM     67  C   UNL A   1      43.496  28.429  36.362  1.00  0.00     0.198 A 
ATOM     68  F   UNL A   1      44.475  30.196  35.163  1.00  0.00    -0.203 F 
ATOM     69  F   UNL A   1      41.047  25.963  35.365  1.00  0.00    -0.200 F 
ATOM     70  C   UNL A   1      42.631  27.351  36.417  1.00  0.00     0.200 A 
ATOM     71  F   UNL A   1      44.234  28.759  37.431  1.00  0.00    -0.200 F 
ATOM     72  F   UNL A   1      42.519  26.644  37.550  1.00  0.00    -0.200 F 
ENDBRANCH  39  62
ENDBRANCH  13  14
ENDBRANCH   6   8
ENDBRANCH   5   6
ENDBRANCH   4   5
ENDBRANCH   3   4
ENDBRANCH   2   3
ENDBRANCH   1   2
BRANCH   1  73
ATOM     73  C   UNL A   1      33.324  20.281  25.097  1.00  0.00     0.188 C 
BRANCH  73  74
ATOM     74  O   UNL A   1      32.242  20.824  24.361  1.00  0.00    -0.376 OA
BRANCH  74  75
ATOM     75  C   UNL A   1      32.508  21.427  23.106  1.00  0.00     0.202 C 
BRANCH  75  76
ATOM     76  C   UNL A   1      33.029  22.869  22.976  1.00  0.00     0.261 C 
BRANCH  76  77
ATOM     77  O   UNL A   1      32.130  23.972  23.110  1.00  0.00    -0.460 OA
BRANCH  77  78
ATOM     78  C   UNL A   1      32.506  25.037  22.372  1.00  0.00     0.339 C 
ATOM     79  O   UNL A   1      33.059  24.994  21.273  1.00  0.00    -0.246 OA
BRANCH  78  80
ATOM     80  C   UNL A   1      32.341  26.312  23.083  1.00  0.00     0.078 A 
ATOM     81  C   UNL A   1      31.510  26.318  24.206  1.00  0.00     0.021 A 
ATOM     82  C   UNL A   1      32.948  27.505  22.715  1.00  0.00     0.129 A 
ATOM     83  C   UNL A   1      31.425  27.459  24.988  1.00  0.00     0.048 A 
ATOM     84  N   UNL A   1      32.849  28.656  23.438  1.00  0.00    -0.238 NA
ATOM     85  C   UNL A   1      32.161  28.577  24.607  1.00  0.00     0.138 A 
BRANCH  85  86
ATOM     86  N   UNL A   1      32.347  29.592  25.573  1.00  0.00    -0.283 N 
ATOM     87  C   UNL A   1      31.553  30.690  25.785  1.00  0.00     0.206 A 
ATOM     88  C   UNL A   1      33.445  29.715  26.410  1.00  0.00     0.074 A 
ATOM     89  N   UNL A   1      31.982  31.419  26.796  1.00  0.00    -0.236 NA
ATOM     90  C   UNL A   1      33.174  30.847  27.171  1.00  0.00     0.089 A 
ATOM     91  C   UNL A   1      34.658  29.010  26.510  1.00  0.00     0.029 A 
ATOM     92  C   UNL A   1      34.110  31.264  28.132  1.00  0.00     0.030 A 
ATOM     93  C   UNL A   1      35.591  29.461  27.444  1.00  0.00     0.002 A 
ATOM     94  C   UNL A   1      35.318  30.562  28.254  1.00  0.00     0.002 A 
ENDBRANCH  85  86
ENDBRANCH  78  80
ENDBRANCH  77  78
ENDBRANCH  76  77
ENDBRANCH  75  76
ENDBRANCH  74  75
ENDBRANCH  73  74
ENDBRANCH   1  73
TORSDOF 18
ENDMDL
MODEL 2
REMARK VINA RESULT:     -11.2      1.500      2.181
REMARK SMILES O=C(OCCOCCOCCOC(=O)c1ccc(-n2cnc3ccccc32)nc1)c1ccc(-c2c3nc(c(-c4c(F)c(F)c(F)c(F)c4F)c4ccc([nH]4)c(-c4c(F)c(F)c(F)c(F)c4F)c4nc(c(-c5c(F)c(F)c(F)c(F)c5F)c5ccc2[nH]5)C=C4)C=C3)cc1
REMARK SMILES IDX 7 1 6 2 5 3 4 4 3 5 2 6 1 7 30 8 31 9 92 10 32 11 91 12
REMARK SMILES IDX 33 13 34 14 35 15 85 16 36 17 90 18 84 19 86 20 37 21 89 22
REMARK SMILES IDX 83 23 82 24 38 26 70 27 50 28 69 29 51 30 54 31 68 32 87 33
REMARK SMILES IDX 52 34 53 35 67 37 88 38 55 39 39 40 40 41 48 42 41 43 42 44
REMARK SMILES IDX 46 45 49 46 43 47 44 48 47 49 45 50 71 51 72 52 80 53 73 54
REMARK SMILES IDX 74 55 78 56 81 57 75 58 76 59 79 60 77 61 56 62 57 63 65 64
REMARK SMILES IDX 58 65 59 66 63 67 66 68 60 69 61 70 64 71 62 72 8 73 9 74
REMARK SMILES IDX 10 75 11 76 12 77 13 78 14 79 15 80 16 81 29 82 17 83 28 84
REMARK SMILES IDX 18 85 19 86 20 87 27 88 21 89 22 90 26 91 23 92 25 93 24 94
REMARK H PARENT 86 25 54 36
REMARK Flexibility Score: inf
ROOT
ATOM      1  C   UNL A   1      34.116  21.429  26.696  1.00  0.00     0.188 C 
ENDROOT
BRANCH   1   2
ATOM      2  O   UNL A   1      35.489  21.739  26.506  1.00  0.00    -0.376 OA
BRANCH   2   3
ATOM      3  C   UNL A   1      36.094  21.043  25.424  1.00  0.00     0.202 C 
BRANCH   3   4
ATOM      4  C   UNL A   1      37.413  21.624  24.877  1.00  0.00     0.261 C 
BRANCH   4   5
ATOM      5  O   UNL A   1      38.069  22.708  25.591  1.00  0.00    -0.460 OA
BRANCH   5   6
ATOM      6  C   UNL A   1      39.200  22.692  26.340  1.00  0.00     0.338 C 
ATOM      7  O   UNL A   1      39.789  21.651  26.602  1.00  0.00    -0.246 OA
BRANCH   6   8
ATOM      8  C   UNL A   1      39.616  23.956  26.962  1.00  0.00     0.060 A 
ATOM      9  C   UNL A   1      40.799  23.957  27.707  1.00  0.00     0.016 A 
ATOM     10  C   UNL A   1      38.778  25.070  26.942  1.00  0.00     0.016 A 
ATOM     11  C   UNL A   1      41.041  25.015  28.570  1.00  0.00     0.010 A 
ATOM     12  C   UNL A   1      38.972  26.075  27.877  1.00  0.00     0.010 A 
ATOM     13  C   UNL A   1      40.087  26.031  28.718  1.00  0.00    -0.014 A 
BRANCH  13  14
ATOM     14  C   UNL A   1      40.472  27.244  29.438  1.00  0.00     0.031 A 
ATOM     15  C   UNL A   1      41.633  27.879  28.783  1.00  0.00     0.074 A 
ATOM     16  C   UNL A   1      39.856  27.820  30.493  1.00  0.00     0.049 A 
ATOM     17  N   UNL A   1      42.819  27.985  29.280  1.00  0.00    -0.248 NA
ATOM     18  C   UNL A   1      41.525  28.274  27.366  1.00  0.00     0.031 C 
ATOM     19  C   UNL A   1      38.635  27.370  31.150  1.00  0.00     0.029 A 
ATOM     20  N   UNL A   1      40.153  28.986  31.165  1.00  0.00    -0.354 N 
ATOM     21  C   UNL A   1      43.533  28.688  28.328  1.00  0.00     0.074 A 
ATOM     22  C   UNL A   1      42.776  28.651  27.105  1.00  0.00     0.031 C 
ATOM     23  C   UNL A   1      38.200  28.311  32.009  1.00  0.00     0.029 A 
ATOM     24  C   UNL A   1      39.132  29.417  32.008  1.00  0.00     0.049 A 
ATOM     25  H   UNL A   1      41.005  29.467  31.060  1.00  0.00     0.167 HD
ATOM     26  C   UNL A   1      44.476  29.577  28.722  1.00  0.00     0.037 A 
ATOM     27  C   UNL A   1      39.010  30.579  32.697  1.00  0.00     0.037 A 
ATOM     28  C   UNL A   1      44.907  29.360  30.072  1.00  0.00     0.049 A 
ATOM     29  C   UNL A   1      40.379  31.051  32.993  1.00  0.00     0.074 A 
ATOM     30  C   UNL A   1      45.730  28.466  30.719  1.00  0.00     0.029 A 
ATOM     31  N   UNL A   1      44.131  29.964  31.022  1.00  0.00    -0.354 N 
ATOM     32  N   UNL A   1      41.180  30.435  33.821  1.00  0.00    -0.248 NA
ATOM     33  C   UNL A   1      41.014  32.043  32.130  1.00  0.00     0.031 C 
ATOM     34  C   UNL A   1      45.361  28.495  32.094  1.00  0.00     0.029 A 
ATOM     35  C   UNL A   1      44.324  29.409  32.260  1.00  0.00     0.049 A 
ATOM     36  H   UNL A   1      43.509  30.705  30.840  1.00  0.00     0.167 HD
ATOM     37  C   UNL A   1      42.430  30.624  33.273  1.00  0.00     0.074 A 
ATOM     38  C   UNL A   1      42.296  31.754  32.367  1.00  0.00     0.031 C 
ATOM     39  C   UNL A   1      43.375  29.645  33.324  1.00  0.00     0.037 A 
BRANCH  26  40
ATOM     40  C   UNL A   1      44.593  30.920  28.066  1.00  0.00     0.064 A 
ATOM     41  C   UNL A   1      45.759  31.256  27.367  1.00  0.00     0.173 A 
ATOM     42  C   UNL A   1      43.700  31.980  28.344  1.00  0.00     0.173 A 
ATOM     43  F   UNL A   1      46.701  30.330  27.138  1.00  0.00    -0.203 F 
ATOM     44  C   UNL A   1      46.004  32.569  26.957  1.00  0.00     0.198 A 
ATOM     45  C   UNL A   1      43.914  33.271  27.877  1.00  0.00     0.198 A 
ATOM     46  F   UNL A   1      42.656  31.823  29.171  1.00  0.00    -0.203 F 
ATOM     47  F   UNL A   1      47.169  32.875  26.372  1.00  0.00    -0.200 F 
ATOM     48  C   UNL A   1      45.075  33.569  27.198  1.00  0.00     0.200 A 
ATOM     49  F   UNL A   1      43.020  34.230  28.157  1.00  0.00    -0.200 F 
ATOM     50  F   UNL A   1      45.322  34.832  26.826  1.00  0.00    -0.200 F 
ENDBRANCH  26  40
BRANCH  27  51
ATOM     51  C   UNL A   1      37.775  31.290  33.127  1.00  0.00     0.064 A 
ATOM     52  C   UNL A   1      37.778  32.166  34.227  1.00  0.00     0.173 A 
ATOM     53  C   UNL A   1      36.610  31.313  32.329  1.00  0.00     0.173 A 
ATOM     54  F   UNL A   1      38.849  32.244  35.028  1.00  0.00    -0.203 F 
ATOM     55  C   UNL A   1      36.705  33.028  34.489  1.00  0.00     0.198 A 
ATOM     56  C   UNL A   1      35.533  32.160  32.602  1.00  0.00     0.198 A 
ATOM     57  F   UNL A   1      36.517  30.573  31.216  1.00  0.00    -0.203 F 
ATOM     58  F   UNL A   1      36.780  33.895  35.508  1.00  0.00    -0.200 F 
ATOM     59  C   UNL A   1      35.590  33.033  33.670  1.00  0.00     0.200 A 
ATOM     60  F   UNL A   1      34.468  32.164  31.788  1.00  0.00    -0.200 F 
ATOM     61  F   UNL A   1      34.592  33.901  33.883  1.00  0.00    -0.200 F 
ENDBRANCH  27  51
BRANCH  39  62
ATOM     62  C   UNL A   1      43.330  28.679  34.464  1.00  0.00     0.064 A 
ATOM     63  C   UNL A   1      43.999  28.844  35.686  1.00  0.00     0.173 A 
ATOM     64  C   UNL A   1      42.484  27.568  34.327  1.00  0.00     0.173 A 
ATOM     65  F   UNL A   1      44.777  29.913  35.904  1.00  0.00    -0.203 F 
ATOM     66  C   UNL A   1      43.833  27.918  36.718  1.00  0.00     0.198 A 
ATOM     67  C   UNL A   1      42.289  26.672  35.371  1.00  0.00     0.198 A 
ATOM     68  F   UNL A   1      41.804  27.378  33.184  1.00  0.00    -0.203 F 
ATOM     69  F   UNL A   1      44.499  28.063  37.872  1.00  0.00    -0.200 F 
ATOM     70  C   UNL A   1      42.967  26.844  36.565  1.00  0.00     0.200 A 
ATOM     71  F   UNL A   1      41.426  25.657  35.225  1.00  0.00    -0.200 F 
ATOM     72  F   UNL A   1      42.772  25.983  37.572  1.00  0.00    -0.200 F 
ENDBRANCH  39  62
ENDBRANCH  13  14
ENDBRANCH   6   8
ENDBRANCH   5   6
ENDBRANCH   4   5
ENDBRANCH   3   4
ENDBRANCH   2   3
ENDBRANCH   1   2
BRANCH   1  73
ATOM     73  C   UNL A   1      33.466  20.723  25.506  1.00  0.00     0.188 C 
BRANCH  73  74
ATOM     74  O   UNL A   1      32.316  21.323  24.937  1.00  0.00    -0.376 OA
BRANCH  74  75
ATOM     75  C   UNL A   1      32.410  22.653  24.457  1.00  0.00     0.202 C 
BRANCH  75  76
ATOM     76  C   UNL A   1      31.653  23.822  25.111  1.00  0.00     0.261 C 
BRANCH  76  77
ATOM     77  O   UNL A   1      32.370  24.837  25.816  1.00  0.00    -0.460 OA
BRANCH  77  78
ATOM     78  C   UNL A   1      31.561  25.804  26.295  1.00  0.00     0.339 C 
ATOM     79  O   UNL A   1      30.351  25.697  26.497  1.00  0.00    -0.246 OA
BRANCH  78  80
ATOM     80  C   UNL A   1      32.232  27.106  26.414  1.00  0.00     0.078 A 
ATOM     81  C   UNL A   1      31.615  28.077  27.206  1.00  0.00     0.021 A 
ATOM     82  C   UNL A   1      33.428  27.436  25.791  1.00  0.00     0.129 A 
ATOM     83  C   UNL A   1      32.270  29.271  27.458  1.00  0.00     0.048 A 
ATOM     84  N   UNL A   1      34.076  28.620  25.982  1.00  0.00    -0.238 NA
ATOM     85  C   UNL A   1      33.521  29.473  26.884  1.00  0.00     0.138 A 
BRANCH  85  86
ATOM     86  N   UNL A   1      34.320  30.511  27.414  1.00  0.00    -0.283 N 
ATOM     87  C   UNL A   1      33.981  31.834  27.542  1.00  0.00     0.206 A 
ATOM     88  C   UNL A   1      35.647  30.391  27.795  1.00  0.00     0.074 A 
ATOM     89  N   UNL A   1      34.938  32.533  28.118  1.00  0.00    -0.236 NA
ATOM     90  C   UNL A   1      35.992  31.660  28.249  1.00  0.00     0.089 A 
ATOM     91  C   UNL A   1      36.578  29.341  27.707  1.00  0.00     0.029 A 
ATOM     92  C   UNL A   1      37.299  31.888  28.710  1.00  0.00     0.030 A 
ATOM     93  C   UNL A   1      37.882  29.597  28.136  1.00  0.00     0.002 A 
ATOM     94  C   UNL A   1      38.236  30.846  28.643  1.00  0.00     0.002 A 
ENDBRANCH  85  86
ENDBRANCH  78  80
ENDBRANCH  77  78
ENDBRANCH  76  77
ENDBRANCH  75  76
ENDBRANCH  74  75
ENDBRANCH  73  74
ENDBRANCH   1  73
TORSDOF 18
ENDMDL
MODEL 3
REMARK VINA RESULT:     -10.9      2.516      4.257
REMARK SMILES O=C(OCCOCCOCCOC(=O)c1ccc(-n2cnc3ccccc32)nc1)c1ccc(-c2c3nc(c(-c4c(F)c(F)c(F)c(F)c4F)c4ccc([nH]4)c(-c4c(F)c(F)c(F)c(F)c4F)c4nc(c(-c5c(F)c(F)c(F)c(F)c5F)c5ccc2[nH]5)C=C4)C=C3)cc1
REMARK SMILES IDX 7 1 6 2 5 3 4 4 3 5 2 6 1 7 30 8 31 9 92 10 32 11 91 12
REMARK SMILES IDX 33 13 34 14 35 15 85 16 36 17 90 18 84 19 86 20 37 21 89 22
REMARK SMILES IDX 83 23 82 24 38 26 70 27 50 28 69 29 51 30 54 31 68 32 87 33
REMARK SMILES IDX 52 34 53 35 67 37 88 38 55 39 39 40 40 41 48 42 41 43 42 44
REMARK SMILES IDX 46 45 49 46 43 47 44 48 47 49 45 50 71 51 72 52 80 53 73 54
REMARK SMILES IDX 74 55 78 56 81 57 75 58 76 59 79 60 77 61 56 62 57 63 65 64
REMARK SMILES IDX 58 65 59 66 63 67 66 68 60 69 61 70 64 71 62 72 8 73 9 74
REMARK SMILES IDX 10 75 11 76 12 77 13 78 14 79 15 80 16 81 29 82 17 83 28 84
REMARK SMILES IDX 18 85 19 86 20 87 27 88 21 89 22 90 26 91 23 92 25 93 24 94
REMARK H PARENT 86 25 54 36
REMARK Flexibility Score: inf
ROOT
ATOM      1  C   UNL A   1      41.750  20.042  26.428  1.00  0.00     0.188 C 
ENDROOT
BRANCH   1   2
ATOM      2  O   UNL A   1      42.282  19.229  25.391  1.00  0.00    -0.376 OA
BRANCH   2   3
ATOM      3  C   UNL A   1      43.430  18.483  25.774  1.00  0.00     0.202 C 
BRANCH   3   4
ATOM      4  C   UNL A   1      44.741  18.795  25.027  1.00  0.00     0.261 C 
BRANCH   4   5
ATOM      5  O   UNL A   1      45.237  20.163  24.992  1.00  0.00    -0.460 OA
BRANCH   5   6
ATOM      6  C   UNL A   1      44.730  21.251  24.361  1.00  0.00     0.338 C 
ATOM      7  O   UNL A   1      44.676  21.326  23.140  1.00  0.00    -0.246 OA
BRANCH   6   8
ATOM      8  C   UNL A   1      44.387  22.414  25.191  1.00  0.00     0.060 A 
ATOM      9  C   UNL A   1      43.445  23.317  24.689  1.00  0.00     0.016 A 
ATOM     10  C   UNL A   1      45.094  22.688  26.361  1.00  0.00     0.016 A 
ATOM     11  C   UNL A   1      43.349  24.571  25.272  1.00  0.00     0.010 A 
ATOM     12  C   UNL A   1      45.067  23.974  26.878  1.00  0.00     0.010 A 
ATOM     13  C   UNL A   1      44.218  24.929  26.312  1.00  0.00    -0.014 A 
BRANCH  13  14
ATOM     14  C   UNL A   1      43.935  26.151  27.063  1.00  0.00     0.031 A 
ATOM     15  C   UNL A   1      45.004  27.146  26.839  1.00  0.00     0.074 A 
ATOM     16  C   UNL A   1      42.841  26.446  27.797  1.00  0.00     0.049 A 
ATOM     17  N   UNL A   1      45.843  27.567  27.724  1.00  0.00    -0.248 NA
ATOM     18  C   UNL A   1      45.294  27.583  25.461  1.00  0.00     0.031 C 
ATOM     19  C   UNL A   1      41.663  25.608  27.992  1.00  0.00     0.029 A 
ATOM     20  N   UNL A   1      42.511  27.599  28.475  1.00  0.00    -0.354 N 
ATOM     21  C   UNL A   1      46.601  28.514  27.059  1.00  0.00     0.074 A 
ATOM     22  C   UNL A   1      46.379  28.333  25.649  1.00  0.00     0.031 C 
ATOM     23  C   UNL A   1      40.688  26.317  28.592  1.00  0.00     0.029 A 
ATOM     24  C   UNL A   1      41.178  27.649  28.873  1.00  0.00     0.049 A 
ATOM     25  H   UNL A   1      43.156  28.319  28.660  1.00  0.00     0.167 HD
ATOM     26  C   UNL A   1      47.025  29.616  27.723  1.00  0.00     0.037 A 
ATOM     27  C   UNL A   1      40.473  28.673  29.415  1.00  0.00     0.037 A 
ATOM     28  C   UNL A   1      46.991  29.448  29.147  1.00  0.00     0.049 A 
ATOM     29  C   UNL A   1      41.436  29.512  30.160  1.00  0.00     0.074 A 
ATOM     30  C   UNL A   1      47.758  28.799  30.088  1.00  0.00     0.029 A 
ATOM     31  N   UNL A   1      45.784  29.728  29.724  1.00  0.00    -0.354 N 
ATOM     32  N   UNL A   1      42.035  29.110  31.249  1.00  0.00    -0.248 NA
ATOM     33  C   UNL A   1      42.005  30.703  29.537  1.00  0.00     0.031 C 
ATOM     34  C   UNL A   1      46.933  28.627  31.236  1.00  0.00     0.029 A 
ATOM     35  C   UNL A   1      45.681  29.176  30.974  1.00  0.00     0.049 A 
ATOM     36  H   UNL A   1      45.074  30.260  29.295  1.00  0.00     0.167 HD
ATOM     37  C   UNL A   1      43.278  29.700  31.179  1.00  0.00     0.074 A 
ATOM     38  C   UNL A   1      43.142  30.795  30.232  1.00  0.00     0.031 C 
ATOM     39  C   UNL A   1      44.391  29.047  31.613  1.00  0.00     0.037 A 
BRANCH  26  40
ATOM     40  C   UNL A   1      46.957  30.973  27.089  1.00  0.00     0.064 A 
ATOM     41  C   UNL A   1      48.094  31.790  27.065  1.00  0.00     0.173 A 
ATOM     42  C   UNL A   1      45.731  31.592  26.754  1.00  0.00     0.173 A 
ATOM     43  F   UNL A   1      49.283  31.306  27.454  1.00  0.00    -0.203 F 
ATOM     44  C   UNL A   1      48.008  33.138  26.710  1.00  0.00     0.198 A 
ATOM     45  C   UNL A   1      45.659  32.915  26.337  1.00  0.00     0.198 A 
ATOM     46  F   UNL A   1      44.557  30.970  26.932  1.00  0.00    -0.203 F 
ATOM     47  F   UNL A   1      49.096  33.914  26.785  1.00  0.00    -0.200 F 
ATOM     48  C   UNL A   1      46.796  33.693  26.331  1.00  0.00     0.200 A 
ATOM     49  F   UNL A   1      44.469  33.441  26.014  1.00  0.00    -0.200 F 
ATOM     50  F   UNL A   1      46.711  34.992  26.014  1.00  0.00    -0.200 F 
ENDBRANCH  26  40
BRANCH  27  51
ATOM     51  C   UNL A   1      39.013  28.953  29.338  1.00  0.00     0.064 A 
ATOM     52  C   UNL A   1      38.222  29.050  30.496  1.00  0.00     0.173 A 
ATOM     53  C   UNL A   1      38.395  29.366  28.138  1.00  0.00     0.173 A 
ATOM     54  F   UNL A   1      38.726  28.713  31.691  1.00  0.00    -0.203 F 
ATOM     55  C   UNL A   1      36.917  29.557  30.460  1.00  0.00     0.198 A 
ATOM     56  C   UNL A   1      37.087  29.855  28.100  1.00  0.00     0.198 A 
ATOM     57  F   UNL A   1      39.070  29.384  26.980  1.00  0.00    -0.203 F 
ATOM     58  F   UNL A   1      36.224  29.696  31.599  1.00  0.00    -0.200 F 
ATOM     59  C   UNL A   1      36.355  29.970  29.265  1.00  0.00     0.200 A 
ATOM     60  F   UNL A   1      36.564  30.267  26.936  1.00  0.00    -0.200 F 
ATOM     61  F   UNL A   1      35.130  30.514  29.240  1.00  0.00    -0.200 F 
ENDBRANCH  27  51
BRANCH  39  62
ATOM     62  C   UNL A   1      44.237  28.038  32.706  1.00  0.00     0.064 A 
ATOM     63  C   UNL A   1      44.026  26.665  32.510  1.00  0.00     0.173 A 
ATOM     64  C   UNL A   1      44.402  28.493  34.023  1.00  0.00     0.173 A 
ATOM     65  F   UNL A   1      43.917  26.156  31.274  1.00  0.00    -0.203 F 
ATOM     66  C   UNL A   1      43.967  25.792  33.598  1.00  0.00     0.198 A 
ATOM     67  C   UNL A   1      44.385  27.614  35.100  1.00  0.00     0.198 A 
ATOM     68  F   UNL A   1      44.628  29.795  34.261  1.00  0.00    -0.203 F 
ATOM     69  F   UNL A   1      43.735  24.486  33.407  1.00  0.00    -0.200 F 
ATOM     70  C   UNL A   1      44.164  26.265  34.888  1.00  0.00     0.200 A 
ATOM     71  F   UNL A   1      44.608  28.076  36.338  1.00  0.00    -0.200 F 
ATOM     72  F   UNL A   1      44.156  25.420  35.928  1.00  0.00    -0.200 F 
ENDBRANCH  39  62
ENDBRANCH  13  14
ENDBRANCH   6   8
ENDBRANCH   5   6
ENDBRANCH   4   5
ENDBRANCH   3   4
ENDBRANCH   2   3
ENDBRANCH   1   2
BRANCH   1  73
ATOM     73  C   UNL A   1      40.288  20.437  26.222  1.00  0.00     0.188 C 
BRANCH  73  74
ATOM     74  O   UNL A   1      39.964  21.813  26.304  1.00  0.00    -0.376 OA
BRANCH  74  75
ATOM     75  C   UNL A   1      38.677  22.235  25.887  1.00  0.00     0.202 C 
BRANCH  75  76
ATOM     76  C   UNL A   1      37.705  21.306  25.138  1.00  0.00     0.261 C 
BRANCH  76  77
ATOM     77  O   UNL A   1      36.564  21.847  24.471  1.00  0.00    -0.460 OA
BRANCH  77  78
ATOM     78  C   UNL A   1      35.568  22.162  25.324  1.00  0.00     0.339 C 
ATOM     79  O   UNL A   1      35.272  21.545  26.347  1.00  0.00    -0.246 OA
BRANCH  78  80
ATOM     80  C   UNL A   1      34.720  23.258  24.833  1.00  0.00     0.078 A 
ATOM     81  C   UNL A   1      34.315  24.221  25.760  1.00  0.00     0.021 A 
ATOM     82  C   UNL A   1      34.292  23.397  23.520  1.00  0.00     0.129 A 
ATOM     83  C   UNL A   1      33.628  25.342  25.326  1.00  0.00     0.048 A 
ATOM     84  N   UNL A   1      33.576  24.465  23.069  1.00  0.00    -0.238 NA
ATOM     85  C   UNL A   1      33.340  25.456  23.969  1.00  0.00     0.138 A 
BRANCH  85  86
ATOM     86  N   UNL A   1      32.964  26.732  23.490  1.00  0.00    -0.283 N 
ATOM     87  C   UNL A   1      33.791  27.789  23.210  1.00  0.00     0.206 A 
ATOM     88  C   UNL A   1      31.661  27.178  23.327  1.00  0.00     0.074 A 
ATOM     89  N   UNL A   1      33.125  28.823  22.736  1.00  0.00    -0.236 NA
ATOM     90  C   UNL A   1      31.800  28.472  22.836  1.00  0.00     0.089 A 
ATOM     91  C   UNL A   1      30.410  26.617  23.637  1.00  0.00     0.029 A 
ATOM     92  C   UNL A   1      30.646  29.225  22.564  1.00  0.00     0.030 A 
ATOM     93  C   UNL A   1      29.277  27.394  23.395  1.00  0.00     0.002 A 
ATOM     94  C   UNL A   1      29.389  28.674  22.854  1.00  0.00     0.002 A 
ENDBRANCH  85  86
ENDBRANCH  78  80
ENDBRANCH  77  78
ENDBRANCH  76  77
ENDBRANCH  75  76
ENDBRANCH  74  75
ENDBRANCH  73  74
ENDBRANCH   1  73
TORSDOF 18
ENDMDL
