MODEL 1
REMARK VINA RESULT:     -10.4      0.000      0.000
REMARK SMILES CCOc1cc(NC(=O)c2c(C(=O)OCCOCCOCCOC(=O)c3ccc(-c4c5nc(c(-c6c(F)c(F)c(F)c(F)c6F)c6ccc([nH]6)c(-c6c(F)c(F)c(F)c(F)c6F)c6nc(c(-c7c(F)c(F)c(F)c(F)c7F)c7ccc4[nH]7)C=C6)C=C5)cc3)cnn2C)ccc1OC(F)F
REMARK SMILES IDX 18 1 17 2 16 3 15 4 14 5 12 6 13 7 11 8 10 9 91 10 89 11
REMARK SMILES IDX 90 12 92 13 8 14 7 15 9 17 6 18 4 19 5 20 95 21 94 22 93 23
REMARK SMILES IDX 3 24 2 25 1 26 96 27 97 28 98 29 99 30 19 31 20 32 21 33
REMARK SMILES IDX 22 34 23 35 24 36 25 37 26 38 27 39 88 40 28 41 87 42 29 43
REMARK SMILES IDX 30 44 31 45 81 46 32 47 86 48 80 49 82 50 33 51 85 52 79 53
REMARK SMILES IDX 78 54 34 56 66 57 46 58 65 59 47 60 50 61 64 62 83 63 48 64
REMARK SMILES IDX 49 65 63 67 84 68 51 69 35 70 36 71 44 72 37 73 38 74 42 75
REMARK SMILES IDX 45 76 39 77 40 78 43 79 41 80 67 81 68 82 76 83 69 84 70 85
REMARK SMILES IDX 74 86 77 87 71 88 72 89 75 90 73 91 52 92 53 93 61 94 54 95
REMARK SMILES IDX 55 96 59 97 62 98 56 99 57 100 60 101 58 102
REMARK H PARENT 7 16 82 55 50 66
REMARK Flexibility Score: inf
ROOT
ATOM      1  C   UNL A   1      40.024  21.814  26.191  1.00  0.00     0.188 C 
ENDROOT
BRANCH   1   2
ATOM      2  O   UNL A   1      38.977  20.959  25.745  1.00  0.00    -0.376 OA
BRANCH   2   3
ATOM      3  C   UNL A   1      37.880  21.492  25.019  1.00  0.00     0.202 C 
BRANCH   3   4
ATOM      4  C   UNL A   1      36.922  22.408  25.783  1.00  0.00     0.261 C 
BRANCH   4   5
ATOM      5  O   UNL A   1      35.780  22.812  25.011  1.00  0.00    -0.460 OA
BRANCH   5   6
ATOM      6  C   UNL A   1      34.712  21.963  25.058  1.00  0.00     0.342 C 
ATOM      7  O   UNL A   1      34.718  20.822  24.632  1.00  0.00    -0.246 OA
BRANCH   6   8
ATOM      8  C   UNL A   1      33.565  22.490  25.788  1.00  0.00     0.111 A 
ATOM      9  C   UNL A   1      32.382  23.089  25.352  1.00  0.00     0.140 A 
ATOM     10  N   UNL A   1      31.601  23.152  26.483  1.00  0.00    -0.262 N 
ATOM     11  C   UNL A   1      33.451  22.464  27.195  1.00  0.00     0.151 A 
ATOM     12  N   UNL A   1      32.288  22.948  27.623  1.00  0.00    -0.180 NA
ATOM     13  C   UNL A   1      30.164  23.276  26.582  1.00  0.00     0.174 C 
BRANCH   9  14
ATOM     14  C   UNL A   1      31.946  23.329  24.003  1.00  0.00     0.274 C 
ATOM     15  N   UNL A   1      31.741  24.588  23.490  1.00  0.00    -0.321 N 
ATOM     16  H   UNL A   1      31.287  24.548  22.617  1.00  0.00     0.170 HD
ATOM     17  O   UNL A   1      31.676  22.393  23.248  1.00  0.00    -0.267 OA
BRANCH  15  18
ATOM     18  C   UNL A   1      32.003  25.920  23.869  1.00  0.00     0.045 A 
ATOM     19  C   UNL A   1      31.513  28.283  24.256  1.00  0.00     0.163 A 
ATOM     20  C   UNL A   1      31.106  26.989  23.849  1.00  0.00     0.076 A 
ATOM     21  C   UNL A   1      32.795  28.493  24.777  1.00  0.00     0.168 A 
ATOM     22  C   UNL A   1      33.681  27.416  24.813  1.00  0.00     0.053 A 
ATOM     23  C   UNL A   1      33.297  26.157  24.351  1.00  0.00     0.030 A 
BRANCH  19  24
ATOM     24  O   UNL A   1      30.609  29.312  24.247  1.00  0.00    -0.490 OA
BRANCH  24  25
ATOM     25  C   UNL A   1      29.508  29.090  23.354  1.00  0.00     0.226 C 
ATOM     26  C   UNL A   1      29.709  29.943  22.110  1.00  0.00     0.049 C 
ENDBRANCH  24  25
ENDBRANCH  19  24
BRANCH  21  27
ATOM     27  O   UNL A   1      33.305  29.622  25.349  1.00  0.00    -0.431 OA
BRANCH  27  28
ATOM     28  C   UNL A   1      33.094  29.861  26.732  1.00  0.00     0.542 C 
ATOM     29  F   UNL A   1      33.977  29.158  27.479  1.00  0.00    -0.167 F 
ATOM     30  F   UNL A   1      33.209  31.178  27.010  1.00  0.00    -0.167 F 
ENDBRANCH  27  28
ENDBRANCH  21  27
ENDBRANCH  15  18
ENDBRANCH   9  14
ENDBRANCH   6   8
ENDBRANCH   5   6
ENDBRANCH   4   5
ENDBRANCH   3   4
ENDBRANCH   2   3
ENDBRANCH   1   2
BRANCH   1  31
ATOM     31  C   UNL A   1      41.502  21.384  26.110  1.00  0.00     0.188 C 
BRANCH  31  32
ATOM     32  O   UNL A   1      41.718  20.150  25.441  1.00  0.00    -0.376 OA
BRANCH  32  33
ATOM     33  C   UNL A   1      42.296  19.112  26.219  1.00  0.00     0.202 C 
BRANCH  33  34
ATOM     34  C   UNL A   1      43.420  18.373  25.490  1.00  0.00     0.261 C 
BRANCH  34  35
ATOM     35  O   UNL A   1      43.839  18.987  24.260  1.00  0.00    -0.460 OA
BRANCH  35  36
ATOM     36  C   UNL A   1      45.071  19.541  24.245  1.00  0.00     0.338 C 
ATOM     37  O   UNL A   1      46.092  19.058  23.792  1.00  0.00    -0.246 OA
BRANCH  36  38
ATOM     38  C   UNL A   1      44.948  20.925  24.744  1.00  0.00     0.060 A 
ATOM     39  C   UNL A   1      44.526  21.932  23.869  1.00  0.00     0.016 A 
ATOM     40  C   UNL A   1      45.253  21.223  26.076  1.00  0.00     0.016 A 
ATOM     41  C   UNL A   1      44.430  23.252  24.323  1.00  0.00     0.010 A 
ATOM     42  C   UNL A   1      45.172  22.544  26.523  1.00  0.00     0.010 A 
ATOM     43  C   UNL A   1      44.786  23.568  25.642  1.00  0.00    -0.014 A 
BRANCH  43  44
ATOM     44  C   UNL A   1      44.916  24.984  26.064  1.00  0.00     0.031 A 
ATOM     45  C   UNL A   1      46.265  25.642  25.971  1.00  0.00     0.074 A 
ATOM     46  C   UNL A   1      43.864  25.674  26.540  1.00  0.00     0.049 A 
ATOM     47  N   UNL A   1      46.630  26.849  26.322  1.00  0.00    -0.248 NA
ATOM     48  C   UNL A   1      47.351  24.824  25.407  1.00  0.00     0.031 C 
ATOM     49  C   UNL A   1      42.502  25.160  26.667  1.00  0.00     0.029 A 
ATOM     50  N   UNL A   1      43.787  26.959  27.020  1.00  0.00    -0.354 N 
ATOM     51  C   UNL A   1      47.982  26.935  26.021  1.00  0.00     0.074 A 
ATOM     52  C   UNL A   1      48.382  25.652  25.483  1.00  0.00     0.031 C 
ATOM     53  C   UNL A   1      41.724  26.119  27.202  1.00  0.00     0.029 A 
ATOM     54  C   UNL A   1      42.539  27.302  27.478  1.00  0.00     0.049 A 
ATOM     55  H   UNL A   1      44.554  27.575  27.034  1.00  0.00     0.167 HD
ATOM     56  C   UNL A   1      48.816  27.991  26.171  1.00  0.00     0.037 A 
ATOM     57  C   UNL A   1      42.111  28.436  28.068  1.00  0.00     0.037 A 
ATOM     58  C   UNL A   1      48.427  29.267  26.710  1.00  0.00     0.049 A 
ATOM     59  C   UNL A   1      43.077  29.574  28.285  1.00  0.00     0.074 A 
ATOM     60  C   UNL A   1      49.197  30.404  26.876  1.00  0.00     0.029 A 
ATOM     61  N   UNL A   1      47.159  29.568  27.181  1.00  0.00    -0.354 N 
ATOM     62  N   UNL A   1      44.342  29.663  27.954  1.00  0.00    -0.248 NA
ATOM     63  C   UNL A   1      42.551  30.771  28.959  1.00  0.00     0.031 C 
ATOM     64  C   UNL A   1      48.406  31.383  27.486  1.00  0.00     0.029 A 
ATOM     65  C   UNL A   1      47.132  30.867  27.662  1.00  0.00     0.049 A 
ATOM     66  H   UNL A   1      46.392  28.951  27.176  1.00  0.00     0.167 HD
ATOM     67  C   UNL A   1      44.753  30.930  28.349  1.00  0.00     0.074 A 
ATOM     68  C   UNL A   1      43.601  31.579  28.938  1.00  0.00     0.031 C 
ATOM     69  C   UNL A   1      45.974  31.506  28.232  1.00  0.00     0.037 A 
BRANCH  56  70
ATOM     70  C   UNL A   1      50.244  27.805  25.759  1.00  0.00     0.064 A 
ATOM     71  C   UNL A   1      51.253  27.566  26.705  1.00  0.00     0.173 A 
ATOM     72  C   UNL A   1      50.602  27.829  24.404  1.00  0.00     0.173 A 
ATOM     73  F   UNL A   1      50.960  27.548  28.014  1.00  0.00    -0.203 F 
ATOM     74  C   UNL A   1      52.573  27.374  26.308  1.00  0.00     0.198 A 
ATOM     75  C   UNL A   1      51.920  27.614  24.009  1.00  0.00     0.198 A 
ATOM     76  F   UNL A   1      49.673  28.051  23.462  1.00  0.00    -0.203 F 
ATOM     77  F   UNL A   1      53.527  27.183  27.229  1.00  0.00    -0.200 F 
ATOM     78  C   UNL A   1      52.904  27.393  24.961  1.00  0.00     0.200 A 
ATOM     79  F   UNL A   1      52.237  27.624  22.707  1.00  0.00    -0.200 F 
ATOM     80  F   UNL A   1      54.175  27.202  24.579  1.00  0.00    -0.200 F 
ENDBRANCH  56  70
BRANCH  57  81
ATOM     81  C   UNL A   1      40.698  28.560  28.510  1.00  0.00     0.064 A 
ATOM     82  C   UNL A   1      39.706  29.026  27.636  1.00  0.00     0.173 A 
ATOM     83  C   UNL A   1      40.319  28.259  29.827  1.00  0.00     0.173 A 
ATOM     84  F   UNL A   1      40.028  29.358  26.377  1.00  0.00    -0.203 F 
ATOM     85  C   UNL A   1      38.393  29.203  28.066  1.00  0.00     0.198 A 
ATOM     86  C   UNL A   1      39.001  28.414  30.249  1.00  0.00     0.198 A 
ATOM     87  F   UNL A   1      41.233  27.822  30.706  1.00  0.00    -0.203 F 
ATOM     88  F   UNL A   1      37.476  29.699  27.224  1.00  0.00    -0.200 F 
ATOM     89  C   UNL A   1      38.040  28.893  29.370  1.00  0.00     0.200 A 
ATOM     90  F   UNL A   1      38.663  28.112  31.510  1.00  0.00    -0.200 F 
ATOM     91  F   UNL A   1      36.778  29.072  29.786  1.00  0.00    -0.200 F 
ENDBRANCH  57  81
BRANCH  69  92
ATOM     92  C   UNL A   1      46.125  32.919  28.712  1.00  0.00     0.064 A 
ATOM     93  C   UNL A   1      46.545  33.212  30.018  1.00  0.00     0.173 A 
ATOM     94  C   UNL A   1      45.895  33.993  27.839  1.00  0.00     0.173 A 
ATOM     95  F   UNL A   1      46.763  32.220  30.894  1.00  0.00    -0.203 F 
ATOM     96  C   UNL A   1      46.710  34.529  30.437  1.00  0.00     0.198 A 
ATOM     97  C   UNL A   1      46.085  35.308  28.254  1.00  0.00     0.198 A 
ATOM     98  F   UNL A   1      45.499  33.765  26.578  1.00  0.00    -0.203 F 
ATOM     99  F   UNL A   1      47.075  34.787  31.700  1.00  0.00    -0.200 F 
ATOM    100  C   UNL A   1      46.488  35.575  29.553  1.00  0.00     0.200 A 
ATOM    101  F   UNL A   1      45.883  36.317  27.395  1.00  0.00    -0.200 F 
ATOM    102  F   UNL A   1      46.656  36.842  29.957  1.00  0.00    -0.200 F 
ENDBRANCH  69  92
ENDBRANCH  43  44
ENDBRANCH  36  38
ENDBRANCH  35  36
ENDBRANCH  34  35
ENDBRANCH  33  34
ENDBRANCH  32  33
ENDBRANCH  31  32
ENDBRANCH   1  31
TORSDOF 23
ENDMDL
MODEL 2
REMARK VINA RESULT:     -10.2      4.528      7.033
REMARK SMILES CCOc1cc(NC(=O)c2c(C(=O)OCCOCCOCCOC(=O)c3ccc(-c4c5nc(c(-c6c(F)c(F)c(F)c(F)c6F)c6ccc([nH]6)c(-c6c(F)c(F)c(F)c(F)c6F)c6nc(c(-c7c(F)c(F)c(F)c(F)c7F)c7ccc4[nH]7)C=C6)C=C5)cc3)cnn2C)ccc1OC(F)F
REMARK SMILES IDX 18 1 17 2 16 3 15 4 14 5 12 6 13 7 11 8 10 9 91 10 89 11
REMARK SMILES IDX 90 12 92 13 8 14 7 15 9 17 6 18 4 19 5 20 95 21 94 22 93 23
REMARK SMILES IDX 3 24 2 25 1 26 96 27 97 28 98 29 99 30 19 31 20 32 21 33
REMARK SMILES IDX 22 34 23 35 24 36 25 37 26 38 27 39 88 40 28 41 87 42 29 43
REMARK SMILES IDX 30 44 31 45 81 46 32 47 86 48 80 49 82 50 33 51 85 52 79 53
REMARK SMILES IDX 78 54 34 56 66 57 46 58 65 59 47 60 50 61 64 62 83 63 48 64
REMARK SMILES IDX 49 65 63 67 84 68 51 69 35 70 36 71 44 72 37 73 38 74 42 75
REMARK SMILES IDX 45 76 39 77 40 78 43 79 41 80 67 81 68 82 76 83 69 84 70 85
REMARK SMILES IDX 74 86 77 87 71 88 72 89 75 90 73 91 52 92 53 93 61 94 54 95
REMARK SMILES IDX 55 96 59 97 62 98 56 99 57 100 60 101 58 102
REMARK H PARENT 7 16 82 55 50 66
REMARK Flexibility Score: inf
ROOT
ATOM      1  C   UNL A   1      40.049  21.767  26.458  1.00  0.00     0.188 C 
ENDROOT
BRANCH   1   2
ATOM      2  O   UNL A   1      39.120  20.832  25.922  1.00  0.00    -0.376 OA
BRANCH   2   3
ATOM      3  C   UNL A   1      38.076  21.272  25.066  1.00  0.00     0.202 C 
BRANCH   3   4
ATOM      4  C   UNL A   1      37.022  22.198  25.678  1.00  0.00     0.261 C 
BRANCH   4   5
ATOM      5  O   UNL A   1      35.829  22.306  24.887  1.00  0.00    -0.460 OA
BRANCH   5   6
ATOM      6  C   UNL A   1      34.846  21.406  25.184  1.00  0.00     0.342 C 
ATOM      7  O   UNL A   1      34.963  20.198  25.085  1.00  0.00    -0.246 OA
BRANCH   6   8
ATOM      8  C   UNL A   1      33.649  22.003  25.765  1.00  0.00     0.111 A 
ATOM      9  C   UNL A   1      32.441  22.404  25.193  1.00  0.00     0.140 A 
ATOM     10  N   UNL A   1      31.629  22.665  26.273  1.00  0.00    -0.262 N 
ATOM     11  C   UNL A   1      33.502  22.286  27.140  1.00  0.00     0.151 A 
ATOM     12  N   UNL A   1      32.299  22.772  27.436  1.00  0.00    -0.180 NA
ATOM     13  C   UNL A   1      30.185  22.707  26.328  1.00  0.00     0.174 C 
BRANCH   9  14
ATOM     14  C   UNL A   1      32.023  22.302  23.821  1.00  0.00     0.274 C 
ATOM     15  N   UNL A   1      31.723  23.395  23.042  1.00  0.00    -0.321 N 
ATOM     16  H   UNL A   1      31.299  23.123  22.196  1.00  0.00     0.170 HD
ATOM     17  O   UNL A   1      31.859  21.203  23.288  1.00  0.00    -0.267 OA
BRANCH  15  18
ATOM     18  C   UNL A   1      31.855  24.795  23.121  1.00  0.00     0.045 A 
ATOM     19  C   UNL A   1      31.298  27.133  22.675  1.00  0.00     0.163 A 
ATOM     20  C   UNL A   1      31.042  25.751  22.509  1.00  0.00     0.076 A 
ATOM     21  C   UNL A   1      32.316  27.568  23.531  1.00  0.00     0.168 A 
ATOM     22  C   UNL A   1      33.113  26.610  24.156  1.00  0.00     0.053 A 
ATOM     23  C   UNL A   1      32.898  25.248  23.940  1.00  0.00     0.030 A 
BRANCH  19  24
ATOM     24  O   UNL A   1      30.474  28.052  22.081  1.00  0.00    -0.490 OA
BRANCH  24  25
ATOM     25  C   UNL A   1      29.302  28.344  22.857  1.00  0.00     0.226 C 
ATOM     26  C   UNL A   1      29.160  29.855  22.976  1.00  0.00     0.049 C 
ENDBRANCH  24  25
ENDBRANCH  19  24
BRANCH  21  27
ATOM     27  O   UNL A   1      32.608  28.842  23.924  1.00  0.00    -0.431 OA
BRANCH  27  28
ATOM     28  C   UNL A   1      32.364  29.233  25.266  1.00  0.00     0.542 C 
ATOM     29  F   UNL A   1      32.484  30.575  25.403  1.00  0.00    -0.167 F 
ATOM     30  F   UNL A   1      31.131  28.844  25.658  1.00  0.00    -0.167 F 
ENDBRANCH  27  28
ENDBRANCH  21  27
ENDBRANCH  15  18
ENDBRANCH   9  14
ENDBRANCH   6   8
ENDBRANCH   5   6
ENDBRANCH   4   5
ENDBRANCH   3   4
ENDBRANCH   2   3
ENDBRANCH   1   2
BRANCH   1  31
ATOM     31  C   UNL A   1      41.568  21.505  26.415  1.00  0.00     0.188 C 
BRANCH  31  32
ATOM     32  O   UNL A   1      42.257  22.215  25.397  1.00  0.00    -0.376 OA
BRANCH  32  33
ATOM     33  C   UNL A   1      43.530  21.703  25.034  1.00  0.00     0.202 C 
BRANCH  33  34
ATOM     34  C   UNL A   1      44.362  22.693  24.215  1.00  0.00     0.261 C 
BRANCH  34  35
ATOM     35  O   UNL A   1      44.137  24.074  24.541  1.00  0.00    -0.460 OA
BRANCH  35  36
ATOM     36  C   UNL A   1      45.033  24.660  25.365  1.00  0.00     0.338 C 
ATOM     37  O   UNL A   1      46.247  24.606  25.294  1.00  0.00    -0.246 OA
BRANCH  36  38
ATOM     38  C   UNL A   1      44.286  25.520  26.304  1.00  0.00     0.060 A 
ATOM     39  C   UNL A   1      44.599  26.882  26.378  1.00  0.00     0.016 A 
ATOM     40  C   UNL A   1      43.280  24.977  27.109  1.00  0.00     0.016 A 
ATOM     41  C   UNL A   1      43.916  27.703  27.281  1.00  0.00     0.010 A 
ATOM     42  C   UNL A   1      42.611  25.795  28.022  1.00  0.00     0.010 A 
ATOM     43  C   UNL A   1      42.943  27.156  28.131  1.00  0.00    -0.014 A 
BRANCH  43  44
ATOM     44  C   UNL A   1      42.386  27.958  29.248  1.00  0.00     0.031 A 
ATOM     45  C   UNL A   1      43.112  27.959  30.565  1.00  0.00     0.074 A 
ATOM     46  C   UNL A   1      41.247  28.659  29.107  1.00  0.00     0.049 A 
ATOM     47  N   UNL A   1      42.793  28.545  31.691  1.00  0.00    -0.248 NA
ATOM     48  C   UNL A   1      44.366  27.192  30.619  1.00  0.00     0.031 C 
ATOM     49  C   UNL A   1      40.457  28.754  27.882  1.00  0.00     0.029 A 
ATOM     50  N   UNL A   1      40.551  29.415  30.018  1.00  0.00    -0.354 N 
ATOM     51  C   UNL A   1      43.804  28.219  32.583  1.00  0.00     0.074 A 
ATOM     52  C   UNL A   1      44.735  27.363  31.879  1.00  0.00     0.031 C 
ATOM     53  C   UNL A   1      39.376  29.519  28.121  1.00  0.00     0.029 A 
ATOM     54  C   UNL A   1      39.385  29.944  29.520  1.00  0.00     0.049 A 
ATOM     55  H   UNL A   1      40.859  29.566  30.941  1.00  0.00     0.167 HD
ATOM     56  C   UNL A   1      43.951  28.605  33.873  1.00  0.00     0.037 A 
ATOM     57  C   UNL A   1      38.429  30.671  30.132  1.00  0.00     0.037 A 
ATOM     58  C   UNL A   1      43.027  29.450  34.581  1.00  0.00     0.049 A 
ATOM     59  C   UNL A   1      38.584  31.031  31.588  1.00  0.00     0.074 A 
ATOM     60  C   UNL A   1      43.107  29.915  35.882  1.00  0.00     0.029 A 
ATOM     61  N   UNL A   1      41.849  29.947  34.048  1.00  0.00    -0.354 N 
ATOM     62  N   UNL A   1      39.567  30.758  32.411  1.00  0.00    -0.248 NA
ATOM     63  C   UNL A   1      37.491  31.802  32.201  1.00  0.00     0.031 C 
ATOM     64  C   UNL A   1      41.954  30.660  36.151  1.00  0.00     0.029 A 
ATOM     65  C   UNL A   1      41.179  30.694  35.003  1.00  0.00     0.049 A 
ATOM     66  H   UNL A   1      41.534  29.793  33.129  1.00  0.00     0.167 HD
ATOM     67  C   UNL A   1      39.229  31.348  33.623  1.00  0.00     0.074 A 
ATOM     68  C   UNL A   1      37.951  32.001  33.427  1.00  0.00     0.031 C 
ATOM     69  C   UNL A   1      39.915  31.351  34.791  1.00  0.00     0.037 A 
BRANCH  56  70
ATOM     70  C   UNL A   1      45.153  28.099  34.611  1.00  0.00     0.064 A 
ATOM     71  C   UNL A   1      46.295  28.896  34.784  1.00  0.00     0.173 A 
ATOM     72  C   UNL A   1      45.149  26.818  35.181  1.00  0.00     0.173 A 
ATOM     73  F   UNL A   1      46.350  30.123  34.243  1.00  0.00    -0.203 F 
ATOM     74  C   UNL A   1      47.397  28.421  35.489  1.00  0.00     0.198 A 
ATOM     75  C   UNL A   1      46.244  26.355  35.905  1.00  0.00     0.198 A 
ATOM     76  F   UNL A   1      44.080  26.020  35.045  1.00  0.00    -0.203 F 
ATOM     77  F   UNL A   1      48.491  29.184  35.613  1.00  0.00    -0.200 F 
ATOM     78  C   UNL A   1      47.369  27.154  36.053  1.00  0.00     0.200 A 
ATOM     79  F   UNL A   1      46.213  25.134  36.457  1.00  0.00    -0.200 F 
ATOM     80  F   UNL A   1      48.428  26.700  36.737  1.00  0.00    -0.200 F 
ENDBRANCH  56  70
BRANCH  57  81
ATOM     81  C   UNL A   1      37.226  31.108  29.378  1.00  0.00     0.064 A 
ATOM     82  C   UNL A   1      36.199  30.205  29.072  1.00  0.00     0.173 A 
ATOM     83  C   UNL A   1      37.100  32.424  28.911  1.00  0.00     0.173 A 
ATOM     84  F   UNL A   1      36.292  28.927  29.468  1.00  0.00    -0.203 F 
ATOM     85  C   UNL A   1      35.100  30.596  28.311  1.00  0.00     0.198 A 
ATOM     86  C   UNL A   1      35.989  32.821  28.170  1.00  0.00     0.198 A 
ATOM     87  F   UNL A   1      38.062  33.324  29.167  1.00  0.00    -0.203 F 
ATOM     88  F   UNL A   1      34.158  29.700  27.987  1.00  0.00    -0.200 F 
ATOM     89  C   UNL A   1      34.993  31.905  27.864  1.00  0.00     0.200 A 
ATOM     90  F   UNL A   1      35.888  34.086  27.742  1.00  0.00    -0.200 F 
ATOM     91  F   UNL A   1      33.939  32.279  27.124  1.00  0.00    -0.200 F 
ENDBRANCH  57  81
BRANCH  69  92
ATOM     92  C   UNL A   1      39.325  32.113  35.941  1.00  0.00     0.064 A 
ATOM     93  C   UNL A   1      39.637  33.461  36.167  1.00  0.00     0.173 A 
ATOM     94  C   UNL A   1      38.397  31.500  36.797  1.00  0.00     0.173 A 
ATOM     95  F   UNL A   1      40.530  34.087  35.385  1.00  0.00    -0.203 F 
ATOM     96  C   UNL A   1      39.057  34.162  37.221  1.00  0.00     0.198 A 
ATOM     97  C   UNL A   1      37.799  32.211  37.834  1.00  0.00     0.198 A 
ATOM     98  F   UNL A   1      38.060  30.214  36.617  1.00  0.00    -0.203 F 
ATOM     99  F   UNL A   1      39.397  35.439  37.442  1.00  0.00    -0.200 F 
ATOM    100  C   UNL A   1      38.133  33.539  38.047  1.00  0.00     0.200 A 
ATOM    101  F   UNL A   1      36.898  31.611  38.624  1.00  0.00    -0.200 F 
ATOM    102  F   UNL A   1      37.569  34.219  39.056  1.00  0.00    -0.200 F 
ENDBRANCH  69  92
ENDBRANCH  43  44
ENDBRANCH  36  38
ENDBRANCH  35  36
ENDBRANCH  34  35
ENDBRANCH  33  34
ENDBRANCH  32  33
ENDBRANCH  31  32
ENDBRANCH   1  31
TORSDOF 23
ENDMDL
MODEL 3
REMARK VINA RESULT:      -9.5      8.317     16.420
REMARK SMILES CCOc1cc(NC(=O)c2c(C(=O)OCCOCCOCCOC(=O)c3ccc(-c4c5nc(c(-c6c(F)c(F)c(F)c(F)c6F)c6ccc([nH]6)c(-c6c(F)c(F)c(F)c(F)c6F)c6nc(c(-c7c(F)c(F)c(F)c(F)c7F)c7ccc4[nH]7)C=C6)C=C5)cc3)cnn2C)ccc1OC(F)F
REMARK SMILES IDX 18 1 17 2 16 3 15 4 14 5 12 6 13 7 11 8 10 9 91 10 89 11
REMARK SMILES IDX 90 12 92 13 8 14 7 15 9 17 6 18 4 19 5 20 95 21 94 22 93 23
REMARK SMILES IDX 3 24 2 25 1 26 96 27 97 28 98 29 99 30 19 31 20 32 21 33
REMARK SMILES IDX 22 34 23 35 24 36 25 37 26 38 27 39 88 40 28 41 87 42 29 43
REMARK SMILES IDX 30 44 31 45 81 46 32 47 86 48 80 49 82 50 33 51 85 52 79 53
REMARK SMILES IDX 78 54 34 56 66 57 46 58 65 59 47 60 50 61 64 62 83 63 48 64
REMARK SMILES IDX 49 65 63 67 84 68 51 69 35 70 36 71 44 72 37 73 38 74 42 75
REMARK SMILES IDX 45 76 39 77 40 78 43 79 41 80 67 81 68 82 76 83 69 84 70 85
REMARK SMILES IDX 74 86 77 87 71 88 72 89 75 90 73 91 52 92 53 93 61 94 54 95
REMARK SMILES IDX 55 96 59 97 62 98 56 99 57 100 60 101 58 102
REMARK H PARENT 7 16 82 55 50 66
REMARK Flexibility Score: inf
ROOT
ATOM      1  C   UNL A   1      42.658  40.302  26.604  1.00  0.00     0.188 C 
ENDROOT
BRANCH   1   2
ATOM      2  O   UNL A   1      43.727  40.252  25.666  1.00  0.00    -0.376 OA
BRANCH   2   3
ATOM      3  C   UNL A   1      45.059  40.050  26.110  1.00  0.00     0.202 C 
BRANCH   3   4
ATOM      4  C   UNL A   1      46.156  40.842  25.394  1.00  0.00     0.261 C 
BRANCH   4   5
ATOM      5  O   UNL A   1      45.678  41.585  24.262  1.00  0.00    -0.460 OA
BRANCH   5   6
ATOM      6  C   UNL A   1      46.558  41.705  23.226  1.00  0.00     0.342 C 
ATOM      7  O   UNL A   1      46.800  40.824  22.420  1.00  0.00    -0.246 OA
BRANCH   6   8
ATOM      8  C   UNL A   1      47.116  43.043  23.070  1.00  0.00     0.111 A 
ATOM      9  C   UNL A   1      47.777  43.655  22.004  1.00  0.00     0.140 A 
ATOM     10  N   UNL A   1      47.844  44.981  22.368  1.00  0.00    -0.262 N 
ATOM     11  C   UNL A   1      47.057  44.039  24.070  1.00  0.00     0.151 A 
ATOM     12  N   UNL A   1      47.580  45.195  23.670  1.00  0.00    -0.180 NA
ATOM     13  C   UNL A   1      48.027  46.141  21.524  1.00  0.00     0.174 C 
BRANCH   9  14
ATOM     14  C   UNL A   1      48.071  43.115  20.705  1.00  0.00     0.274 C 
ATOM     15  N   UNL A   1      47.213  43.215  19.635  1.00  0.00    -0.321 N 
ATOM     16  H   UNL A   1      47.508  42.646  18.888  1.00  0.00     0.170 HD
ATOM     17  O   UNL A   1      49.105  42.474  20.504  1.00  0.00    -0.267 OA
BRANCH  15  18
ATOM     18  C   UNL A   1      46.029  43.909  19.314  1.00  0.00     0.045 A 
ATOM     19  C   UNL A   1      43.628  44.364  19.289  1.00  0.00     0.163 A 
ATOM     20  C   UNL A   1      44.729  43.570  19.692  1.00  0.00     0.076 A 
ATOM     21  C   UNL A   1      43.832  45.555  18.583  1.00  0.00     0.168 A 
ATOM     22  C   UNL A   1      45.135  45.899  18.224  1.00  0.00     0.053 A 
ATOM     23  C   UNL A   1      46.213  45.081  18.568  1.00  0.00     0.030 A 
BRANCH  19  24
ATOM     24  O   UNL A   1      42.363  44.023  19.690  1.00  0.00    -0.490 OA
BRANCH  24  25
ATOM     25  C   UNL A   1      42.313  42.777  20.402  1.00  0.00     0.226 C 
ATOM     26  C   UNL A   1      41.711  43.025  21.777  1.00  0.00     0.049 C 
ENDBRANCH  24  25
ENDBRANCH  19  24
BRANCH  21  27
ATOM     27  O   UNL A   1      42.917  46.509  18.245  1.00  0.00    -0.431 OA
BRANCH  27  28
ATOM     28  C   UNL A   1      42.497  46.627  16.895  1.00  0.00     0.542 C 
ATOM     29  F   UNL A   1      42.296  45.406  16.347  1.00  0.00    -0.167 F 
ATOM     30  F   UNL A   1      41.362  47.356  16.812  1.00  0.00    -0.167 F 
ENDBRANCH  27  28
ENDBRANCH  21  27
ENDBRANCH  15  18
ENDBRANCH   9  14
ENDBRANCH   6   8
ENDBRANCH   5   6
ENDBRANCH   4   5
ENDBRANCH   3   4
ENDBRANCH   2   3
ENDBRANCH   1   2
BRANCH   1  31
ATOM     31  C   UNL A   1      42.237  39.057  27.410  1.00  0.00     0.188 C 
BRANCH  31  32
ATOM     32  O   UNL A   1      42.382  39.192  28.816  1.00  0.00    -0.376 OA
BRANCH  32  33
ATOM     33  C   UNL A   1      43.224  40.247  29.257  1.00  0.00     0.202 C 
BRANCH  33  34
ATOM     34  C   UNL A   1      44.392  39.760  30.119  1.00  0.00     0.261 C 
BRANCH  34  35
ATOM     35  O   UNL A   1      44.449  38.335  30.296  1.00  0.00    -0.460 OA
BRANCH  35  36
ATOM     36  C   UNL A   1      45.645  37.743  30.089  1.00  0.00     0.338 C 
ATOM     37  O   UNL A   1      46.748  38.214  30.295  1.00  0.00    -0.246 OA
BRANCH  36  38
ATOM     38  C   UNL A   1      45.393  36.341  29.700  1.00  0.00     0.060 A 
ATOM     39  C   UNL A   1      44.789  36.073  28.467  1.00  0.00     0.016 A 
ATOM     40  C   UNL A   1      45.752  35.296  30.557  1.00  0.00     0.016 A 
ATOM     41  C   UNL A   1      44.521  34.751  28.097  1.00  0.00     0.010 A 
ATOM     42  C   UNL A   1      45.468  33.978  30.194  1.00  0.00     0.010 A 
ATOM     43  C   UNL A   1      44.828  33.700  28.974  1.00  0.00    -0.014 A 
BRANCH  43  44
ATOM     44  C   UNL A   1      44.337  32.328  28.702  1.00  0.00     0.031 A 
ATOM     45  C   UNL A   1      43.004  31.915  29.264  1.00  0.00     0.074 A 
ATOM     46  C   UNL A   1      45.064  31.452  27.985  1.00  0.00     0.049 A 
ATOM     47  N   UNL A   1      42.393  30.759  29.196  1.00  0.00    -0.248 NA
ATOM     48  C   UNL A   1      42.262  32.946  30.006  1.00  0.00     0.031 C 
ATOM     49  C   UNL A   1      46.361  31.730  27.373  1.00  0.00     0.029 A 
ATOM     50  N   UNL A   1      44.813  30.140  27.666  1.00  0.00    -0.354 N 
ATOM     51  C   UNL A   1      41.199  30.926  29.882  1.00  0.00     0.074 A 
ATOM     52  C   UNL A   1      41.180  32.284  30.383  1.00  0.00     0.031 C 
ATOM     53  C   UNL A   1      46.799  30.616  26.758  1.00  0.00     0.029 A 
ATOM     54  C   UNL A   1      45.826  29.542  26.956  1.00  0.00     0.049 A 
ATOM     55  H   UNL A   1      43.985  29.672  27.919  1.00  0.00     0.167 HD
ATOM     56  C   UNL A   1      40.201  30.030  30.073  1.00  0.00     0.037 A 
ATOM     57  C   UNL A   1      45.957  28.268  26.534  1.00  0.00     0.037 A 
ATOM     58  C   UNL A   1      40.216  28.678  29.584  1.00  0.00     0.049 A 
ATOM     59  C   UNL A   1      44.860  27.273  26.818  1.00  0.00     0.074 A 
ATOM     60  C   UNL A   1      39.239  27.706  29.706  1.00  0.00     0.029 A 
ATOM     61  N   UNL A   1      41.268  28.104  28.888  1.00  0.00    -0.354 N 
ATOM     62  N   UNL A   1      43.714  27.451  27.427  1.00  0.00    -0.248 NA
ATOM     63  C   UNL A   1      45.080  25.894  26.352  1.00  0.00     0.031 C 
ATOM     64  C   UNL A   1      39.717  26.529  29.120  1.00  0.00     0.029 A 
ATOM     65  C   UNL A   1      40.974  26.782  28.596  1.00  0.00     0.049 A 
ATOM     66  H   UNL A   1      42.100  28.566  28.639  1.00  0.00     0.167 HD
ATOM     67  C   UNL A   1      43.065  26.223  27.390  1.00  0.00     0.074 A 
ATOM     68  C   UNL A   1      43.942  25.307  26.692  1.00  0.00     0.031 C 
ATOM     69  C   UNL A   1      41.851  25.885  27.888  1.00  0.00     0.037 A 
BRANCH  56  70
ATOM     70  C   UNL A   1      39.011  30.482  30.863  1.00  0.00     0.064 A 
ATOM     71  C   UNL A   1      37.908  31.088  30.241  1.00  0.00     0.173 A 
ATOM     72  C   UNL A   1      38.957  30.275  32.248  1.00  0.00     0.173 A 
ATOM     73  F   UNL A   1      37.921  31.320  28.920  1.00  0.00    -0.203 F 
ATOM     74  C   UNL A   1      36.800  31.485  30.984  1.00  0.00     0.198 A 
ATOM     75  C   UNL A   1      37.838  30.653  32.984  1.00  0.00     0.198 A 
ATOM     76  F   UNL A   1      39.986  29.698  32.887  1.00  0.00    -0.203 F 
ATOM     77  F   UNL A   1      35.772  32.094  30.378  1.00  0.00    -0.200 F 
ATOM     78  C   UNL A   1      36.763  31.263  32.353  1.00  0.00     0.200 A 
ATOM     79  F   UNL A   1      37.800  30.430  34.305  1.00  0.00    -0.200 F 
ATOM     80  F   UNL A   1      35.693  31.640  33.066  1.00  0.00    -0.200 F 
ENDBRANCH  56  70
BRANCH  57  81
ATOM     81  C   UNL A   1      47.178  27.847  25.800  1.00  0.00     0.064 A 
ATOM     82  C   UNL A   1      47.202  27.810  24.399  1.00  0.00     0.173 A 
ATOM     83  C   UNL A   1      48.330  27.432  26.485  1.00  0.00     0.173 A 
ATOM     84  F   UNL A   1      46.112  28.165  23.703  1.00  0.00    -0.203 F 
ATOM     85  C   UNL A   1      48.324  27.356  23.711  1.00  0.00     0.198 A 
ATOM     86  C   UNL A   1      49.461  27.000  25.794  1.00  0.00     0.198 A 
ATOM     87  F   UNL A   1      48.354  27.438  27.826  1.00  0.00    -0.203 F 
ATOM     88  F   UNL A   1      48.302  27.280  22.373  1.00  0.00    -0.200 F 
ATOM     89  C   UNL A   1      49.454  26.955  24.408  1.00  0.00     0.200 A 
ATOM     90  F   UNL A   1      50.550  26.616  26.471  1.00  0.00    -0.200 F 
ATOM     91  F   UNL A   1      50.531  26.510  23.745  1.00  0.00    -0.200 F 
ENDBRANCH  57  81
BRANCH  69  92
ATOM     92  C   UNL A   1      41.375  24.480  27.665  1.00  0.00     0.064 A 
ATOM     93  C   UNL A   1      40.315  24.191  26.793  1.00  0.00     0.173 A 
ATOM     94  C   UNL A   1      42.021  23.404  28.293  1.00  0.00     0.173 A 
ATOM     95  F   UNL A   1      39.657  25.186  26.180  1.00  0.00    -0.203 F 
ATOM     96  C   UNL A   1      39.908  22.878  26.573  1.00  0.00     0.198 A 
ATOM     97  C   UNL A   1      41.628  22.091  28.052  1.00  0.00     0.198 A 
ATOM     98  F   UNL A   1      43.046  23.627  29.130  1.00  0.00    -0.203 F 
ATOM     99  F   UNL A   1      38.868  22.628  25.765  1.00  0.00    -0.200 F 
ATOM    100  C   UNL A   1      40.568  21.830  27.196  1.00  0.00     0.200 A 
ATOM    101  F   UNL A   1      42.275  21.078  28.644  1.00  0.00    -0.200 F 
ATOM    102  F   UNL A   1      40.180  20.566  26.976  1.00  0.00    -0.200 F 
ENDBRANCH  69  92
ENDBRANCH  43  44
ENDBRANCH  36  38
ENDBRANCH  35  36
ENDBRANCH  34  35
ENDBRANCH  33  34
ENDBRANCH  32  33
ENDBRANCH  31  32
ENDBRANCH   1  31
TORSDOF 23
ENDMDL
