MODEL 1
REMARK VINA RESULT:     -12.0      0.000      0.000
REMARK SMILES O=C(OCCOCCOCCOC(=O)c1ccc(NS(=O)(=O)c2ccc3c(c2)CCC3)cc1Cl)c1ccc(-c2c3nc(c(-c4c(F)c(F)c(F)c(F)c4F)c4ccc([nH]4)c(-c4c(F)c(F)c(F)c(F)c4F)c4nc(c(-c5c(F)c(F)c(F)c(F)c5F)c5ccc2[nH]5)C=C4)C=C3)cc1
REMARK SMILES IDX 8 1 7 2 6 3 5 4 4 5 3 6 2 7 1 8 35 9 36 10 97 11 37 12 96 13
REMARK SMILES IDX 38 14 39 15 40 16 90 17 41 18 95 19 89 20 91 21 42 22 94 23
REMARK SMILES IDX 88 24 87 25 43 27 75 28 55 29 74 30 56 31 59 32 73 33 92 34
REMARK SMILES IDX 57 35 58 36 72 38 93 39 60 40 44 41 45 42 53 43 46 44 47 45
REMARK SMILES IDX 51 46 54 47 48 48 49 49 52 50 50 51 76 52 77 53 85 54 78 55
REMARK SMILES IDX 79 56 83 57 86 58 80 59 81 60 84 61 82 62 61 63 62 64 70 65
REMARK SMILES IDX 63 66 64 67 68 68 71 69 65 70 66 71 69 72 67 73 9 74 10 75
REMARK SMILES IDX 11 76 12 77 13 78 14 79 15 80 16 81 33 82 17 83 32 84 34 85
REMARK SMILES IDX 18 86 19 87 20 89 21 90 22 91 23 92 24 93 28 94 25 95 27 96
REMARK SMILES IDX 26 97 29 98 31 99 30 100
REMARK H PARENT 91 26 59 37 19 88
REMARK Flexibility Score: inf
ROOT
ATOM      1  C   UNL A   1      41.453  20.048  26.839  1.00  0.00     0.188 C 
ENDROOT
BRANCH   1   2
ATOM      2  C   UNL A   1      42.092  18.875  26.088  1.00  0.00     0.188 C 
BRANCH   2   3
ATOM      3  O   UNL A   1      42.972  19.336  25.050  1.00  0.00    -0.376 OA
BRANCH   3   4
ATOM      4  C   UNL A   1      44.162  19.966  25.545  1.00  0.00     0.202 C 
BRANCH   4   5
ATOM      5  C   UNL A   1      44.491  21.312  24.891  1.00  0.00     0.261 C 
BRANCH   5   6
ATOM      6  O   UNL A   1      43.780  22.402  25.493  1.00  0.00    -0.460 OA
BRANCH   6   7
ATOM      7  C   UNL A   1      43.923  23.731  25.268  1.00  0.00     0.338 C 
ATOM      8  O   UNL A   1      44.633  24.074  24.324  1.00  0.00    -0.246 OA
BRANCH   7   9
ATOM      9  C   UNL A   1      43.277  24.816  26.082  1.00  0.00     0.060 A 
ATOM     10  C   UNL A   1      43.439  26.194  25.909  1.00  0.00     0.016 A 
ATOM     11  C   UNL A   1      42.406  24.396  27.106  1.00  0.00     0.016 A 
ATOM     12  C   UNL A   1      42.861  27.120  26.775  1.00  0.00     0.010 A 
ATOM     13  C   UNL A   1      41.788  25.318  27.956  1.00  0.00     0.010 A 
ATOM     14  C   UNL A   1      42.059  26.684  27.821  1.00  0.00    -0.014 A 
BRANCH  14  15
ATOM     15  C   UNL A   1      41.679  27.629  28.888  1.00  0.00     0.031 A 
ATOM     16  C   UNL A   1      42.450  27.577  30.168  1.00  0.00     0.074 A 
ATOM     17  C   UNL A   1      40.725  28.556  28.706  1.00  0.00     0.049 A 
ATOM     18  N   UNL A   1      42.240  28.201  31.293  1.00  0.00    -0.248 NA
ATOM     19  C   UNL A   1      43.661  26.737  30.159  1.00  0.00     0.031 C 
ATOM     20  C   UNL A   1      40.063  28.842  27.442  1.00  0.00     0.029 A 
ATOM     21  N   UNL A   1      40.117  29.400  29.598  1.00  0.00    -0.354 N 
ATOM     22  C   UNL A   1      43.294  27.845  32.117  1.00  0.00     0.074 A 
ATOM     23  C   UNL A   1      44.124  26.917  31.385  1.00  0.00     0.031 C 
ATOM     24  C   UNL A   1      39.040  29.684  27.658  1.00  0.00     0.029 A 
ATOM     25  C   UNL A   1      38.986  29.984  29.081  1.00  0.00     0.049 A 
ATOM     26  H   UNL A   1      40.452  29.568  30.509  1.00  0.00     0.167 HD
ATOM     27  C   UNL A   1      43.548  28.279  33.372  1.00  0.00     0.037 A 
ATOM     28  C   UNL A   1      37.990  30.635  29.706  1.00  0.00     0.037 A 
ATOM     29  C   UNL A   1      42.681  29.178  34.082  1.00  0.00     0.049 A 
ATOM     30  C   UNL A   1      38.155  30.931  31.167  1.00  0.00     0.074 A 
ATOM     31  C   UNL A   1      42.806  29.672  35.365  1.00  0.00     0.029 A 
ATOM     32  N   UNL A   1      41.504  29.700  33.559  1.00  0.00    -0.354 N 
ATOM     33  N   UNL A   1      39.143  30.593  31.962  1.00  0.00    -0.248 NA
ATOM     34  C   UNL A   1      37.108  31.730  31.811  1.00  0.00     0.031 C 
ATOM     35  C   UNL A   1      41.673  30.450  35.638  1.00  0.00     0.029 A 
ATOM     36  C   UNL A   1      40.871  30.486  34.505  1.00  0.00     0.049 A 
ATOM     37  H   UNL A   1      41.168  29.535  32.648  1.00  0.00     0.167 HD
ATOM     38  C   UNL A   1      38.872  31.186  33.183  1.00  0.00     0.074 A 
ATOM     39  C   UNL A   1      37.608  31.882  33.032  1.00  0.00     0.031 C 
ATOM     40  C   UNL A   1      39.620  31.181  34.314  1.00  0.00     0.037 A 
BRANCH  27  41
ATOM     41  C   UNL A   1      44.770  27.723  34.039  1.00  0.00     0.064 A 
ATOM     42  C   UNL A   1      44.720  26.556  34.819  1.00  0.00     0.173 A 
ATOM     43  C   UNL A   1      45.988  28.411  33.963  1.00  0.00     0.173 A 
ATOM     44  F   UNL A   1      43.570  25.879  34.950  1.00  0.00    -0.203 F 
ATOM     45  C   UNL A   1      45.835  26.126  35.536  1.00  0.00     0.198 A 
ATOM     46  C   UNL A   1      47.109  27.963  34.658  1.00  0.00     0.198 A 
ATOM     47  F   UNL A   1      46.087  29.536  33.239  1.00  0.00    -0.203 F 
ATOM     48  F   UNL A   1      45.743  25.056  36.338  1.00  0.00    -0.200 F 
ATOM     49  C   UNL A   1      47.028  26.830  35.455  1.00  0.00     0.200 A 
ATOM     50  F   UNL A   1      48.261  28.643  34.580  1.00  0.00    -0.200 F 
ATOM     51  F   UNL A   1      48.092  26.430  36.163  1.00  0.00    -0.200 F 
ENDBRANCH  27  41
BRANCH  28  52
ATOM     52  C   UNL A   1      36.773  31.011  28.942  1.00  0.00     0.064 A 
ATOM     53  C   UNL A   1      35.773  30.078  28.645  1.00  0.00     0.173 A 
ATOM     54  C   UNL A   1      36.558  32.343  28.549  1.00  0.00     0.173 A 
ATOM     55  F   UNL A   1      35.930  28.795  29.002  1.00  0.00    -0.203 F 
ATOM     56  C   UNL A   1      34.610  30.457  27.976  1.00  0.00     0.198 A 
ATOM     57  C   UNL A   1      35.387  32.726  27.900  1.00  0.00     0.198 A 
ATOM     58  F   UNL A   1      37.469  33.286  28.827  1.00  0.00    -0.203 F 
ATOM     59  F   UNL A   1      33.673  29.543  27.693  1.00  0.00    -0.200 F 
ATOM     60  C   UNL A   1      34.415  31.781  27.608  1.00  0.00     0.200 A 
ATOM     61  F   UNL A   1      35.191  34.013  27.583  1.00  0.00    -0.200 F 
ATOM     62  F   UNL A   1      33.289  32.149  26.984  1.00  0.00    -0.200 F 
ENDBRANCH  28  52
BRANCH  40  63
ATOM     63  C   UNL A   1      39.130  32.012  35.457  1.00  0.00     0.064 A 
ATOM     64  C   UNL A   1      38.379  31.462  36.502  1.00  0.00     0.173 A 
ATOM     65  C   UNL A   1      39.498  33.364  35.542  1.00  0.00     0.173 A 
ATOM     66  F   UNL A   1      37.992  30.178  36.452  1.00  0.00    -0.203 F 
ATOM     67  C   UNL A   1      38.007  32.238  37.594  1.00  0.00     0.198 A 
ATOM     68  C   UNL A   1      39.148  34.130  36.647  1.00  0.00     0.198 A 
ATOM     69  F   UNL A   1      40.221  33.931  34.564  1.00  0.00    -0.203 F 
ATOM     70  F   UNL A   1      37.266  31.703  38.573  1.00  0.00    -0.200 F 
ATOM     71  C   UNL A   1      38.401  33.567  37.671  1.00  0.00     0.200 A 
ATOM     72  F   UNL A   1      39.542  35.408  36.726  1.00  0.00    -0.200 F 
ATOM     73  F   UNL A   1      38.061  34.306  38.736  1.00  0.00    -0.200 F 
ENDBRANCH  40  63
ENDBRANCH  14  15
ENDBRANCH   7   9
ENDBRANCH   6   7
ENDBRANCH   5   6
ENDBRANCH   4   5
ENDBRANCH   3   4
ENDBRANCH   2   3
ENDBRANCH   1   2
BRANCH   1  74
ATOM     74  O   UNL A   1      40.953  21.103  26.020  1.00  0.00    -0.376 OA
BRANCH  74  75
ATOM     75  C   UNL A   1      39.760  21.750  26.448  1.00  0.00     0.202 C 
BRANCH  75  76
ATOM     76  C   UNL A   1      38.478  21.441  25.664  1.00  0.00     0.261 C 
BRANCH  76  77
ATOM     77  O   UNL A   1      37.316  22.192  26.068  1.00  0.00    -0.460 OA
BRANCH  77  78
ATOM     78  C   UNL A   1      36.137  21.640  25.679  1.00  0.00     0.339 C 
ATOM     79  O   UNL A   1      35.969  20.488  25.313  1.00  0.00    -0.246 OA
BRANCH  78  80
ATOM     80  C   UNL A   1      35.006  22.590  25.780  1.00  0.00     0.078 A 
ATOM     81  C   UNL A   1      34.176  22.588  26.907  1.00  0.00     0.019 A 
ATOM     82  C   UNL A   1      34.641  23.363  24.673  1.00  0.00     0.057 A 
ATOM     83  C   UNL A   1      32.949  23.273  26.879  1.00  0.00     0.028 A 
ATOM     84  C   UNL A   1      33.393  23.998  24.636  1.00  0.00     0.048 A 
ATOM     85  Cl  UNL A   1      35.683  23.615  23.316  1.00  0.00    -0.083 Cl
ATOM     86  C   UNL A   1      32.517  23.924  25.720  1.00  0.00     0.050 A 
BRANCH  86  87
ATOM     87  N   UNL A   1      31.178  24.349  25.483  1.00  0.00    -0.280 N 
ATOM     88  H   UNL A   1      30.615  23.734  24.959  1.00  0.00     0.180 HD
BRANCH  87  89
ATOM     89  S   UNL A   1      30.447  25.766  25.990  1.00  0.00     0.261 S 
ATOM     90  O   UNL A   1      29.104  25.436  26.451  1.00  0.00    -0.201 OA
ATOM     91  O   UNL A   1      31.399  26.418  26.843  1.00  0.00    -0.201 OA
BRANCH  89  92
ATOM     92  C   UNL A   1      30.247  26.801  24.556  1.00  0.00     0.088 A 
ATOM     93  C   UNL A   1      31.356  27.591  24.190  1.00  0.00     0.022 A 
ATOM     94  C   UNL A   1      28.986  27.023  23.997  1.00  0.00     0.026 A 
ATOM     95  C   UNL A   1      31.194  28.674  23.327  1.00  0.00     0.005 A 
ATOM     96  C   UNL A   1      28.824  28.162  23.228  1.00  0.00    -0.043 A 
ATOM     97  C   UNL A   1      29.913  28.972  22.892  1.00  0.00    -0.045 A 
ATOM     98  C   UNL A   1      27.535  28.812  22.835  1.00  0.00     0.036 C 
ATOM     99  C   UNL A   1      29.466  30.200  22.162  1.00  0.00     0.036 C 
ATOM    100  C   UNL A   1      28.009  29.855  21.817  1.00  0.00     0.010 C 
ENDBRANCH  89  92
ENDBRANCH  87  89
ENDBRANCH  86  87
ENDBRANCH  78  80
ENDBRANCH  77  78
ENDBRANCH  76  77
ENDBRANCH  75  76
ENDBRANCH  74  75
ENDBRANCH   1  74
TORSDOF 20
ENDMDL
MODEL 2
REMARK VINA RESULT:     -11.5      2.313      3.317
REMARK SMILES O=C(OCCOCCOCCOC(=O)c1ccc(NS(=O)(=O)c2ccc3c(c2)CCC3)cc1Cl)c1ccc(-c2c3nc(c(-c4c(F)c(F)c(F)c(F)c4F)c4ccc([nH]4)c(-c4c(F)c(F)c(F)c(F)c4F)c4nc(c(-c5c(F)c(F)c(F)c(F)c5F)c5ccc2[nH]5)C=C4)C=C3)cc1
REMARK SMILES IDX 8 1 7 2 6 3 5 4 4 5 3 6 2 7 1 8 35 9 36 10 97 11 37 12 96 13
REMARK SMILES IDX 38 14 39 15 40 16 90 17 41 18 95 19 89 20 91 21 42 22 94 23
REMARK SMILES IDX 88 24 87 25 43 27 75 28 55 29 74 30 56 31 59 32 73 33 92 34
REMARK SMILES IDX 57 35 58 36 72 38 93 39 60 40 44 41 45 42 53 43 46 44 47 45
REMARK SMILES IDX 51 46 54 47 48 48 49 49 52 50 50 51 76 52 77 53 85 54 78 55
REMARK SMILES IDX 79 56 83 57 86 58 80 59 81 60 84 61 82 62 61 63 62 64 70 65
REMARK SMILES IDX 63 66 64 67 68 68 71 69 65 70 66 71 69 72 67 73 9 74 10 75
REMARK SMILES IDX 11 76 12 77 13 78 14 79 15 80 16 81 33 82 17 83 32 84 34 85
REMARK SMILES IDX 18 86 19 87 20 89 21 90 22 91 23 92 24 93 28 94 25 95 27 96
REMARK SMILES IDX 26 97 29 98 31 99 30 100
REMARK H PARENT 91 26 59 37 19 88
REMARK Flexibility Score: inf
ROOT
ATOM      1  C   UNL A   1      42.190  19.578  26.839  1.00  0.00     0.188 C 
ENDROOT
BRANCH   1   2
ATOM      2  C   UNL A   1      42.931  18.738  25.795  1.00  0.00     0.188 C 
BRANCH   2   3
ATOM      3  O   UNL A   1      43.506  19.564  24.770  1.00  0.00    -0.376 OA
BRANCH   3   4
ATOM      4  C   UNL A   1      44.463  20.510  25.266  1.00  0.00     0.202 C 
BRANCH   4   5
ATOM      5  C   UNL A   1      44.496  21.842  24.508  1.00  0.00     0.261 C 
BRANCH   5   6
ATOM      6  O   UNL A   1      43.712  22.856  25.150  1.00  0.00    -0.460 OA
BRANCH   6   7
ATOM      7  C   UNL A   1      44.047  24.142  25.414  1.00  0.00     0.338 C 
ATOM      8  O   UNL A   1      44.693  24.748  24.560  1.00  0.00    -0.246 OA
BRANCH   7   9
ATOM      9  C   UNL A   1      43.688  24.885  26.670  1.00  0.00     0.060 A 
ATOM     10  C   UNL A   1      42.673  24.552  27.572  1.00  0.00     0.016 A 
ATOM     11  C   UNL A   1      44.470  26.015  26.974  1.00  0.00     0.016 A 
ATOM     12  C   UNL A   1      42.364  25.358  28.666  1.00  0.00     0.010 A 
ATOM     13  C   UNL A   1      44.196  26.809  28.092  1.00  0.00     0.010 A 
ATOM     14  C   UNL A   1      43.103  26.507  28.913  1.00  0.00    -0.014 A 
BRANCH  14  15
ATOM     15  C   UNL A   1      42.610  27.494  29.891  1.00  0.00     0.031 A 
ATOM     16  C   UNL A   1      43.275  27.536  31.229  1.00  0.00     0.074 A 
ATOM     17  C   UNL A   1      41.646  28.376  29.582  1.00  0.00     0.049 A 
ATOM     18  N   UNL A   1      42.956  28.213  32.297  1.00  0.00    -0.248 NA
ATOM     19  C   UNL A   1      44.508  26.739  31.364  1.00  0.00     0.031 C 
ATOM     20  C   UNL A   1      41.081  28.571  28.255  1.00  0.00     0.029 A 
ATOM     21  N   UNL A   1      40.943  29.245  30.374  1.00  0.00    -0.354 N 
ATOM     22  C   UNL A   1      43.949  27.937  33.221  1.00  0.00     0.074 A 
ATOM     23  C   UNL A   1      44.863  27.000  32.610  1.00  0.00     0.031 C 
ATOM     24  C   UNL A   1      40.019  29.387  28.341  1.00  0.00     0.029 A 
ATOM     25  C   UNL A   1      39.841  29.761  29.736  1.00  0.00     0.049 A 
ATOM     26  H   UNL A   1      41.198  29.473  31.297  1.00  0.00     0.167 HD
ATOM     27  C   UNL A   1      44.088  28.447  34.466  1.00  0.00     0.037 A 
ATOM     28  C   UNL A   1      38.778  30.410  30.243  1.00  0.00     0.037 A 
ATOM     29  C   UNL A   1      43.140  29.352  35.053  1.00  0.00     0.049 A 
ATOM     30  C   UNL A   1      38.814  30.789  31.693  1.00  0.00     0.074 A 
ATOM     31  C   UNL A   1      43.144  29.917  36.312  1.00  0.00     0.029 A 
ATOM     32  N   UNL A   1      41.993  29.805  34.409  1.00  0.00    -0.354 N 
ATOM     33  N   UNL A   1      39.744  30.529  32.583  1.00  0.00    -0.248 NA
ATOM     34  C   UNL A   1      37.695  31.585  32.207  1.00  0.00     0.031 C 
ATOM     35  C   UNL A   1      41.971  30.669  36.450  1.00  0.00     0.029 A 
ATOM     36  C   UNL A   1      41.262  30.617  35.257  1.00  0.00     0.049 A 
ATOM     37  H   UNL A   1      41.738  29.579  33.485  1.00  0.00     0.167 HD
ATOM     38  C   UNL A   1      39.357  31.177  33.743  1.00  0.00     0.074 A 
ATOM     39  C   UNL A   1      38.090  31.820  33.453  1.00  0.00     0.031 C 
ATOM     40  C   UNL A   1      40.011  31.258  34.928  1.00  0.00     0.037 A 
BRANCH  27  41
ATOM     41  C   UNL A   1      45.267  27.969  35.258  1.00  0.00     0.064 A 
ATOM     42  C   UNL A   1      45.188  26.849  36.101  1.00  0.00     0.173 A 
ATOM     43  C   UNL A   1      46.469  28.690  35.236  1.00  0.00     0.173 A 
ATOM     44  F   UNL A   1      44.049  26.144  36.183  1.00  0.00    -0.203 F 
ATOM     45  C   UNL A   1      46.253  26.497  36.927  1.00  0.00     0.198 A 
ATOM     46  C   UNL A   1      47.543  28.319  36.041  1.00  0.00     0.198 A 
ATOM     47  F   UNL A   1      46.594  29.774  34.455  1.00  0.00    -0.203 F 
ATOM     48  F   UNL A   1      46.127  25.473  37.782  1.00  0.00    -0.200 F 
ATOM     49  C   UNL A   1      47.429  27.232  36.896  1.00  0.00     0.200 A 
ATOM     50  F   UNL A   1      48.678  29.030  36.012  1.00  0.00    -0.200 F 
ATOM     51  F   UNL A   1      48.444  26.908  37.708  1.00  0.00    -0.200 F 
ENDBRANCH  27  41
BRANCH  28  52
ATOM     52  C   UNL A   1      37.616  30.703  29.365  1.00  0.00     0.064 A 
ATOM     53  C   UNL A   1      36.663  29.726  29.057  1.00  0.00     0.173 A 
ATOM     54  C   UNL A   1      37.405  32.000  28.866  1.00  0.00     0.173 A 
ATOM     55  F   UNL A   1      36.818  28.474  29.511  1.00  0.00    -0.203 F 
ATOM     56  C   UNL A   1      35.547  30.030  28.277  1.00  0.00     0.198 A 
ATOM     57  C   UNL A   1      36.280  32.308  28.105  1.00  0.00     0.198 A 
ATOM     58  F   UNL A   1      38.272  32.983  29.148  1.00  0.00    -0.203 F 
ATOM     59  F   UNL A   1      34.655  29.074  27.987  1.00  0.00    -0.200 F 
ATOM     60  C   UNL A   1      35.354  31.321  27.805  1.00  0.00     0.200 A 
ATOM     61  F   UNL A   1      36.082  33.565  27.687  1.00  0.00    -0.200 F 
ATOM     62  F   UNL A   1      34.272  31.617  27.074  1.00  0.00    -0.200 F 
ENDBRANCH  28  52
BRANCH  40  63
ATOM     63  C   UNL A   1      39.405  32.132  35.981  1.00  0.00     0.064 A 
ATOM     64  C   UNL A   1      38.435  31.654  36.869  1.00  0.00     0.173 A 
ATOM     65  C   UNL A   1      39.873  33.444  36.149  1.00  0.00     0.173 A 
ATOM     66  F   UNL A   1      37.947  30.411  36.732  1.00  0.00    -0.203 F 
ATOM     67  C   UNL A   1      37.948  32.462  37.891  1.00  0.00     0.198 A 
ATOM     68  C   UNL A   1      39.405  34.240  37.187  1.00  0.00     0.198 A 
ATOM     69  F   UNL A   1      40.806  33.941  35.322  1.00  0.00    -0.203 F 
ATOM     70  F   UNL A   1      37.001  31.998  38.716  1.00  0.00    -0.200 F 
ATOM     71  C   UNL A   1      38.442  33.749  38.056  1.00  0.00     0.200 A 
ATOM     72  F   UNL A   1      39.893  35.476  37.354  1.00  0.00    -0.200 F 
ATOM     73  F   UNL A   1      37.988  34.517  39.055  1.00  0.00    -0.200 F 
ENDBRANCH  40  63
ENDBRANCH  14  15
ENDBRANCH   7   9
ENDBRANCH   6   7
ENDBRANCH   5   6
ENDBRANCH   4   5
ENDBRANCH   3   4
ENDBRANCH   2   3
ENDBRANCH   1   2
BRANCH   1  74
ATOM     74  O   UNL A   1      40.870  19.982  26.479  1.00  0.00    -0.376 OA
BRANCH  74  75
ATOM     75  C   UNL A   1      40.690  21.334  26.075  1.00  0.00     0.202 C 
BRANCH  75  76
ATOM     76  C   UNL A   1      39.587  22.134  26.781  1.00  0.00     0.261 C 
BRANCH  76  77
ATOM     77  O   UNL A   1      38.680  22.832  25.905  1.00  0.00    -0.460 OA
BRANCH  77  78
ATOM     78  C   UNL A   1      37.559  22.130  25.596  1.00  0.00     0.339 C 
ATOM     79  O   UNL A   1      37.473  20.916  25.501  1.00  0.00    -0.246 OA
BRANCH  78  80
ATOM     80  C   UNL A   1      36.377  23.004  25.412  1.00  0.00     0.078 A 
ATOM     81  C   UNL A   1      35.595  23.381  26.510  1.00  0.00     0.019 A 
ATOM     82  C   UNL A   1      35.920  23.300  24.123  1.00  0.00     0.057 A 
ATOM     83  C   UNL A   1      34.330  23.956  26.308  1.00  0.00     0.028 A 
ATOM     84  C   UNL A   1      34.635  23.824  23.933  1.00  0.00     0.048 A 
ATOM     85  Cl  UNL A   1      36.887  23.079  22.707  1.00  0.00    -0.083 Cl
ATOM     86  C   UNL A   1      33.810  24.118  25.021  1.00  0.00     0.050 A 
BRANCH  86  87
ATOM     87  N   UNL A   1      32.440  24.369  24.728  1.00  0.00    -0.280 N 
ATOM     88  H   UNL A   1      32.178  25.316  24.659  1.00  0.00     0.180 HD
BRANCH  87  89
ATOM     89  S   UNL A   1      31.221  23.249  24.483  1.00  0.00     0.261 S 
ATOM     90  O   UNL A   1      30.585  22.992  25.769  1.00  0.00    -0.201 OA
ATOM     91  O   UNL A   1      30.473  23.721  23.353  1.00  0.00    -0.201 OA
BRANCH  89  92
ATOM     92  C   UNL A   1      31.994  21.724  23.988  1.00  0.00     0.088 A 
ATOM     93  C   UNL A   1      31.915  21.393  22.621  1.00  0.00     0.022 A 
ATOM     94  C   UNL A   1      32.408  20.785  24.937  1.00  0.00     0.026 A 
ATOM     95  C   UNL A   1      32.163  20.087  22.197  1.00  0.00     0.005 A 
ATOM     96  C   UNL A   1      32.546  19.475  24.513  1.00  0.00    -0.043 A 
ATOM     97  C   UNL A   1      32.432  19.132  23.163  1.00  0.00    -0.045 A 
ATOM     98  C   UNL A   1      32.611  18.250  25.371  1.00  0.00     0.036 C 
ATOM     99  C   UNL A   1      32.500  17.649  22.977  1.00  0.00     0.036 C 
ATOM    100  C   UNL A   1      33.000  17.176  24.350  1.00  0.00     0.010 C 
ENDBRANCH  89  92
ENDBRANCH  87  89
ENDBRANCH  86  87
ENDBRANCH  78  80
ENDBRANCH  77  78
ENDBRANCH  76  77
ENDBRANCH  75  76
ENDBRANCH  74  75
ENDBRANCH   1  74
TORSDOF 20
ENDMDL
MODEL 3
REMARK VINA RESULT:     -11.4      1.977      7.571
REMARK SMILES O=C(OCCOCCOCCOC(=O)c1ccc(NS(=O)(=O)c2ccc3c(c2)CCC3)cc1Cl)c1ccc(-c2c3nc(c(-c4c(F)c(F)c(F)c(F)c4F)c4ccc([nH]4)c(-c4c(F)c(F)c(F)c(F)c4F)c4nc(c(-c5c(F)c(F)c(F)c(F)c5F)c5ccc2[nH]5)C=C4)C=C3)cc1
REMARK SMILES IDX 8 1 7 2 6 3 5 4 4 5 3 6 2 7 1 8 35 9 36 10 97 11 37 12 96 13
REMARK SMILES IDX 38 14 39 15 40 16 90 17 41 18 95 19 89 20 91 21 42 22 94 23
REMARK SMILES IDX 88 24 87 25 43 27 75 28 55 29 74 30 56 31 59 32 73 33 92 34
REMARK SMILES IDX 57 35 58 36 72 38 93 39 60 40 44 41 45 42 53 43 46 44 47 45
REMARK SMILES IDX 51 46 54 47 48 48 49 49 52 50 50 51 76 52 77 53 85 54 78 55
REMARK SMILES IDX 79 56 83 57 86 58 80 59 81 60 84 61 82 62 61 63 62 64 70 65
REMARK SMILES IDX 63 66 64 67 68 68 71 69 65 70 66 71 69 72 67 73 9 74 10 75
REMARK SMILES IDX 11 76 12 77 13 78 14 79 15 80 16 81 33 82 17 83 32 84 34 85
REMARK SMILES IDX 18 86 19 87 20 89 21 90 22 91 23 92 24 93 28 94 25 95 27 96
REMARK SMILES IDX 26 97 29 98 31 99 30 100
REMARK H PARENT 91 26 59 37 19 88
REMARK Flexibility Score: inf
ROOT
ATOM      1  C   UNL A   1      44.283  18.880  24.806  1.00  0.00     0.188 C 
ENDROOT
BRANCH   1   2
ATOM      2  C   UNL A   1      44.587  20.363  24.568  1.00  0.00     0.188 C 
BRANCH   2   3
ATOM      3  O   UNL A   1      45.997  20.592  24.425  1.00  0.00    -0.376 OA
BRANCH   3   4
ATOM      4  C   UNL A   1      46.368  21.973  24.543  1.00  0.00     0.202 C 
BRANCH   4   5
ATOM      5  C   UNL A   1      45.189  22.951  24.575  1.00  0.00     0.261 C 
BRANCH   5   6
ATOM      6  O   UNL A   1      45.311  23.922  25.623  1.00  0.00    -0.460 OA
BRANCH   6   7
ATOM      7  C   UNL A   1      45.133  25.264  25.556  1.00  0.00     0.338 C 
ATOM      8  O   UNL A   1      45.681  25.864  24.632  1.00  0.00    -0.246 OA
BRANCH   7   9
ATOM      9  C   UNL A   1      44.316  26.074  26.523  1.00  0.00     0.060 A 
ATOM     10  C   UNL A   1      44.512  27.418  26.855  1.00  0.00     0.016 A 
ATOM     11  C   UNL A   1      43.235  25.412  27.134  1.00  0.00     0.016 A 
ATOM     12  C   UNL A   1      43.749  28.055  27.831  1.00  0.00     0.010 A 
ATOM     13  C   UNL A   1      42.436  26.054  28.086  1.00  0.00     0.010 A 
ATOM     14  C   UNL A   1      42.729  27.367  28.474  1.00  0.00    -0.014 A 
BRANCH  14  15
ATOM     15  C   UNL A   1      42.113  27.942  29.684  1.00  0.00     0.031 A 
ATOM     16  C   UNL A   1      40.857  28.735  29.513  1.00  0.00     0.074 A 
ATOM     17  C   UNL A   1      42.610  27.711  30.909  1.00  0.00     0.049 A 
ATOM     18  N   UNL A   1      40.194  29.443  30.384  1.00  0.00    -0.248 NA
ATOM     19  C   UNL A   1      40.234  28.679  28.179  1.00  0.00     0.031 C 
ATOM     20  C   UNL A   1      43.691  26.785  31.216  1.00  0.00     0.029 A 
ATOM     21  N   UNL A   1      42.298  28.271  32.120  1.00  0.00    -0.354 N 
ATOM     22  C   UNL A   1      39.073  29.902  29.713  1.00  0.00     0.074 A 
ATOM     23  C   UNL A   1      39.160  29.432  28.350  1.00  0.00     0.031 C 
ATOM     24  C   UNL A   1      44.059  26.942  32.497  1.00  0.00     0.029 A 
ATOM     25  C   UNL A   1      43.233  27.986  33.086  1.00  0.00     0.049 A 
ATOM     26  H   UNL A   1      41.495  28.818  32.280  1.00  0.00     0.167 HD
ATOM     27  C   UNL A   1      38.053  30.638  30.210  1.00  0.00     0.037 A 
ATOM     28  C   UNL A   1      43.430  28.555  34.289  1.00  0.00     0.037 A 
ATOM     29  C   UNL A   1      38.017  31.115  31.564  1.00  0.00     0.049 A 
ATOM     30  C   UNL A   1      42.418  29.552  34.766  1.00  0.00     0.074 A 
ATOM     31  C   UNL A   1      37.061  31.893  32.185  1.00  0.00     0.029 A 
ATOM     32  N   UNL A   1      39.013  30.871  32.503  1.00  0.00    -0.354 N 
ATOM     33  N   UNL A   1      41.356  30.003  34.139  1.00  0.00    -0.248 NA
ATOM     34  C   UNL A   1      42.591  30.087  36.120  1.00  0.00     0.031 C 
ATOM     35  C   UNL A   1      37.505  32.165  33.485  1.00  0.00     0.029 A 
ATOM     36  C   UNL A   1      38.712  31.511  33.692  1.00  0.00     0.049 A 
ATOM     37  H   UNL A   1      39.816  30.322  32.345  1.00  0.00     0.167 HD
ATOM     38  C   UNL A   1      40.700  30.825  35.038  1.00  0.00     0.074 A 
ATOM     39  C   UNL A   1      41.500  30.836  36.248  1.00  0.00     0.031 C 
ATOM     40  C   UNL A   1      39.524  31.484  34.885  1.00  0.00     0.037 A 
BRANCH  27  41
ATOM     41  C   UNL A   1      36.959  30.999  29.251  1.00  0.00     0.064 A 
ATOM     42  C   UNL A   1      36.791  32.313  28.782  1.00  0.00     0.173 A 
ATOM     43  C   UNL A   1      36.019  30.037  28.860  1.00  0.00     0.173 A 
ATOM     44  F   UNL A   1      37.646  33.278  29.153  1.00  0.00    -0.203 F 
ATOM     45  C   UNL A   1      35.694  32.657  27.996  1.00  0.00     0.198 A 
ATOM     46  C   UNL A   1      34.938  30.378  28.050  1.00  0.00     0.198 A 
ATOM     47  F   UNL A   1      36.128  28.770  29.287  1.00  0.00    -0.203 F 
ATOM     48  F   UNL A   1      35.509  33.932  27.626  1.00  0.00    -0.200 F 
ATOM     49  C   UNL A   1      34.769  31.690  27.631  1.00  0.00     0.200 A 
ATOM     50  F   UNL A   1      34.045  29.444  27.698  1.00  0.00    -0.200 F 
ATOM     51  F   UNL A   1      33.702  32.026  26.895  1.00  0.00    -0.200 F 
ENDBRANCH  27  41
BRANCH  28  52
ATOM     52  C   UNL A   1      44.636  28.194  35.076  1.00  0.00     0.064 A 
ATOM     53  C   UNL A   1      45.806  28.959  35.022  1.00  0.00     0.173 A 
ATOM     54  C   UNL A   1      44.615  27.099  35.958  1.00  0.00     0.173 A 
ATOM     55  F   UNL A   1      45.876  30.015  34.198  1.00  0.00    -0.203 F 
ATOM     56  C   UNL A   1      46.913  28.641  35.810  1.00  0.00     0.198 A 
ATOM     57  C   UNL A   1      45.711  26.794  36.760  1.00  0.00     0.198 A 
ATOM     58  F   UNL A   1      43.513  26.344  36.071  1.00  0.00    -0.203 F 
ATOM     59  F   UNL A   1      48.024  29.383  35.731  1.00  0.00    -0.200 F 
ATOM     60  C   UNL A   1      46.863  27.562  36.681  1.00  0.00     0.200 A 
ATOM     61  F   UNL A   1      45.641  25.774  37.626  1.00  0.00    -0.200 F 
ATOM     62  F   UNL A   1      47.918  27.269  37.453  1.00  0.00    -0.200 F 
ENDBRANCH  28  52
BRANCH  40  63
ATOM     63  C   UNL A   1      38.992  32.212  36.078  1.00  0.00     0.064 A 
ATOM     64  C   UNL A   1      38.177  31.582  37.025  1.00  0.00     0.173 A 
ATOM     65  C   UNL A   1      39.382  33.540  36.314  1.00  0.00     0.173 A 
ATOM     66  F   UNL A   1      37.767  30.319  36.830  1.00  0.00    -0.203 F 
ATOM     67  C   UNL A   1      37.765  32.258  38.169  1.00  0.00     0.198 A 
ATOM     68  C   UNL A   1      38.991  34.203  37.470  1.00  0.00     0.198 A 
ATOM     69  F   UNL A   1      40.166  34.181  35.433  1.00  0.00    -0.203 F 
ATOM     70  F   UNL A   1      36.963  31.648  39.053  1.00  0.00    -0.200 F 
ATOM     71  C   UNL A   1      38.181  33.562  38.396  1.00  0.00     0.200 A 
ATOM     72  F   UNL A   1      39.406  35.457  37.694  1.00  0.00    -0.200 F 
ATOM     73  F   UNL A   1      37.802  34.203  39.510  1.00  0.00    -0.200 F 
ENDBRANCH  40  63
ENDBRANCH  14  15
ENDBRANCH   7   9
ENDBRANCH   6   7
ENDBRANCH   5   6
ENDBRANCH   4   5
ENDBRANCH   3   4
ENDBRANCH   2   3
ENDBRANCH   1   2
BRANCH   1  74
ATOM     74  O   UNL A   1      43.672  18.570  26.058  1.00  0.00    -0.376 OA
BRANCH  74  75
ATOM     75  C   UNL A   1      42.255  18.662  26.130  1.00  0.00     0.202 C 
BRANCH  75  76
ATOM     76  C   UNL A   1      41.665  19.967  26.681  1.00  0.00     0.261 C 
BRANCH  76  77
ATOM     77  O   UNL A   1      40.335  20.280  26.225  1.00  0.00    -0.460 OA
BRANCH  77  78
ATOM     78  C   UNL A   1      39.927  21.540  26.531  1.00  0.00     0.339 C 
ATOM     79  O   UNL A   1      40.537  22.348  27.213  1.00  0.00    -0.246 OA
BRANCH  78  80
ATOM     80  C   UNL A   1      38.630  21.883  25.903  1.00  0.00     0.078 A 
ATOM     81  C   UNL A   1      37.939  20.936  25.138  1.00  0.00     0.019 A 
ATOM     82  C   UNL A   1      38.180  23.207  25.907  1.00  0.00     0.057 A 
ATOM     83  C   UNL A   1      36.875  21.338  24.313  1.00  0.00     0.028 A 
ATOM     84  C   UNL A   1      37.154  23.607  25.041  1.00  0.00     0.048 A 
ATOM     85  Cl  UNL A   1      38.814  24.414  26.970  1.00  0.00    -0.083 Cl
ATOM     86  C   UNL A   1      36.520  22.685  24.205  1.00  0.00     0.050 A 
BRANCH  86  87
ATOM     87  N   UNL A   1      35.703  23.225  23.171  1.00  0.00    -0.280 N 
ATOM     88  H   UNL A   1      36.178  23.568  22.379  1.00  0.00     0.180 HD
BRANCH  87  89
ATOM     89  S   UNL A   1      34.035  23.346  23.139  1.00  0.00     0.261 S 
ATOM     90  O   UNL A   1      33.649  23.885  21.841  1.00  0.00    -0.201 OA
ATOM     91  O   UNL A   1      33.539  22.083  23.608  1.00  0.00    -0.201 OA
BRANCH  89  92
ATOM     92  C   UNL A   1      33.568  24.563  24.350  1.00  0.00     0.088 A 
ATOM     93  C   UNL A   1      32.848  24.097  25.468  1.00  0.00     0.022 A 
ATOM     94  C   UNL A   1      33.667  25.930  24.074  1.00  0.00     0.026 A 
ATOM     95  C   UNL A   1      32.140  24.989  26.273  1.00  0.00     0.005 A 
ATOM     96  C   UNL A   1      32.875  26.787  24.818  1.00  0.00    -0.043 A 
ATOM     97  C   UNL A   1      32.128  26.325  25.906  1.00  0.00    -0.045 A 
ATOM     98  C   UNL A   1      32.520  28.203  24.491  1.00  0.00     0.036 C 
ATOM     99  C   UNL A   1      31.267  27.412  26.468  1.00  0.00     0.036 C 
ATOM    100  C   UNL A   1      31.843  28.662  25.786  1.00  0.00     0.010 C 
ENDBRANCH  89  92
ENDBRANCH  87  89
ENDBRANCH  86  87
ENDBRANCH  78  80
ENDBRANCH  77  78
ENDBRANCH  76  77
ENDBRANCH  75  76
ENDBRANCH  74  75
ENDBRANCH   1  74
TORSDOF 20
ENDMDL
