MODEL 1
REMARK VINA RESULT:     -10.8      0.000      0.000
REMARK SMILES O=C(CN1C(=O)c2ccccc2[C@@H]1O)OCCOCCOCCOC(=O)c1ccc(-c2c3nc(c(-c4c(F)c(F)c(F)c(F)c4F)c4ccc([nH]4)c(-c4c(F)c(F)c(F)c(F)c4F)c4nc(c(-c5c(F)c(F)c(F)c(F)c5F)c5ccc2[nH]5)C=C4)C=C3)cc1
REMARK SMILES IDX 19 1 18 2 17 3 16 4 15 5 2 6 1 7 3 8 4 9 5 10 13 11 6 12
REMARK SMILES IDX 7 13 12 14 8 15 11 16 9 17 10 18 14 19 20 21 21 22 22 23
REMARK SMILES IDX 23 24 24 25 25 26 26 27 27 28 28 29 89 30 29 31 88 32 30 33
REMARK SMILES IDX 31 34 32 35 82 36 33 37 87 38 81 39 83 40 34 41 86 42 80 43
REMARK SMILES IDX 79 44 35 46 67 47 47 48 66 49 48 50 51 51 65 52 84 53 49 54
REMARK SMILES IDX 50 55 64 57 85 58 52 59 36 60 37 61 45 62 38 63 39 64 43 65
REMARK SMILES IDX 46 66 40 67 41 68 44 69 42 70 68 71 69 72 77 73 70 74 71 75
REMARK SMILES IDX 75 76 78 77 72 78 73 79 76 80 74 81 53 82 54 83 62 84 55 85
REMARK SMILES IDX 56 86 60 87 63 88 57 89 58 90 61 91 59 92
REMARK H PARENT 14 20 83 45 51 56
REMARK Flexibility Score: inf
ROOT
ATOM      1  C   UNL A   1      32.620  27.770  26.637  1.00  0.00     0.188 C 
ENDROOT
BRANCH   1   2
ATOM      2  O   UNL A   1      32.861  26.462  26.171  1.00  0.00    -0.376 OA
BRANCH   2   3
ATOM      3  C   UNL A   1      33.980  26.262  25.333  1.00  0.00     0.202 C 
BRANCH   3   4
ATOM      4  C   UNL A   1      34.601  24.866  25.335  1.00  0.00     0.261 C 
BRANCH   4   5
ATOM      5  O   UNL A   1      33.994  23.840  24.515  1.00  0.00    -0.462 OA
BRANCH   5   6
ATOM      6  C   UNL A   1      34.235  23.466  23.243  1.00  0.00     0.325 C 
ATOM      7  O   UNL A   1      35.380  23.131  22.927  1.00  0.00    -0.250 OA
BRANCH   6   8
ATOM      8  C   UNL A   1      33.199  23.684  22.152  1.00  0.00     0.245 C 
BRANCH   8   9
ATOM      9  N   UNL A   1      32.366  24.853  22.231  1.00  0.00    -0.298 N 
ATOM     10  C   UNL A   1      31.210  24.912  22.983  1.00  0.00     0.257 C 
ATOM     11  C   UNL A   1      32.905  26.154  21.938  1.00  0.00     0.247 C 
ATOM     12  O   UNL A   1      30.604  23.994  23.508  1.00  0.00    -0.269 OA
ATOM     13  C   UNL A   1      30.832  26.322  23.058  1.00  0.00     0.047 A 
ATOM     14  C   UNL A   1      31.817  27.059  22.401  1.00  0.00     0.014 A 
ATOM     15  C   UNL A   1      29.732  26.903  23.652  1.00  0.00     0.014 A 
ATOM     16  C   UNL A   1      31.712  28.431  22.293  1.00  0.00     0.009 A 
ATOM     17  C   UNL A   1      29.627  28.291  23.558  1.00  0.00     0.001 A 
ATOM     18  C   UNL A   1      30.603  29.045  22.876  1.00  0.00     0.001 A 
BRANCH  11  19
ATOM     19  O   UNL A   1      33.149  26.241  20.559  1.00  0.00    -0.369 OA
ATOM     20  H   UNL A   1      34.089  26.077  20.387  1.00  0.00     0.213 HD
ENDBRANCH  11  19
ENDBRANCH   8   9
ENDBRANCH   6   8
ENDBRANCH   5   6
ENDBRANCH   4   5
ENDBRANCH   3   4
ENDBRANCH   2   3
ENDBRANCH   1   2
BRANCH   1  21
ATOM     21  C   UNL A   1      33.065  28.884  25.675  1.00  0.00     0.188 C 
BRANCH  21  22
ATOM     22  O   UNL A   1      32.985  30.243  26.079  1.00  0.00    -0.376 OA
BRANCH  22  23
ATOM     23  C   UNL A   1      31.713  30.831  26.303  1.00  0.00     0.202 C 
BRANCH  23  24
ATOM     24  C   UNL A   1      31.612  32.203  27.004  1.00  0.00     0.261 C 
BRANCH  24  25
ATOM     25  O   UNL A   1      32.734  33.101  26.845  1.00  0.00    -0.460 OA
BRANCH  25  26
ATOM     26  C   UNL A   1      33.298  33.562  27.989  1.00  0.00     0.338 C 
ATOM     27  O   UNL A   1      32.798  34.332  28.794  1.00  0.00    -0.246 OA
BRANCH  26  28
ATOM     28  C   UNL A   1      34.585  32.878  28.268  1.00  0.00     0.060 A 
ATOM     29  C   UNL A   1      34.545  31.532  28.663  1.00  0.00     0.016 A 
ATOM     30  C   UNL A   1      35.807  33.553  28.234  1.00  0.00     0.016 A 
ATOM     31  C   UNL A   1      35.709  30.873  29.065  1.00  0.00     0.010 A 
ATOM     32  C   UNL A   1      36.974  32.896  28.665  1.00  0.00     0.010 A 
ATOM     33  C   UNL A   1      36.925  31.566  29.122  1.00  0.00    -0.014 A 
BRANCH  33  34
ATOM     34  C   UNL A   1      38.077  30.940  29.831  1.00  0.00     0.031 A 
ATOM     35  C   UNL A   1      38.321  31.289  31.278  1.00  0.00     0.074 A 
ATOM     36  C   UNL A   1      38.853  30.017  29.233  1.00  0.00     0.049 A 
ATOM     37  N   UNL A   1      39.244  30.853  32.100  1.00  0.00    -0.248 NA
ATOM     38  C   UNL A   1      37.393  32.260  31.882  1.00  0.00     0.031 C 
ATOM     39  C   UNL A   1      38.708  29.557  27.855  1.00  0.00     0.029 A 
ATOM     40  N   UNL A   1      39.922  29.299  29.718  1.00  0.00    -0.354 N 
ATOM     41  C   UNL A   1      39.003  31.488  33.312  1.00  0.00     0.074 A 
ATOM     42  C   UNL A   1      37.876  32.373  33.109  1.00  0.00     0.031 C 
ATOM     43  C   UNL A   1      39.660  28.641  27.599  1.00  0.00     0.029 A 
ATOM     44  C   UNL A   1      40.498  28.470  28.785  1.00  0.00     0.049 A 
ATOM     45  H   UNL A   1      40.244  29.372  30.645  1.00  0.00     0.167 HD
ATOM     46  C   UNL A   1      39.649  31.336  34.495  1.00  0.00     0.037 A 
ATOM     47  C   UNL A   1      41.588  27.681  28.873  1.00  0.00     0.037 A 
ATOM     48  C   UNL A   1      40.778  30.465  34.702  1.00  0.00     0.049 A 
ATOM     49  C   UNL A   1      42.337  27.590  30.181  1.00  0.00     0.074 A 
ATOM     50  C   UNL A   1      41.499  30.247  35.864  1.00  0.00     0.029 A 
ATOM     51  N   UNL A   1      41.354  29.670  33.724  1.00  0.00    -0.354 N 
ATOM     52  N   UNL A   1      42.088  28.175  31.327  1.00  0.00    -0.248 NA
ATOM     53  C   UNL A   1      43.519  26.714  30.207  1.00  0.00     0.031 C 
ATOM     54  C   UNL A   1      42.547  29.367  35.575  1.00  0.00     0.029 A 
ATOM     55  C   UNL A   1      42.438  28.980  34.249  1.00  0.00     0.049 A 
ATOM     56  H   UNL A   1      41.041  29.604  32.792  1.00  0.00     0.167 HD
ATOM     57  C   UNL A   1      43.058  27.720  32.211  1.00  0.00     0.074 A 
ATOM     58  C   UNL A   1      43.882  26.783  31.479  1.00  0.00     0.031 C 
ATOM     59  C   UNL A   1      43.255  28.051  33.512  1.00  0.00     0.037 A 
BRANCH  46  60
ATOM     60  C   UNL A   1      39.161  32.143  35.665  1.00  0.00     0.064 A 
ATOM     61  C   UNL A   1      38.280  31.603  36.615  1.00  0.00     0.173 A 
ATOM     62  C   UNL A   1      39.624  33.452  35.872  1.00  0.00     0.173 A 
ATOM     63  F   UNL A   1      37.797  30.361  36.460  1.00  0.00    -0.203 F 
ATOM     64  C   UNL A   1      37.867  32.349  37.716  1.00  0.00     0.198 A 
ATOM     65  C   UNL A   1      39.235  34.183  36.991  1.00  0.00     0.198 A 
ATOM     66  F   UNL A   1      40.472  34.015  34.999  1.00  0.00    -0.203 F 
ATOM     67  F   UNL A   1      36.994  31.827  38.589  1.00  0.00    -0.200 F 
ATOM     68  C   UNL A   1      38.352  33.634  37.909  1.00  0.00     0.200 A 
ATOM     69  F   UNL A   1      39.719  35.417  37.184  1.00  0.00    -0.200 F 
ATOM     70  F   UNL A   1      37.968  34.345  38.978  1.00  0.00    -0.200 F 
ENDBRANCH  46  60
BRANCH  47  71
ATOM     71  C   UNL A   1      42.067  26.927  27.680  1.00  0.00     0.064 A 
ATOM     72  C   UNL A   1      41.642  25.615  27.423  1.00  0.00     0.173 A 
ATOM     73  C   UNL A   1      43.010  27.486  26.805  1.00  0.00     0.173 A 
ATOM     74  F   UNL A   1      40.766  25.020  28.247  1.00  0.00    -0.203 F 
ATOM     75  C   UNL A   1      42.167  24.882  26.359  1.00  0.00     0.198 A 
ATOM     76  C   UNL A   1      43.504  26.767  25.717  1.00  0.00     0.198 A 
ATOM     77  F   UNL A   1      43.457  28.734  27.005  1.00  0.00    -0.203 F 
ATOM     78  F   UNL A   1      41.797  23.607  26.181  1.00  0.00    -0.200 F 
ATOM     79  C   UNL A   1      43.092  25.461  25.503  1.00  0.00     0.200 A 
ATOM     80  F   UNL A   1      44.389  27.334  24.887  1.00  0.00    -0.200 F 
ATOM     81  F   UNL A   1      43.598  24.755  24.484  1.00  0.00    -0.200 F 
ENDBRANCH  47  71
BRANCH  59  82
ATOM     82  C   UNL A   1      44.386  27.368  34.234  1.00  0.00     0.064 A 
ATOM     83  C   UNL A   1      45.672  27.927  34.295  1.00  0.00     0.173 A 
ATOM     84  C   UNL A   1      44.182  26.135  34.875  1.00  0.00     0.173 A 
ATOM     85  F   UNL A   1      45.928  29.100  33.694  1.00  0.00    -0.203 F 
ATOM     86  C   UNL A   1      46.720  27.256  34.922  1.00  0.00     0.198 A 
ATOM     87  C   UNL A   1      45.222  25.486  35.536  1.00  0.00     0.198 A 
ATOM     88  F   UNL A   1      42.972  25.557  34.863  1.00  0.00    -0.203 F 
ATOM     89  F   UNL A   1      47.955  27.775  34.898  1.00  0.00    -0.200 F 
ATOM     90  C   UNL A   1      46.493  26.038  35.545  1.00  0.00     0.200 A 
ATOM     91  F   UNL A   1      44.996  24.318  36.154  1.00  0.00    -0.200 F 
ATOM     92  F   UNL A   1      47.502  25.391  36.143  1.00  0.00    -0.200 F 
ENDBRANCH  59  82
ENDBRANCH  33  34
ENDBRANCH  26  28
ENDBRANCH  25  26
ENDBRANCH  24  25
ENDBRANCH  23  24
ENDBRANCH  22  23
ENDBRANCH  21  22
ENDBRANCH   1  21
TORSDOF 19
ENDMDL
MODEL 2
REMARK VINA RESULT:     -10.4      4.160      9.683
REMARK SMILES O=C(CN1C(=O)c2ccccc2[C@@H]1O)OCCOCCOCCOC(=O)c1ccc(-c2c3nc(c(-c4c(F)c(F)c(F)c(F)c4F)c4ccc([nH]4)c(-c4c(F)c(F)c(F)c(F)c4F)c4nc(c(-c5c(F)c(F)c(F)c(F)c5F)c5ccc2[nH]5)C=C4)C=C3)cc1
REMARK SMILES IDX 19 1 18 2 17 3 16 4 15 5 2 6 1 7 3 8 4 9 5 10 13 11 6 12
REMARK SMILES IDX 7 13 12 14 8 15 11 16 9 17 10 18 14 19 20 21 21 22 22 23
REMARK SMILES IDX 23 24 24 25 25 26 26 27 27 28 28 29 89 30 29 31 88 32 30 33
REMARK SMILES IDX 31 34 32 35 82 36 33 37 87 38 81 39 83 40 34 41 86 42 80 43
REMARK SMILES IDX 79 44 35 46 67 47 47 48 66 49 48 50 51 51 65 52 84 53 49 54
REMARK SMILES IDX 50 55 64 57 85 58 52 59 36 60 37 61 45 62 38 63 39 64 43 65
REMARK SMILES IDX 46 66 40 67 41 68 44 69 42 70 68 71 69 72 77 73 70 74 71 75
REMARK SMILES IDX 75 76 78 77 72 78 73 79 76 80 74 81 53 82 54 83 62 84 55 85
REMARK SMILES IDX 56 86 60 87 63 88 57 89 58 90 61 91 59 92
REMARK H PARENT 14 20 83 45 51 56
REMARK Flexibility Score: inf
ROOT
ATOM      1  C   UNL A   1      34.059  23.026  24.112  1.00  0.00     0.188 C 
ENDROOT
BRANCH   1   2
ATOM      2  O   UNL A   1      33.091  23.880  23.544  1.00  0.00    -0.376 OA
BRANCH   2   3
ATOM      3  C   UNL A   1      32.793  23.711  22.175  1.00  0.00     0.202 C 
BRANCH   3   4
ATOM      4  C   UNL A   1      32.908  24.949  21.287  1.00  0.00     0.261 C 
BRANCH   4   5
ATOM      5  O   UNL A   1      33.853  25.980  21.661  1.00  0.00    -0.462 OA
BRANCH   5   6
ATOM      6  C   UNL A   1      33.661  27.233  22.117  1.00  0.00     0.325 C 
ATOM      7  O   UNL A   1      34.363  28.144  21.669  1.00  0.00    -0.250 OA
BRANCH   6   8
ATOM      8  C   UNL A   1      32.786  27.500  23.331  1.00  0.00     0.245 C 
BRANCH   8   9
ATOM      9  N   UNL A   1      31.413  27.867  23.109  1.00  0.00    -0.298 N 
ATOM     10  C   UNL A   1      30.349  27.039  23.403  1.00  0.00     0.257 C 
ATOM     11  C   UNL A   1      31.032  29.252  23.024  1.00  0.00     0.247 C 
ATOM     12  O   UNL A   1      30.370  25.852  23.680  1.00  0.00    -0.269 OA
ATOM     13  C   UNL A   1      29.145  27.866  23.338  1.00  0.00     0.047 A 
ATOM     14  C   UNL A   1      29.546  29.175  23.072  1.00  0.00     0.014 A 
ATOM     15  C   UNL A   1      27.825  27.506  23.504  1.00  0.00     0.014 A 
ATOM     16  C   UNL A   1      28.612  30.181  22.933  1.00  0.00     0.009 A 
ATOM     17  C   UNL A   1      26.876  28.520  23.378  1.00  0.00     0.001 A 
ATOM     18  C   UNL A   1      27.266  29.842  23.085  1.00  0.00     0.001 A 
BRANCH  11  19
ATOM     19  O   UNL A   1      31.522  29.782  21.822  1.00  0.00    -0.369 OA
ATOM     20  H   UNL A   1      30.824  29.755  21.149  1.00  0.00     0.213 HD
ENDBRANCH  11  19
ENDBRANCH   8   9
ENDBRANCH   6   8
ENDBRANCH   5   6
ENDBRANCH   4   5
ENDBRANCH   3   4
ENDBRANCH   2   3
ENDBRANCH   1   2
BRANCH   1  21
ATOM     21  C   UNL A   1      35.211  23.752  24.826  1.00  0.00     0.188 C 
BRANCH  21  22
ATOM     22  O   UNL A   1      36.319  23.012  25.317  1.00  0.00    -0.376 OA
BRANCH  22  23
ATOM     23  C   UNL A   1      36.216  21.601  25.441  1.00  0.00     0.202 C 
BRANCH  23  24
ATOM     24  C   UNL A   1      37.470  20.719  25.263  1.00  0.00     0.261 C 
BRANCH  24  25
ATOM     25  O   UNL A   1      38.734  21.404  25.110  1.00  0.00    -0.460 OA
BRANCH  25  26
ATOM     26  C   UNL A   1      39.627  21.247  26.119  1.00  0.00     0.338 C 
ATOM     27  O   UNL A   1      40.237  20.230  26.404  1.00  0.00    -0.246 OA
BRANCH  26  28
ATOM     28  C   UNL A   1      39.931  22.543  26.775  1.00  0.00     0.060 A 
ATOM     29  C   UNL A   1      39.506  23.720  26.140  1.00  0.00     0.016 A 
ATOM     30  C   UNL A   1      40.693  22.622  27.942  1.00  0.00     0.016 A 
ATOM     31  C   UNL A   1      39.876  24.971  26.639  1.00  0.00     0.010 A 
ATOM     32  C   UNL A   1      41.087  23.883  28.428  1.00  0.00     0.010 A 
ATOM     33  C   UNL A   1      40.715  25.063  27.756  1.00  0.00    -0.014 A 
BRANCH  33  34
ATOM     34  C   UNL A   1      41.335  26.378  28.085  1.00  0.00     0.031 A 
ATOM     35  C   UNL A   1      42.747  26.653  27.633  1.00  0.00     0.074 A 
ATOM     36  C   UNL A   1      40.637  27.348  28.706  1.00  0.00     0.049 A 
ATOM     37  N   UNL A   1      43.479  27.730  27.785  1.00  0.00    -0.248 NA
ATOM     38  C   UNL A   1      43.424  25.567  26.906  1.00  0.00     0.031 C 
ATOM     39  C   UNL A   1      39.255  27.233  29.163  1.00  0.00     0.029 A 
ATOM     40  N   UNL A   1      41.004  28.626  29.057  1.00  0.00    -0.354 N 
ATOM     41  C   UNL A   1      44.693  27.452  27.169  1.00  0.00     0.074 A 
ATOM     42  C   UNL A   1      44.618  26.093  26.680  1.00  0.00     0.031 C 
ATOM     43  C   UNL A   1      38.891  28.390  29.745  1.00  0.00     0.029 A 
ATOM     44  C   UNL A   1      40.022  29.317  29.726  1.00  0.00     0.049 A 
ATOM     45  H   UNL A   1      41.885  29.010  28.848  1.00  0.00     0.167 HD
ATOM     46  C   UNL A   1      45.769  28.262  27.008  1.00  0.00     0.037 A 
ATOM     47  C   UNL A   1      40.042  30.548  30.278  1.00  0.00     0.037 A 
ATOM     48  C   UNL A   1      45.855  29.613  27.501  1.00  0.00     0.049 A 
ATOM     49  C   UNL A   1      41.282  31.400  30.152  1.00  0.00     0.074 A 
ATOM     50  C   UNL A   1      46.906  30.509  27.388  1.00  0.00     0.029 A 
ATOM     51  N   UNL A   1      44.855  30.264  28.206  1.00  0.00    -0.354 N 
ATOM     52  N   UNL A   1      42.415  31.138  29.548  1.00  0.00    -0.248 NA
ATOM     53  C   UNL A   1      41.238  32.729  30.780  1.00  0.00     0.031 C 
ATOM     54  C   UNL A   1      46.564  31.678  28.075  1.00  0.00     0.029 A 
ATOM     55  C   UNL A   1      45.273  31.540  28.557  1.00  0.00     0.049 A 
ATOM     56  H   UNL A   1      43.976  29.877  28.426  1.00  0.00     0.167 HD
ATOM     57  C   UNL A   1      43.203  32.273  29.698  1.00  0.00     0.074 A 
ATOM     58  C   UNL A   1      42.406  33.240  30.422  1.00  0.00     0.031 C 
ATOM     59  C   UNL A   1      44.475  32.495  29.280  1.00  0.00     0.037 A 
BRANCH  46  60
ATOM     60  C   UNL A   1      46.958  27.704  26.275  1.00  0.00     0.064 A 
ATOM     61  C   UNL A   1      47.033  27.723  24.874  1.00  0.00     0.173 A 
ATOM     62  C   UNL A   1      48.060  27.200  26.983  1.00  0.00     0.173 A 
ATOM     63  F   UNL A   1      46.004  28.183  24.148  1.00  0.00    -0.203 F 
ATOM     64  C   UNL A   1      48.158  27.238  24.210  1.00  0.00     0.198 A 
ATOM     65  C   UNL A   1      49.196  26.748  26.317  1.00  0.00     0.198 A 
ATOM     66  F   UNL A   1      48.043  27.166  28.325  1.00  0.00    -0.203 F 
ATOM     67  F   UNL A   1      48.191  27.229  22.870  1.00  0.00    -0.200 F 
ATOM     68  C   UNL A   1      49.242  26.762  24.932  1.00  0.00     0.200 A 
ATOM     69  F   UNL A   1      50.248  26.305  27.018  1.00  0.00    -0.200 F 
ATOM     70  F   UNL A   1      50.331  26.313  24.292  1.00  0.00    -0.200 F 
ENDBRANCH  46  60
BRANCH  47  71
ATOM     71  C   UNL A   1      38.859  31.051  31.033  1.00  0.00     0.064 A 
ATOM     72  C   UNL A   1      37.830  31.759  30.394  1.00  0.00     0.173 A 
ATOM     73  C   UNL A   1      38.766  30.885  32.423  1.00  0.00     0.173 A 
ATOM     74  F   UNL A   1      37.885  31.974  29.072  1.00  0.00    -0.203 F 
ATOM     75  C   UNL A   1      36.774  32.309  31.121  1.00  0.00     0.198 A 
ATOM     76  C   UNL A   1      37.690  31.400  33.143  1.00  0.00     0.198 A 
ATOM     77  F   UNL A   1      39.724  30.223  33.087  1.00  0.00    -0.203 F 
ATOM     78  F   UNL A   1      35.844  33.042  30.495  1.00  0.00    -0.200 F 
ATOM     79  C   UNL A   1      36.702  32.123  32.494  1.00  0.00     0.200 A 
ATOM     80  F   UNL A   1      37.619  31.209  34.467  1.00  0.00    -0.200 F 
ATOM     81  F   UNL A   1      35.690  32.655  33.191  1.00  0.00    -0.200 F 
ENDBRANCH  47  71
BRANCH  59  82
ATOM     82  C   UNL A   1      45.068  33.849  29.567  1.00  0.00     0.064 A 
ATOM     83  C   UNL A   1      45.793  34.106  30.741  1.00  0.00     0.173 A 
ATOM     84  C   UNL A   1      44.911  34.905  28.655  1.00  0.00     0.173 A 
ATOM     85  F   UNL A   1      45.969  33.137  31.653  1.00  0.00    -0.203 F 
ATOM     86  C   UNL A   1      46.290  35.379  31.016  1.00  0.00     0.198 A 
ATOM     87  C   UNL A   1      45.443  36.165  28.913  1.00  0.00     0.198 A 
ATOM     88  F   UNL A   1      44.239  34.716  27.510  1.00  0.00    -0.203 F 
ATOM     89  F   UNL A   1      46.910  35.617  32.179  1.00  0.00    -0.200 F 
ATOM     90  C   UNL A   1      46.118  36.406  30.100  1.00  0.00     0.200 A 
ATOM     91  F   UNL A   1      45.293  37.151  28.018  1.00  0.00    -0.200 F 
ATOM     92  F   UNL A   1      46.592  37.630  30.367  1.00  0.00    -0.200 F 
ENDBRANCH  59  82
ENDBRANCH  33  34
ENDBRANCH  26  28
ENDBRANCH  25  26
ENDBRANCH  24  25
ENDBRANCH  23  24
ENDBRANCH  22  23
ENDBRANCH  21  22
ENDBRANCH   1  21
TORSDOF 19
ENDMDL
MODEL 3
REMARK VINA RESULT:     -10.4      1.738      3.126
REMARK SMILES O=C(CN1C(=O)c2ccccc2[C@@H]1O)OCCOCCOCCOC(=O)c1ccc(-c2c3nc(c(-c4c(F)c(F)c(F)c(F)c4F)c4ccc([nH]4)c(-c4c(F)c(F)c(F)c(F)c4F)c4nc(c(-c5c(F)c(F)c(F)c(F)c5F)c5ccc2[nH]5)C=C4)C=C3)cc1
REMARK SMILES IDX 19 1 18 2 17 3 16 4 15 5 2 6 1 7 3 8 4 9 5 10 13 11 6 12
REMARK SMILES IDX 7 13 12 14 8 15 11 16 9 17 10 18 14 19 20 21 21 22 22 23
REMARK SMILES IDX 23 24 24 25 25 26 26 27 27 28 28 29 89 30 29 31 88 32 30 33
REMARK SMILES IDX 31 34 32 35 82 36 33 37 87 38 81 39 83 40 34 41 86 42 80 43
REMARK SMILES IDX 79 44 35 46 67 47 47 48 66 49 48 50 51 51 65 52 84 53 49 54
REMARK SMILES IDX 50 55 64 57 85 58 52 59 36 60 37 61 45 62 38 63 39 64 43 65
REMARK SMILES IDX 46 66 40 67 41 68 44 69 42 70 68 71 69 72 77 73 70 74 71 75
REMARK SMILES IDX 75 76 78 77 72 78 73 79 76 80 74 81 53 82 54 83 62 84 55 85
REMARK SMILES IDX 56 86 60 87 63 88 57 89 58 90 61 91 59 92
REMARK H PARENT 14 20 83 45 51 56
REMARK Flexibility Score: inf
ROOT
ATOM      1  C   UNL A   1      31.817  28.794  26.710  1.00  0.00     0.188 C 
ENDROOT
BRANCH   1   2
ATOM      2  O   UNL A   1      32.869  27.940  27.100  1.00  0.00    -0.376 OA
BRANCH   2   3
ATOM      3  C   UNL A   1      33.693  27.411  26.083  1.00  0.00     0.202 C 
BRANCH   3   4
ATOM      4  C   UNL A   1      33.591  25.908  25.827  1.00  0.00     0.261 C 
BRANCH   4   5
ATOM      5  O   UNL A   1      32.528  25.425  24.974  1.00  0.00    -0.462 OA
BRANCH   5   6
ATOM      6  C   UNL A   1      31.188  25.475  25.113  1.00  0.00     0.325 C 
ATOM      7  O   UNL A   1      30.705  25.414  26.247  1.00  0.00    -0.250 OA
BRANCH   6   8
ATOM      8  C   UNL A   1      30.270  25.356  23.908  1.00  0.00     0.245 C 
BRANCH   8   9
ATOM      9  N   UNL A   1      29.738  26.564  23.338  1.00  0.00    -0.298 N 
ATOM     10  C   UNL A   1      28.489  27.063  23.645  1.00  0.00     0.257 C 
ATOM     11  C   UNL A   1      30.620  27.566  22.801  1.00  0.00     0.247 C 
ATOM     12  O   UNL A   1      27.580  26.509  24.240  1.00  0.00    -0.269 OA
ATOM     13  C   UNL A   1      28.445  28.429  23.126  1.00  0.00     0.047 A 
ATOM     14  C   UNL A   1      29.699  28.716  22.587  1.00  0.00     0.014 A 
ATOM     15  C   UNL A   1      27.406  29.336  23.133  1.00  0.00     0.014 A 
ATOM     16  C   UNL A   1      29.946  29.940  21.999  1.00  0.00     0.009 A 
ATOM     17  C   UNL A   1      27.654  30.579  22.553  1.00  0.00     0.001 A 
ATOM     18  C   UNL A   1      28.908  30.874  21.983  1.00  0.00     0.001 A 
BRANCH  11  19
ATOM     19  O   UNL A   1      31.186  27.081  21.613  1.00  0.00    -0.369 OA
ATOM     20  H   UNL A   1      30.628  27.334  20.862  1.00  0.00     0.213 HD
ENDBRANCH  11  19
ENDBRANCH   8   9
ENDBRANCH   6   8
ENDBRANCH   5   6
ENDBRANCH   4   5
ENDBRANCH   3   4
ENDBRANCH   2   3
ENDBRANCH   1   2
BRANCH   1  21
ATOM     21  C   UNL A   1      32.151  30.293  26.780  1.00  0.00     0.188 C 
BRANCH  21  22
ATOM     22  O   UNL A   1      33.182  30.750  27.642  1.00  0.00    -0.376 OA
BRANCH  22  23
ATOM     23  C   UNL A   1      33.683  32.070  27.495  1.00  0.00     0.202 C 
BRANCH  23  24
ATOM     24  C   UNL A   1      32.705  33.246  27.295  1.00  0.00     0.261 C 
BRANCH  24  25
ATOM     25  O   UNL A   1      32.250  33.926  28.487  1.00  0.00    -0.460 OA
BRANCH  25  26
ATOM     26  C   UNL A   1      32.982  34.997  28.883  1.00  0.00     0.338 C 
ATOM     27  O   UNL A   1      32.690  36.174  28.748  1.00  0.00    -0.246 OA
BRANCH  26  28
ATOM     28  C   UNL A   1      34.158  34.577  29.686  1.00  0.00     0.060 A 
ATOM     29  C   UNL A   1      35.424  34.650  29.087  1.00  0.00     0.016 A 
ATOM     30  C   UNL A   1      34.027  34.039  30.968  1.00  0.00     0.016 A 
ATOM     31  C   UNL A   1      36.551  34.147  29.743  1.00  0.00     0.010 A 
ATOM     32  C   UNL A   1      35.158  33.509  31.615  1.00  0.00     0.010 A 
ATOM     33  C   UNL A   1      36.419  33.523  30.989  1.00  0.00    -0.014 A 
BRANCH  33  34
ATOM     34  C   UNL A   1      37.566  32.736  31.526  1.00  0.00     0.031 A 
ATOM     35  C   UNL A   1      38.087  33.053  32.905  1.00  0.00     0.074 A 
ATOM     36  C   UNL A   1      38.091  31.703  30.841  1.00  0.00     0.049 A 
ATOM     37  N   UNL A   1      39.056  32.488  33.583  1.00  0.00    -0.248 NA
ATOM     38  C   UNL A   1      37.421  34.155  33.618  1.00  0.00     0.031 C 
ATOM     39  C   UNL A   1      37.660  31.261  29.517  1.00  0.00     0.029 A 
ATOM     40  N   UNL A   1      39.107  30.836  31.171  1.00  0.00    -0.354 N 
ATOM     41  C   UNL A   1      39.109  33.160  34.799  1.00  0.00     0.074 A 
ATOM     42  C   UNL A   1      38.107  34.202  34.750  1.00  0.00     0.031 C 
ATOM     43  C   UNL A   1      38.413  30.212  29.141  1.00  0.00     0.029 A 
ATOM     44  C   UNL A   1      39.397  29.924  30.185  1.00  0.00     0.049 A 
ATOM     45  H   UNL A   1      39.581  30.865  32.033  1.00  0.00     0.167 HD
ATOM     46  C   UNL A   1      39.908  32.919  35.868  1.00  0.00     0.037 A 
ATOM     47  C   UNL A   1      40.359  28.981  30.123  1.00  0.00     0.037 A 
ATOM     48  C   UNL A   1      40.915  31.890  35.920  1.00  0.00     0.049 A 
ATOM     49  C   UNL A   1      41.287  28.786  31.298  1.00  0.00     0.074 A 
ATOM     50  C   UNL A   1      41.773  31.574  36.960  1.00  0.00     0.029 A 
ATOM     51  N   UNL A   1      41.203  31.012  34.887  1.00  0.00    -0.354 N 
ATOM     52  N   UNL A   1      41.314  29.410  32.451  1.00  0.00    -0.248 NA
ATOM     53  C   UNL A   1      42.316  27.744  31.164  1.00  0.00     0.031 C 
ATOM     54  C   UNL A   1      42.620  30.545  36.535  1.00  0.00     0.029 A 
ATOM     55  C   UNL A   1      42.244  30.171  35.256  1.00  0.00     0.049 A 
ATOM     56  H   UNL A   1      40.738  30.988  34.019  1.00  0.00     0.167 HD
ATOM     57  C   UNL A   1      42.336  28.819  33.184  1.00  0.00     0.074 A 
ATOM     58  C   UNL A   1      42.885  27.765  32.359  1.00  0.00     0.031 C 
ATOM     59  C   UNL A   1      42.786  29.126  34.427  1.00  0.00     0.037 A 
BRANCH  46  60
ATOM     60  C   UNL A   1      39.738  33.798  37.076  1.00  0.00     0.064 A 
ATOM     61  C   UNL A   1      40.353  35.057  37.162  1.00  0.00     0.173 A 
ATOM     62  C   UNL A   1      38.905  33.404  38.134  1.00  0.00     0.173 A 
ATOM     63  F   UNL A   1      41.169  35.479  36.184  1.00  0.00    -0.203 F 
ATOM     64  C   UNL A   1      40.155  35.878  38.270  1.00  0.00     0.198 A 
ATOM     65  C   UNL A   1      38.683  34.241  39.224  1.00  0.00     0.198 A 
ATOM     66  F   UNL A   1      38.287  32.213  38.100  1.00  0.00    -0.203 F 
ATOM     67  F   UNL A   1      40.784  37.059  38.348  1.00  0.00    -0.200 F 
ATOM     68  C   UNL A   1      39.313  35.474  39.295  1.00  0.00     0.200 A 
ATOM     69  F   UNL A   1      37.855  33.856  40.205  1.00  0.00    -0.200 F 
ATOM     70  F   UNL A   1      39.109  36.272  40.351  1.00  0.00    -0.200 F 
ENDBRANCH  46  60
BRANCH  47  71
ATOM     71  C   UNL A   1      40.524  28.156  28.893  1.00  0.00     0.064 A 
ATOM     72  C   UNL A   1      41.336  28.580  27.830  1.00  0.00     0.173 A 
ATOM     73  C   UNL A   1      39.821  26.953  28.731  1.00  0.00     0.173 A 
ATOM     74  F   UNL A   1      42.006  29.739  27.919  1.00  0.00    -0.203 F 
ATOM     75  C   UNL A   1      41.412  27.851  26.644  1.00  0.00     0.198 A 
ATOM     76  C   UNL A   1      39.928  26.204  27.561  1.00  0.00     0.198 A 
ATOM     77  F   UNL A   1      39.024  26.503  29.711  1.00  0.00    -0.203 F 
ATOM     78  F   UNL A   1      42.138  28.317  25.619  1.00  0.00    -0.200 F 
ATOM     79  C   UNL A   1      40.712  26.660  26.513  1.00  0.00     0.200 A 
ATOM     80  F   UNL A   1      39.260  25.049  27.443  1.00  0.00    -0.200 F 
ATOM     81  F   UNL A   1      40.782  25.962  25.372  1.00  0.00    -0.200 F 
ENDBRANCH  47  71
BRANCH  59  82
ATOM     82  C   UNL A   1      43.906  28.285  34.981  1.00  0.00     0.064 A 
ATOM     83  C   UNL A   1      43.660  27.114  35.716  1.00  0.00     0.173 A 
ATOM     84  C   UNL A   1      45.245  28.654  34.774  1.00  0.00     0.173 A 
ATOM     85  F   UNL A   1      42.400  26.716  35.952  1.00  0.00    -0.203 F 
ATOM     86  C   UNL A   1      44.707  26.377  36.266  1.00  0.00     0.198 A 
ATOM     87  C   UNL A   1      46.291  27.893  35.290  1.00  0.00     0.198 A 
ATOM     88  F   UNL A   1      45.542  29.755  34.069  1.00  0.00    -0.203 F 
ATOM     89  F   UNL A   1      44.443  25.307  37.028  1.00  0.00    -0.200 F 
ATOM     90  C   UNL A   1      46.021  26.765  36.049  1.00  0.00     0.200 A 
ATOM     91  F   UNL A   1      47.559  28.259  35.064  1.00  0.00    -0.200 F 
ATOM     92  F   UNL A   1      47.026  26.058  36.583  1.00  0.00    -0.200 F 
ENDBRANCH  59  82
ENDBRANCH  33  34
ENDBRANCH  26  28
ENDBRANCH  25  26
ENDBRANCH  24  25
ENDBRANCH  23  24
ENDBRANCH  22  23
ENDBRANCH  21  22
ENDBRANCH   1  21
TORSDOF 19
ENDMDL
