MODEL 1
REMARK VINA RESULT:     -10.7      0.000      0.000
REMARK SMILES O=C(C[C@@H]1CSCC[NH2+]1)NC[C@H]1CC[C@@H](C(=O)OCCOCCOCCOC(=O)c2ccc(-c3c4nc(c(-c5c(F)c(F)c(F)c(F)c5F)c5ccc([nH]5)c(-c5c(F)c(F)c(F)c(F)c5F)c5nc(c(-c6c(F)c(F)c(F)c(F)c6F)c6ccc3[nH]6)C=C5)C=C4)cc2)O1
REMARK SMILES IDX 22 1 21 2 20 3 19 4 18 5 16 6 17 7 15 8 12 9 13 10 93 11
REMARK SMILES IDX 14 12 11 13 10 14 1 15 2 16 3 18 4 19 5 20 9 21 6 22 8 23
REMARK SMILES IDX 7 26 23 27 24 28 25 29 26 30 27 31 28 32 29 33 30 34 31 35
REMARK SMILES IDX 92 36 32 37 91 38 33 39 34 40 35 41 85 42 36 43 90 44 84 45
REMARK SMILES IDX 86 46 37 47 89 48 83 49 82 50 38 52 70 53 50 54 69 55 51 56
REMARK SMILES IDX 54 57 68 58 87 59 52 60 53 61 67 63 88 64 55 65 39 66 40 67
REMARK SMILES IDX 48 68 41 69 42 70 46 71 49 72 43 73 44 74 47 75 45 76 71 77
REMARK SMILES IDX 72 78 80 79 73 80 74 81 78 82 81 83 75 84 76 85 79 86 77 87
REMARK SMILES IDX 56 88 57 89 65 90 58 91 59 92 63 93 66 94 60 95 61 96 64 97
REMARK SMILES IDX 62 98
REMARK H PARENT 10 17 9 24 9 25 86 51 54 62
REMARK Flexibility Score: inf
ROOT
ATOM      1  C   UNL A   1      34.119  28.893  26.710  1.00  0.00     0.188 C 
ENDROOT
BRANCH   1   2
ATOM      2  O   UNL A   1      33.182  27.914  26.279  1.00  0.00    -0.376 OA
BRANCH   2   3
ATOM      3  C   UNL A   1      33.620  26.588  26.004  1.00  0.00     0.202 C 
BRANCH   3   4
ATOM      4  C   UNL A   1      33.985  26.175  24.568  1.00  0.00     0.261 C 
BRANCH   4   5
ATOM      5  O   UNL A   1      33.528  27.089  23.565  1.00  0.00    -0.461 OA
BRANCH   5   6
ATOM      6  C   UNL A   1      33.003  26.553  22.430  1.00  0.00     0.335 C 
ATOM      7  O   UNL A   1      33.609  25.848  21.633  1.00  0.00    -0.249 OA
BRANCH   6   8
ATOM      8  C   UNL A   1      31.499  26.849  22.318  1.00  0.00     0.228 C 
ATOM      9  C   UNL A   1      29.719  26.281  23.742  1.00  0.00     0.138 C 
ATOM     10  C   UNL A   1      29.711  27.791  23.560  1.00  0.00     0.037 C 
ATOM     11  O   UNL A   1      30.639  25.802  22.770  1.00  0.00    -0.361 OA
ATOM     12  C   UNL A   1      31.110  28.097  23.084  1.00  0.00     0.047 C 
BRANCH   9  13
ATOM     13  C   UNL A   1      30.151  25.786  25.132  1.00  0.00     0.147 C 
BRANCH  13  14
ATOM     14  N   UNL A   1      30.686  24.449  25.030  1.00  0.00    -0.353 N 
ATOM     15  O   UNL A   1      31.328  24.111  27.204  1.00  0.00    -0.275 OA
ATOM     16  C   UNL A   1      31.281  23.737  26.038  1.00  0.00     0.226 C 
ATOM     17  H   UNL A   1      30.615  24.006  24.153  1.00  0.00     0.163 HD
BRANCH  16  18
ATOM     18  C   UNL A   1      31.998  22.491  25.544  1.00  0.00     0.165 C 
BRANCH  18  19
ATOM     19  C   UNL A   1      33.028  21.865  26.512  1.00  0.00     0.201 C 
ATOM     20  C   UNL A   1      34.390  22.592  26.411  1.00  0.00     0.135 C 
ATOM     21  N   UNL A   1      33.229  20.403  26.437  1.00  0.00    -0.342 N 
ATOM     22  S   UNL A   1      35.295  22.251  24.858  1.00  0.00    -0.150 SA
ATOM     23  C   UNL A   1      33.819  19.923  25.185  1.00  0.00     0.271 C 
ATOM     24  H   UNL A   1      32.322  19.952  26.553  1.00  0.00     0.346 HD
ATOM     25  H   UNL A   1      33.896  20.169  27.174  1.00  0.00     0.346 HD
ATOM     26  C   UNL A   1      35.238  20.431  24.934  1.00  0.00     0.131 C 
ENDBRANCH  18  19
ENDBRANCH  16  18
ENDBRANCH  13  14
ENDBRANCH   9  13
ENDBRANCH   6   8
ENDBRANCH   5   6
ENDBRANCH   4   5
ENDBRANCH   3   4
ENDBRANCH   2   3
ENDBRANCH   1   2
BRANCH   1  27
ATOM     27  C   UNL A   1      33.651  30.313  27.085  1.00  0.00     0.188 C 
BRANCH  27  28
ATOM     28  O   UNL A   1      32.280  30.557  26.936  1.00  0.00    -0.376 OA
BRANCH  28  29
ATOM     29  C   UNL A   1      31.819  31.891  26.843  1.00  0.00     0.202 C 
BRANCH  29  30
ATOM     30  C   UNL A   1      32.616  33.142  27.276  1.00  0.00     0.261 C 
BRANCH  30  31
ATOM     31  O   UNL A   1      32.237  33.826  28.478  1.00  0.00    -0.460 OA
BRANCH  31  32
ATOM     32  C   UNL A   1      32.972  34.912  28.821  1.00  0.00     0.338 C 
ATOM     33  O   UNL A   1      32.642  36.088  28.749  1.00  0.00    -0.246 OA
BRANCH  32  34
ATOM     34  C   UNL A   1      34.210  34.452  29.484  1.00  0.00     0.060 A 
ATOM     35  C   UNL A   1      35.442  34.598  28.830  1.00  0.00     0.016 A 
ATOM     36  C   UNL A   1      34.149  33.872  30.750  1.00  0.00     0.016 A 
ATOM     37  C   UNL A   1      36.623  34.178  29.450  1.00  0.00     0.010 A 
ATOM     38  C   UNL A   1      35.327  33.425  31.356  1.00  0.00     0.010 A 
ATOM     39  C   UNL A   1      36.570  33.566  30.709  1.00  0.00    -0.014 A 
BRANCH  39  40
ATOM     40  C   UNL A   1      37.778  32.955  31.320  1.00  0.00     0.031 A 
ATOM     41  C   UNL A   1      38.416  31.778  30.638  1.00  0.00     0.074 A 
ATOM     42  C   UNL A   1      38.262  33.398  32.495  1.00  0.00     0.049 A 
ATOM     43  N   UNL A   1      39.351  30.973  31.071  1.00  0.00    -0.248 NA
ATOM     44  C   UNL A   1      37.922  31.461  29.288  1.00  0.00     0.031 C 
ATOM     45  C   UNL A   1      37.763  34.554  33.235  1.00  0.00     0.029 A 
ATOM     46  N   UNL A   1      39.266  32.896  33.291  1.00  0.00    -0.354 N 
ATOM     47  C   UNL A   1      39.539  30.037  30.062  1.00  0.00     0.074 A 
ATOM     48  C   UNL A   1      38.621  30.372  28.995  1.00  0.00     0.031 C 
ATOM     49  C   UNL A   1      38.435  34.651  34.397  1.00  0.00     0.029 A 
ATOM     50  C   UNL A   1      39.376  33.536  34.502  1.00  0.00     0.049 A 
ATOM     51  H   UNL A   1      39.849  32.151  33.019  1.00  0.00     0.167 HD
ATOM     52  C   UNL A   1      40.394  28.989  30.036  1.00  0.00     0.037 A 
ATOM     53  C   UNL A   1      40.112  33.226  35.589  1.00  0.00     0.037 A 
ATOM     54  C   UNL A   1      41.315  28.666  31.094  1.00  0.00     0.049 A 
ATOM     55  C   UNL A   1      41.004  32.007  35.558  1.00  0.00     0.074 A 
ATOM     56  C   UNL A   1      42.262  27.657  31.132  1.00  0.00     0.029 A 
ATOM     57  N   UNL A   1      41.394  29.333  32.306  1.00  0.00    -0.354 N 
ATOM     58  N   UNL A   1      41.214  31.155  34.583  1.00  0.00    -0.248 NA
ATOM     59  C   UNL A   1      41.758  31.702  36.784  1.00  0.00     0.031 C 
ATOM     60  C   UNL A   1      42.863  27.668  32.393  1.00  0.00     0.029 A 
ATOM     61  C   UNL A   1      42.342  28.728  33.115  1.00  0.00     0.049 A 
ATOM     62  H   UNL A   1      40.855  30.120  32.555  1.00  0.00     0.167 HD
ATOM     63  C   UNL A   1      42.142  30.238  35.066  1.00  0.00     0.074 A 
ATOM     64  C   UNL A   1      42.471  30.648  36.414  1.00  0.00     0.031 C 
ATOM     65  C   UNL A   1      42.671  29.153  34.452  1.00  0.00     0.037 A 
BRANCH  52  66
ATOM     66  C   UNL A   1      40.358  28.077  28.846  1.00  0.00     0.064 A 
ATOM     67  C   UNL A   1      41.102  28.338  27.688  1.00  0.00     0.173 A 
ATOM     68  C   UNL A   1      39.634  26.875  28.906  1.00  0.00     0.173 A 
ATOM     69  F   UNL A   1      41.802  29.478  27.576  1.00  0.00    -0.203 F 
ATOM     70  C   UNL A   1      41.116  27.435  26.627  1.00  0.00     0.198 A 
ATOM     71  C   UNL A   1      39.674  25.962  27.857  1.00  0.00     0.198 A 
ATOM     72  F   UNL A   1      38.910  26.576  29.994  1.00  0.00    -0.203 F 
ATOM     73  F   UNL A   1      41.812  27.716  25.518  1.00  0.00    -0.200 F 
ATOM     74  C   UNL A   1      40.412  26.243  26.719  1.00  0.00     0.200 A 
ATOM     75  F   UNL A   1      39.006  24.804  27.955  1.00  0.00    -0.200 F 
ATOM     76  F   UNL A   1      40.445  25.363  25.707  1.00  0.00    -0.200 F 
ENDBRANCH  52  66
BRANCH  53  77
ATOM     77  C   UNL A   1      40.005  34.038  36.833  1.00  0.00     0.064 A 
ATOM     78  C   UNL A   1      39.140  33.664  37.872  1.00  0.00     0.173 A 
ATOM     79  C   UNL A   1      40.708  35.244  36.978  1.00  0.00     0.173 A 
ATOM     80  F   UNL A   1      38.420  32.537  37.769  1.00  0.00    -0.203 F 
ATOM     81  C   UNL A   1      38.954  34.480  38.987  1.00  0.00     0.198 A 
ATOM     82  C   UNL A   1      40.551  36.040  38.111  1.00  0.00     0.198 A 
ATOM     83  F   UNL A   1      41.544  35.655  36.014  1.00  0.00    -0.203 F 
ATOM     84  F   UNL A   1      38.064  34.134  39.926  1.00  0.00    -0.200 F 
ATOM     85  C   UNL A   1      39.663  35.666  39.107  1.00  0.00     0.200 A 
ATOM     86  F   UNL A   1      41.245  37.180  38.228  1.00  0.00    -0.200 F 
ATOM     87  F   UNL A   1      39.477  36.454  40.175  1.00  0.00    -0.200 F 
ENDBRANCH  53  77
BRANCH  65  88
ATOM     88  C   UNL A   1      43.693  28.351  35.208  1.00  0.00     0.064 A 
ATOM     89  C   UNL A   1      45.062  28.652  35.148  1.00  0.00     0.173 A 
ATOM     90  C   UNL A   1      43.290  27.298  36.045  1.00  0.00     0.173 A 
ATOM     91  F   UNL A   1      45.501  29.639  34.353  1.00  0.00    -0.203 F 
ATOM     92  C   UNL A   1      45.990  27.914  35.878  1.00  0.00     0.198 A 
ATOM     93  C   UNL A   1      44.218  26.585  36.800  1.00  0.00     0.198 A 
ATOM     94  F   UNL A   1      41.993  26.972  36.147  1.00  0.00    -0.203 F 
ATOM     95  F   UNL A   1      47.297  28.188  35.767  1.00  0.00    -0.200 F 
ATOM     96  C   UNL A   1      45.568  26.888  36.710  1.00  0.00     0.200 A 
ATOM     97  F   UNL A   1      43.805  25.607  37.618  1.00  0.00    -0.200 F 
ATOM     98  F   UNL A   1      46.461  26.188  37.421  1.00  0.00    -0.200 F 
ENDBRANCH  65  88
ENDBRANCH  39  40
ENDBRANCH  32  34
ENDBRANCH  31  32
ENDBRANCH  30  31
ENDBRANCH  29  30
ENDBRANCH  28  29
ENDBRANCH  27  28
ENDBRANCH   1  27
TORSDOF 21
ENDMDL
MODEL 2
REMARK VINA RESULT:     -10.5      6.408     10.951
REMARK SMILES O=C(C[C@@H]1CSCC[NH2+]1)NC[C@H]1CC[C@@H](C(=O)OCCOCCOCCOC(=O)c2ccc(-c3c4nc(c(-c5c(F)c(F)c(F)c(F)c5F)c5ccc([nH]5)c(-c5c(F)c(F)c(F)c(F)c5F)c5nc(c(-c6c(F)c(F)c(F)c(F)c6F)c6ccc3[nH]6)C=C5)C=C4)cc2)O1
REMARK SMILES IDX 22 1 21 2 20 3 19 4 18 5 16 6 17 7 15 8 12 9 13 10 93 11
REMARK SMILES IDX 14 12 11 13 10 14 1 15 2 16 3 18 4 19 5 20 9 21 6 22 8 23
REMARK SMILES IDX 7 26 23 27 24 28 25 29 26 30 27 31 28 32 29 33 30 34 31 35
REMARK SMILES IDX 92 36 32 37 91 38 33 39 34 40 35 41 85 42 36 43 90 44 84 45
REMARK SMILES IDX 86 46 37 47 89 48 83 49 82 50 38 52 70 53 50 54 69 55 51 56
REMARK SMILES IDX 54 57 68 58 87 59 52 60 53 61 67 63 88 64 55 65 39 66 40 67
REMARK SMILES IDX 48 68 41 69 42 70 46 71 49 72 43 73 44 74 47 75 45 76 71 77
REMARK SMILES IDX 72 78 80 79 73 80 74 81 78 82 81 83 75 84 76 85 79 86 77 87
REMARK SMILES IDX 56 88 57 89 65 90 58 91 59 92 63 93 66 94 60 95 61 96 64 97
REMARK SMILES IDX 62 98
REMARK H PARENT 10 17 9 24 9 25 86 51 54 62
REMARK Flexibility Score: inf
ROOT
ATOM      1  C   UNL A   1      40.395  22.071  27.164  1.00  0.00     0.188 C 
ENDROOT
BRANCH   1   2
ATOM      2  O   UNL A   1      39.557  23.056  26.572  1.00  0.00    -0.376 OA
BRANCH   2   3
ATOM      3  C   UNL A   1      38.334  22.668  25.957  1.00  0.00     0.202 C 
BRANCH   3   4
ATOM      4  C   UNL A   1      37.207  23.695  25.757  1.00  0.00     0.261 C 
BRANCH   4   5
ATOM      5  O   UNL A   1      35.983  23.350  26.415  1.00  0.00    -0.461 OA
BRANCH   5   6
ATOM      6  C   UNL A   1      34.834  23.488  25.698  1.00  0.00     0.335 C 
ATOM      7  O   UNL A   1      34.531  24.466  25.027  1.00  0.00    -0.249 OA
BRANCH   6   8
ATOM      8  C   UNL A   1      33.993  22.202  25.741  1.00  0.00     0.228 C 
ATOM      9  C   UNL A   1      32.481  21.313  24.179  1.00  0.00     0.138 C 
ATOM     10  C   UNL A   1      33.538  20.257  24.461  1.00  0.00     0.037 C 
ATOM     11  O   UNL A   1      32.689  22.310  25.170  1.00  0.00    -0.361 OA
ATOM     12  C   UNL A   1      34.685  21.050  25.038  1.00  0.00     0.047 C 
BRANCH   9  13
ATOM     13  C   UNL A   1      32.550  21.961  22.787  1.00  0.00     0.147 C 
BRANCH  13  14
ATOM     14  N   UNL A   1      31.898  23.250  22.815  1.00  0.00    -0.353 N 
ATOM     15  O   UNL A   1      33.425  24.493  21.642  1.00  0.00    -0.275 OA
ATOM     16  C   UNL A   1      32.396  24.419  22.304  1.00  0.00     0.226 C 
ATOM     17  H   UNL A   1      31.011  23.291  23.241  1.00  0.00     0.163 HD
BRANCH  16  18
ATOM     18  C   UNL A   1      31.614  25.644  22.749  1.00  0.00     0.165 C 
BRANCH  18  19
ATOM     19  C   UNL A   1      32.300  27.012  22.527  1.00  0.00     0.201 C 
ATOM     20  C   UNL A   1      33.089  27.441  23.787  1.00  0.00     0.135 C 
ATOM     21  N   UNL A   1      31.453  28.127  22.056  1.00  0.00    -0.342 N 
ATOM     22  S   UNL A   1      32.025  27.942  25.189  1.00  0.00    -0.150 SA
ATOM     23  C   UNL A   1      30.431  28.572  23.006  1.00  0.00     0.271 C 
ATOM     24  H   UNL A   1      30.983  27.830  21.202  1.00  0.00     0.346 HD
ATOM     25  H   UNL A   1      32.079  28.922  21.919  1.00  0.00     0.346 HD
ATOM     26  C   UNL A   1      30.999  29.155  24.299  1.00  0.00     0.131 C 
ENDBRANCH  18  19
ENDBRANCH  16  18
ENDBRANCH  13  14
ENDBRANCH   9  13
ENDBRANCH   6   8
ENDBRANCH   5   6
ENDBRANCH   4   5
ENDBRANCH   3   4
ENDBRANCH   2   3
ENDBRANCH   1   2
BRANCH   1  27
ATOM     27  C   UNL A   1      41.555  21.446  26.365  1.00  0.00     0.188 C 
BRANCH  27  28
ATOM     28  O   UNL A   1      41.384  20.105  25.999  1.00  0.00    -0.376 OA
BRANCH  28  29
ATOM     29  C   UNL A   1      42.291  19.133  26.483  1.00  0.00     0.202 C 
BRANCH  29  30
ATOM     30  C   UNL A   1      43.334  18.381  25.625  1.00  0.00     0.261 C 
BRANCH  30  31
ATOM     31  O   UNL A   1      43.714  18.929  24.355  1.00  0.00    -0.460 OA
BRANCH  31  32
ATOM     32  C   UNL A   1      44.966  19.438  24.259  1.00  0.00     0.338 C 
ATOM     33  O   UNL A   1      45.957  18.895  23.790  1.00  0.00    -0.246 OA
BRANCH  32  34
ATOM     34  C   UNL A   1      44.928  20.860  24.656  1.00  0.00     0.060 A 
ATOM     35  C   UNL A   1      44.540  21.832  23.722  1.00  0.00     0.016 A 
ATOM     36  C   UNL A   1      45.280  21.232  25.953  1.00  0.00     0.016 A 
ATOM     37  C   UNL A   1      44.487  23.180  24.088  1.00  0.00     0.010 A 
ATOM     38  C   UNL A   1      45.256  22.584  26.309  1.00  0.00     0.010 A 
ATOM     39  C   UNL A   1      44.868  23.568  25.379  1.00  0.00    -0.014 A 
BRANCH  39  40
ATOM     40  C   UNL A   1      44.989  25.001  25.749  1.00  0.00     0.031 A 
ATOM     41  C   UNL A   1      46.346  25.645  25.711  1.00  0.00     0.074 A 
ATOM     42  C   UNL A   1      43.921  25.701  26.175  1.00  0.00     0.049 A 
ATOM     43  N   UNL A   1      46.725  26.813  26.161  1.00  0.00    -0.248 NA
ATOM     44  C   UNL A   1      47.423  24.859  25.087  1.00  0.00     0.031 C 
ATOM     45  C   UNL A   1      42.548  25.207  26.219  1.00  0.00     0.029 A 
ATOM     46  N   UNL A   1      43.839  26.975  26.689  1.00  0.00    -0.354 N 
ATOM     47  C   UNL A   1      48.088  26.892  25.904  1.00  0.00     0.074 A 
ATOM     48  C   UNL A   1      48.470  25.655  25.258  1.00  0.00     0.031 C 
ATOM     49  C   UNL A   1      41.763  26.152  26.770  1.00  0.00     0.029 A 
ATOM     50  C   UNL A   1      42.588  27.295  27.160  1.00  0.00     0.049 A 
ATOM     51  H   UNL A   1      44.601  27.596  26.717  1.00  0.00     0.167 HD
ATOM     52  C   UNL A   1      48.940  27.903  26.191  1.00  0.00     0.037 A 
ATOM     53  C   UNL A   1      42.170  28.362  27.871  1.00  0.00     0.037 A 
ATOM     54  C   UNL A   1      48.553  29.137  26.822  1.00  0.00     0.049 A 
ATOM     55  C   UNL A   1      43.161  29.441  28.241  1.00  0.00     0.074 A 
ATOM     56  C   UNL A   1      49.337  30.243  27.098  1.00  0.00     0.029 A 
ATOM     57  N   UNL A   1      47.281  29.422  27.288  1.00  0.00    -0.354 N 
ATOM     58  N   UNL A   1      44.437  29.533  27.951  1.00  0.00    -0.248 NA
ATOM     59  C   UNL A   1      42.653  30.565  29.043  1.00  0.00     0.031 C 
ATOM     60  C   UNL A   1      48.557  31.168  27.797  1.00  0.00     0.029 A 
ATOM     61  C   UNL A   1      47.269  30.669  27.893  1.00  0.00     0.049 A 
ATOM     62  H   UNL A   1      46.500  28.827  27.203  1.00  0.00     0.167 HD
ATOM     63  C   UNL A   1      44.872  30.732  28.506  1.00  0.00     0.074 A 
ATOM     64  C   UNL A   1      43.721  31.344  29.133  1.00  0.00     0.031 C 
ATOM     65  C   UNL A   1      46.113  31.275  28.502  1.00  0.00     0.037 A 
BRANCH  52  66
ATOM     66  C   UNL A   1      50.393  27.715  25.867  1.00  0.00     0.064 A 
ATOM     67  C   UNL A   1      50.907  27.969  24.589  1.00  0.00     0.173 A 
ATOM     68  C   UNL A   1      51.296  27.359  26.882  1.00  0.00     0.173 A 
ATOM     69  F   UNL A   1      50.085  28.301  23.582  1.00  0.00    -0.203 F 
ATOM     70  C   UNL A   1      52.273  27.866  24.334  1.00  0.00     0.198 A 
ATOM     71  C   UNL A   1      52.663  27.286  26.631  1.00  0.00     0.198 A 
ATOM     72  F   UNL A   1      50.854  27.110  28.123  1.00  0.00    -0.203 F 
ATOM     73  F   UNL A   1      52.742  28.087  23.099  1.00  0.00    -0.200 F 
ATOM     74  C   UNL A   1      53.150  27.536  25.358  1.00  0.00     0.200 A 
ATOM     75  F   UNL A   1      53.508  26.983  27.625  1.00  0.00    -0.200 F 
ATOM     76  F   UNL A   1      54.467  27.461  25.117  1.00  0.00    -0.200 F 
ENDBRANCH  52  66
BRANCH  53  77
ATOM     77  C   UNL A   1      40.761  28.453  28.343  1.00  0.00     0.064 A 
ATOM     78  C   UNL A   1      39.758  29.010  27.535  1.00  0.00     0.173 A 
ATOM     79  C   UNL A   1      40.399  28.054  29.640  1.00  0.00     0.173 A 
ATOM     80  F   UNL A   1      40.057  29.437  26.299  1.00  0.00    -0.203 F 
ATOM     81  C   UNL A   1      38.464  29.198  28.016  1.00  0.00     0.198 A 
ATOM     82  C   UNL A   1      39.095  28.207  30.106  1.00  0.00     0.198 A 
ATOM     83  F   UNL A   1      41.317  27.521  30.459  1.00  0.00    -0.203 F 
ATOM     84  F   UNL A   1      37.549  29.803  27.247  1.00  0.00    -0.200 F 
ATOM     85  C   UNL A   1      38.132  28.793  29.300  1.00  0.00     0.200 A 
ATOM     86  F   UNL A   1      38.776  27.805  31.344  1.00  0.00    -0.200 F 
ATOM     87  F   UNL A   1      36.890  28.983  29.764  1.00  0.00    -0.200 F 
ENDBRANCH  53  77
BRANCH  65  88
ATOM     88  C   UNL A   1      46.292  32.617  29.156  1.00  0.00     0.064 A 
ATOM     89  C   UNL A   1      46.684  32.740  30.497  1.00  0.00     0.173 A 
ATOM     90  C   UNL A   1      46.119  33.796  28.413  1.00  0.00     0.173 A 
ATOM     91  F   UNL A   1      46.849  31.645  31.254  1.00  0.00    -0.203 F 
ATOM     92  C   UNL A   1      46.871  33.992  31.077  1.00  0.00     0.198 A 
ATOM     93  C   UNL A   1      46.341  35.045  28.987  1.00  0.00     0.198 A 
ATOM     94  F   UNL A   1      45.754  33.737  27.124  1.00  0.00    -0.203 F 
ATOM     95  F   UNL A   1      47.196  34.085  32.373  1.00  0.00    -0.200 F 
ATOM     96  C   UNL A   1      46.708  35.143  30.320  1.00  0.00     0.200 A 
ATOM     97  F   UNL A   1      46.202  36.155  28.248  1.00  0.00    -0.200 F 
ATOM     98  F   UNL A   1      46.901  36.346  30.876  1.00  0.00    -0.200 F 
ENDBRANCH  65  88
ENDBRANCH  39  40
ENDBRANCH  32  34
ENDBRANCH  31  32
ENDBRANCH  30  31
ENDBRANCH  29  30
ENDBRANCH  28  29
ENDBRANCH  27  28
ENDBRANCH   1  27
TORSDOF 21
ENDMDL
MODEL 3
REMARK VINA RESULT:     -10.5      1.632      7.890
REMARK SMILES O=C(C[C@@H]1CSCC[NH2+]1)NC[C@H]1CC[C@@H](C(=O)OCCOCCOCCOC(=O)c2ccc(-c3c4nc(c(-c5c(F)c(F)c(F)c(F)c5F)c5ccc([nH]5)c(-c5c(F)c(F)c(F)c(F)c5F)c5nc(c(-c6c(F)c(F)c(F)c(F)c6F)c6ccc3[nH]6)C=C5)C=C4)cc2)O1
REMARK SMILES IDX 22 1 21 2 20 3 19 4 18 5 16 6 17 7 15 8 12 9 13 10 93 11
REMARK SMILES IDX 14 12 11 13 10 14 1 15 2 16 3 18 4 19 5 20 9 21 6 22 8 23
REMARK SMILES IDX 7 26 23 27 24 28 25 29 26 30 27 31 28 32 29 33 30 34 31 35
REMARK SMILES IDX 92 36 32 37 91 38 33 39 34 40 35 41 85 42 36 43 90 44 84 45
REMARK SMILES IDX 86 46 37 47 89 48 83 49 82 50 38 52 70 53 50 54 69 55 51 56
REMARK SMILES IDX 54 57 68 58 87 59 52 60 53 61 67 63 88 64 55 65 39 66 40 67
REMARK SMILES IDX 48 68 41 69 42 70 46 71 49 72 43 73 44 74 47 75 45 76 71 77
REMARK SMILES IDX 72 78 80 79 73 80 74 81 78 82 81 83 75 84 76 85 79 86 77 87
REMARK SMILES IDX 56 88 57 89 65 90 58 91 59 92 63 93 66 94 60 95 61 96 64 97
REMARK SMILES IDX 62 98
REMARK H PARENT 10 17 9 24 9 25 86 51 54 62
REMARK Flexibility Score: inf
ROOT
ATOM      1  C   UNL A   1      32.604  28.954  27.278  1.00  0.00     0.188 C 
ENDROOT
BRANCH   1   2
ATOM      2  O   UNL A   1      32.496  27.989  26.238  1.00  0.00    -0.376 OA
BRANCH   2   3
ATOM      3  C   UNL A   1      33.661  27.317  25.773  1.00  0.00     0.202 C 
BRANCH   3   4
ATOM      4  C   UNL A   1      33.718  25.780  25.769  1.00  0.00     0.261 C 
BRANCH   4   5
ATOM      5  O   UNL A   1      32.539  25.155  25.250  1.00  0.00    -0.461 OA
BRANCH   5   6
ATOM      6  C   UNL A   1      31.927  24.232  26.041  1.00  0.00     0.335 C 
ATOM      7  O   UNL A   1      31.452  24.451  27.148  1.00  0.00    -0.249 OA
BRANCH   6   8
ATOM      8  C   UNL A   1      31.800  22.879  25.322  1.00  0.00     0.228 C 
ATOM      9  C   UNL A   1      32.233  22.288  23.090  1.00  0.00     0.138 C 
ATOM     10  C   UNL A   1      33.062  21.380  23.984  1.00  0.00     0.037 C 
ATOM     11  O   UNL A   1      31.336  22.950  23.973  1.00  0.00    -0.361 OA
ATOM     12  C   UNL A   1      33.117  22.129  25.294  1.00  0.00     0.047 C 
BRANCH   9  13
ATOM     13  C   UNL A   1      33.027  23.339  22.297  1.00  0.00     0.147 C 
BRANCH  13  14
ATOM     14  N   UNL A   1      32.176  24.464  21.988  1.00  0.00    -0.353 N 
ATOM     15  O   UNL A   1      33.760  26.100  21.729  1.00  0.00    -0.275 OA
ATOM     16  C   UNL A   1      32.586  25.756  21.788  1.00  0.00     0.226 C 
ATOM     17  H   UNL A   1      31.210  24.286  21.914  1.00  0.00     0.163 HD
BRANCH  16  18
ATOM     18  C   UNL A   1      31.435  26.750  21.776  1.00  0.00     0.165 C 
BRANCH  18  19
ATOM     19  C   UNL A   1      31.447  27.824  22.888  1.00  0.00     0.201 C 
ATOM     20  C   UNL A   1      30.306  27.576  23.904  1.00  0.00     0.135 C 
ATOM     21  N   UNL A   1      31.448  29.240  22.465  1.00  0.00    -0.342 N 
ATOM     22  S   UNL A   1      28.639  27.943  23.246  1.00  0.00    -0.150 SA
ATOM     23  C   UNL A   1      30.231  29.681  21.779  1.00  0.00     0.271 C 
ATOM     24  H   UNL A   1      32.235  29.382  21.834  1.00  0.00     0.346 HD
ATOM     25  H   UNL A   1      31.508  29.793  23.321  1.00  0.00     0.346 HD
ATOM     26  C   UNL A   1      28.976  29.631  22.650  1.00  0.00     0.131 C 
ENDBRANCH  18  19
ENDBRANCH  16  18
ENDBRANCH  13  14
ENDBRANCH   9  13
ENDBRANCH   6   8
ENDBRANCH   5   6
ENDBRANCH   4   5
ENDBRANCH   3   4
ENDBRANCH   2   3
ENDBRANCH   1   2
BRANCH   1  27
ATOM     27  C   UNL A   1      32.828  30.442  26.945  1.00  0.00     0.188 C 
BRANCH  27  28
ATOM     28  O   UNL A   1      31.698  31.139  26.499  1.00  0.00    -0.376 OA
BRANCH  28  29
ATOM     29  C   UNL A   1      31.543  32.503  26.844  1.00  0.00     0.202 C 
BRANCH  29  30
ATOM     30  C   UNL A   1      32.672  33.427  27.355  1.00  0.00     0.261 C 
BRANCH  30  31
ATOM     31  O   UNL A   1      32.377  34.381  28.385  1.00  0.00    -0.460 OA
BRANCH  31  32
ATOM     32  C   UNL A   1      33.375  35.225  28.739  1.00  0.00     0.338 C 
ATOM     33  O   UNL A   1      33.377  36.447  28.670  1.00  0.00    -0.246 OA
BRANCH  32  34
ATOM     34  C   UNL A   1      34.436  34.446  29.410  1.00  0.00     0.060 A 
ATOM     35  C   UNL A   1      35.758  34.534  28.949  1.00  0.00     0.016 A 
ATOM     36  C   UNL A   1      34.120  33.624  30.490  1.00  0.00     0.016 A 
ATOM     37  C   UNL A   1      36.774  33.810  29.582  1.00  0.00     0.010 A 
ATOM     38  C   UNL A   1      35.132  32.878  31.103  1.00  0.00     0.010 A 
ATOM     39  C   UNL A   1      36.463  32.958  30.649  1.00  0.00    -0.014 A 
BRANCH  39  40
ATOM     40  C   UNL A   1      37.482  32.049  31.232  1.00  0.00     0.031 A 
ATOM     41  C   UNL A   1      38.003  32.338  32.611  1.00  0.00     0.074 A 
ATOM     42  C   UNL A   1      37.985  31.022  30.522  1.00  0.00     0.049 A 
ATOM     43  N   UNL A   1      39.014  31.804  33.247  1.00  0.00    -0.248 NA
ATOM     44  C   UNL A   1      37.292  33.378  33.373  1.00  0.00     0.031 C 
ATOM     45  C   UNL A   1      37.536  30.611  29.194  1.00  0.00     0.029 A 
ATOM     46  N   UNL A   1      39.015  30.158  30.813  1.00  0.00    -0.354 N 
ATOM     47  C   UNL A   1      39.080  32.462  34.469  1.00  0.00     0.074 A 
ATOM     48  C   UNL A   1      38.009  33.433  34.487  1.00  0.00     0.031 C 
ATOM     49  C   UNL A   1      38.314  29.600  28.766  1.00  0.00     0.029 A 
ATOM     50  C   UNL A   1      39.343  29.326  29.769  1.00  0.00     0.049 A 
ATOM     51  H   UNL A   1      39.474  30.138  31.684  1.00  0.00     0.167 HD
ATOM     52  C   UNL A   1      39.962  32.274  35.478  1.00  0.00     0.037 A 
ATOM     53  C   UNL A   1      40.384  28.482  29.620  1.00  0.00     0.037 A 
ATOM     54  C   UNL A   1      41.020  31.297  35.461  1.00  0.00     0.049 A 
ATOM     55  C   UNL A   1      41.395  28.347  30.735  1.00  0.00     0.074 A 
ATOM     56  C   UNL A   1      41.926  30.994  36.462  1.00  0.00     0.029 A 
ATOM     57  N   UNL A   1      41.323  30.478  34.386  1.00  0.00    -0.354 N 
ATOM     58  N   UNL A   1      41.424  28.934  31.907  1.00  0.00    -0.248 NA
ATOM     59  C   UNL A   1      42.525  27.434  30.502  1.00  0.00     0.031 C 
ATOM     60  C   UNL A   1      42.822  30.044  35.967  1.00  0.00     0.029 A 
ATOM     61  C   UNL A   1      42.431  29.702  34.684  1.00  0.00     0.049 A 
ATOM     62  H   UNL A   1      40.824  30.451  33.537  1.00  0.00     0.167 HD
ATOM     63  C   UNL A   1      42.549  28.441  32.557  1.00  0.00     0.074 A 
ATOM     64  C   UNL A   1      43.168  27.490  31.659  1.00  0.00     0.031 C 
ATOM     65  C   UNL A   1      43.031  28.748  33.786  1.00  0.00     0.037 A 
BRANCH  52  66
ATOM     66  C   UNL A   1      39.861  33.166  36.679  1.00  0.00     0.064 A 
ATOM     67  C   UNL A   1      39.015  32.869  37.756  1.00  0.00     0.173 A 
ATOM     68  C   UNL A   1      40.696  34.291  36.789  1.00  0.00     0.173 A 
ATOM     69  F   UNL A   1      38.190  31.813  37.696  1.00  0.00    -0.203 F 
ATOM     70  C   UNL A   1      38.999  33.670  38.895  1.00  0.00     0.198 A 
ATOM     71  C   UNL A   1      40.699  35.071  37.940  1.00  0.00     0.198 A 
ATOM     72  F   UNL A   1      41.528  34.615  35.788  1.00  0.00    -0.203 F 
ATOM     73  F   UNL A   1      38.164  33.384  39.903  1.00  0.00    -0.200 F 
ATOM     74  C   UNL A   1      39.850  34.762  38.991  1.00  0.00     0.200 A 
ATOM     75  F   UNL A   1      41.533  36.116  38.036  1.00  0.00    -0.200 F 
ATOM     76  F   UNL A   1      39.852  35.518  40.098  1.00  0.00    -0.200 F 
ENDBRANCH  52  66
BRANCH  53  77
ATOM     77  C   UNL A   1      40.574  27.732  28.348  1.00  0.00     0.064 A 
ATOM     78  C   UNL A   1      40.069  26.433  28.188  1.00  0.00     0.173 A 
ATOM     79  C   UNL A   1      41.329  28.267  27.293  1.00  0.00     0.173 A 
ATOM     80  F   UNL A   1      39.368  25.862  29.179  1.00  0.00    -0.203 F 
ATOM     81  C   UNL A   1      40.342  25.687  27.042  1.00  0.00     0.198 A 
ATOM     82  C   UNL A   1      41.569  27.535  26.131  1.00  0.00     0.198 A 
ATOM     83  F   UNL A   1      41.843  29.502  27.392  1.00  0.00    -0.203 F 
ATOM     84  F   UNL A   1      39.910  24.422  26.952  1.00  0.00    -0.200 F 
ATOM     85  C   UNL A   1      41.088  26.240  26.013  1.00  0.00     0.200 A 
ATOM     86  F   UNL A   1      42.282  28.077  25.135  1.00  0.00    -0.200 F 
ATOM     87  F   UNL A   1      41.358  25.520  24.916  1.00  0.00    -0.200 F 
ENDBRANCH  53  77
BRANCH  65  88
ATOM     88  C   UNL A   1      44.262  28.025  34.256  1.00  0.00     0.064 A 
ATOM     89  C   UNL A   1      44.190  26.777  34.892  1.00  0.00     0.173 A 
ATOM     90  C   UNL A   1      45.536  28.566  34.018  1.00  0.00     0.173 A 
ATOM     91  F   UNL A   1      42.997  26.223  35.155  1.00  0.00    -0.203 F 
ATOM     92  C   UNL A   1      45.344  26.110  35.294  1.00  0.00     0.198 A 
ATOM     93  C   UNL A   1      46.689  27.880  34.391  1.00  0.00     0.198 A 
ATOM     94  F   UNL A   1      45.664  29.752  33.405  1.00  0.00    -0.203 F 
ATOM     95  F   UNL A   1      45.248  24.943  35.945  1.00  0.00    -0.200 F 
ATOM     96  C   UNL A   1      46.592  26.657  35.036  1.00  0.00     0.200 A 
ATOM     97  F   UNL A   1      47.894  28.401  34.122  1.00  0.00    -0.200 F 
ATOM     98  F   UNL A   1      47.702  26.008  35.413  1.00  0.00    -0.200 F 
ENDBRANCH  65  88
ENDBRANCH  39  40
ENDBRANCH  32  34
ENDBRANCH  31  32
ENDBRANCH  30  31
ENDBRANCH  29  30
ENDBRANCH  28  29
ENDBRANCH  27  28
ENDBRANCH   1  27
TORSDOF 21
ENDMDL
