MODEL 1
REMARK VINA RESULT:     -10.2      0.000      0.000
REMARK SMILES CCC[NH2+][C@]1(C(=O)OCCOCCOCCOC(=O)c2ccc(-c3c4nc(c(-c5c(F)c(F)c(F)c(F)c5F)c5ccc([nH]5)c(-c5c(F)c(F)c(F)c(F)c5F)c5nc(c(-c6c(F)c(F)c(F)c(F)c6F)c6ccc3[nH]6)C=C5)C=C4)cc2)CCC[C@H](n2ccc(C)n2)C1
REMARK SMILES IDX 12 1 11 2 10 3 9 4 8 5 6 6 7 7 5 8 83 9 93 10 84 11 86 12
REMARK SMILES IDX 85 13 4 14 3 17 2 18 1 19 87 20 88 21 92 22 89 23 90 24
REMARK SMILES IDX 91 25 13 26 14 27 15 28 16 29 17 30 18 31 19 32 20 33 21 34
REMARK SMILES IDX 82 35 22 36 81 37 23 38 24 39 25 40 75 41 26 42 80 43 74 44
REMARK SMILES IDX 76 45 27 46 79 47 73 48 72 49 28 51 60 52 40 53 59 54 41 55
REMARK SMILES IDX 44 56 58 57 77 58 42 59 43 60 57 62 78 63 45 64 29 65 30 66
REMARK SMILES IDX 38 67 31 68 32 69 36 70 39 71 33 72 34 73 37 74 35 75 61 76
REMARK SMILES IDX 62 77 70 78 63 79 64 80 68 81 71 82 65 83 66 84 69 85 67 86
REMARK SMILES IDX 46 87 47 88 55 89 48 90 49 91 53 92 56 93 50 94 51 95 54 96
REMARK SMILES IDX 52 97
REMARK H PARENT 4 15 4 16 76 50 44 61
REMARK Flexibility Score: inf
ROOT
ATOM      1  C   UNL A   1      35.787  21.298  24.900  1.00  0.00     0.188 C 
ENDROOT
BRANCH   1   2
ATOM      2  O   UNL A   1      35.100  21.659  26.095  1.00  0.00    -0.376 OA
BRANCH   2   3
ATOM      3  C   UNL A   1      33.824  21.093  26.362  1.00  0.00     0.202 C 
BRANCH   3   4
ATOM      4  C   UNL A   1      32.763  21.204  25.261  1.00  0.00     0.261 C 
BRANCH   4   5
ATOM      5  O   UNL A   1      31.464  21.640  25.706  1.00  0.00    -0.459 OA
BRANCH   5   6
ATOM      6  C   UNL A   1      31.423  22.825  26.370  1.00  0.00     0.368 C 
ATOM      7  O   UNL A   1      31.333  22.904  27.596  1.00  0.00    -0.245 OA
BRANCH   6   8
ATOM      8  C   UNL A   1      31.459  24.109  25.476  1.00  0.00     0.196 C 
ATOM      9  C   UNL A   1      30.987  23.655  24.077  1.00  0.00     0.081 C 
ATOM     10  C   UNL A   1      30.405  25.087  26.105  1.00  0.00     0.108 C 
ATOM     11  C   UNL A   1      30.563  24.807  23.175  1.00  0.00     0.009 C 
ATOM     12  C   UNL A   1      29.899  26.223  25.180  1.00  0.00     0.114 C 
ATOM     13  C   UNL A   1      29.452  25.616  23.837  1.00  0.00     0.028 C 
BRANCH   8  14
ATOM     14  N   UNL A   1      32.743  24.842  25.493  1.00  0.00    -0.332 N 
ATOM     15  H   UNL A   1      32.509  25.834  25.536  1.00  0.00     0.347 HD
ATOM     16  H   UNL A   1      33.226  24.420  26.286  1.00  0.00     0.347 HD
BRANCH  14  17
ATOM     17  C   UNL A   1      33.714  24.696  24.421  1.00  0.00     0.261 C 
BRANCH  17  18
ATOM     18  C   UNL A   1      34.066  26.067  23.811  1.00  0.00     0.058 C 
ATOM     19  C   UNL A   1      33.555  26.283  22.395  1.00  0.00     0.010 C 
ENDBRANCH  17  18
ENDBRANCH  14  17
ENDBRANCH   8  14
BRANCH  12  20
ATOM     20  N   UNL A   1      30.787  27.377  25.016  1.00  0.00    -0.269 N 
ATOM     21  C   UNL A   1      30.769  28.275  23.982  1.00  0.00     0.109 A 
ATOM     22  N   UNL A   1      31.700  27.705  25.961  1.00  0.00    -0.178 NA
ATOM     23  C   UNL A   1      31.768  29.181  24.232  1.00  0.00     0.045 A 
ATOM     24  C   UNL A   1      32.310  28.795  25.473  1.00  0.00     0.059 A 
ATOM     25  C   UNL A   1      33.423  29.457  26.195  1.00  0.00     0.069 C 
ENDBRANCH  12  20
ENDBRANCH   6   8
ENDBRANCH   5   6
ENDBRANCH   4   5
ENDBRANCH   3   4
ENDBRANCH   2   3
ENDBRANCH   1   2
BRANCH   1  26
ATOM     26  C   UNL A   1      37.044  22.071  24.473  1.00  0.00     0.188 C 
BRANCH  26  27
ATOM     27  O   UNL A   1      38.228  21.611  25.098  1.00  0.00    -0.376 OA
BRANCH  27  28
ATOM     28  C   UNL A   1      38.363  20.207  25.199  1.00  0.00     0.202 C 
BRANCH  28  29
ATOM     29  C   UNL A   1      39.594  19.842  26.027  1.00  0.00     0.261 C 
BRANCH  29  30
ATOM     30  O   UNL A   1      40.705  19.355  25.247  1.00  0.00    -0.460 OA
BRANCH  30  31
ATOM     31  C   UNL A   1      41.842  19.093  25.921  1.00  0.00     0.338 C 
ATOM     32  O   UNL A   1      42.362  17.993  26.091  1.00  0.00    -0.246 OA
BRANCH  31  33
ATOM     33  C   UNL A   1      42.483  20.371  26.289  1.00  0.00     0.060 A 
ATOM     34  C   UNL A   1      42.346  20.846  27.599  1.00  0.00     0.016 A 
ATOM     35  C   UNL A   1      43.185  21.120  25.343  1.00  0.00     0.016 A 
ATOM     36  C   UNL A   1      42.834  22.107  27.948  1.00  0.00     0.010 A 
ATOM     37  C   UNL A   1      43.676  22.382  25.692  1.00  0.00     0.010 A 
ATOM     38  C   UNL A   1      43.456  22.904  26.981  1.00  0.00    -0.014 A 
BRANCH  38  39
ATOM     39  C   UNL A   1      43.688  24.347  27.245  1.00  0.00     0.031 A 
ATOM     40  C   UNL A   1      45.080  24.894  27.058  1.00  0.00     0.074 A 
ATOM     41  C   UNL A   1      42.695  25.169  27.626  1.00  0.00     0.049 A 
ATOM     42  N   UNL A   1      45.544  26.099  27.277  1.00  0.00    -0.248 NA
ATOM     43  C   UNL A   1      46.089  23.945  26.558  1.00  0.00     0.031 C 
ATOM     44  C   UNL A   1      41.298  24.783  27.807  1.00  0.00     0.029 A 
ATOM     45  N   UNL A   1      42.718  26.507  27.938  1.00  0.00    -0.354 N 
ATOM     46  C   UNL A   1      46.894  26.047  26.954  1.00  0.00     0.074 A 
ATOM     47  C   UNL A   1      47.185  24.687  26.559  1.00  0.00     0.031 C 
ATOM     48  C   UNL A   1      40.599  25.857  28.213  1.00  0.00     0.029 A 
ATOM     49  C   UNL A   1      41.504  26.999  28.346  1.00  0.00     0.049 A 
ATOM     50  H   UNL A   1      43.531  27.061  27.876  1.00  0.00     0.167 HD
ATOM     51  C   UNL A   1      47.809  27.046  26.973  1.00  0.00     0.037 A 
ATOM     52  C   UNL A   1      41.168  28.226  28.793  1.00  0.00     0.037 A 
ATOM     53  C   UNL A   1      47.524  28.403  27.361  1.00  0.00     0.049 A 
ATOM     54  C   UNL A   1      42.220  29.306  28.865  1.00  0.00     0.074 A 
ATOM     55  C   UNL A   1      48.380  29.489  27.397  1.00  0.00     0.029 A 
ATOM     56  N   UNL A   1      46.285  28.857  27.788  1.00  0.00    -0.354 N 
ATOM     57  N   UNL A   1      43.487  29.258  28.534  1.00  0.00    -0.248 NA
ATOM     58  C   UNL A   1      41.785  30.618  29.368  1.00  0.00     0.031 C 
ATOM     59  C   UNL A   1      47.674  30.589  27.895  1.00  0.00     0.029 A 
ATOM     60  C   UNL A   1      46.360  30.203  28.111  1.00  0.00     0.049 A 
ATOM     61  H   UNL A   1      45.473  28.305  27.851  1.00  0.00     0.167 HD
ATOM     62  C   UNL A   1      43.991  30.534  28.755  1.00  0.00     0.074 A 
ATOM     63  C   UNL A   1      42.889  31.341  29.233  1.00  0.00     0.031 C 
ATOM     64  C   UNL A   1      45.253  30.999  28.576  1.00  0.00     0.037 A 
BRANCH  51  65
ATOM     65  C   UNL A   1      49.217  26.700  26.584  1.00  0.00     0.064 A 
ATOM     66  C   UNL A   1      50.138  26.195  27.515  1.00  0.00     0.173 A 
ATOM     67  C   UNL A   1      49.645  26.856  25.257  1.00  0.00     0.173 A 
ATOM     68  F   UNL A   1      49.784  26.041  28.800  1.00  0.00    -0.203 F 
ATOM     69  C   UNL A   1      51.442  25.885  27.136  1.00  0.00     0.198 A 
ATOM     70  C   UNL A   1      50.940  26.516  24.876  1.00  0.00     0.198 A 
ATOM     71  F   UNL A   1      48.804  27.333  24.327  1.00  0.00    -0.203 F 
ATOM     72  F   UNL A   1      52.320  25.453  28.053  1.00  0.00    -0.200 F 
ATOM     73  C   UNL A   1      51.840  26.039  25.817  1.00  0.00     0.200 A 
ATOM     74  F   UNL A   1      51.318  26.653  23.598  1.00  0.00    -0.200 F 
ATOM     75  F   UNL A   1      53.093  25.735  25.453  1.00  0.00    -0.200 F 
ENDBRANCH  51  65
BRANCH  52  76
ATOM     76  C   UNL A   1      39.771  28.510  29.215  1.00  0.00     0.064 A 
ATOM     77  C   UNL A   1      38.843  29.063  28.322  1.00  0.00     0.173 A 
ATOM     78  C   UNL A   1      39.346  28.272  30.531  1.00  0.00     0.173 A 
ATOM     79  F   UNL A   1      39.210  29.338  27.062  1.00  0.00    -0.203 F 
ATOM     80  C   UNL A   1      37.552  29.389  28.734  1.00  0.00     0.198 A 
ATOM     81  C   UNL A   1      38.046  28.569  30.933  1.00  0.00     0.198 A 
ATOM     82  F   UNL A   1      40.196  27.751  31.427  1.00  0.00    -0.203 F 
ATOM     83  F   UNL A   1      36.704  29.970  27.874  1.00  0.00    -0.200 F 
ATOM     84  C   UNL A   1      37.153  29.136  30.037  1.00  0.00     0.200 A 
ATOM     85  F   UNL A   1      37.661  28.317  32.192  1.00  0.00    -0.200 F 
ATOM     86  F   UNL A   1      35.912  29.452  30.432  1.00  0.00    -0.200 F 
ENDBRANCH  52  76
BRANCH  64  87
ATOM     87  C   UNL A   1      45.501  32.457  28.851  1.00  0.00     0.064 A 
ATOM     88  C   UNL A   1      45.945  32.912  30.102  1.00  0.00     0.173 A 
ATOM     89  C   UNL A   1      45.313  33.410  27.838  1.00  0.00     0.173 A 
ATOM     90  F   UNL A   1      46.130  32.044  31.109  1.00  0.00    -0.203 F 
ATOM     91  C   UNL A   1      46.155  34.268  30.339  1.00  0.00     0.198 A 
ATOM     92  C   UNL A   1      45.557  34.762  28.068  1.00  0.00     0.198 A 
ATOM     93  F   UNL A   1      44.900  33.030  26.619  1.00  0.00    -0.203 F 
ATOM     94  F   UNL A   1      46.520  34.684  31.559  1.00  0.00    -0.200 F 
ATOM     95  C   UNL A   1      45.966  35.191  29.320  1.00  0.00     0.200 A 
ATOM     96  F   UNL A   1      45.391  35.649  27.077  1.00  0.00    -0.200 F 
ATOM     97  F   UNL A   1      46.170  36.495  29.551  1.00  0.00    -0.200 F 
ENDBRANCH  64  87
ENDBRANCH  38  39
ENDBRANCH  31  33
ENDBRANCH  30  31
ENDBRANCH  29  30
ENDBRANCH  28  29
ENDBRANCH  27  28
ENDBRANCH  26  27
ENDBRANCH   1  26
TORSDOF 21
ENDMDL
MODEL 2
REMARK VINA RESULT:     -10.2      3.653      8.683
REMARK SMILES CCC[NH2+][C@]1(C(=O)OCCOCCOCCOC(=O)c2ccc(-c3c4nc(c(-c5c(F)c(F)c(F)c(F)c5F)c5ccc([nH]5)c(-c5c(F)c(F)c(F)c(F)c5F)c5nc(c(-c6c(F)c(F)c(F)c(F)c6F)c6ccc3[nH]6)C=C5)C=C4)cc2)CCC[C@H](n2ccc(C)n2)C1
REMARK SMILES IDX 12 1 11 2 10 3 9 4 8 5 6 6 7 7 5 8 83 9 93 10 84 11 86 12
REMARK SMILES IDX 85 13 4 14 3 17 2 18 1 19 87 20 88 21 92 22 89 23 90 24
REMARK SMILES IDX 91 25 13 26 14 27 15 28 16 29 17 30 18 31 19 32 20 33 21 34
REMARK SMILES IDX 82 35 22 36 81 37 23 38 24 39 25 40 75 41 26 42 80 43 74 44
REMARK SMILES IDX 76 45 27 46 79 47 73 48 72 49 28 51 60 52 40 53 59 54 41 55
REMARK SMILES IDX 44 56 58 57 77 58 42 59 43 60 57 62 78 63 45 64 29 65 30 66
REMARK SMILES IDX 38 67 31 68 32 69 36 70 39 71 33 72 34 73 37 74 35 75 61 76
REMARK SMILES IDX 62 77 70 78 63 79 64 80 68 81 71 82 65 83 66 84 69 85 67 86
REMARK SMILES IDX 46 87 47 88 55 89 48 90 49 91 53 92 56 93 50 94 51 95 54 96
REMARK SMILES IDX 52 97
REMARK H PARENT 4 15 4 16 76 50 44 61
REMARK Flexibility Score: inf
ROOT
ATOM      1  C   UNL A   1      32.130  27.636  24.336  1.00  0.00     0.188 C 
ENDROOT
BRANCH   1   2
ATOM      2  O   UNL A   1      31.149  26.669  23.970  1.00  0.00    -0.376 OA
BRANCH   2   3
ATOM      3  C   UNL A   1      29.966  26.550  24.749  1.00  0.00     0.202 C 
BRANCH   3   4
ATOM      4  C   UNL A   1      30.017  25.616  25.963  1.00  0.00     0.261 C 
BRANCH   4   5
ATOM      5  O   UNL A   1      30.349  24.245  25.667  1.00  0.00    -0.459 OA
BRANCH   5   6
ATOM      6  C   UNL A   1      31.428  23.734  26.317  1.00  0.00     0.368 C 
ATOM      7  O   UNL A   1      31.472  23.603  27.541  1.00  0.00    -0.245 OA
BRANCH   6   8
ATOM      8  C   UNL A   1      32.648  23.351  25.416  1.00  0.00     0.196 C 
ATOM      9  C   UNL A   1      32.132  23.425  23.962  1.00  0.00     0.081 C 
ATOM     10  C   UNL A   1      33.719  24.471  25.662  1.00  0.00     0.108 C 
ATOM     11  C   UNL A   1      33.244  23.488  22.924  1.00  0.00     0.009 C 
ATOM     12  C   UNL A   1      34.818  24.606  24.578  1.00  0.00     0.114 C 
ATOM     13  C   UNL A   1      34.151  24.684  23.192  1.00  0.00     0.028 C 
BRANCH   8  14
ATOM     14  N   UNL A   1      33.312  22.079  25.777  1.00  0.00    -0.332 N 
ATOM     15  H   UNL A   1      34.306  22.210  25.594  1.00  0.00     0.347 HD
ATOM     16  H   UNL A   1      33.007  21.939  26.740  1.00  0.00     0.347 HD
BRANCH  14  17
ATOM     17  C   UNL A   1      32.939  20.824  25.145  1.00  0.00     0.261 C 
BRANCH  17  18
ATOM     18  C   UNL A   1      34.179  19.934  24.926  1.00  0.00     0.058 C 
ATOM     19  C   UNL A   1      33.872  18.525  24.441  1.00  0.00     0.010 C 
ENDBRANCH  17  18
ENDBRANCH  14  17
ENDBRANCH   8  14
BRANCH  12  20
ATOM     20  N   UNL A   1      35.911  23.631  24.631  1.00  0.00    -0.269 N 
ATOM     21  C   UNL A   1      36.195  22.678  23.689  1.00  0.00     0.109 A 
ATOM     22  N   UNL A   1      36.818  23.641  25.637  1.00  0.00    -0.178 NA
ATOM     23  C   UNL A   1      37.290  21.990  24.145  1.00  0.00     0.045 A 
ATOM     24  C   UNL A   1      37.648  22.627  25.349  1.00  0.00     0.059 A 
ATOM     25  C   UNL A   1      38.777  22.265  26.238  1.00  0.00     0.069 C 
ENDBRANCH  12  20
ENDBRANCH   6   8
ENDBRANCH   5   6
ENDBRANCH   4   5
ENDBRANCH   3   4
ENDBRANCH   2   3
ENDBRANCH   1   2
BRANCH   1  26
ATOM     26  C   UNL A   1      31.697  28.973  24.958  1.00  0.00     0.188 C 
BRANCH  26  27
ATOM     27  O   UNL A   1      31.923  29.044  26.354  1.00  0.00    -0.376 OA
BRANCH  27  28
ATOM     28  C   UNL A   1      32.966  28.228  26.850  1.00  0.00     0.202 C 
BRANCH  28  29
ATOM     29  C   UNL A   1      34.147  29.082  27.308  1.00  0.00     0.261 C 
BRANCH  29  30
ATOM     30  O   UNL A   1      33.807  30.454  27.593  1.00  0.00    -0.460 OA
BRANCH  30  31
ATOM     31  C   UNL A   1      34.679  31.143  28.355  1.00  0.00     0.338 C 
ATOM     32  O   UNL A   1      34.456  32.177  28.979  1.00  0.00    -0.246 OA
BRANCH  31  33
ATOM     33  C   UNL A   1      35.927  30.363  28.474  1.00  0.00     0.060 A 
ATOM     34  C   UNL A   1      36.174  29.656  29.657  1.00  0.00     0.016 A 
ATOM     35  C   UNL A   1      36.869  30.355  27.444  1.00  0.00     0.016 A 
ATOM     36  C   UNL A   1      37.397  29.010  29.852  1.00  0.00     0.010 A 
ATOM     37  C   UNL A   1      38.093  29.706  27.637  1.00  0.00     0.010 A 
ATOM     38  C   UNL A   1      38.384  29.076  28.862  1.00  0.00    -0.014 A 
BRANCH  38  39
ATOM     39  C   UNL A   1      39.780  28.678  29.176  1.00  0.00     0.031 A 
ATOM     40  C   UNL A   1      40.618  29.609  30.014  1.00  0.00     0.074 A 
ATOM     41  C   UNL A   1      40.300  27.513  28.751  1.00  0.00     0.049 A 
ATOM     42  N   UNL A   1      41.873  29.511  30.374  1.00  0.00    -0.248 NA
ATOM     43  C   UNL A   1      39.945  30.821  30.508  1.00  0.00     0.031 C 
ATOM     44  C   UNL A   1      39.590  26.504  27.968  1.00  0.00     0.029 A 
ATOM     45  N   UNL A   1      41.559  26.989  28.915  1.00  0.00    -0.354 N 
ATOM     46  C   UNL A   1      42.140  30.650  31.123  1.00  0.00     0.074 A 
ATOM     47  C   UNL A   1      40.930  31.442  31.136  1.00  0.00     0.031 C 
ATOM     48  C   UNL A   1      40.431  25.487  27.708  1.00  0.00     0.029 A 
ATOM     49  C   UNL A   1      41.742  25.786  28.281  1.00  0.00     0.049 A 
ATOM     50  H   UNL A   1      42.265  27.436  29.438  1.00  0.00     0.167 HD
ATOM     51  C   UNL A   1      43.286  31.001  31.754  1.00  0.00     0.037 A 
ATOM     52  C   UNL A   1      42.849  25.025  28.163  1.00  0.00     0.037 A 
ATOM     53  C   UNL A   1      44.491  30.214  31.748  1.00  0.00     0.049 A 
ATOM     54  C   UNL A   1      44.133  25.468  28.823  1.00  0.00     0.074 A 
ATOM     55  C   UNL A   1      45.698  30.477  32.371  1.00  0.00     0.029 A 
ATOM     56  N   UNL A   1      44.643  29.010  31.077  1.00  0.00    -0.354 N 
ATOM     57  N   UNL A   1      44.371  26.532  29.551  1.00  0.00    -0.248 NA
ATOM     58  C   UNL A   1      45.301  24.592  28.647  1.00  0.00     0.031 C 
ATOM     59  C   UNL A   1      46.597  29.460  32.035  1.00  0.00     0.029 A 
ATOM     60  C   UNL A   1      45.932  28.530  31.253  1.00  0.00     0.049 A 
ATOM     61  H   UNL A   1      43.940  28.563  30.553  1.00  0.00     0.167 HD
ATOM     62  C   UNL A   1      45.699  26.437  29.947  1.00  0.00     0.074 A 
ATOM     63  C   UNL A   1      46.213  25.203  29.392  1.00  0.00     0.031 C 
ATOM     64  C   UNL A   1      46.429  27.294  30.704  1.00  0.00     0.037 A 
BRANCH  51  65
ATOM     65  C   UNL A   1      43.297  32.311  32.488  1.00  0.00     0.064 A 
ATOM     66  C   UNL A   1      43.598  33.519  31.840  1.00  0.00     0.173 A 
ATOM     67  C   UNL A   1      42.982  32.361  33.854  1.00  0.00     0.173 A 
ATOM     68  F   UNL A   1      43.921  33.523  30.537  1.00  0.00    -0.203 F 
ATOM     69  C   UNL A   1      43.609  34.723  32.538  1.00  0.00     0.198 A 
ATOM     70  C   UNL A   1      42.964  33.571  34.542  1.00  0.00     0.198 A 
ATOM     71  F   UNL A   1      42.685  31.236  34.522  1.00  0.00    -0.203 F 
ATOM     72  F   UNL A   1      43.950  35.857  31.910  1.00  0.00    -0.200 F 
ATOM     73  C   UNL A   1      43.286  34.749  33.887  1.00  0.00     0.200 A 
ATOM     74  F   UNL A   1      42.639  33.596  35.842  1.00  0.00    -0.200 F 
ATOM     75  F   UNL A   1      43.292  35.910  34.556  1.00  0.00    -0.200 F 
ENDBRANCH  51  65
BRANCH  52  76
ATOM     76  C   UNL A   1      42.804  23.758  27.384  1.00  0.00     0.064 A 
ATOM     77  C   UNL A   1      42.372  22.562  27.973  1.00  0.00     0.173 A 
ATOM     78  C   UNL A   1      43.231  23.711  26.049  1.00  0.00     0.173 A 
ATOM     79  F   UNL A   1      41.983  22.550  29.256  1.00  0.00    -0.203 F 
ATOM     80  C   UNL A   1      42.389  21.363  27.263  1.00  0.00     0.198 A 
ATOM     81  C   UNL A   1      43.219  22.517  25.331  1.00  0.00     0.198 A 
ATOM     82  F   UNL A   1      43.662  24.825  25.441  1.00  0.00    -0.203 F 
ATOM     83  F   UNL A   1      42.024  20.224  27.868  1.00  0.00    -0.200 F 
ATOM     84  C   UNL A   1      42.808  21.342  25.941  1.00  0.00     0.200 A 
ATOM     85  F   UNL A   1      43.618  22.502  24.051  1.00  0.00    -0.200 F 
ATOM     86  F   UNL A   1      42.826  20.188  25.261  1.00  0.00    -0.200 F 
ENDBRANCH  52  76
BRANCH  64  87
ATOM     87  C   UNL A   1      47.848  26.904  31.020  1.00  0.00     0.064 A 
ATOM     88  C   UNL A   1      48.167  26.088  32.117  1.00  0.00     0.173 A 
ATOM     89  C   UNL A   1      48.900  27.335  30.197  1.00  0.00     0.173 A 
ATOM     90  F   UNL A   1      47.200  25.658  32.942  1.00  0.00    -0.203 F 
ATOM     91  C   UNL A   1      49.488  25.751  32.399  1.00  0.00     0.198 A 
ATOM     92  C   UNL A   1      50.217  26.967  30.462  1.00  0.00     0.198 A 
ATOM     93  F   UNL A   1      48.651  28.107  29.128  1.00  0.00    -0.203 F 
ATOM     94  F   UNL A   1      49.774  25.022  33.486  1.00  0.00    -0.200 F 
ATOM     95  C   UNL A   1      50.511  26.185  31.568  1.00  0.00     0.200 A 
ATOM     96  F   UNL A   1      51.201  27.373  29.648  1.00  0.00    -0.200 F 
ATOM     97  F   UNL A   1      51.781  25.858  31.840  1.00  0.00    -0.200 F 
ENDBRANCH  64  87
ENDBRANCH  38  39
ENDBRANCH  31  33
ENDBRANCH  30  31
ENDBRANCH  29  30
ENDBRANCH  28  29
ENDBRANCH  27  28
ENDBRANCH  26  27
ENDBRANCH   1  26
TORSDOF 21
ENDMDL
MODEL 3
REMARK VINA RESULT:     -10.0      1.122      7.388
REMARK SMILES CCC[NH2+][C@]1(C(=O)OCCOCCOCCOC(=O)c2ccc(-c3c4nc(c(-c5c(F)c(F)c(F)c(F)c5F)c5ccc([nH]5)c(-c5c(F)c(F)c(F)c(F)c5F)c5nc(c(-c6c(F)c(F)c(F)c(F)c6F)c6ccc3[nH]6)C=C5)C=C4)cc2)CCC[C@H](n2ccc(C)n2)C1
REMARK SMILES IDX 12 1 11 2 10 3 9 4 8 5 6 6 7 7 5 8 83 9 93 10 84 11 86 12
REMARK SMILES IDX 85 13 4 14 3 17 2 18 1 19 87 20 88 21 92 22 89 23 90 24
REMARK SMILES IDX 91 25 13 26 14 27 15 28 16 29 17 30 18 31 19 32 20 33 21 34
REMARK SMILES IDX 82 35 22 36 81 37 23 38 24 39 25 40 75 41 26 42 80 43 74 44
REMARK SMILES IDX 76 45 27 46 79 47 73 48 72 49 28 51 60 52 40 53 59 54 41 55
REMARK SMILES IDX 44 56 58 57 77 58 42 59 43 60 57 62 78 63 45 64 29 65 30 66
REMARK SMILES IDX 38 67 31 68 32 69 36 70 39 71 33 72 34 73 37 74 35 75 61 76
REMARK SMILES IDX 62 77 70 78 63 79 64 80 68 81 71 82 65 83 66 84 69 85 67 86
REMARK SMILES IDX 46 87 47 88 55 89 48 90 49 91 53 92 56 93 50 94 51 95 54 96
REMARK SMILES IDX 52 97
REMARK H PARENT 4 15 4 16 76 50 44 61
REMARK Flexibility Score: inf
ROOT
ATOM      1  C   UNL A   1      35.614  21.718  26.027  1.00  0.00     0.188 C 
ENDROOT
BRANCH   1   2
ATOM      2  O   UNL A   1      34.313  21.723  26.610  1.00  0.00    -0.376 OA
BRANCH   2   3
ATOM      3  C   UNL A   1      33.177  21.562  25.774  1.00  0.00     0.202 C 
BRANCH   3   4
ATOM      4  C   UNL A   1      33.425  21.450  24.265  1.00  0.00     0.261 C 
BRANCH   4   5
ATOM      5  O   UNL A   1      33.981  22.627  23.648  1.00  0.00    -0.459 OA
BRANCH   5   6
ATOM      6  C   UNL A   1      33.144  23.339  22.848  1.00  0.00     0.368 C 
ATOM      7  O   UNL A   1      32.735  22.918  21.765  1.00  0.00    -0.245 OA
BRANCH   6   8
ATOM      8  C   UNL A   1      32.750  24.762  23.366  1.00  0.00     0.196 C 
ATOM      9  C   UNL A   1      33.884  25.183  24.328  1.00  0.00     0.081 C 
ATOM     10  C   UNL A   1      32.754  25.685  22.098  1.00  0.00     0.108 C 
ATOM     11  C   UNL A   1      33.908  26.676  24.622  1.00  0.00     0.009 C 
ATOM     12  C   UNL A   1      32.856  27.208  22.369  1.00  0.00     0.114 C 
ATOM     13  C   UNL A   1      34.034  27.470  23.326  1.00  0.00     0.028 C 
BRANCH   8  14
ATOM     14  N   UNL A   1      31.387  24.863  23.929  1.00  0.00    -0.332 N 
ATOM     15  H   UNL A   1      31.064  25.811  23.737  1.00  0.00     0.347 HD
ATOM     16  H   UNL A   1      30.906  24.083  23.480  1.00  0.00     0.347 HD
BRANCH  14  17
ATOM     17  C   UNL A   1      31.129  24.619  25.339  1.00  0.00     0.261 C 
BRANCH  17  18
ATOM     18  C   UNL A   1      30.258  25.742  25.937  1.00  0.00     0.058 C 
ATOM     19  C   UNL A   1      31.028  26.979  26.375  1.00  0.00     0.010 C 
ENDBRANCH  17  18
ENDBRANCH  14  17
ENDBRANCH   8  14
BRANCH  12  20
ATOM     20  N   UNL A   1      31.623  27.881  22.786  1.00  0.00    -0.269 N 
ATOM     21  C   UNL A   1      31.525  29.142  23.313  1.00  0.00     0.109 A 
ATOM     22  N   UNL A   1      30.410  27.307  22.607  1.00  0.00    -0.178 NA
ATOM     23  C   UNL A   1      30.193  29.362  23.559  1.00  0.00     0.045 A 
ATOM     24  C   UNL A   1      29.540  28.203  23.096  1.00  0.00     0.059 A 
ATOM     25  C   UNL A   1      28.081  27.938  23.130  1.00  0.00     0.069 C 
ENDBRANCH  12  20
ENDBRANCH   6   8
ENDBRANCH   5   6
ENDBRANCH   4   5
ENDBRANCH   3   4
ENDBRANCH   2   3
ENDBRANCH   1   2
BRANCH   1  26
ATOM     26  C   UNL A   1      36.468  22.995  26.044  1.00  0.00     0.188 C 
BRANCH  26  27
ATOM     27  O   UNL A   1      37.814  22.777  25.661  1.00  0.00    -0.376 OA
BRANCH  27  28
ATOM     28  C   UNL A   1      38.168  21.433  25.400  1.00  0.00     0.202 C 
BRANCH  28  29
ATOM     29  C   UNL A   1      39.446  21.057  26.148  1.00  0.00     0.261 C 
BRANCH  29  30
ATOM     30  O   UNL A   1      40.248  20.061  25.482  1.00  0.00    -0.460 OA
BRANCH  30  31
ATOM     31  C   UNL A   1      41.361  19.657  26.125  1.00  0.00     0.338 C 
ATOM     32  O   UNL A   1      41.712  18.499  26.337  1.00  0.00    -0.246 OA
BRANCH  31  33
ATOM     33  C   UNL A   1      42.209  20.835  26.396  1.00  0.00     0.060 A 
ATOM     34  C   UNL A   1      42.356  21.275  27.718  1.00  0.00     0.016 A 
ATOM     35  C   UNL A   1      42.828  21.528  25.355  1.00  0.00     0.016 A 
ATOM     36  C   UNL A   1      43.048  22.455  27.997  1.00  0.00     0.010 A 
ATOM     37  C   UNL A   1      43.523  22.709  25.633  1.00  0.00     0.010 A 
ATOM     38  C   UNL A   1      43.592  23.207  26.948  1.00  0.00    -0.014 A 
BRANCH  38  39
ATOM     39  C   UNL A   1      44.043  24.601  27.190  1.00  0.00     0.031 A 
ATOM     40  C   UNL A   1      43.029  25.608  27.672  1.00  0.00     0.074 A 
ATOM     41  C   UNL A   1      45.321  24.977  27.007  1.00  0.00     0.049 A 
ATOM     42  N   UNL A   1      43.164  26.890  27.900  1.00  0.00    -0.248 NA
ATOM     43  C   UNL A   1      41.674  25.093  27.926  1.00  0.00     0.031 C 
ATOM     44  C   UNL A   1      46.409  24.101  26.583  1.00  0.00     0.029 A 
ATOM     45  N   UNL A   1      45.914  26.208  27.151  1.00  0.00    -0.354 N 
ATOM     46  C   UNL A   1      41.914  27.333  28.311  1.00  0.00     0.074 A 
ATOM     47  C   UNL A   1      41.024  26.194  28.267  1.00  0.00     0.031 C 
ATOM     48  C   UNL A   1      47.538  24.826  26.487  1.00  0.00     0.029 A 
ATOM     49  C   UNL A   1      47.245  26.220  26.816  1.00  0.00     0.049 A 
ATOM     50  H   UNL A   1      45.430  27.007  27.464  1.00  0.00     0.167 HD
ATOM     51  C   UNL A   1      41.541  28.575  28.701  1.00  0.00     0.037 A 
ATOM     52  C   UNL A   1      48.119  27.245  26.763  1.00  0.00     0.037 A 
ATOM     53  C   UNL A   1      42.424  29.711  28.751  1.00  0.00     0.049 A 
ATOM     54  C   UNL A   1      47.664  28.634  27.143  1.00  0.00     0.074 A 
ATOM     55  C   UNL A   1      42.143  31.007  29.149  1.00  0.00     0.029 A 
ATOM     56  N   UNL A   1      43.760  29.687  28.384  1.00  0.00    -0.354 N 
ATOM     57  N   UNL A   1      46.488  29.041  27.555  1.00  0.00    -0.248 NA
ATOM     58  C   UNL A   1      48.668  29.705  27.056  1.00  0.00     0.031 C 
ATOM     59  C   UNL A   1      43.296  31.779  28.973  1.00  0.00     0.029 A 
ATOM     60  C   UNL A   1      44.312  30.952  28.524  1.00  0.00     0.049 A 
ATOM     61  H   UNL A   1      44.246  28.891  28.070  1.00  0.00     0.167 HD
ATOM     62  C   UNL A   1      46.619  30.401  27.808  1.00  0.00     0.074 A 
ATOM     63  C   UNL A   1      47.994  30.748  27.519  1.00  0.00     0.031 C 
ATOM     64  C   UNL A   1      45.685  31.284  28.244  1.00  0.00     0.037 A 
BRANCH  51  65
ATOM     65  C   UNL A   1      40.103  28.776  29.085  1.00  0.00     0.064 A 
ATOM     66  C   UNL A   1      39.135  29.164  28.145  1.00  0.00     0.173 A 
ATOM     67  C   UNL A   1      39.684  28.557  30.406  1.00  0.00     0.173 A 
ATOM     68  F   UNL A   1      39.487  29.401  26.872  1.00  0.00    -0.203 F 
ATOM     69  C   UNL A   1      37.807  29.351  28.521  1.00  0.00     0.198 A 
ATOM     70  C   UNL A   1      38.350  28.715  30.770  1.00  0.00     0.198 A 
ATOM     71  F   UNL A   1      40.568  28.184  31.343  1.00  0.00    -0.203 F 
ATOM     72  F   UNL A   1      36.910  29.772  27.617  1.00  0.00    -0.200 F 
ATOM     73  C   UNL A   1      37.414  29.120  29.830  1.00  0.00     0.200 A 
ATOM     74  F   UNL A   1      37.970  28.480  32.033  1.00  0.00    -0.200 F 
ATOM     75  F   UNL A   1      36.135  29.295  30.188  1.00  0.00    -0.200 F 
ENDBRANCH  51  65
BRANCH  52  76
ATOM     76  C   UNL A   1      49.522  27.009  26.329  1.00  0.00     0.064 A 
ATOM     77  C   UNL A   1      49.873  27.025  24.972  1.00  0.00     0.173 A 
ATOM     78  C   UNL A   1      50.532  26.722  27.260  1.00  0.00     0.173 A 
ATOM     79  F   UNL A   1      48.937  27.263  24.042  1.00  0.00    -0.203 F 
ATOM     80  C   UNL A   1      51.174  26.741  24.561  1.00  0.00     0.198 A 
ATOM     81  C   UNL A   1      51.839  26.469  26.850  1.00  0.00     0.198 A 
ATOM     82  F   UNL A   1      50.248  26.686  28.570  1.00  0.00    -0.203 F 
ATOM     83  F   UNL A   1      51.469  26.708  23.254  1.00  0.00    -0.200 F 
ATOM     84  C   UNL A   1      52.157  26.469  25.500  1.00  0.00     0.200 A 
ATOM     85  F   UNL A   1      52.788  26.213  27.761  1.00  0.00    -0.200 F 
ATOM     86  F   UNL A   1      53.407  26.194  25.103  1.00  0.00    -0.200 F 
ENDBRANCH  52  76
BRANCH  64  87
ATOM     87  C   UNL A   1      46.130  32.702  28.482  1.00  0.00     0.064 A 
ATOM     88  C   UNL A   1      46.634  33.123  29.722  1.00  0.00     0.173 A 
ATOM     89  C   UNL A   1      46.072  33.645  27.444  1.00  0.00     0.173 A 
ATOM     90  F   UNL A   1      46.701  32.264  30.751  1.00  0.00    -0.203 F 
ATOM     91  C   UNL A   1      47.027  34.444  29.924  1.00  0.00     0.198 A 
ATOM     92  C   UNL A   1      46.498  34.957  27.640  1.00  0.00     0.198 A 
ATOM     93  F   UNL A   1      45.609  33.294  26.235  1.00  0.00    -0.203 F 
ATOM     94  F   UNL A   1      47.447  34.837  31.134  1.00  0.00    -0.200 F 
ATOM     95  C   UNL A   1      46.964  35.357  28.882  1.00  0.00     0.200 A 
ATOM     96  F   UNL A   1      46.453  35.833  26.627  1.00  0.00    -0.200 F 
ATOM     97  F   UNL A   1      47.344  36.627  29.079  1.00  0.00    -0.200 F 
ENDBRANCH  64  87
ENDBRANCH  38  39
ENDBRANCH  31  33
ENDBRANCH  30  31
ENDBRANCH  29  30
ENDBRANCH  28  29
ENDBRANCH  27  28
ENDBRANCH  26  27
ENDBRANCH   1  26
TORSDOF 21
ENDMDL
