MODEL 1
REMARK VINA RESULT:      -8.6      0.000      0.000
REMARK SMILES O=C(C[C@@H]1CSCC[NH2+]1)NC[C@@H](C(=O)OCCOCCOCCOC(=O)c1ccc(-c2c3nc(c(-c4c(F)c(F)c(F)c(F)c4F)c4ccc([nH]4)c(-c4c(F)c(F)c(F)c(F)c4F)c4nc(c(-c5c(F)c(F)c(F)c(F)c5F)c5ccc2[nH]5)C=C4)C=C3)cc1)c1ccccc1
REMARK SMILES IDX 19 1 18 2 17 3 16 4 15 5 13 6 14 7 12 8 11 9 10 10 1 11 2 12
REMARK SMILES IDX 3 14 4 15 5 16 9 17 6 18 8 19 7 22 90 23 91 24 95 25 92 26
REMARK SMILES IDX 94 27 93 28 20 29 21 30 22 31 23 32 24 33 25 34 26 35 27 36
REMARK SMILES IDX 28 37 89 38 29 39 88 40 30 41 31 42 32 43 82 44 33 45 87 46
REMARK SMILES IDX 81 47 83 48 34 49 86 50 80 51 79 52 35 54 67 55 47 56 66 57
REMARK SMILES IDX 48 58 51 59 65 60 84 61 49 62 50 63 64 65 85 66 52 67 36 68
REMARK SMILES IDX 37 69 45 70 38 71 39 72 43 73 46 74 40 75 41 76 44 77 42 78
REMARK SMILES IDX 68 79 69 80 77 81 70 82 71 83 75 84 78 85 72 86 73 87 76 88
REMARK SMILES IDX 74 89 53 90 54 91 62 92 55 93 56 94 60 95 63 96 57 97 58 98
REMARK SMILES IDX 61 99 59 100
REMARK H PARENT 10 13 9 20 9 21 83 53 51 64
REMARK Flexibility Score: inf
ROOT
ATOM      1  C   UNL A   1      34.045  35.039  31.354  1.00  0.00     0.188 C 
ENDROOT
BRANCH   1   2
ATOM      2  O   UNL A   1      34.075  33.769  31.987  1.00  0.00    -0.376 OA
BRANCH   2   3
ATOM      3  C   UNL A   1      34.360  33.705  33.378  1.00  0.00     0.202 C 
BRANCH   3   4
ATOM      4  C   UNL A   1      35.508  34.552  33.964  1.00  0.00     0.261 C 
BRANCH   4   5
ATOM      5  O   UNL A   1      36.639  34.806  33.092  1.00  0.00    -0.463 OA
BRANCH   5   6
ATOM      6  C   UNL A   1      37.869  34.694  33.668  1.00  0.00     0.315 C 
ATOM      7  O   UNL A   1      38.123  35.132  34.787  1.00  0.00    -0.251 OA
BRANCH   6   8
ATOM      8  C   UNL A   1      38.943  33.977  32.827  1.00  0.00     0.148 C 
BRANCH   8   9
ATOM      9  C   UNL A   1      39.065  34.181  31.305  1.00  0.00     0.136 C 
BRANCH   9  10
ATOM     10  N   UNL A   1      40.362  34.615  30.833  1.00  0.00    -0.355 N 
ATOM     11  O   UNL A   1      39.717  34.906  28.644  1.00  0.00    -0.275 OA
ATOM     12  C   UNL A   1      40.589  34.910  29.503  1.00  0.00     0.226 C 
ATOM     13  H   UNL A   1      41.102  34.703  31.476  1.00  0.00     0.163 HD
BRANCH  12  14
ATOM     14  C   UNL A   1      42.037  35.205  29.195  1.00  0.00     0.165 C 
BRANCH  14  15
ATOM     15  C   UNL A   1      42.196  36.285  28.111  1.00  0.00     0.201 C 
ATOM     16  C   UNL A   1      42.390  35.699  26.694  1.00  0.00     0.135 C 
ATOM     17  N   UNL A   1      43.275  37.244  28.455  1.00  0.00    -0.342 N 
ATOM     18  S   UNL A   1      43.964  34.797  26.471  1.00  0.00    -0.150 SA
ATOM     19  C   UNL A   1      44.602  36.612  28.501  1.00  0.00     0.271 C 
ATOM     20  H   UNL A   1      43.074  37.646  29.371  1.00  0.00     0.346 HD
ATOM     21  H   UNL A   1      43.297  37.956  27.726  1.00  0.00     0.346 HD
ATOM     22  C   UNL A   1      45.081  36.062  27.154  1.00  0.00     0.131 C 
ENDBRANCH  14  15
ENDBRANCH  12  14
ENDBRANCH   9  10
ENDBRANCH   8   9
BRANCH   8  23
ATOM     23  C   UNL A   1      38.926  32.484  33.163  1.00  0.00    -0.032 A 
ATOM     24  C   UNL A   1      37.909  31.630  32.705  1.00  0.00     0.004 A 
ATOM     25  C   UNL A   1      39.905  31.953  34.014  1.00  0.00     0.004 A 
ATOM     26  C   UNL A   1      37.867  30.294  33.102  1.00  0.00     0.000 A 
ATOM     27  C   UNL A   1      39.859  30.614  34.408  1.00  0.00     0.000 A 
ATOM     28  C   UNL A   1      38.835  29.786  33.959  1.00  0.00     0.000 A 
ENDBRANCH   8  23
ENDBRANCH   6   8
ENDBRANCH   5   6
ENDBRANCH   4   5
ENDBRANCH   3   4
ENDBRANCH   2   3
ENDBRANCH   1   2
BRANCH   1  29
ATOM     29  C   UNL A   1      33.095  35.254  30.160  1.00  0.00     0.188 C 
BRANCH  29  30
ATOM     30  O   UNL A   1      33.159  34.251  29.172  1.00  0.00    -0.376 OA
BRANCH  30  31
ATOM     31  C   UNL A   1      34.278  34.287  28.301  1.00  0.00     0.202 C 
BRANCH  31  32
ATOM     32  C   UNL A   1      35.253  33.095  28.308  1.00  0.00     0.261 C 
BRANCH  32  33
ATOM     33  O   UNL A   1      34.831  31.906  29.007  1.00  0.00    -0.460 OA
BRANCH  33  34
ATOM     34  C   UNL A   1      34.842  30.739  28.325  1.00  0.00     0.338 C 
ATOM     35  O   UNL A   1      33.956  30.313  27.598  1.00  0.00    -0.246 OA
BRANCH  34  36
ATOM     36  C   UNL A   1      36.201  30.148  28.411  1.00  0.00     0.060 A 
ATOM     37  C   UNL A   1      36.593  29.531  29.607  1.00  0.00     0.016 A 
ATOM     38  C   UNL A   1      37.092  30.202  27.335  1.00  0.00     0.016 A 
ATOM     39  C   UNL A   1      37.876  28.987  29.733  1.00  0.00     0.010 A 
ATOM     40  C   UNL A   1      38.387  29.672  27.471  1.00  0.00     0.010 A 
ATOM     41  C   UNL A   1      38.794  29.074  28.675  1.00  0.00    -0.014 A 
BRANCH  41  42
ATOM     42  C   UNL A   1      40.211  28.671  28.906  1.00  0.00     0.031 A 
ATOM     43  C   UNL A   1      41.101  29.568  29.724  1.00  0.00     0.074 A 
ATOM     44  C   UNL A   1      40.693  27.497  28.456  1.00  0.00     0.049 A 
ATOM     45  N   UNL A   1      42.353  29.407  30.073  1.00  0.00    -0.248 NA
ATOM     46  C   UNL A   1      40.497  30.819  30.207  1.00  0.00     0.031 C 
ATOM     47  C   UNL A   1      39.948  26.534  27.653  1.00  0.00     0.029 A 
ATOM     48  N   UNL A   1      41.926  26.907  28.626  1.00  0.00    -0.354 N 
ATOM     49  C   UNL A   1      42.688  30.534  30.813  1.00  0.00     0.074 A 
ATOM     50  C   UNL A   1      41.514  31.381  30.843  1.00  0.00     0.031 C 
ATOM     51  C   UNL A   1      40.719  25.454  27.435  1.00  0.00     0.029 A 
ATOM     52  C   UNL A   1      42.037  25.672  28.032  1.00  0.00     0.049 A 
ATOM     53  H   UNL A   1      42.660  27.331  29.126  1.00  0.00     0.167 HD
ATOM     54  C   UNL A   1      43.865  30.838  31.412  1.00  0.00     0.037 A 
ATOM     55  C   UNL A   1      43.086  24.825  27.958  1.00  0.00     0.037 A 
ATOM     56  C   UNL A   1      45.044  30.012  31.366  1.00  0.00     0.049 A 
ATOM     57  C   UNL A   1      44.401  25.215  28.596  1.00  0.00     0.074 A 
ATOM     58  C   UNL A   1      46.289  30.255  31.920  1.00  0.00     0.029 A 
ATOM     59  N   UNL A   1      45.128  28.785  30.727  1.00  0.00    -0.354 N 
ATOM     60  N   UNL A   1      44.703  26.280  29.297  1.00  0.00    -0.248 NA
ATOM     61  C   UNL A   1      45.527  24.284  28.416  1.00  0.00     0.031 C 
ATOM     62  C   UNL A   1      47.141  29.201  31.573  1.00  0.00     0.029 A 
ATOM     63  C   UNL A   1      46.409  28.268  30.858  1.00  0.00     0.049 A 
ATOM     64  H   UNL A   1      44.388  28.344  30.250  1.00  0.00     0.167 HD
ATOM     65  C   UNL A   1      46.040  26.142  29.649  1.00  0.00     0.074 A 
ATOM     66  C   UNL A   1      46.482  24.869  29.122  1.00  0.00     0.031 C 
ATOM     67  C   UNL A   1      46.840  26.998  30.333  1.00  0.00     0.037 A 
BRANCH  54  68
ATOM     68  C   UNL A   1      43.947  32.141  32.150  1.00  0.00     0.064 A 
ATOM     69  C   UNL A   1      44.351  33.323  31.513  1.00  0.00     0.173 A 
ATOM     70  C   UNL A   1      43.574  32.218  33.501  1.00  0.00     0.173 A 
ATOM     71  F   UNL A   1      44.733  33.300  30.227  1.00  0.00    -0.203 F 
ATOM     72  C   UNL A   1      44.397  34.530  32.206  1.00  0.00     0.198 A 
ATOM     73  C   UNL A   1      43.592  33.432  34.182  1.00  0.00     0.198 A 
ATOM     74  F   UNL A   1      43.178  31.117  34.158  1.00  0.00    -0.203 F 
ATOM     75  F   UNL A   1      44.827  35.640  31.588  1.00  0.00    -0.200 F 
ATOM     76  C   UNL A   1      44.009  34.586  33.536  1.00  0.00     0.200 A 
ATOM     77  F   UNL A   1      43.203  33.485  35.464  1.00  0.00    -0.200 F 
ATOM     78  F   UNL A   1      44.043  35.750  34.198  1.00  0.00    -0.200 F 
ENDBRANCH  54  68
BRANCH  55  79
ATOM     79  C   UNL A   1      42.975  23.536  27.214  1.00  0.00     0.064 A 
ATOM     80  C   UNL A   1      42.403  22.398  27.806  1.00  0.00     0.173 A 
ATOM     81  C   UNL A   1      43.509  23.392  25.925  1.00  0.00     0.173 A 
ATOM     82  F   UNL A   1      41.906  22.468  29.051  1.00  0.00    -0.203 F 
ATOM     83  C   UNL A   1      42.407  21.164  27.155  1.00  0.00     0.198 A 
ATOM     84  C   UNL A   1      43.471  22.170  25.257  1.00  0.00     0.198 A 
ATOM     85  F   UNL A   1      44.077  24.441  25.312  1.00  0.00    -0.203 F 
ATOM     86  F   UNL A   1      41.929  20.079  27.778  1.00  0.00    -0.200 F 
ATOM     87  C   UNL A   1      42.935  21.053  25.879  1.00  0.00     0.200 A 
ATOM     88  F   UNL A   1      43.974  22.072  24.019  1.00  0.00    -0.200 F 
ATOM     89  F   UNL A   1      42.946  19.867  25.255  1.00  0.00    -0.200 F 
ENDBRANCH  55  79
BRANCH  67  90
ATOM     90  C   UNL A   1      48.264  26.575  30.575  1.00  0.00     0.064 A 
ATOM     91  C   UNL A   1      49.290  26.877  29.667  1.00  0.00     0.173 A 
ATOM     92  C   UNL A   1      48.611  25.874  31.741  1.00  0.00     0.173 A 
ATOM     93  F   UNL A   1      49.014  27.536  28.531  1.00  0.00    -0.203 F 
ATOM     94  C   UNL A   1      50.599  26.455  29.894  1.00  0.00     0.198 A 
ATOM     95  C   UNL A   1      49.928  25.487  31.983  1.00  0.00     0.198 A 
ATOM     96  F   UNL A   1      47.675  25.569  32.651  1.00  0.00    -0.203 F 
ATOM     97  F   UNL A   1      51.548  26.698  28.979  1.00  0.00    -0.200 F 
ATOM     98  C   UNL A   1      50.917  25.765  31.054  1.00  0.00     0.200 A 
ATOM     99  F   UNL A   1      50.235  24.836  33.113  1.00  0.00    -0.200 F 
ATOM    100  F   UNL A   1      52.176  25.362  31.272  1.00  0.00    -0.200 F 
ENDBRANCH  67  90
ENDBRANCH  41  42
ENDBRANCH  34  36
ENDBRANCH  33  34
ENDBRANCH  32  33
ENDBRANCH  31  32
ENDBRANCH  30  31
ENDBRANCH  29  30
ENDBRANCH   1  29
TORSDOF 22
ENDMDL
MODEL 2
REMARK VINA RESULT:      -8.4      4.854      8.312
REMARK SMILES O=C(C[C@@H]1CSCC[NH2+]1)NC[C@@H](C(=O)OCCOCCOCCOC(=O)c1ccc(-c2c3nc(c(-c4c(F)c(F)c(F)c(F)c4F)c4ccc([nH]4)c(-c4c(F)c(F)c(F)c(F)c4F)c4nc(c(-c5c(F)c(F)c(F)c(F)c5F)c5ccc2[nH]5)C=C4)C=C3)cc1)c1ccccc1
REMARK SMILES IDX 19 1 18 2 17 3 16 4 15 5 13 6 14 7 12 8 11 9 10 10 1 11 2 12
REMARK SMILES IDX 3 14 4 15 5 16 9 17 6 18 8 19 7 22 90 23 91 24 95 25 92 26
REMARK SMILES IDX 94 27 93 28 20 29 21 30 22 31 23 32 24 33 25 34 26 35 27 36
REMARK SMILES IDX 28 37 89 38 29 39 88 40 30 41 31 42 32 43 82 44 33 45 87 46
REMARK SMILES IDX 81 47 83 48 34 49 86 50 80 51 79 52 35 54 67 55 47 56 66 57
REMARK SMILES IDX 48 58 51 59 65 60 84 61 49 62 50 63 64 65 85 66 52 67 36 68
REMARK SMILES IDX 37 69 45 70 38 71 39 72 43 73 46 74 40 75 41 76 44 77 42 78
REMARK SMILES IDX 68 79 69 80 77 81 70 82 71 83 75 84 78 85 72 86 73 87 76 88
REMARK SMILES IDX 74 89 53 90 54 91 62 92 55 93 56 94 60 95 63 96 57 97 58 98
REMARK SMILES IDX 61 99 59 100
REMARK H PARENT 10 13 9 20 9 21 83 53 51 64
REMARK Flexibility Score: inf
ROOT
ATOM      1  C   UNL A   1      35.382  31.435  28.679  1.00  0.00     0.188 C 
ENDROOT
BRANCH   1   2
ATOM      2  O   UNL A   1      35.158  30.438  27.695  1.00  0.00    -0.376 OA
BRANCH   2   3
ATOM      3  C   UNL A   1      33.846  30.274  27.172  1.00  0.00     0.202 C 
BRANCH   3   4
ATOM      4  C   UNL A   1      33.361  28.874  26.746  1.00  0.00     0.261 C 
BRANCH   4   5
ATOM      5  O   UNL A   1      31.926  28.684  26.651  1.00  0.00    -0.463 OA
BRANCH   5   6
ATOM      6  C   UNL A   1      31.417  28.629  25.389  1.00  0.00     0.315 C 
ATOM      7  O   UNL A   1      31.441  29.586  24.617  1.00  0.00    -0.251 OA
BRANCH   6   8
ATOM      8  C   UNL A   1      30.799  27.281  24.971  1.00  0.00     0.148 C 
BRANCH   8   9
ATOM      9  C   UNL A   1      30.437  26.191  25.998  1.00  0.00     0.136 C 
BRANCH   9  10
ATOM     10  N   UNL A   1      30.929  24.863  25.702  1.00  0.00    -0.355 N 
ATOM     11  O   UNL A   1      29.666  23.796  27.301  1.00  0.00    -0.275 OA
ATOM     12  C   UNL A   1      30.519  23.760  26.423  1.00  0.00     0.226 C 
ATOM     13  H   UNL A   1      31.573  24.743  24.967  1.00  0.00     0.163 HD
BRANCH  12  14
ATOM     14  C   UNL A   1      31.254  22.495  26.051  1.00  0.00     0.165 C 
BRANCH  14  15
ATOM     15  C   UNL A   1      32.505  22.774  25.201  1.00  0.00     0.201 C 
ATOM     16  C   UNL A   1      32.455  22.105  23.808  1.00  0.00     0.135 C 
ATOM     17  N   UNL A   1      33.747  22.420  25.931  1.00  0.00    -0.342 N 
ATOM     18  S   UNL A   1      32.512  20.278  23.860  1.00  0.00    -0.150 SA
ATOM     19  C   UNL A   1      33.846  20.980  26.216  1.00  0.00     0.271 C 
ATOM     20  H   UNL A   1      33.763  22.928  26.814  1.00  0.00     0.346 HD
ATOM     21  H   UNL A   1      34.536  22.671  25.336  1.00  0.00     0.346 HD
ATOM     22  C   UNL A   1      33.946  20.099  24.967  1.00  0.00     0.131 C 
ENDBRANCH  14  15
ENDBRANCH  12  14
ENDBRANCH   9  10
ENDBRANCH   8   9
BRANCH   8  23
ATOM     23  C   UNL A   1      31.626  26.684  23.831  1.00  0.00    -0.032 A 
ATOM     24  C   UNL A   1      33.001  26.429  23.963  1.00  0.00     0.004 A 
ATOM     25  C   UNL A   1      31.025  26.449  22.586  1.00  0.00     0.004 A 
ATOM     26  C   UNL A   1      33.750  25.971  22.880  1.00  0.00     0.000 A 
ATOM     27  C   UNL A   1      31.779  25.990  21.504  1.00  0.00     0.000 A 
ATOM     28  C   UNL A   1      33.143  25.759  21.648  1.00  0.00     0.000 A 
ENDBRANCH   8  23
ENDBRANCH   6   8
ENDBRANCH   5   6
ENDBRANCH   4   5
ENDBRANCH   3   4
ENDBRANCH   2   3
ENDBRANCH   1   2
BRANCH   1  29
ATOM     29  C   UNL A   1      34.358  32.576  28.829  1.00  0.00     0.188 C 
BRANCH  29  30
ATOM     30  O   UNL A   1      34.522  33.363  29.987  1.00  0.00    -0.376 OA
BRANCH  30  31
ATOM     31  C   UNL A   1      34.400  32.695  31.232  1.00  0.00     0.202 C 
BRANCH  31  32
ATOM     32  C   UNL A   1      34.732  33.474  32.519  1.00  0.00     0.261 C 
BRANCH  32  33
ATOM     33  O   UNL A   1      36.125  33.736  32.787  1.00  0.00    -0.460 OA
BRANCH  33  34
ATOM     34  C   UNL A   1      36.817  32.806  33.483  1.00  0.00     0.338 C 
ATOM     35  O   UNL A   1      36.586  32.429  34.622  1.00  0.00    -0.246 OA
BRANCH  34  36
ATOM     36  C   UNL A   1      37.773  32.138  32.564  1.00  0.00     0.060 A 
ATOM     37  C   UNL A   1      38.733  31.272  33.104  1.00  0.00     0.016 A 
ATOM     38  C   UNL A   1      37.739  32.361  31.184  1.00  0.00     0.016 A 
ATOM     39  C   UNL A   1      39.666  30.645  32.271  1.00  0.00     0.010 A 
ATOM     40  C   UNL A   1      38.691  31.746  30.352  1.00  0.00     0.010 A 
ATOM     41  C   UNL A   1      39.671  30.895  30.890  1.00  0.00    -0.014 A 
BRANCH  41  42
ATOM     42  C   UNL A   1      40.796  30.378  30.060  1.00  0.00     0.031 A 
ATOM     43  C   UNL A   1      41.970  31.278  29.781  1.00  0.00     0.074 A 
ATOM     44  C   UNL A   1      40.816  29.109  29.610  1.00  0.00     0.049 A 
ATOM     45  N   UNL A   1      43.067  31.034  29.108  1.00  0.00    -0.248 NA
ATOM     46  C   UNL A   1      41.891  32.640  30.329  1.00  0.00     0.031 C 
ATOM     47  C   UNL A   1      39.752  28.131  29.804  1.00  0.00     0.029 A 
ATOM     48  N   UNL A   1      41.780  28.420  28.908  1.00  0.00    -0.354 N 
ATOM     49  C   UNL A   1      43.807  32.208  29.149  1.00  0.00     0.074 A 
ATOM     50  C   UNL A   1      43.024  33.172  29.894  1.00  0.00     0.031 C 
ATOM     51  C   UNL A   1      40.135  26.955  29.275  1.00  0.00     0.029 A 
ATOM     52  C   UNL A   1      41.449  27.110  28.651  1.00  0.00     0.049 A 
ATOM     53  H   UNL A   1      42.628  28.828  28.618  1.00  0.00     0.167 HD
ATOM     54  C   UNL A   1      45.026  32.463  28.616  1.00  0.00     0.037 A 
ATOM     55  C   UNL A   1      42.116  26.154  27.970  1.00  0.00     0.037 A 
ATOM     56  C   UNL A   1      45.801  31.518  27.853  1.00  0.00     0.049 A 
ATOM     57  C   UNL A   1      43.454  26.485  27.344  1.00  0.00     0.074 A 
ATOM     58  C   UNL A   1      47.033  31.700  27.250  1.00  0.00     0.029 A 
ATOM     59  N   UNL A   1      45.416  30.213  27.584  1.00  0.00    -0.354 N 
ATOM     60  N   UNL A   1      44.144  27.597  27.395  1.00  0.00    -0.248 NA
ATOM     61  C   UNL A   1      44.095  25.424  26.552  1.00  0.00     0.031 C 
ATOM     62  C   UNL A   1      47.372  30.524  26.573  1.00  0.00     0.029 A 
ATOM     63  C   UNL A   1      46.381  29.586  26.809  1.00  0.00     0.049 A 
ATOM     64  H   UNL A   1      44.583  29.794  27.897  1.00  0.00     0.167 HD
ATOM     65  C   UNL A   1      45.300  27.366  26.658  1.00  0.00     0.074 A 
ATOM     66  C   UNL A   1      45.239  25.994  26.204  1.00  0.00     0.031 C 
ATOM     67  C   UNL A   1      46.314  28.217  26.364  1.00  0.00     0.037 A 
BRANCH  54  68
ATOM     68  C   UNL A   1      45.592  33.839  28.813  1.00  0.00     0.064 A 
ATOM     69  C   UNL A   1      46.429  34.141  29.897  1.00  0.00     0.173 A 
ATOM     70  C   UNL A   1      45.330  34.856  27.882  1.00  0.00     0.173 A 
ATOM     71  F   UNL A   1      46.697  33.209  30.823  1.00  0.00    -0.203 F 
ATOM     72  C   UNL A   1      46.968  35.416  30.051  1.00  0.00     0.198 A 
ATOM     73  C   UNL A   1      45.895  36.120  28.023  1.00  0.00     0.198 A 
ATOM     74  F   UNL A   1      44.537  34.620  26.826  1.00  0.00    -0.203 F 
ATOM     75  F   UNL A   1      47.732  35.694  31.118  1.00  0.00    -0.200 F 
ATOM     76  C   UNL A   1      46.709  36.401  29.111  1.00  0.00     0.200 A 
ATOM     77  F   UNL A   1      45.653  37.067  27.105  1.00  0.00    -0.200 F 
ATOM     78  F   UNL A   1      47.237  37.624  29.254  1.00  0.00    -0.200 F 
ENDBRANCH  54  68
BRANCH  55  79
ATOM     79  C   UNL A   1      41.527  24.795  27.788  1.00  0.00     0.064 A 
ATOM     80  C   UNL A   1      42.090  23.666  28.404  1.00  0.00     0.173 A 
ATOM     81  C   UNL A   1      40.437  24.585  26.931  1.00  0.00     0.173 A 
ATOM     82  F   UNL A   1      43.156  23.803  29.208  1.00  0.00    -0.203 F 
ATOM     83  C   UNL A   1      41.612  22.383  28.139  1.00  0.00     0.198 A 
ATOM     84  C   UNL A   1      39.931  23.307  26.702  1.00  0.00     0.198 A 
ATOM     85  F   UNL A   1      39.863  25.623  26.306  1.00  0.00    -0.203 F 
ATOM     86  F   UNL A   1      42.223  21.319  28.678  1.00  0.00    -0.200 F 
ATOM     87  C   UNL A   1      40.528  22.205  27.294  1.00  0.00     0.200 A 
ATOM     88  F   UNL A   1      38.875  23.143  25.892  1.00  0.00    -0.200 F 
ATOM     89  F   UNL A   1      40.073  20.972  27.034  1.00  0.00    -0.200 F 
ENDBRANCH  55  79
BRANCH  67  90
ATOM     90  C   UNL A   1      47.454  27.682  25.540  1.00  0.00     0.064 A 
ATOM     91  C   UNL A   1      48.567  27.062  26.129  1.00  0.00     0.173 A 
ATOM     92  C   UNL A   1      47.424  27.773  24.139  1.00  0.00     0.173 A 
ATOM     93  F   UNL A   1      48.653  26.957  27.464  1.00  0.00    -0.203 F 
ATOM     94  C   UNL A   1      49.625  26.595  25.352  1.00  0.00     0.198 A 
ATOM     95  C   UNL A   1      48.467  27.271  23.363  1.00  0.00     0.198 A 
ATOM     96  F   UNL A   1      46.381  28.343  23.519  1.00  0.00    -0.203 F 
ATOM     97  F   UNL A   1      50.707  26.069  25.943  1.00  0.00    -0.200 F 
ATOM     98  C   UNL A   1      49.572  26.695  23.970  1.00  0.00     0.200 A 
ATOM     99  F   UNL A   1      48.405  27.352  22.027  1.00  0.00    -0.200 F 
ATOM    100  F   UNL A   1      50.589  26.244  23.224  1.00  0.00    -0.200 F 
ENDBRANCH  67  90
ENDBRANCH  41  42
ENDBRANCH  34  36
ENDBRANCH  33  34
ENDBRANCH  32  33
ENDBRANCH  31  32
ENDBRANCH  30  31
ENDBRANCH  29  30
ENDBRANCH   1  29
TORSDOF 22
ENDMDL
MODEL 3
REMARK VINA RESULT:      -8.1      5.005     10.587
REMARK SMILES O=C(C[C@@H]1CSCC[NH2+]1)NC[C@@H](C(=O)OCCOCCOCCOC(=O)c1ccc(-c2c3nc(c(-c4c(F)c(F)c(F)c(F)c4F)c4ccc([nH]4)c(-c4c(F)c(F)c(F)c(F)c4F)c4nc(c(-c5c(F)c(F)c(F)c(F)c5F)c5ccc2[nH]5)C=C4)C=C3)cc1)c1ccccc1
REMARK SMILES IDX 19 1 18 2 17 3 16 4 15 5 13 6 14 7 12 8 11 9 10 10 1 11 2 12
REMARK SMILES IDX 3 14 4 15 5 16 9 17 6 18 8 19 7 22 90 23 91 24 95 25 92 26
REMARK SMILES IDX 94 27 93 28 20 29 21 30 22 31 23 32 24 33 25 34 26 35 27 36
REMARK SMILES IDX 28 37 89 38 29 39 88 40 30 41 31 42 32 43 82 44 33 45 87 46
REMARK SMILES IDX 81 47 83 48 34 49 86 50 80 51 79 52 35 54 67 55 47 56 66 57
REMARK SMILES IDX 48 58 51 59 65 60 84 61 49 62 50 63 64 65 85 66 52 67 36 68
REMARK SMILES IDX 37 69 45 70 38 71 39 72 43 73 46 74 40 75 41 76 44 77 42 78
REMARK SMILES IDX 68 79 69 80 77 81 70 82 71 83 75 84 78 85 72 86 73 87 76 88
REMARK SMILES IDX 74 89 53 90 54 91 62 92 55 93 56 94 60 95 63 96 57 97 58 98
REMARK SMILES IDX 61 99 59 100
REMARK H PARENT 10 13 9 20 9 21 83 53 51 64
REMARK Flexibility Score: inf
ROOT
ATOM      1  C   UNL A   1      35.653  31.041  28.373  1.00  0.00     0.188 C 
ENDROOT
BRANCH   1   2
ATOM      2  O   UNL A   1      35.458  29.979  27.453  1.00  0.00    -0.376 OA
BRANCH   2   3
ATOM      3  C   UNL A   1      34.136  29.673  27.031  1.00  0.00     0.202 C 
BRANCH   3   4
ATOM      4  C   UNL A   1      33.711  28.201  26.849  1.00  0.00     0.261 C 
BRANCH   4   5
ATOM      5  O   UNL A   1      32.286  27.932  26.845  1.00  0.00    -0.463 OA
BRANCH   5   6
ATOM      6  C   UNL A   1      31.642  28.161  25.666  1.00  0.00     0.315 C 
ATOM      7  O   UNL A   1      31.673  29.247  25.090  1.00  0.00    -0.251 OA
BRANCH   6   8
ATOM      8  C   UNL A   1      30.861  26.968  25.083  1.00  0.00     0.148 C 
BRANCH   8   9
ATOM      9  C   UNL A   1      30.245  25.875  25.977  1.00  0.00     0.136 C 
BRANCH   9  10
ATOM     10  N   UNL A   1      30.387  24.518  25.495  1.00  0.00    -0.355 N 
ATOM     11  O   UNL A   1      31.656  23.785  27.268  1.00  0.00    -0.275 OA
ATOM     12  C   UNL A   1      31.130  23.579  26.181  1.00  0.00     0.226 C 
ATOM     13  H   UNL A   1      29.942  24.257  24.657  1.00  0.00     0.163 HD
BRANCH  12  14
ATOM     14  C   UNL A   1      31.270  22.270  25.442  1.00  0.00     0.165 C 
BRANCH  14  15
ATOM     15  C   UNL A   1      32.375  22.318  24.373  1.00  0.00     0.201 C 
ATOM     16  C   UNL A   1      32.315  21.130  23.385  1.00  0.00     0.135 C 
ATOM     17  N   UNL A   1      33.719  22.447  24.987  1.00  0.00    -0.342 N 
ATOM     18  S   UNL A   1      32.685  19.510  24.146  1.00  0.00    -0.150 SA
ATOM     19  C   UNL A   1      34.086  21.277  25.801  1.00  0.00     0.271 C 
ATOM     20  H   UNL A   1      33.727  23.274  25.584  1.00  0.00     0.346 HD
ATOM     21  H   UNL A   1      34.398  22.520  24.230  1.00  0.00     0.346 HD
ATOM     22  C   UNL A   1      34.221  19.977  25.004  1.00  0.00     0.131 C 
ENDBRANCH  14  15
ENDBRANCH  12  14
ENDBRANCH   9  10
ENDBRANCH   8   9
BRANCH   8  23
ATOM     23  C   UNL A   1      31.683  26.334  23.958  1.00  0.00    -0.032 A 
ATOM     24  C   UNL A   1      33.047  26.035  24.111  1.00  0.00     0.004 A 
ATOM     25  C   UNL A   1      31.091  26.110  22.708  1.00  0.00     0.004 A 
ATOM     26  C   UNL A   1      33.794  25.544  23.041  1.00  0.00     0.000 A 
ATOM     27  C   UNL A   1      31.843  25.617  21.639  1.00  0.00     0.000 A 
ATOM     28  C   UNL A   1      33.197  25.342  21.803  1.00  0.00     0.000 A 
ENDBRANCH   8  23
ENDBRANCH   6   8
ENDBRANCH   5   6
ENDBRANCH   4   5
ENDBRANCH   3   4
ENDBRANCH   2   3
ENDBRANCH   1   2
BRANCH   1  29
ATOM     29  C   UNL A   1      34.686  32.240  28.342  1.00  0.00     0.188 C 
BRANCH  29  30
ATOM     30  O   UNL A   1      34.838  33.144  29.413  1.00  0.00    -0.376 OA
BRANCH  30  31
ATOM     31  C   UNL A   1      34.612  32.630  30.715  1.00  0.00     0.202 C 
BRANCH  31  32
ATOM     32  C   UNL A   1      34.941  33.525  31.925  1.00  0.00     0.261 C 
BRANCH  32  33
ATOM     33  O   UNL A   1      36.329  33.855  32.139  1.00  0.00    -0.460 OA
BRANCH  33  34
ATOM     34  C   UNL A   1      37.059  33.028  32.920  1.00  0.00     0.338 C 
ATOM     35  O   UNL A   1      36.804  32.701  34.070  1.00  0.00    -0.246 OA
BRANCH  34  36
ATOM     36  C   UNL A   1      38.109  32.390  32.087  1.00  0.00     0.060 A 
ATOM     37  C   UNL A   1      38.967  31.457  32.684  1.00  0.00     0.016 A 
ATOM     38  C   UNL A   1      38.260  32.703  30.733  1.00  0.00     0.016 A 
ATOM     39  C   UNL A   1      39.985  30.855  31.936  1.00  0.00     0.010 A 
ATOM     40  C   UNL A   1      39.296  32.111  29.989  1.00  0.00     0.010 A 
ATOM     41  C   UNL A   1      40.176  31.194  30.588  1.00  0.00    -0.014 A 
BRANCH  41  42
ATOM     42  C   UNL A   1      41.385  30.694  29.875  1.00  0.00     0.031 A 
ATOM     43  C   UNL A   1      41.355  29.316  29.267  1.00  0.00     0.074 A 
ATOM     44  C   UNL A   1      42.475  31.465  29.707  1.00  0.00     0.049 A 
ATOM     45  N   UNL A   1      42.277  28.687  28.583  1.00  0.00    -0.248 NA
ATOM     46  C   UNL A   1      40.120  28.543  29.466  1.00  0.00     0.031 C 
ATOM     47  C   UNL A   1      42.643  32.812  30.239  1.00  0.00     0.029 A 
ATOM     48  N   UNL A   1      43.647  31.228  29.022  1.00  0.00    -0.354 N 
ATOM     49  C   UNL A   1      41.737  27.446  28.271  1.00  0.00     0.074 A 
ATOM     50  C   UNL A   1      40.416  27.402  28.861  1.00  0.00     0.031 C 
ATOM     51  C   UNL A   1      43.826  33.303  29.828  1.00  0.00     0.029 A 
ATOM     52  C   UNL A   1      44.529  32.283  29.050  1.00  0.00     0.049 A 
ATOM     53  H   UNL A   1      43.835  30.382  28.556  1.00  0.00     0.167 HD
ATOM     54  C   UNL A   1      42.290  26.433  27.561  1.00  0.00     0.037 A 
ATOM     55  C   UNL A   1      45.770  32.403  28.531  1.00  0.00     0.037 A 
ATOM     56  C   UNL A   1      43.613  26.459  26.991  1.00  0.00     0.049 A 
ATOM     57  C   UNL A   1      46.378  31.237  27.784  1.00  0.00     0.074 A 
ATOM     58  C   UNL A   1      44.265  25.466  26.280  1.00  0.00     0.029 A 
ATOM     59  N   UNL A   1      44.489  27.531  27.070  1.00  0.00    -0.354 N 
ATOM     60  N   UNL A   1      45.855  30.072  27.492  1.00  0.00    -0.248 NA
ATOM     61  C   UNL A   1      47.760  31.403  27.307  1.00  0.00     0.031 C 
ATOM     62  C   UNL A   1      45.554  25.916  25.973  1.00  0.00     0.029 A 
ATOM     63  C   UNL A   1      45.682  27.215  26.436  1.00  0.00     0.049 A 
ATOM     64  H   UNL A   1      44.294  28.389  27.511  1.00  0.00     0.167 HD
ATOM     65  C   UNL A   1      46.834  29.376  26.791  1.00  0.00     0.074 A 
ATOM     66  C   UNL A   1      47.968  30.264  26.663  1.00  0.00     0.031 C 
ATOM     67  C   UNL A   1      46.806  28.107  26.310  1.00  0.00     0.037 A 
BRANCH  54  68
ATOM     68  C   UNL A   1      41.471  25.189  27.381  1.00  0.00     0.064 A 
ATOM     69  C   UNL A   1      41.748  24.016  28.099  1.00  0.00     0.173 A 
ATOM     70  C   UNL A   1      40.368  25.182  26.513  1.00  0.00     0.173 A 
ATOM     71  F   UNL A   1      42.801  23.966  28.928  1.00  0.00    -0.203 F 
ATOM     72  C   UNL A   1      40.963  22.877  27.940  1.00  0.00     0.198 A 
ATOM     73  C   UNL A   1      39.567  24.052  26.381  1.00  0.00     0.198 A 
ATOM     74  F   UNL A   1      40.058  26.278  25.804  1.00  0.00    -0.203 F 
ATOM     75  F   UNL A   1      41.271  21.754  28.605  1.00  0.00    -0.200 F 
ATOM     76  C   UNL A   1      39.868  22.899  27.089  1.00  0.00     0.200 A 
ATOM     77  F   UNL A   1      38.501  24.080  25.567  1.00  0.00    -0.200 F 
ATOM     78  F   UNL A   1      39.106  21.806  26.946  1.00  0.00    -0.200 F 
ENDBRANCH  54  68
BRANCH  55  79
ATOM     79  C   UNL A   1      46.561  33.653  28.728  1.00  0.00     0.064 A 
ATOM     80  C   UNL A   1      46.521  34.699  27.791  1.00  0.00     0.173 A 
ATOM     81  C   UNL A   1      47.436  33.795  29.816  1.00  0.00     0.173 A 
ATOM     82  F   UNL A   1      45.728  34.602  26.713  1.00  0.00    -0.203 F 
ATOM     83  C   UNL A   1      47.350  35.813  27.916  1.00  0.00     0.198 A 
ATOM     84  C   UNL A   1      48.230  34.930  29.963  1.00  0.00     0.198 A 
ATOM     85  F   UNL A   1      47.525  32.826  30.738  1.00  0.00    -0.203 F 
ATOM     86  F   UNL A   1      47.349  36.755  26.963  1.00  0.00    -0.200 F 
ATOM     87  C   UNL A   1      48.199  35.931  29.005  1.00  0.00     0.200 A 
ATOM     88  F   UNL A   1      49.041  35.043  31.024  1.00  0.00    -0.200 F 
ATOM     89  F   UNL A   1      49.001  36.998  29.121  1.00  0.00    -0.200 F 
ENDBRANCH  55  79
BRANCH  67  90
ATOM     90  C   UNL A   1      48.025  27.616  25.577  1.00  0.00     0.064 A 
ATOM     91  C   UNL A   1      49.121  27.059  26.254  1.00  0.00     0.173 A 
ATOM     92  C   UNL A   1      48.091  27.685  24.177  1.00  0.00     0.173 A 
ATOM     93  F   UNL A   1      49.117  26.977  27.594  1.00  0.00    -0.203 F 
ATOM     94  C   UNL A   1      50.253  26.633  25.563  1.00  0.00     0.198 A 
ATOM     95  C   UNL A   1      49.209  27.223  23.485  1.00  0.00     0.198 A 
ATOM     96  F   UNL A   1      47.069  28.196  23.475  1.00  0.00    -0.203 F 
ATOM     97  F   UNL A   1      51.313  26.168  26.237  1.00  0.00    -0.200 F 
ATOM     98  C   UNL A   1      50.294  26.711  24.179  1.00  0.00     0.200 A 
ATOM     99  F   UNL A   1      49.238  27.283  22.147  1.00  0.00    -0.200 F 
ATOM    100  F   UNL A   1      51.382  26.299  23.515  1.00  0.00    -0.200 F 
ENDBRANCH  67  90
ENDBRANCH  41  42
ENDBRANCH  34  36
ENDBRANCH  33  34
ENDBRANCH  32  33
ENDBRANCH  31  32
ENDBRANCH  30  31
ENDBRANCH  29  30
ENDBRANCH   1  29
TORSDOF 22
ENDMDL
