MODEL 1
REMARK VINA RESULT:     -11.2      0.000      0.000
REMARK SMILES O=C(N[C@@H](Cc1ccc(O)cc1)C(=O)N[C@@H](CO)C(=O)OCCOCCOCCOC(=O)c1ccc(-c2c3nc(c(-c4c(F)c(F)c(F)c(F)c4F)c4ccc([nH]4)c(-c4c(F)c(F)c(F)c(F)c4F)c4nc(c(-c5c(F)c(F)c(F)c(F)c5F)c5ccc2[nH]5)C=C4)C=C3)cc1)c1ccc(F)cc1
REMARK SMILES IDX 24 1 23 2 22 3 21 4 19 5 20 6 16 7 15 8 13 9 14 10 4 12 3 13
REMARK SMILES IDX 1 14 2 15 96 17 97 18 102 19 98 20 101 21 99 22 100 23 5 24
REMARK SMILES IDX 6 25 7 26 12 27 8 28 11 29 9 30 10 31 17 33 18 34 25 36
REMARK SMILES IDX 26 37 27 38 28 39 29 40 30 41 31 42 32 43 33 44 34 45 95 46
REMARK SMILES IDX 35 47 94 48 36 49 37 50 38 51 88 52 39 53 93 54 87 55 89 56
REMARK SMILES IDX 40 57 92 58 86 59 85 60 41 62 73 63 53 64 72 65 54 66 57 67
REMARK SMILES IDX 71 68 90 69 55 70 56 71 70 73 91 74 58 75 42 76 43 77 51 78
REMARK SMILES IDX 44 79 45 80 49 81 52 82 46 83 47 84 50 85 48 86 74 87 75 88
REMARK SMILES IDX 83 89 76 90 77 91 81 92 84 93 78 94 79 95 82 96 80 97 59 98
REMARK SMILES IDX 60 99 68 100 61 101 62 102 66 103 69 104 63 105 64 106
REMARK SMILES IDX 67 107 65 108
REMARK H PARENT 15 11 3 16 10 32 18 35 89 61 57 72
REMARK Flexibility Score: inf
ROOT
ATOM      1  O   UNL A   1      33.218  31.172  27.831  1.00  0.00    -0.376 OA
ENDROOT
BRANCH   1   2
ATOM      2  C   UNL A   1      32.565  30.774  26.629  1.00  0.00     0.202 C 
BRANCH   2   3
ATOM      3  C   UNL A   1      33.256  29.570  25.989  1.00  0.00     0.261 C 
BRANCH   3   4
ATOM      4  O   UNL A   1      32.534  29.076  24.837  1.00  0.00    -0.462 OA
BRANCH   4   5
ATOM      5  C   UNL A   1      33.248  28.843  23.695  1.00  0.00     0.331 C 
ATOM      6  O   UNL A   1      34.471  28.881  23.633  1.00  0.00    -0.250 OA
BRANCH   5   7
ATOM      7  C   UNL A   1      32.319  28.593  22.476  1.00  0.00     0.218 C 
BRANCH   7   8
ATOM      8  N   UNL A   1      32.822  27.514  21.605  1.00  0.00    -0.339 N 
ATOM      9  C   UNL A   1      32.985  26.179  21.756  1.00  0.00     0.243 C 
ATOM     10  O   UNL A   1      33.134  25.540  20.706  1.00  0.00    -0.273 OA
ATOM     11  H   UNL A   1      33.099  27.838  20.718  1.00  0.00     0.164 HD
BRANCH   9  12
ATOM     12  C   UNL A   1      32.924  25.394  23.088  1.00  0.00     0.176 C 
BRANCH  12  13
ATOM     13  N   UNL A   1      33.457  26.071  24.267  1.00  0.00    -0.340 N 
ATOM     14  O   UNL A   1      34.436  26.123  26.299  1.00  0.00    -0.269 OA
ATOM     15  C   UNL A   1      34.253  25.516  25.250  1.00  0.00     0.251 C 
ATOM     16  H   UNL A   1      33.223  27.021  24.372  1.00  0.00     0.164 HD
BRANCH  15  17
ATOM     17  C   UNL A   1      34.859  24.168  25.072  1.00  0.00     0.040 A 
ATOM     18  C   UNL A   1      35.523  23.817  23.886  1.00  0.00     0.017 A 
ATOM     19  C   UNL A   1      34.795  23.251  26.131  1.00  0.00     0.017 A 
ATOM     20  C   UNL A   1      36.062  22.535  23.740  1.00  0.00     0.040 A 
ATOM     21  C   UNL A   1      35.346  21.974  25.985  1.00  0.00     0.040 A 
ATOM     22  C   UNL A   1      35.965  21.626  24.789  1.00  0.00     0.123 A 
ATOM     23  F   UNL A   1      36.485  20.400  24.646  1.00  0.00    -0.207 F 
ENDBRANCH  15  17
ENDBRANCH  12  13
BRANCH  12  24
ATOM     24  C   UNL A   1      31.643  24.592  23.380  1.00  0.00     0.070 C 
BRANCH  24  25
ATOM     25  C   UNL A   1      31.766  23.203  23.935  1.00  0.00    -0.045 A 
ATOM     26  C   UNL A   1      31.364  22.879  25.236  1.00  0.00     0.007 A 
ATOM     27  C   UNL A   1      32.362  22.215  23.149  1.00  0.00     0.007 A 
ATOM     28  C   UNL A   1      31.509  21.571  25.708  1.00  0.00     0.046 A 
ATOM     29  C   UNL A   1      32.482  20.905  23.606  1.00  0.00     0.046 A 
ATOM     30  C   UNL A   1      32.031  20.588  24.877  1.00  0.00     0.115 A 
BRANCH  30  31
ATOM     31  O   UNL A   1      32.085  19.310  25.342  1.00  0.00    -0.508 OA
ATOM     32  H   UNL A   1      32.873  18.811  25.251  1.00  0.00     0.293 HD
ENDBRANCH  30  31
ENDBRANCH  24  25
ENDBRANCH  12  24
ENDBRANCH   9  12
ENDBRANCH   7   8
BRANCH   7  33
ATOM     33  C   UNL A   1      30.935  28.236  23.028  1.00  0.00     0.193 C 
BRANCH  33  34
ATOM     34  O   UNL A   1      30.216  29.406  23.423  1.00  0.00    -0.394 OA
ATOM     35  H   UNL A   1      29.709  29.744  22.668  1.00  0.00     0.210 HD
ENDBRANCH  33  34
ENDBRANCH   7  33
ENDBRANCH   5   7
ENDBRANCH   4   5
ENDBRANCH   3   4
ENDBRANCH   2   3
ENDBRANCH   1   2
BRANCH   1  36
ATOM     36  C   UNL A   1      34.441  31.874  27.633  1.00  0.00     0.188 C 
BRANCH  36  37
ATOM     37  C   UNL A   1      34.318  33.369  27.952  1.00  0.00     0.188 C 
BRANCH  37  38
ATOM     38  O   UNL A   1      34.918  33.847  29.152  1.00  0.00    -0.376 OA
BRANCH  38  39
ATOM     39  C   UNL A   1      34.054  34.386  30.145  1.00  0.00     0.202 C 
BRANCH  39  40
ATOM     40  C   UNL A   1      34.319  33.898  31.569  1.00  0.00     0.261 C 
BRANCH  40  41
ATOM     41  O   UNL A   1      34.514  32.472  31.645  1.00  0.00    -0.460 OA
BRANCH  41  42
ATOM     42  C   UNL A   1      35.485  32.083  32.504  1.00  0.00     0.338 C 
ATOM     43  O   UNL A   1      35.624  32.409  33.668  1.00  0.00    -0.246 OA
BRANCH  42  44
ATOM     44  C   UNL A   1      36.418  31.147  31.853  1.00  0.00     0.060 A 
ATOM     45  C   UNL A   1      37.428  30.559  32.621  1.00  0.00     0.016 A 
ATOM     46  C   UNL A   1      36.452  31.063  30.457  1.00  0.00     0.016 A 
ATOM     47  C   UNL A   1      38.508  29.938  31.984  1.00  0.00     0.010 A 
ATOM     48  C   UNL A   1      37.525  30.420  29.826  1.00  0.00     0.010 A 
ATOM     49  C   UNL A   1      38.581  29.887  30.584  1.00  0.00    -0.014 A 
BRANCH  49  50
ATOM     50  C   UNL A   1      39.847  29.451  29.932  1.00  0.00     0.031 A 
ATOM     51  C   UNL A   1      40.975  30.440  29.796  1.00  0.00     0.074 A 
ATOM     52  C   UNL A   1      40.027  28.185  29.515  1.00  0.00     0.049 A 
ATOM     53  N   UNL A   1      42.145  30.296  29.222  1.00  0.00    -0.248 NA
ATOM     54  C   UNL A   1      40.758  31.765  30.396  1.00  0.00     0.031 C 
ATOM     55  C   UNL A   1      39.056  27.102  29.642  1.00  0.00     0.029 A 
ATOM     56  N   UNL A   1      41.107  27.600  28.893  1.00  0.00    -0.354 N 
ATOM     57  C   UNL A   1      42.796  31.512  29.384  1.00  0.00     0.074 A 
ATOM     58  C   UNL A   1      41.888  32.386  30.096  1.00  0.00     0.031 C 
ATOM     59  C   UNL A   1      39.579  25.985  29.103  1.00  0.00     0.029 A 
ATOM     60  C   UNL A   1      40.905  26.283  28.561  1.00  0.00     0.049 A 
ATOM     61  H   UNL A   1      41.944  28.081  28.704  1.00  0.00     0.167 HD
ATOM     62  C   UNL A   1      44.039  31.871  28.981  1.00  0.00     0.037 A 
ATOM     63  C   UNL A   1      41.687  25.426  27.872  1.00  0.00     0.037 A 
ATOM     64  C   UNL A   1      44.957  31.014  28.278  1.00  0.00     0.049 A 
ATOM     65  C   UNL A   1      43.032  25.879  27.354  1.00  0.00     0.074 A 
ATOM     66  C   UNL A   1      46.237  31.302  27.833  1.00  0.00     0.029 A 
ATOM     67  N   UNL A   1      44.694  29.704  27.915  1.00  0.00    -0.354 N 
ATOM     68  N   UNL A   1      43.637  27.031  27.507  1.00  0.00    -0.248 NA
ATOM     69  C   UNL A   1      43.800  24.905  26.561  1.00  0.00     0.031 C 
ATOM     70  C   UNL A   1      46.731  30.179  27.161  1.00  0.00     0.029 A 
ATOM     71  C   UNL A   1      45.778  29.176  27.230  1.00  0.00     0.049 A 
ATOM     72  H   UNL A   1      43.861  29.219  28.114  1.00  0.00     0.167 HD
ATOM     73  C   UNL A   1      44.859  26.912  26.853  1.00  0.00     0.074 A 
ATOM     74  C   UNL A   1      44.920  25.571  26.317  1.00  0.00     0.031 C 
ATOM     75  C   UNL A   1      45.840  27.836  26.707  1.00  0.00     0.037 A 
BRANCH  62  76
ATOM     76  C   UNL A   1      44.472  33.280  29.258  1.00  0.00     0.064 A 
ATOM     77  C   UNL A   1      45.156  33.623  30.433  1.00  0.00     0.173 A 
ATOM     78  C   UNL A   1      44.230  34.292  28.316  1.00  0.00     0.173 A 
ATOM     79  F   UNL A   1      45.397  32.693  31.370  1.00  0.00    -0.203 F 
ATOM     80  C   UNL A   1      45.564  34.934  30.665  1.00  0.00     0.198 A 
ATOM     81  C   UNL A   1      44.662  35.595  28.540  1.00  0.00     0.198 A 
ATOM     82  F   UNL A   1      43.583  34.012  27.175  1.00  0.00    -0.203 F 
ATOM     83  F   UNL A   1      46.182  35.249  31.812  1.00  0.00    -0.200 F 
ATOM     84  C   UNL A   1      45.323  35.916  29.716  1.00  0.00     0.200 A 
ATOM     85  F   UNL A   1      44.438  36.541  27.616  1.00  0.00    -0.200 F 
ATOM     86  F   UNL A   1      45.723  37.176  29.936  1.00  0.00    -0.200 F 
ENDBRANCH  62  76
BRANCH  63  87
ATOM     87  C   UNL A   1      41.211  24.047  27.584  1.00  0.00     0.064 A 
ATOM     88  C   UNL A   1      41.823  22.932  28.173  1.00  0.00     0.173 A 
ATOM     89  C   UNL A   1      40.176  23.816  26.667  1.00  0.00     0.173 A 
ATOM     90  F   UNL A   1      42.840  23.102  29.031  1.00  0.00    -0.203 F 
ATOM     91  C   UNL A   1      41.434  21.637  27.836  1.00  0.00     0.198 A 
ATOM     92  C   UNL A   1      39.768  22.523  26.353  1.00  0.00     0.198 A 
ATOM     93  F   UNL A   1      39.567  24.850  26.066  1.00  0.00    -0.203 F 
ATOM     94  F   UNL A   1      42.075  20.588  28.367  1.00  0.00    -0.200 F 
ATOM     95  C   UNL A   1      40.404  21.433  26.930  1.00  0.00     0.200 A 
ATOM     96  F   UNL A   1      38.771  22.330  25.479  1.00  0.00    -0.200 F 
ATOM     97  F   UNL A   1      40.035  20.188  26.599  1.00  0.00    -0.200 F 
ENDBRANCH  63  87
BRANCH  75  98
ATOM     98  C   UNL A   1      47.082  27.424  25.968  1.00  0.00     0.064 A 
ATOM     99  C   UNL A   1      47.232  27.654  24.592  1.00  0.00     0.173 A 
ATOM    100  C   UNL A   1      48.152  26.826  26.652  1.00  0.00     0.173 A 
ATOM    101  F   UNL A   1      46.234  28.209  23.889  1.00  0.00    -0.203 F 
ATOM    102  C   UNL A   1      48.395  27.277  23.924  1.00  0.00     0.198 A 
ATOM    103  C   UNL A   1      49.325  26.477  25.986  1.00  0.00     0.198 A 
ATOM    104  F   UNL A   1      48.065  26.590  27.969  1.00  0.00    -0.203 F 
ATOM    105  F   UNL A   1      48.496  27.465  22.601  1.00  0.00    -0.200 F 
ATOM    106  C   UNL A   1      49.442  26.695  24.622  1.00  0.00     0.200 A 
ATOM    107  F   UNL A   1      50.341  25.926  26.665  1.00  0.00    -0.200 F 
ATOM    108  F   UNL A   1      50.563  26.338  23.978  1.00  0.00    -0.200 F 
ENDBRANCH  75  98
ENDBRANCH  49  50
ENDBRANCH  42  44
ENDBRANCH  41  42
ENDBRANCH  40  41
ENDBRANCH  39  40
ENDBRANCH  38  39
ENDBRANCH  37  38
ENDBRANCH  36  37
ENDBRANCH   1  36
TORSDOF 26
ENDMDL
MODEL 2
REMARK VINA RESULT:     -10.9      4.746      9.136
REMARK SMILES O=C(N[C@@H](Cc1ccc(O)cc1)C(=O)N[C@@H](CO)C(=O)OCCOCCOCCOC(=O)c1ccc(-c2c3nc(c(-c4c(F)c(F)c(F)c(F)c4F)c4ccc([nH]4)c(-c4c(F)c(F)c(F)c(F)c4F)c4nc(c(-c5c(F)c(F)c(F)c(F)c5F)c5ccc2[nH]5)C=C4)C=C3)cc1)c1ccc(F)cc1
REMARK SMILES IDX 24 1 23 2 22 3 21 4 19 5 20 6 16 7 15 8 13 9 14 10 4 12 3 13
REMARK SMILES IDX 1 14 2 15 96 17 97 18 102 19 98 20 101 21 99 22 100 23 5 24
REMARK SMILES IDX 6 25 7 26 12 27 8 28 11 29 9 30 10 31 17 33 18 34 25 36
REMARK SMILES IDX 26 37 27 38 28 39 29 40 30 41 31 42 32 43 33 44 34 45 95 46
REMARK SMILES IDX 35 47 94 48 36 49 37 50 38 51 88 52 39 53 93 54 87 55 89 56
REMARK SMILES IDX 40 57 92 58 86 59 85 60 41 62 73 63 53 64 72 65 54 66 57 67
REMARK SMILES IDX 71 68 90 69 55 70 56 71 70 73 91 74 58 75 42 76 43 77 51 78
REMARK SMILES IDX 44 79 45 80 49 81 52 82 46 83 47 84 50 85 48 86 74 87 75 88
REMARK SMILES IDX 83 89 76 90 77 91 81 92 84 93 78 94 79 95 82 96 80 97 59 98
REMARK SMILES IDX 60 99 68 100 61 101 62 102 66 103 69 104 63 105 64 106
REMARK SMILES IDX 67 107 65 108
REMARK H PARENT 15 11 3 16 10 32 18 35 89 61 57 72
REMARK Flexibility Score: inf
ROOT
ATOM      1  O   UNL A   1      32.803  27.858  25.928  1.00  0.00    -0.376 OA
ENDROOT
BRANCH   1   2
ATOM      2  C   UNL A   1      32.588  26.867  24.926  1.00  0.00     0.202 C 
BRANCH   2   3
ATOM      3  C   UNL A   1      32.903  25.466  25.449  1.00  0.00     0.261 C 
BRANCH   3   4
ATOM      4  O   UNL A   1      31.726  24.797  25.960  1.00  0.00    -0.462 OA
BRANCH   4   5
ATOM      5  C   UNL A   1      31.167  23.820  25.186  1.00  0.00     0.331 C 
ATOM      6  O   UNL A   1      30.891  23.960  24.001  1.00  0.00    -0.250 OA
BRANCH   5   7
ATOM      7  C   UNL A   1      30.863  22.538  26.008  1.00  0.00     0.218 C 
BRANCH   7   8
ATOM      8  N   UNL A   1      32.074  21.981  26.638  1.00  0.00    -0.339 N 
ATOM      9  C   UNL A   1      33.194  21.384  26.165  1.00  0.00     0.243 C 
ATOM     10  O   UNL A   1      34.143  21.333  26.958  1.00  0.00    -0.273 OA
ATOM     11  H   UNL A   1      32.066  22.061  27.619  1.00  0.00     0.164 HD
BRANCH   9  12
ATOM     12  C   UNL A   1      33.408  20.846  24.730  1.00  0.00     0.176 C 
BRANCH  12  13
ATOM     13  N   UNL A   1      33.482  21.843  23.667  1.00  0.00    -0.340 N 
ATOM     14  O   UNL A   1      34.286  23.720  22.707  1.00  0.00    -0.269 OA
ATOM     15  C   UNL A   1      34.464  22.800  23.497  1.00  0.00     0.251 C 
ATOM     16  H   UNL A   1      32.756  21.832  23.002  1.00  0.00     0.164 HD
BRANCH  15  17
ATOM     17  C   UNL A   1      35.720  22.756  24.295  1.00  0.00     0.040 A 
ATOM     18  C   UNL A   1      36.700  21.778  24.060  1.00  0.00     0.017 A 
ATOM     19  C   UNL A   1      35.937  23.739  25.270  1.00  0.00     0.017 A 
ATOM     20  C   UNL A   1      37.858  21.749  24.841  1.00  0.00     0.040 A 
ATOM     21  C   UNL A   1      37.104  23.713  26.041  1.00  0.00     0.040 A 
ATOM     22  C   UNL A   1      38.048  22.714  25.825  1.00  0.00     0.123 A 
ATOM     23  F   UNL A   1      39.161  22.684  26.570  1.00  0.00    -0.207 F 
ENDBRANCH  15  17
ENDBRANCH  12  13
BRANCH  12  24
ATOM     24  C   UNL A   1      34.412  19.694  24.549  1.00  0.00     0.070 C 
BRANCH  24  25
ATOM     25  C   UNL A   1      33.955  18.286  24.794  1.00  0.00    -0.045 A 
ATOM     26  C   UNL A   1      32.634  17.976  25.132  1.00  0.00     0.007 A 
ATOM     27  C   UNL A   1      34.898  17.256  24.746  1.00  0.00     0.007 A 
ATOM     28  C   UNL A   1      32.263  16.647  25.360  1.00  0.00     0.046 A 
ATOM     29  C   UNL A   1      34.526  15.928  24.945  1.00  0.00     0.046 A 
ATOM     30  C   UNL A   1      33.202  15.633  25.227  1.00  0.00     0.115 A 
BRANCH  30  31
ATOM     31  O   UNL A   1      32.788  14.344  25.379  1.00  0.00    -0.508 OA
ATOM     32  H   UNL A   1      32.981  13.880  26.170  1.00  0.00     0.293 HD
ENDBRANCH  30  31
ENDBRANCH  24  25
ENDBRANCH  12  24
ENDBRANCH   9  12
ENDBRANCH   7   8
BRANCH   7  33
ATOM     33  C   UNL A   1      29.831  22.920  27.074  1.00  0.00     0.193 C 
BRANCH  33  34
ATOM     34  O   UNL A   1      29.238  24.189  26.794  1.00  0.00    -0.394 OA
ATOM     35  H   UNL A   1      28.529  24.078  26.142  1.00  0.00     0.210 HD
ENDBRANCH  33  34
ENDBRANCH   7  33
ENDBRANCH   5   7
ENDBRANCH   4   5
ENDBRANCH   3   4
ENDBRANCH   2   3
ENDBRANCH   1   2
BRANCH   1  36
ATOM     36  C   UNL A   1      31.751  28.810  26.049  1.00  0.00     0.188 C 
BRANCH  36  37
ATOM     37  C   UNL A   1      32.134  29.998  26.941  1.00  0.00     0.188 C 
BRANCH  37  38
ATOM     38  O   UNL A   1      33.493  30.110  27.355  1.00  0.00    -0.376 OA
BRANCH  38  39
ATOM     39  C   UNL A   1      33.969  31.409  27.686  1.00  0.00     0.202 C 
BRANCH  39  40
ATOM     40  C   UNL A   1      32.900  32.502  27.715  1.00  0.00     0.261 C 
BRANCH  40  41
ATOM     41  O   UNL A   1      33.448  33.823  27.532  1.00  0.00    -0.460 OA
BRANCH  41  42
ATOM     42  C   UNL A   1      33.318  34.637  28.606  1.00  0.00     0.338 C 
ATOM     43  O   UNL A   1      32.401  35.396  28.859  1.00  0.00    -0.246 OA
BRANCH  42  44
ATOM     44  C   UNL A   1      34.470  34.497  29.514  1.00  0.00     0.060 A 
ATOM     45  C   UNL A   1      35.760  34.564  28.981  1.00  0.00     0.016 A 
ATOM     46  C   UNL A   1      34.267  34.042  30.821  1.00  0.00     0.016 A 
ATOM     47  C   UNL A   1      36.846  34.116  29.740  1.00  0.00     0.010 A 
ATOM     48  C   UNL A   1      35.362  33.615  31.585  1.00  0.00     0.010 A 
ATOM     49  C   UNL A   1      36.656  33.612  31.035  1.00  0.00    -0.014 A 
BRANCH  49  50
ATOM     50  C   UNL A   1      37.777  32.913  31.722  1.00  0.00     0.031 A 
ATOM     51  C   UNL A   1      38.389  31.700  31.070  1.00  0.00     0.074 A 
ATOM     52  C   UNL A   1      38.292  33.369  32.877  1.00  0.00     0.049 A 
ATOM     53  N   UNL A   1      39.337  30.908  31.508  1.00  0.00    -0.248 NA
ATOM     54  C   UNL A   1      37.867  31.338  29.744  1.00  0.00     0.031 C 
ATOM     55  C   UNL A   1      37.853  34.566  33.589  1.00  0.00     0.029 A 
ATOM     56  N   UNL A   1      39.309  32.867  33.657  1.00  0.00    -0.354 N 
ATOM     57  C   UNL A   1      39.518  29.952  30.516  1.00  0.00     0.074 A 
ATOM     58  C   UNL A   1      38.572  30.253  29.462  1.00  0.00     0.031 C 
ATOM     59  C   UNL A   1      38.588  34.700  34.708  1.00  0.00     0.029 A 
ATOM     60  C   UNL A   1      39.523  33.579  34.811  1.00  0.00     0.049 A 
ATOM     61  H   UNL A   1      39.833  32.071  33.410  1.00  0.00     0.167 HD
ATOM     62  C   UNL A   1      40.392  28.918  30.481  1.00  0.00     0.037 A 
ATOM     63  C   UNL A   1      40.356  33.338  35.844  1.00  0.00     0.037 A 
ATOM     64  C   UNL A   1      41.343  28.608  31.516  1.00  0.00     0.049 A 
ATOM     65  C   UNL A   1      41.258  32.127  35.822  1.00  0.00     0.074 A 
ATOM     66  C   UNL A   1      42.267  27.576  31.558  1.00  0.00     0.029 A 
ATOM     67  N   UNL A   1      41.493  29.324  32.692  1.00  0.00    -0.354 N 
ATOM     68  N   UNL A   1      41.418  31.226  34.884  1.00  0.00    -0.248 NA
ATOM     69  C   UNL A   1      42.094  31.900  37.012  1.00  0.00     0.031 C 
ATOM     70  C   UNL A   1      42.944  27.642  32.780  1.00  0.00     0.029 A 
ATOM     71  C   UNL A   1      42.476  28.743  33.478  1.00  0.00     0.049 A 
ATOM     72  H   UNL A   1      40.977  30.127  32.934  1.00  0.00     0.167 HD
ATOM     73  C   UNL A   1      42.384  30.345  35.359  1.00  0.00     0.074 A 
ATOM     74  C   UNL A   1      42.789  30.828  36.660  1.00  0.00     0.031 C 
ATOM     75  C   UNL A   1      42.885  29.232  34.769  1.00  0.00     0.037 A 
BRANCH  62  76
ATOM     76  C   UNL A   1      40.336  28.010  29.289  1.00  0.00     0.064 A 
ATOM     77  C   UNL A   1      41.066  28.280  28.122  1.00  0.00     0.173 A 
ATOM     78  C   UNL A   1      39.570  26.835  29.331  1.00  0.00     0.173 A 
ATOM     79  F   UNL A   1      41.802  29.398  28.030  1.00  0.00    -0.203 F 
ATOM     80  C   UNL A   1      41.015  27.416  27.032  1.00  0.00     0.198 A 
ATOM     81  C   UNL A   1      39.541  25.962  28.249  1.00  0.00     0.198 A 
ATOM     82  F   UNL A   1      38.859  26.532  30.427  1.00  0.00    -0.203 F 
ATOM     83  F   UNL A   1      41.689  27.711  25.912  1.00  0.00    -0.200 F 
ATOM     84  C   UNL A   1      40.258  26.255  27.099  1.00  0.00     0.200 A 
ATOM     85  F   UNL A   1      38.818  24.834  28.320  1.00  0.00    -0.200 F 
ATOM     86  F   UNL A   1      40.215  25.420  26.051  1.00  0.00    -0.200 F 
ENDBRANCH  62  76
BRANCH  63  87
ATOM     87  C   UNL A   1      40.360  34.240  37.026  1.00  0.00     0.064 A 
ATOM     88  C   UNL A   1      39.473  34.041  38.093  1.00  0.00     0.173 A 
ATOM     89  C   UNL A   1      41.209  35.355  37.082  1.00  0.00     0.173 A 
ATOM     90  F   UNL A   1      38.617  33.008  38.068  1.00  0.00    -0.203 F 
ATOM     91  C   UNL A   1      39.417  34.937  39.159  1.00  0.00     0.198 A 
ATOM     92  C   UNL A   1      41.173  36.233  38.162  1.00  0.00     0.198 A 
ATOM     93  F   UNL A   1      42.067  35.597  36.080  1.00  0.00    -0.203 F 
ATOM     94  F   UNL A   1      38.517  34.758  40.136  1.00  0.00    -0.200 F 
ATOM     95  C   UNL A   1      40.269  36.030  39.195  1.00  0.00     0.200 A 
ATOM     96  F   UNL A   1      42.001  37.286  38.195  1.00  0.00    -0.200 F 
ATOM     97  F   UNL A   1      40.211  36.896  40.216  1.00  0.00    -0.200 F 
ENDBRANCH  63  87
BRANCH  75  98
ATOM     98  C   UNL A   1      43.954  28.473  35.505  1.00  0.00     0.064 A 
ATOM     99  C   UNL A   1      45.317  28.739  35.305  1.00  0.00     0.173 A 
ATOM    100  C   UNL A   1      43.610  27.494  36.450  1.00  0.00     0.173 A 
ATOM    101  F   UNL A   1      45.700  29.655  34.403  1.00  0.00    -0.203 F 
ATOM    102  C   UNL A   1      46.295  28.036  36.004  1.00  0.00     0.198 A 
ATOM    103  C   UNL A   1      44.590  26.813  37.168  1.00  0.00     0.198 A 
ATOM    104  F   UNL A   1      42.321  27.206  36.685  1.00  0.00    -0.203 F 
ATOM    105  F   UNL A   1      47.591  28.275  35.762  1.00  0.00    -0.200 F 
ATOM    106  C   UNL A   1      45.931  27.078  36.938  1.00  0.00     0.200 A 
ATOM    107  F   UNL A   1      44.236  25.897  38.080  1.00  0.00    -0.200 F 
ATOM    108  F   UNL A   1      46.874  26.406  37.614  1.00  0.00    -0.200 F 
ENDBRANCH  75  98
ENDBRANCH  49  50
ENDBRANCH  42  44
ENDBRANCH  41  42
ENDBRANCH  40  41
ENDBRANCH  39  40
ENDBRANCH  38  39
ENDBRANCH  37  38
ENDBRANCH  36  37
ENDBRANCH   1  36
TORSDOF 26
ENDMDL
MODEL 3
REMARK VINA RESULT:     -10.9      2.916      4.424
REMARK SMILES O=C(N[C@@H](Cc1ccc(O)cc1)C(=O)N[C@@H](CO)C(=O)OCCOCCOCCOC(=O)c1ccc(-c2c3nc(c(-c4c(F)c(F)c(F)c(F)c4F)c4ccc([nH]4)c(-c4c(F)c(F)c(F)c(F)c4F)c4nc(c(-c5c(F)c(F)c(F)c(F)c5F)c5ccc2[nH]5)C=C4)C=C3)cc1)c1ccc(F)cc1
REMARK SMILES IDX 24 1 23 2 22 3 21 4 19 5 20 6 16 7 15 8 13 9 14 10 4 12 3 13
REMARK SMILES IDX 1 14 2 15 96 17 97 18 102 19 98 20 101 21 99 22 100 23 5 24
REMARK SMILES IDX 6 25 7 26 12 27 8 28 11 29 9 30 10 31 17 33 18 34 25 36
REMARK SMILES IDX 26 37 27 38 28 39 29 40 30 41 31 42 32 43 33 44 34 45 95 46
REMARK SMILES IDX 35 47 94 48 36 49 37 50 38 51 88 52 39 53 93 54 87 55 89 56
REMARK SMILES IDX 40 57 92 58 86 59 85 60 41 62 73 63 53 64 72 65 54 66 57 67
REMARK SMILES IDX 71 68 90 69 55 70 56 71 70 73 91 74 58 75 42 76 43 77 51 78
REMARK SMILES IDX 44 79 45 80 49 81 52 82 46 83 47 84 50 85 48 86 74 87 75 88
REMARK SMILES IDX 83 89 76 90 77 91 81 92 84 93 78 94 79 95 82 96 80 97 59 98
REMARK SMILES IDX 60 99 68 100 61 101 62 102 66 103 69 104 63 105 64 106
REMARK SMILES IDX 67 107 65 108
REMARK H PARENT 15 11 3 16 10 32 18 35 89 61 57 72
REMARK Flexibility Score: inf
ROOT
ATOM      1  O   UNL A   1      30.887  27.939  23.428  1.00  0.00    -0.376 OA
ENDROOT
BRANCH   1   2
ATOM      2  C   UNL A   1      29.740  27.093  23.419  1.00  0.00     0.202 C 
BRANCH   2   3
ATOM      3  C   UNL A   1      29.576  26.360  24.750  1.00  0.00     0.261 C 
BRANCH   3   4
ATOM      4  O   UNL A   1      30.347  25.137  24.799  1.00  0.00    -0.462 OA
BRANCH   4   5
ATOM      5  C   UNL A   1      31.090  24.900  25.921  1.00  0.00     0.331 C 
ATOM      6  O   UNL A   1      31.510  25.781  26.662  1.00  0.00    -0.250 OA
BRANCH   5   7
ATOM      7  C   UNL A   1      31.395  23.388  26.102  1.00  0.00     0.218 C 
BRANCH   7   8
ATOM      8  N   UNL A   1      32.407  23.146  27.146  1.00  0.00    -0.339 N 
ATOM      9  C   UNL A   1      33.654  22.620  27.148  1.00  0.00     0.243 C 
ATOM     10  O   UNL A   1      34.333  22.867  28.153  1.00  0.00    -0.273 OA
ATOM     11  H   UNL A   1      32.109  23.431  28.040  1.00  0.00     0.164 HD
BRANCH   9  12
ATOM     12  C   UNL A   1      34.313  21.824  25.996  1.00  0.00     0.176 C 
BRANCH  12  13
ATOM     13  N   UNL A   1      35.636  22.269  25.572  1.00  0.00    -0.340 N 
ATOM     14  O   UNL A   1      37.098  23.140  24.090  1.00  0.00    -0.269 OA
ATOM     15  C   UNL A   1      35.934  23.034  24.461  1.00  0.00     0.251 C 
ATOM     16  H   UNL A   1      36.395  21.996  26.136  1.00  0.00     0.164 HD
BRANCH  15  17
ATOM     17  C   UNL A   1      34.856  23.697  23.678  1.00  0.00     0.040 A 
ATOM     18  C   UNL A   1      34.189  23.027  22.640  1.00  0.00     0.017 A 
ATOM     19  C   UNL A   1      34.479  25.004  24.017  1.00  0.00     0.017 A 
ATOM     20  C   UNL A   1      33.197  23.685  21.908  1.00  0.00     0.040 A 
ATOM     21  C   UNL A   1      33.476  25.654  23.290  1.00  0.00     0.040 A 
ATOM     22  C   UNL A   1      32.852  24.991  22.237  1.00  0.00     0.123 A 
ATOM     23  F   UNL A   1      31.898  25.617  21.535  1.00  0.00    -0.207 F 
ENDBRANCH  15  17
ENDBRANCH  12  13
BRANCH  12  24
ATOM     24  C   UNL A   1      34.172  20.291  26.023  1.00  0.00     0.070 C 
BRANCH  24  25
ATOM     25  C   UNL A   1      33.550  19.598  24.846  1.00  0.00    -0.045 A 
ATOM     26  C   UNL A   1      33.803  18.254  24.549  1.00  0.00     0.007 A 
ATOM     27  C   UNL A   1      32.742  20.338  23.979  1.00  0.00     0.007 A 
ATOM     28  C   UNL A   1      33.205  17.658  23.434  1.00  0.00     0.046 A 
ATOM     29  C   UNL A   1      32.123  19.741  22.884  1.00  0.00     0.046 A 
ATOM     30  C   UNL A   1      32.342  18.396  22.634  1.00  0.00     0.115 A 
BRANCH  30  31
ATOM     31  O   UNL A   1      31.717  17.763  21.603  1.00  0.00    -0.508 OA
ATOM     32  H   UNL A   1      32.208  17.492  20.853  1.00  0.00     0.293 HD
ENDBRANCH  30  31
ENDBRANCH  24  25
ENDBRANCH  12  24
ENDBRANCH   9  12
ENDBRANCH   7   8
BRANCH   7  33
ATOM     33  C   UNL A   1      30.074  22.702  26.464  1.00  0.00     0.193 C 
BRANCH  33  34
ATOM     34  O   UNL A   1      29.861  22.697  27.877  1.00  0.00    -0.394 OA
ATOM     35  H   UNL A   1      29.845  21.782  28.198  1.00  0.00     0.210 HD
ENDBRANCH  33  34
ENDBRANCH   7  33
ENDBRANCH   5   7
ENDBRANCH   4   5
ENDBRANCH   3   4
ENDBRANCH   2   3
ENDBRANCH   1   2
BRANCH   1  36
ATOM     36  C   UNL A   1      30.639  29.263  23.887  1.00  0.00     0.188 C 
BRANCH  36  37
ATOM     37  C   UNL A   1      31.472  29.621  25.124  1.00  0.00     0.188 C 
BRANCH  37  38
ATOM     38  O   UNL A   1      31.343  30.936  25.658  1.00  0.00    -0.376 OA
BRANCH  38  39
ATOM     39  C   UNL A   1      31.923  31.182  26.933  1.00  0.00     0.202 C 
BRANCH  39  40
ATOM     40  C   UNL A   1      33.219  30.422  27.213  1.00  0.00     0.261 C 
BRANCH  40  41
ATOM     41  O   UNL A   1      34.358  31.295  27.358  1.00  0.00    -0.460 OA
BRANCH  41  42
ATOM     42  C   UNL A   1      34.923  31.279  28.588  1.00  0.00     0.338 C 
ATOM     43  O   UNL A   1      34.575  31.898  29.576  1.00  0.00    -0.246 OA
BRANCH  42  44
ATOM     44  C   UNL A   1      36.076  30.362  28.625  1.00  0.00     0.060 A 
ATOM     45  C   UNL A   1      36.392  29.725  29.829  1.00  0.00     0.016 A 
ATOM     46  C   UNL A   1      36.979  30.343  27.557  1.00  0.00     0.016 A 
ATOM     47  C   UNL A   1      37.643  29.120  29.983  1.00  0.00     0.010 A 
ATOM     48  C   UNL A   1      38.222  29.715  27.710  1.00  0.00     0.010 A 
ATOM     49  C   UNL A   1      38.579  29.133  28.938  1.00  0.00    -0.014 A 
BRANCH  49  50
ATOM     50  C   UNL A   1      39.982  28.711  29.205  1.00  0.00     0.031 A 
ATOM     51  C   UNL A   1      40.871  29.612  30.022  1.00  0.00     0.074 A 
ATOM     52  C   UNL A   1      40.455  27.524  28.785  1.00  0.00     0.049 A 
ATOM     53  N   UNL A   1      42.136  29.471  30.337  1.00  0.00    -0.248 NA
ATOM     54  C   UNL A   1      40.248  30.828  30.564  1.00  0.00     0.031 C 
ATOM     55  C   UNL A   1      39.695  26.520  28.047  1.00  0.00     0.029 A 
ATOM     56  N   UNL A   1      41.706  26.966  28.926  1.00  0.00    -0.354 N 
ATOM     57  C   UNL A   1      42.459  30.583  31.104  1.00  0.00     0.074 A 
ATOM     58  C   UNL A   1      41.265  31.396  31.195  1.00  0.00     0.031 C 
ATOM     59  C   UNL A   1      40.498  25.472  27.788  1.00  0.00     0.029 A 
ATOM     60  C   UNL A   1      41.837  25.747  28.308  1.00  0.00     0.049 A 
ATOM     61  H   UNL A   1      42.436  27.401  29.421  1.00  0.00     0.167 HD
ATOM     62  C   UNL A   1      43.642  30.902  31.684  1.00  0.00     0.037 A 
ATOM     63  C   UNL A   1      42.921  24.958  28.156  1.00  0.00     0.037 A 
ATOM     64  C   UNL A   1      44.837  30.104  31.610  1.00  0.00     0.049 A 
ATOM     65  C   UNL A   1      44.251  25.379  28.736  1.00  0.00     0.074 A 
ATOM     66  C   UNL A   1      46.079  30.355  32.171  1.00  0.00     0.029 A 
ATOM     67  N   UNL A   1      44.943  28.900  30.932  1.00  0.00    -0.354 N 
ATOM     68  N   UNL A   1      44.549  26.433  29.454  1.00  0.00    -0.248 NA
ATOM     69  C   UNL A   1      45.398  24.493  28.476  1.00  0.00     0.031 C 
ATOM     70  C   UNL A   1      46.948  29.326  31.794  1.00  0.00     0.029 A 
ATOM     71  C   UNL A   1      46.235  28.409  31.040  1.00  0.00     0.049 A 
ATOM     72  H   UNL A   1      44.210  28.459  30.446  1.00  0.00     0.167 HD
ATOM     73  C   UNL A   1      45.903  26.326  29.748  1.00  0.00     0.074 A 
ATOM     74  C   UNL A   1      46.368  25.096  29.149  1.00  0.00     0.031 C 
ATOM     75  C   UNL A   1      46.692  27.177  30.450  1.00  0.00     0.037 A 
BRANCH  62  76
ATOM     76  C   UNL A   1      43.715  32.202  32.428  1.00  0.00     0.064 A 
ATOM     77  C   UNL A   1      43.451  32.280  33.803  1.00  0.00     0.173 A 
ATOM     78  C   UNL A   1      44.092  33.377  31.760  1.00  0.00     0.173 A 
ATOM     79  F   UNL A   1      43.073  31.186  34.481  1.00  0.00    -0.203 F 
ATOM     80  C   UNL A   1      43.541  33.494  34.479  1.00  0.00     0.198 A 
ATOM     81  C   UNL A   1      44.205  34.583  32.445  1.00  0.00     0.198 A 
ATOM     82  F   UNL A   1      44.359  33.352  30.446  1.00  0.00    -0.203 F 
ATOM     83  F   UNL A   1      43.246  33.555  35.785  1.00  0.00    -0.200 F 
ATOM     84  C   UNL A   1      43.924  34.642  33.802  1.00  0.00     0.200 A 
ATOM     85  F   UNL A   1      44.587  35.689  31.790  1.00  0.00    -0.200 F 
ATOM     86  F   UNL A   1      44.018  35.808  34.455  1.00  0.00    -0.200 F 
ENDBRANCH  62  76
BRANCH  63  87
ATOM     87  C   UNL A   1      42.820  23.692  27.382  1.00  0.00     0.064 A 
ATOM     88  C   UNL A   1      42.366  22.510  27.982  1.00  0.00     0.173 A 
ATOM     89  C   UNL A   1      43.236  23.628  26.044  1.00  0.00     0.173 A 
ATOM     90  F   UNL A   1      41.990  22.514  29.269  1.00  0.00    -0.203 F 
ATOM     91  C   UNL A   1      42.355  21.306  27.281  1.00  0.00     0.198 A 
ATOM     92  C   UNL A   1      43.197  22.430  25.335  1.00  0.00     0.198 A 
ATOM     93  F   UNL A   1      43.692  24.729  25.428  1.00  0.00    -0.203 F 
ATOM     94  F   UNL A   1      41.973  20.178  27.896  1.00  0.00    -0.200 F 
ATOM     95  C   UNL A   1      42.766  21.267  25.957  1.00  0.00     0.200 A 
ATOM     96  F   UNL A   1      43.592  22.398  24.055  1.00  0.00    -0.200 F 
ATOM     97  F   UNL A   1      42.763  20.108  25.284  1.00  0.00    -0.200 F 
ENDBRANCH  63  87
BRANCH  75  98
ATOM     98  C   UNL A   1      48.133  26.795  30.642  1.00  0.00     0.064 A 
ATOM     99  C   UNL A   1      48.544  25.983  31.709  1.00  0.00     0.173 A 
ATOM    100  C   UNL A   1      49.109  27.216  29.726  1.00  0.00     0.173 A 
ATOM    101  F   UNL A   1      47.654  25.566  32.622  1.00  0.00    -0.203 F 
ATOM    102  C   UNL A   1      49.883  25.628  31.867  1.00  0.00     0.198 A 
ATOM    103  C   UNL A   1      50.441  26.834  29.869  1.00  0.00     0.198 A 
ATOM    104  F   UNL A   1      48.769  27.987  28.682  1.00  0.00    -0.203 F 
ATOM    105  F   UNL A   1      50.258  24.889  32.920  1.00  0.00    -0.200 F 
ATOM    106  C   UNL A   1      50.828  26.048  30.944  1.00  0.00     0.200 A 
ATOM    107  F   UNL A   1      51.352  27.231  28.969  1.00  0.00    -0.200 F 
ATOM    108  F   UNL A   1      52.114  25.700  31.094  1.00  0.00    -0.200 F 
ENDBRANCH  75  98
ENDBRANCH  49  50
ENDBRANCH  42  44
ENDBRANCH  41  42
ENDBRANCH  40  41
ENDBRANCH  39  40
ENDBRANCH  38  39
ENDBRANCH  37  38
ENDBRANCH  36  37
ENDBRANCH   1  36
TORSDOF 26
ENDMDL
