MODEL 1
REMARK VINA RESULT:     -12.1      0.000      0.000
REMARK SMILES COc1ccc(-c2ccc(/C=C3\SC(=S)N([C@H](Cc4ccccc4)C(=O)OCCOCCOCCOC(=O)c4ccc(-c5c6nc(c(-c7c(F)c(F)c(F)c(F)c7F)c7ccc([nH]7)c(-c7c(F)c(F)c(F)c(F)c7F)c7nc(c(-c8c(F)c(F)c(F)c(F)c8F)c8ccc5[nH]8)C=C7)C=C6)cc4)C3=O)o2)cc1
REMARK SMILES IDX 31 1 30 2 29 3 28 4 27 5 25 6 26 7 17 8 16 9 11 10 12 11
REMARK SMILES IDX 13 12 102 13 14 14 103 15 15 16 10 17 7 18 8 19 104 20 9 21
REMARK SMILES IDX 6 22 3 23 4 24 106 25 5 26 105 27 2 28 1 29 18 30 19 31
REMARK SMILES IDX 20 32 24 33 21 34 23 35 22 36 32 37 33 38 34 39 35 40 36 41
REMARK SMILES IDX 37 42 38 43 39 44 40 45 101 46 41 47 100 48 42 49 43 50
REMARK SMILES IDX 44 51 94 52 45 53 99 54 93 55 95 56 46 57 98 58 92 59 91 60
REMARK SMILES IDX 47 62 79 63 59 64 78 65 60 66 63 67 77 68 96 69 61 70 62 71
REMARK SMILES IDX 76 73 97 74 64 75 48 76 49 77 57 78 50 79 51 80 55 81 58 82
REMARK SMILES IDX 52 83 53 84 56 85 54 86 80 87 81 88 89 89 82 90 83 91 87 92
REMARK SMILES IDX 90 93 84 94 85 95 88 96 86 97 65 98 66 99 74 100 67 101
REMARK SMILES IDX 68 102 72 103 75 104 69 105 70 106 73 107 71 108
REMARK H PARENT 95 61 63 72
REMARK Flexibility Score: inf
ROOT
ATOM      1  C   UNL A   1      34.540  24.384  25.864  1.00  0.00     0.188 C 
ENDROOT
BRANCH   1   2
ATOM      2  O   UNL A   1      33.602  25.330  26.339  1.00  0.00    -0.376 OA
BRANCH   2   3
ATOM      3  C   UNL A   1      33.809  26.705  26.067  1.00  0.00     0.202 C 
BRANCH   3   4
ATOM      4  C   UNL A   1      32.987  27.711  26.870  1.00  0.00     0.261 C 
BRANCH   4   5
ATOM      5  O   UNL A   1      31.856  28.228  26.140  1.00  0.00    -0.462 OA
BRANCH   5   6
ATOM      6  C   UNL A   1      32.096  28.742  24.908  1.00  0.00     0.329 C 
ATOM      7  O   UNL A   1      32.887  29.658  24.691  1.00  0.00    -0.250 OA
BRANCH   6   8
ATOM      8  C   UNL A   1      31.143  28.230  23.809  1.00  0.00     0.206 C 
BRANCH   8   9
ATOM      9  N   UNL A   1      31.683  26.900  23.482  1.00  0.00    -0.278 N 
ATOM     10  C   UNL A   1      30.941  23.418  23.557  1.00  0.00     0.068 C 
ATOM     11  C   UNL A   1      31.609  24.568  23.429  1.00  0.00     0.084 C 
ATOM     12  S   UNL A   1      33.038  24.926  22.551  1.00  0.00    -0.054 SA
ATOM     13  C   UNL A   1      31.077  25.791  24.047  1.00  0.00     0.267 C 
ATOM     14  C   UNL A   1      32.796  26.662  22.707  1.00  0.00     0.149 C 
ATOM     15  O   UNL A   1      30.247  25.787  24.938  1.00  0.00    -0.268 OA
ATOM     16  S   UNL A   1      33.829  27.775  22.019  1.00  0.00    -0.052 S 
BRANCH  10  17
ATOM     17  C   UNL A   1      31.459  22.194  23.084  1.00  0.00     0.128 A 
ATOM     18  C   UNL A   1      32.276  20.147  23.106  1.00  0.00     0.134 A 
ATOM     19  C   UNL A   1      32.315  20.556  21.794  1.00  0.00     0.051 A 
ATOM     20  O   UNL A   1      31.765  21.129  23.894  1.00  0.00    -0.457 OA
ATOM     21  C   UNL A   1      31.792  21.861  21.779  1.00  0.00     0.051 A 
BRANCH  18  22
ATOM     22  C   UNL A   1      32.714  18.938  23.768  1.00  0.00     0.017 A 
ATOM     23  C   UNL A   1      33.425  16.503  24.960  1.00  0.00     0.118 A 
ATOM     24  C   UNL A   1      32.851  17.521  25.724  1.00  0.00     0.047 A 
ATOM     25  C   UNL A   1      33.642  16.702  23.596  1.00  0.00     0.047 A 
ATOM     26  C   UNL A   1      32.512  18.743  25.137  1.00  0.00     0.016 A 
ATOM     27  C   UNL A   1      33.284  17.914  23.005  1.00  0.00     0.016 A 
BRANCH  23  28
ATOM     28  O   UNL A   1      33.685  15.338  25.626  1.00  0.00    -0.497 OA
ATOM     29  C   UNL A   1      32.569  14.468  25.780  1.00  0.00     0.278 C 
ENDBRANCH  23  28
ENDBRANCH  18  22
ENDBRANCH  10  17
ENDBRANCH   8   9
BRANCH   8  30
ATOM     30  C   UNL A   1      30.834  29.048  22.540  1.00  0.00     0.073 C 
BRANCH  30  31
ATOM     31  C   UNL A   1      29.705  30.077  22.583  1.00  0.00    -0.045 A 
ATOM     32  C   UNL A   1      29.132  30.471  21.357  1.00  0.00     0.004 A 
ATOM     33  C   UNL A   1      29.200  30.666  23.748  1.00  0.00     0.004 A 
ATOM     34  C   UNL A   1      28.126  31.443  21.297  1.00  0.00     0.000 A 
ATOM     35  C   UNL A   1      28.177  31.623  23.683  1.00  0.00     0.000 A 
ATOM     36  C   UNL A   1      27.659  32.034  22.461  1.00  0.00     0.000 A 
ENDBRANCH  30  31
ENDBRANCH   8  30
ENDBRANCH   6   8
ENDBRANCH   5   6
ENDBRANCH   4   5
ENDBRANCH   3   4
ENDBRANCH   2   3
ENDBRANCH   1   2
BRANCH   1  37
ATOM     37  C   UNL A   1      34.137  22.908  25.635  1.00  0.00     0.188 C 
BRANCH  37  38
ATOM     38  O   UNL A   1      34.914  22.074  24.806  1.00  0.00    -0.376 OA
BRANCH  38  39
ATOM     39  C   UNL A   1      35.676  21.057  25.437  1.00  0.00     0.202 C 
BRANCH  39  40
ATOM     40  C   UNL A   1      37.048  20.727  24.839  1.00  0.00     0.261 C 
BRANCH  40  41
ATOM     41  O   UNL A   1      38.020  21.781  25.021  1.00  0.00    -0.460 OA
BRANCH  41  42
ATOM     42  C   UNL A   1      39.021  21.496  25.890  1.00  0.00     0.338 C 
ATOM     43  O   UNL A   1      39.612  20.433  26.006  1.00  0.00    -0.246 OA
BRANCH  42  44
ATOM     44  C   UNL A   1      39.404  22.664  26.708  1.00  0.00     0.060 A 
ATOM     45  C   UNL A   1      38.887  23.927  26.414  1.00  0.00     0.016 A 
ATOM     46  C   UNL A   1      40.488  22.556  27.574  1.00  0.00     0.016 A 
ATOM     47  C   UNL A   1      39.496  25.080  26.906  1.00  0.00     0.010 A 
ATOM     48  C   UNL A   1      41.075  23.714  28.102  1.00  0.00     0.010 A 
ATOM     49  C   UNL A   1      40.622  24.993  27.726  1.00  0.00    -0.014 A 
BRANCH  49  50
ATOM     50  C   UNL A   1      41.409  26.214  28.064  1.00  0.00     0.031 A 
ATOM     51  C   UNL A   1      40.768  27.295  28.898  1.00  0.00     0.074 A 
ATOM     52  C   UNL A   1      42.697  26.350  27.693  1.00  0.00     0.049 A 
ATOM     53  N   UNL A   1      41.138  28.536  29.084  1.00  0.00    -0.248 NA
ATOM     54  C   UNL A   1      39.536  26.925  29.614  1.00  0.00     0.031 C 
ATOM     55  C   UNL A   1      43.495  25.337  27.004  1.00  0.00     0.029 A 
ATOM     56  N   UNL A   1      43.565  27.406  27.847  1.00  0.00    -0.354 N 
ATOM     57  C   UNL A   1      40.146  29.115  29.866  1.00  0.00     0.074 A 
ATOM     58  C   UNL A   1      39.166  28.085  30.137  1.00  0.00     0.031 C 
ATOM     59  C   UNL A   1      44.736  25.809  26.811  1.00  0.00     0.029 A 
ATOM     60  C   UNL A   1      44.785  27.200  27.248  1.00  0.00     0.049 A 
ATOM     61  H   UNL A   1      43.335  28.228  28.337  1.00  0.00     0.167 HD
ATOM     62  C   UNL A   1      40.060  30.396  30.301  1.00  0.00     0.037 A 
ATOM     63  C   UNL A   1      45.798  28.054  27.005  1.00  0.00     0.037 A 
ATOM     64  C   UNL A   1      41.079  31.389  30.074  1.00  0.00     0.049 A 
ATOM     65  C   UNL A   1      45.651  29.492  27.419  1.00  0.00     0.074 A 
ATOM     66  C   UNL A   1      41.098  32.717  30.460  1.00  0.00     0.029 A 
ATOM     67  N   UNL A   1      42.275  31.152  29.408  1.00  0.00    -0.354 N 
ATOM     68  N   UNL A   1      44.662  30.073  28.056  1.00  0.00    -0.248 NA
ATOM     69  C   UNL A   1      46.747  30.400  27.058  1.00  0.00     0.031 C 
ATOM     70  C   UNL A   1      42.279  33.297  29.983  1.00  0.00     0.029 A 
ATOM     71  C   UNL A   1      43.028  32.314  29.355  1.00  0.00     0.049 A 
ATOM     72  H   UNL A   1      42.548  30.285  29.029  1.00  0.00     0.167 HD
ATOM     73  C   UNL A   1      45.023  31.407  28.186  1.00  0.00     0.074 A 
ATOM     74  C   UNL A   1      46.332  31.545  27.581  1.00  0.00     0.031 C 
ATOM     75  C   UNL A   1      44.332  32.428  28.752  1.00  0.00     0.037 A 
BRANCH  62  76
ATOM     76  C   UNL A   1      38.800  30.821  31.005  1.00  0.00     0.064 A 
ATOM     77  C   UNL A   1      38.681  30.834  32.403  1.00  0.00     0.173 A 
ATOM     78  C   UNL A   1      37.695  31.257  30.254  1.00  0.00     0.173 A 
ATOM     79  F   UNL A   1      39.698  30.416  33.170  1.00  0.00    -0.203 F 
ATOM     80  C   UNL A   1      37.497  31.239  33.019  1.00  0.00     0.198 A 
ATOM     81  C   UNL A   1      36.527  31.694  30.874  1.00  0.00     0.198 A 
ATOM     82  F   UNL A   1      37.752  31.271  28.914  1.00  0.00    -0.203 F 
ATOM     83  F   UNL A   1      37.390  31.195  34.354  1.00  0.00    -0.200 F 
ATOM     84  C   UNL A   1      36.425  31.676  32.255  1.00  0.00     0.200 A 
ATOM     85  F   UNL A   1      35.499  32.130  30.131  1.00  0.00    -0.200 F 
ATOM     86  F   UNL A   1      35.292  32.075  32.850  1.00  0.00    -0.200 F 
ENDBRANCH  62  76
BRANCH  63  87
ATOM     87  C   UNL A   1      46.997  27.588  26.255  1.00  0.00     0.064 A 
ATOM     88  C   UNL A   1      47.044  27.631  24.855  1.00  0.00     0.173 A 
ATOM     89  C   UNL A   1      48.128  27.092  26.925  1.00  0.00     0.173 A 
ATOM     90  F   UNL A   1      45.978  28.062  24.164  1.00  0.00    -0.203 F 
ATOM     91  C   UNL A   1      48.169  27.195  24.156  1.00  0.00     0.198 A 
ATOM     92  C   UNL A   1      49.267  26.694  26.228  1.00  0.00     0.198 A 
ATOM     93  F   UNL A   1      48.137  27.017  28.264  1.00  0.00    -0.203 F 
ATOM     94  F   UNL A   1      48.168  27.204  22.816  1.00  0.00    -0.200 F 
ATOM     95  C   UNL A   1      49.284  26.739  24.844  1.00  0.00     0.200 A 
ATOM     96  F   UNL A   1      50.346  26.272  26.901  1.00  0.00    -0.200 F 
ATOM     97  F   UNL A   1      50.371  26.336  24.172  1.00  0.00    -0.200 F 
ENDBRANCH  63  87
BRANCH  75  98
ATOM     98  C   UNL A   1      45.003  33.771  28.784  1.00  0.00     0.064 A 
ATOM     99  C   UNL A   1      45.869  34.140  29.823  1.00  0.00     0.173 A 
ATOM    100  C   UNL A   1      44.793  34.691  27.745  1.00  0.00     0.173 A 
ATOM    101  F   UNL A   1      46.091  33.303  30.848  1.00  0.00    -0.203 F 
ATOM    102  C   UNL A   1      46.473  35.395  29.838  1.00  0.00     0.198 A 
ATOM    103  C   UNL A   1      45.425  35.930  27.745  1.00  0.00     0.198 A 
ATOM    104  F   UNL A   1      43.979  34.383  26.724  1.00  0.00    -0.203 F 
ATOM    105  F   UNL A   1      47.251  35.750  30.870  1.00  0.00    -0.200 F 
ATOM    106  C   UNL A   1      46.256  36.285  28.796  1.00  0.00     0.200 A 
ATOM    107  F   UNL A   1      45.227  36.782  26.730  1.00  0.00    -0.200 F 
ATOM    108  F   UNL A   1      46.842  37.490  28.810  1.00  0.00    -0.200 F 
ENDBRANCH  75  98
ENDBRANCH  49  50
ENDBRANCH  42  44
ENDBRANCH  41  42
ENDBRANCH  40  41
ENDBRANCH  39  40
ENDBRANCH  38  39
ENDBRANCH  37  38
ENDBRANCH   1  37
TORSDOF 23
ENDMDL
MODEL 2
REMARK VINA RESULT:     -11.5      0.852      6.698
REMARK SMILES COc1ccc(-c2ccc(/C=C3\SC(=S)N([C@H](Cc4ccccc4)C(=O)OCCOCCOCCOC(=O)c4ccc(-c5c6nc(c(-c7c(F)c(F)c(F)c(F)c7F)c7ccc([nH]7)c(-c7c(F)c(F)c(F)c(F)c7F)c7nc(c(-c8c(F)c(F)c(F)c(F)c8F)c8ccc5[nH]8)C=C7)C=C6)cc4)C3=O)o2)cc1
REMARK SMILES IDX 31 1 30 2 29 3 28 4 27 5 25 6 26 7 17 8 16 9 11 10 12 11
REMARK SMILES IDX 13 12 102 13 14 14 103 15 15 16 10 17 7 18 8 19 104 20 9 21
REMARK SMILES IDX 6 22 3 23 4 24 106 25 5 26 105 27 2 28 1 29 18 30 19 31
REMARK SMILES IDX 20 32 24 33 21 34 23 35 22 36 32 37 33 38 34 39 35 40 36 41
REMARK SMILES IDX 37 42 38 43 39 44 40 45 101 46 41 47 100 48 42 49 43 50
REMARK SMILES IDX 44 51 94 52 45 53 99 54 93 55 95 56 46 57 98 58 92 59 91 60
REMARK SMILES IDX 47 62 79 63 59 64 78 65 60 66 63 67 77 68 96 69 61 70 62 71
REMARK SMILES IDX 76 73 97 74 64 75 48 76 49 77 57 78 50 79 51 80 55 81 58 82
REMARK SMILES IDX 52 83 53 84 56 85 54 86 80 87 81 88 89 89 82 90 83 91 87 92
REMARK SMILES IDX 90 93 84 94 85 95 88 96 86 97 65 98 66 99 74 100 67 101
REMARK SMILES IDX 68 102 72 103 75 104 69 105 70 106 73 107 71 108
REMARK H PARENT 95 61 63 72
REMARK Flexibility Score: inf
ROOT
ATOM      1  C   UNL A   1      34.661  24.234  26.028  1.00  0.00     0.188 C 
ENDROOT
BRANCH   1   2
ATOM      2  O   UNL A   1      33.663  25.232  26.124  1.00  0.00    -0.376 OA
BRANCH   2   3
ATOM      3  C   UNL A   1      34.036  26.595  26.016  1.00  0.00     0.202 C 
BRANCH   3   4
ATOM      4  C   UNL A   1      33.172  27.619  26.746  1.00  0.00     0.261 C 
BRANCH   4   5
ATOM      5  O   UNL A   1      31.927  27.893  26.073  1.00  0.00    -0.462 OA
BRANCH   5   6
ATOM      6  C   UNL A   1      31.997  28.535  24.879  1.00  0.00     0.329 C 
ATOM      7  O   UNL A   1      32.638  29.568  24.695  1.00  0.00    -0.250 OA
BRANCH   6   8
ATOM      8  C   UNL A   1      31.036  27.987  23.805  1.00  0.00     0.206 C 
BRANCH   8   9
ATOM      9  N   UNL A   1      31.607  26.670  23.477  1.00  0.00    -0.278 N 
ATOM     10  C   UNL A   1      30.945  23.172  23.543  1.00  0.00     0.068 C 
ATOM     11  C   UNL A   1      31.586  24.337  23.419  1.00  0.00     0.084 C 
ATOM     12  S   UNL A   1      33.010  24.730  22.547  1.00  0.00    -0.054 SA
ATOM     13  C   UNL A   1      31.024  25.546  24.037  1.00  0.00     0.267 C 
ATOM     14  C   UNL A   1      32.728  26.460  22.705  1.00  0.00     0.149 C 
ATOM     15  O   UNL A   1      30.192  25.522  24.926  1.00  0.00    -0.268 OA
ATOM     16  S   UNL A   1      33.737  27.597  22.024  1.00  0.00    -0.052 S 
BRANCH  10  17
ATOM     17  C   UNL A   1      31.492  21.961  23.068  1.00  0.00     0.128 A 
ATOM     18  C   UNL A   1      32.345  19.929  23.088  1.00  0.00     0.134 A 
ATOM     19  C   UNL A   1      32.398  20.349  21.780  1.00  0.00     0.051 A 
ATOM     20  O   UNL A   1      31.803  20.896  23.875  1.00  0.00    -0.457 OA
ATOM     21  C   UNL A   1      31.852  21.644  21.766  1.00  0.00     0.051 A 
BRANCH  18  22
ATOM     22  C   UNL A   1      32.793  18.723  23.748  1.00  0.00     0.017 A 
ATOM     23  C   UNL A   1      33.527  16.291  24.933  1.00  0.00     0.118 A 
ATOM     24  C   UNL A   1      32.933  17.298  25.698  1.00  0.00     0.047 A 
ATOM     25  C   UNL A   1      33.752  16.500  23.573  1.00  0.00     0.047 A 
ATOM     26  C   UNL A   1      32.583  18.519  25.114  1.00  0.00     0.016 A 
ATOM     27  C   UNL A   1      33.383  17.709  22.985  1.00  0.00     0.016 A 
BRANCH  23  28
ATOM     28  O   UNL A   1      33.797  15.126  25.596  1.00  0.00    -0.497 OA
ATOM     29  C   UNL A   1      32.698  14.229  25.713  1.00  0.00     0.278 C 
ENDBRANCH  23  28
ENDBRANCH  18  22
ENDBRANCH  10  17
ENDBRANCH   8   9
BRANCH   8  30
ATOM     30  C   UNL A   1      30.677  28.785  22.537  1.00  0.00     0.073 C 
BRANCH  30  31
ATOM     31  C   UNL A   1      29.644  29.907  22.639  1.00  0.00    -0.045 A 
ATOM     32  C   UNL A   1      28.799  30.121  21.532  1.00  0.00     0.004 A 
ATOM     33  C   UNL A   1      29.477  30.745  23.748  1.00  0.00     0.004 A 
ATOM     34  C   UNL A   1      27.857  31.156  21.518  1.00  0.00     0.000 A 
ATOM     35  C   UNL A   1      28.516  31.767  23.737  1.00  0.00     0.000 A 
ATOM     36  C   UNL A   1      27.727  31.993  22.617  1.00  0.00     0.000 A 
ENDBRANCH  30  31
ENDBRANCH   8  30
ENDBRANCH   6   8
ENDBRANCH   5   6
ENDBRANCH   4   5
ENDBRANCH   3   4
ENDBRANCH   2   3
ENDBRANCH   1   2
BRANCH   1  37
ATOM     37  C   UNL A   1      34.327  22.822  25.491  1.00  0.00     0.188 C 
BRANCH  37  38
ATOM     38  O   UNL A   1      35.289  22.082  24.774  1.00  0.00    -0.376 OA
BRANCH  38  39
ATOM     39  C   UNL A   1      35.827  20.931  25.405  1.00  0.00     0.202 C 
BRANCH  39  40
ATOM     40  C   UNL A   1      37.242  20.501  25.003  1.00  0.00     0.261 C 
BRANCH  40  41
ATOM     41  O   UNL A   1      38.191  21.591  24.992  1.00  0.00    -0.460 OA
BRANCH  41  42
ATOM     42  C   UNL A   1      39.180  21.501  25.913  1.00  0.00     0.338 C 
ATOM     43  O   UNL A   1      39.888  20.531  26.138  1.00  0.00    -0.246 OA
BRANCH  42  44
ATOM     44  C   UNL A   1      39.388  22.769  26.640  1.00  0.00     0.060 A 
ATOM     45  C   UNL A   1      38.769  23.940  26.199  1.00  0.00     0.016 A 
ATOM     46  C   UNL A   1      40.414  22.851  27.577  1.00  0.00     0.016 A 
ATOM     47  C   UNL A   1      39.225  25.190  26.618  1.00  0.00     0.010 A 
ATOM     48  C   UNL A   1      40.845  24.106  28.028  1.00  0.00     0.010 A 
ATOM     49  C   UNL A   1      40.294  25.293  27.508  1.00  0.00    -0.014 A 
BRANCH  49  50
ATOM     50  C   UNL A   1      40.931  26.614  27.777  1.00  0.00     0.031 A 
ATOM     51  C   UNL A   1      42.365  26.838  27.365  1.00  0.00     0.074 A 
ATOM     52  C   UNL A   1      40.241  27.634  28.326  1.00  0.00     0.049 A 
ATOM     53  N   UNL A   1      43.202  27.775  27.729  1.00  0.00    -0.248 NA
ATOM     54  C   UNL A   1      42.932  25.865  26.417  1.00  0.00     0.031 C 
ATOM     55  C   UNL A   1      38.816  27.617  28.653  1.00  0.00     0.029 A 
ATOM     56  N   UNL A   1      40.653  28.890  28.707  1.00  0.00    -0.354 N 
ATOM     57  C   UNL A   1      44.413  27.459  27.123  1.00  0.00     0.074 A 
ATOM     58  C   UNL A   1      44.197  26.254  26.352  1.00  0.00     0.031 C 
ATOM     59  C   UNL A   1      38.468  28.806  29.166  1.00  0.00     0.029 A 
ATOM     60  C   UNL A   1      39.666  29.623  29.321  1.00  0.00     0.049 A 
ATOM     61  H   UNL A   1      41.565  29.228  28.556  1.00  0.00     0.167 HD
ATOM     62  C   UNL A   1      45.596  28.112  27.221  1.00  0.00     0.037 A 
ATOM     63  C   UNL A   1      39.731  30.783  30.002  1.00  0.00     0.037 A 
ATOM     64  C   UNL A   1      45.773  29.347  27.944  1.00  0.00     0.049 A 
ATOM     65  C   UNL A   1      41.067  31.452  30.173  1.00  0.00     0.074 A 
ATOM     66  C   UNL A   1      46.924  30.094  28.116  1.00  0.00     0.029 A 
ATOM     67  N   UNL A   1      44.756  30.025  28.602  1.00  0.00    -0.354 N 
ATOM     68  N   UNL A   1      42.238  31.094  29.701  1.00  0.00    -0.248 NA
ATOM     69  C   UNL A   1      41.098  32.669  30.993  1.00  0.00     0.031 C 
ATOM     70  C   UNL A   1      46.616  31.194  28.924  1.00  0.00     0.029 A 
ATOM     71  C   UNL A   1      45.258  31.170  29.200  1.00  0.00     0.049 A 
ATOM     72  H   UNL A   1      43.815  29.736  28.640  1.00  0.00     0.167 HD
ATOM     73  C   UNL A   1      43.139  32.049  30.151  1.00  0.00     0.074 A 
ATOM     74  C   UNL A   1      42.375  33.013  30.917  1.00  0.00     0.031 C 
ATOM     75  C   UNL A   1      44.479  32.120  29.954  1.00  0.00     0.037 A 
BRANCH  62  76
ATOM     76  C   UNL A   1      46.808  27.478  26.593  1.00  0.00     0.064 A 
ATOM     77  C   UNL A   1      47.616  26.554  27.271  1.00  0.00     0.173 A 
ATOM     78  C   UNL A   1      47.144  27.784  25.263  1.00  0.00     0.173 A 
ATOM     79  F   UNL A   1      47.351  26.234  28.546  1.00  0.00    -0.203 F 
ATOM     80  C   UNL A   1      48.728  25.983  26.653  1.00  0.00     0.198 A 
ATOM     81  C   UNL A   1      48.235  27.185  24.638  1.00  0.00     0.198 A 
ATOM     82  F   UNL A   1      46.405  28.657  24.563  1.00  0.00    -0.203 F 
ATOM     83  F   UNL A   1      49.515  25.141  27.338  1.00  0.00    -0.200 F 
ATOM     84  C   UNL A   1      49.032  26.293  25.336  1.00  0.00     0.200 A 
ATOM     85  F   UNL A   1      48.515  27.476  23.359  1.00  0.00    -0.200 F 
ATOM     86  F   UNL A   1      50.095  25.736  24.741  1.00  0.00    -0.200 F 
ENDBRANCH  62  76
BRANCH  63  87
ATOM     87  C   UNL A   1      38.507  31.333  30.649  1.00  0.00     0.064 A 
ATOM     88  C   UNL A   1      37.560  32.062  29.916  1.00  0.00     0.173 A 
ATOM     89  C   UNL A   1      38.255  31.138  32.017  1.00  0.00     0.173 A 
ATOM     90  F   UNL A   1      37.768  32.308  28.614  1.00  0.00    -0.203 F 
ATOM     91  C   UNL A   1      36.415  32.574  30.525  1.00  0.00     0.198 A 
ATOM     92  C   UNL A   1      37.092  31.615  32.615  1.00  0.00     0.198 A 
ATOM     93  F   UNL A   1      39.131  30.457  32.771  1.00  0.00    -0.203 F 
ATOM     94  F   UNL A   1      35.550  33.307  29.809  1.00  0.00    -0.200 F 
ATOM     95  C   UNL A   1      36.175  32.340  31.870  1.00  0.00     0.200 A 
ATOM     96  F   UNL A   1      36.859  31.369  33.912  1.00  0.00    -0.200 F 
ATOM     97  F   UNL A   1      35.066  32.818  32.450  1.00  0.00    -0.200 F 
ENDBRANCH  63  87
BRANCH  75  98
ATOM     98  C   UNL A   1      45.193  33.306  30.535  1.00  0.00     0.064 A 
ATOM     99  C   UNL A   1      45.766  33.271  31.814  1.00  0.00     0.173 A 
ATOM    100  C   UNL A   1      45.325  34.487  29.787  1.00  0.00     0.173 A 
ATOM    101  F   UNL A   1      45.654  32.172  32.575  1.00  0.00    -0.203 F 
ATOM    102  C   UNL A   1      46.415  34.386  32.337  1.00  0.00     0.198 A 
ATOM    103  C   UNL A   1      46.004  35.588  30.300  1.00  0.00     0.198 A 
ATOM    104  F   UNL A   1      44.801  34.569  28.555  1.00  0.00    -0.203 F 
ATOM    105  F   UNL A   1      46.905  34.351  33.585  1.00  0.00    -0.200 F 
ATOM    106  C   UNL A   1      46.540  35.541  31.577  1.00  0.00     0.200 A 
ATOM    107  F   UNL A   1      46.137  36.696  29.558  1.00  0.00    -0.200 F 
ATOM    108  F   UNL A   1      47.169  36.611  32.081  1.00  0.00    -0.200 F 
ENDBRANCH  75  98
ENDBRANCH  49  50
ENDBRANCH  42  44
ENDBRANCH  41  42
ENDBRANCH  40  41
ENDBRANCH  39  40
ENDBRANCH  38  39
ENDBRANCH  37  38
ENDBRANCH   1  37
TORSDOF 23
ENDMDL
MODEL 3
REMARK VINA RESULT:     -11.0      2.801      7.738
REMARK SMILES COc1ccc(-c2ccc(/C=C3\SC(=S)N([C@H](Cc4ccccc4)C(=O)OCCOCCOCCOC(=O)c4ccc(-c5c6nc(c(-c7c(F)c(F)c(F)c(F)c7F)c7ccc([nH]7)c(-c7c(F)c(F)c(F)c(F)c7F)c7nc(c(-c8c(F)c(F)c(F)c(F)c8F)c8ccc5[nH]8)C=C7)C=C6)cc4)C3=O)o2)cc1
REMARK SMILES IDX 31 1 30 2 29 3 28 4 27 5 25 6 26 7 17 8 16 9 11 10 12 11
REMARK SMILES IDX 13 12 102 13 14 14 103 15 15 16 10 17 7 18 8 19 104 20 9 21
REMARK SMILES IDX 6 22 3 23 4 24 106 25 5 26 105 27 2 28 1 29 18 30 19 31
REMARK SMILES IDX 20 32 24 33 21 34 23 35 22 36 32 37 33 38 34 39 35 40 36 41
REMARK SMILES IDX 37 42 38 43 39 44 40 45 101 46 41 47 100 48 42 49 43 50
REMARK SMILES IDX 44 51 94 52 45 53 99 54 93 55 95 56 46 57 98 58 92 59 91 60
REMARK SMILES IDX 47 62 79 63 59 64 78 65 60 66 63 67 77 68 96 69 61 70 62 71
REMARK SMILES IDX 76 73 97 74 64 75 48 76 49 77 57 78 50 79 51 80 55 81 58 82
REMARK SMILES IDX 52 83 53 84 56 85 54 86 80 87 81 88 89 89 82 90 83 91 87 92
REMARK SMILES IDX 90 93 84 94 85 95 88 96 86 97 65 98 66 99 74 100 67 101
REMARK SMILES IDX 68 102 72 103 75 104 69 105 70 106 73 107 71 108
REMARK H PARENT 95 61 63 72
REMARK Flexibility Score: inf
ROOT
ATOM      1  C   UNL A   1      35.647  33.921  27.989  1.00  0.00     0.188 C 
ENDROOT
BRANCH   1   2
ATOM      2  O   UNL A   1      35.434  32.576  27.606  1.00  0.00    -0.376 OA
BRANCH   2   3
ATOM      3  C   UNL A   1      34.183  31.970  27.878  1.00  0.00     0.202 C 
BRANCH   3   4
ATOM      4  C   UNL A   1      33.912  30.606  27.250  1.00  0.00     0.261 C 
BRANCH   4   5
ATOM      5  O   UNL A   1      32.525  30.217  27.314  1.00  0.00    -0.462 OA
BRANCH   5   6
ATOM      6  C   UNL A   1      32.229  28.927  27.013  1.00  0.00     0.329 C 
ATOM      7  O   UNL A   1      32.710  27.960  27.599  1.00  0.00    -0.250 OA
BRANCH   6   8
ATOM      8  C   UNL A   1      31.392  28.751  25.729  1.00  0.00     0.206 C 
BRANCH   8   9
ATOM      9  N   UNL A   1      31.903  27.493  25.160  1.00  0.00    -0.278 N 
ATOM     10  C   UNL A   1      31.083  24.076  24.586  1.00  0.00     0.068 C 
ATOM     11  C   UNL A   1      31.776  25.214  24.673  1.00  0.00     0.084 C 
ATOM     12  S   UNL A   1      33.216  25.698  23.875  1.00  0.00    -0.054 SA
ATOM     13  C   UNL A   1      31.270  26.312  25.509  1.00  0.00     0.267 C 
ATOM     14  C   UNL A   1      33.012  27.379  24.352  1.00  0.00     0.149 C 
ATOM     15  O   UNL A   1      30.439  26.161  26.385  1.00  0.00    -0.268 OA
ATOM     16  S   UNL A   1      34.072  28.577  23.882  1.00  0.00    -0.052 S 
BRANCH  10  17
ATOM     17  C   UNL A   1      31.575  22.950  23.892  1.00  0.00     0.128 A 
ATOM     18  C   UNL A   1      32.239  20.884  23.509  1.00  0.00     0.134 A 
ATOM     19  C   UNL A   1      32.482  21.580  22.349  1.00  0.00     0.051 A 
ATOM     20  O   UNL A   1      31.695  21.702  24.449  1.00  0.00    -0.457 OA
ATOM     21  C   UNL A   1      32.056  22.898  22.592  1.00  0.00     0.051 A 
BRANCH  18  22
ATOM     22  C   UNL A   1      32.500  19.517  23.904  1.00  0.00     0.017 A 
ATOM     23  C   UNL A   1      33.180  16.921  24.714  1.00  0.00     0.118 A 
ATOM     24  C   UNL A   1      32.952  17.202  23.365  1.00  0.00     0.047 A 
ATOM     25  C   UNL A   1      33.070  17.941  25.660  1.00  0.00     0.047 A 
ATOM     26  C   UNL A   1      32.595  18.491  22.960  1.00  0.00     0.016 A 
ATOM     27  C   UNL A   1      32.735  19.232  25.254  1.00  0.00     0.016 A 
BRANCH  23  28
ATOM     28  O   UNL A   1      33.558  15.638  24.996  1.00  0.00    -0.497 OA
ATOM     29  C   UNL A   1      32.536  14.816  25.550  1.00  0.00     0.278 C 
ENDBRANCH  23  28
ENDBRANCH  18  22
ENDBRANCH  10  17
ENDBRANCH   8   9
BRANCH   8  30
ATOM     30  C   UNL A   1      31.279  29.856  24.662  1.00  0.00     0.073 C 
BRANCH  30  31
ATOM     31  C   UNL A   1      29.936  30.074  23.965  1.00  0.00    -0.045 A 
ATOM     32  C   UNL A   1      29.472  29.055  23.108  1.00  0.00     0.004 A 
ATOM     33  C   UNL A   1      29.134  31.212  24.105  1.00  0.00     0.004 A 
ATOM     34  C   UNL A   1      28.277  29.189  22.391  1.00  0.00     0.000 A 
ATOM     35  C   UNL A   1      27.927  31.331  23.402  1.00  0.00     0.000 A 
ATOM     36  C   UNL A   1      27.511  30.337  22.524  1.00  0.00     0.000 A 
ENDBRANCH  30  31
ENDBRANCH   8  30
ENDBRANCH   6   8
ENDBRANCH   5   6
ENDBRANCH   4   5
ENDBRANCH   3   4
ENDBRANCH   2   3
ENDBRANCH   1   2
BRANCH   1  37
ATOM     37  C   UNL A   1      35.703  34.326  29.482  1.00  0.00     0.188 C 
BRANCH  37  38
ATOM     38  O   UNL A   1      35.792  33.342  30.487  1.00  0.00    -0.376 OA
BRANCH  38  39
ATOM     39  C   UNL A   1      34.739  33.287  31.437  1.00  0.00     0.202 C 
BRANCH  39  40
ATOM     40  C   UNL A   1      35.063  32.702  32.817  1.00  0.00     0.261 C 
BRANCH  40  41
ATOM     41  O   UNL A   1      36.126  31.724  32.789  1.00  0.00    -0.460 OA
BRANCH  41  42
ATOM     42  C   UNL A   1      37.108  31.918  33.703  1.00  0.00     0.338 C 
ATOM     43  O   UNL A   1      36.969  32.121  34.900  1.00  0.00    -0.246 OA
BRANCH  42  44
ATOM     44  C   UNL A   1      38.456  31.805  33.110  1.00  0.00     0.060 A 
ATOM     45  C   UNL A   1      38.665  32.143  31.772  1.00  0.00     0.016 A 
ATOM     46  C   UNL A   1      39.439  31.097  33.796  1.00  0.00     0.016 A 
ATOM     47  C   UNL A   1      39.802  31.706  31.094  1.00  0.00     0.010 A 
ATOM     48  C   UNL A   1      40.601  30.692  33.125  1.00  0.00     0.010 A 
ATOM     49  C   UNL A   1      40.769  30.941  31.750  1.00  0.00    -0.014 A 
BRANCH  49  50
ATOM     50  C   UNL A   1      41.862  30.280  30.980  1.00  0.00     0.031 A 
ATOM     51  C   UNL A   1      43.212  30.948  30.899  1.00  0.00     0.074 A 
ATOM     52  C   UNL A   1      41.692  29.074  30.403  1.00  0.00     0.049 A 
ATOM     53  N   UNL A   1      44.210  30.718  30.085  1.00  0.00    -0.248 NA
ATOM     54  C   UNL A   1      43.467  32.028  31.867  1.00  0.00     0.031 C 
ATOM     55  C   UNL A   1      40.493  28.243  30.507  1.00  0.00     0.029 A 
ATOM     56  N   UNL A   1      42.539  28.335  29.610  1.00  0.00    -0.354 N 
ATOM     57  C   UNL A   1      45.173  31.675  30.386  1.00  0.00     0.074 A 
ATOM     58  C   UNL A   1      44.650  32.475  31.471  1.00  0.00     0.031 C 
ATOM     59  C   UNL A   1      40.686  27.106  29.824  1.00  0.00     0.029 A 
ATOM     60  C   UNL A   1      41.967  27.181  29.132  1.00  0.00     0.049 A 
ATOM     61  H   UNL A   1      43.463  28.607  29.406  1.00  0.00     0.167 HD
ATOM     62  C   UNL A   1      46.377  31.869  29.793  1.00  0.00     0.037 A 
ATOM     63  C   UNL A   1      42.388  26.322  28.184  1.00  0.00     0.037 A 
ATOM     64  C   UNL A   1      46.906  31.019  28.756  1.00  0.00     0.049 A 
ATOM     65  C   UNL A   1      43.686  26.599  27.476  1.00  0.00     0.074 A 
ATOM     66  C   UNL A   1      48.108  31.123  28.079  1.00  0.00     0.029 A 
ATOM     67  N   UNL A   1      46.265  29.893  28.258  1.00  0.00    -0.354 N 
ATOM     68  N   UNL A   1      44.546  27.570  27.676  1.00  0.00    -0.248 NA
ATOM     69  C   UNL A   1      44.060  25.679  26.395  1.00  0.00     0.031 C 
ATOM     70  C   UNL A   1      48.170  30.092  27.135  1.00  0.00     0.029 A 
ATOM     71  C   UNL A   1      47.036  29.306  27.268  1.00  0.00     0.049 A 
ATOM     72  H   UNL A   1      45.389  29.559  28.564  1.00  0.00     0.167 HD
ATOM     73  C   UNL A   1      45.569  27.368  26.758  1.00  0.00     0.074 A 
ATOM     74  C   UNL A   1      45.232  26.170  26.017  1.00  0.00     0.031 C 
ATOM     75  C   UNL A   1      46.684  28.109  26.545  1.00  0.00     0.037 A 
BRANCH  62  76
ATOM     76  C   UNL A   1      47.176  33.079  30.196  1.00  0.00     0.064 A 
ATOM     77  C   UNL A   1      48.116  33.052  31.237  1.00  0.00     0.173 A 
ATOM     78  C   UNL A   1      47.015  34.286  29.496  1.00  0.00     0.173 A 
ATOM     79  F   UNL A   1      48.303  31.932  31.950  1.00  0.00    -0.203 F 
ATOM     80  C   UNL A   1      48.842  34.194  31.578  1.00  0.00     0.198 A 
ATOM     81  C   UNL A   1      47.767  35.414  29.816  1.00  0.00     0.198 A 
ATOM     82  F   UNL A   1      46.134  34.370  28.487  1.00  0.00    -0.203 F 
ATOM     83  F   UNL A   1      49.697  34.158  32.609  1.00  0.00    -0.200 F 
ATOM     84  C   UNL A   1      48.673  35.370  30.863  1.00  0.00     0.200 A 
ATOM     85  F   UNL A   1      47.610  36.544  29.111  1.00  0.00    -0.200 F 
ATOM     86  F   UNL A   1      49.378  36.462  31.186  1.00  0.00    -0.200 F 
ENDBRANCH  62  76
BRANCH  63  87
ATOM     87  C   UNL A   1      41.527  25.172  27.789  1.00  0.00     0.064 A 
ATOM     88  C   UNL A   1      41.777  23.878  28.263  1.00  0.00     0.173 A 
ATOM     89  C   UNL A   1      40.429  25.346  26.929  1.00  0.00     0.173 A 
ATOM     90  F   UNL A   1      42.832  23.649  29.058  1.00  0.00    -0.203 F 
ATOM     91  C   UNL A   1      40.967  22.805  27.892  1.00  0.00     0.198 A 
ATOM     92  C   UNL A   1      39.598  24.282  26.591  1.00  0.00     0.198 A 
ATOM     93  F   UNL A   1      40.147  26.561  26.435  1.00  0.00    -0.203 F 
ATOM     94  F   UNL A   1      41.257  21.569  28.323  1.00  0.00    -0.200 F 
ATOM     95  C   UNL A   1      39.871  23.009  27.067  1.00  0.00     0.200 A 
ATOM     96  F   UNL A   1      38.530  24.491  25.808  1.00  0.00    -0.200 F 
ATOM     97  F   UNL A   1      39.085  21.981  26.724  1.00  0.00    -0.200 F 
ENDBRANCH  63  87
BRANCH  75  98
ATOM     98  C   UNL A   1      47.643  27.615  25.501  1.00  0.00     0.064 A 
ATOM     99  C   UNL A   1      47.468  27.906  24.140  1.00  0.00     0.173 A 
ATOM    100  C   UNL A   1      48.766  26.860  25.873  1.00  0.00     0.173 A 
ATOM    101  F   UNL A   1      46.402  28.611  23.731  1.00  0.00    -0.203 F 
ATOM    102  C   UNL A   1      48.365  27.430  23.187  1.00  0.00     0.198 A 
ATOM    103  C   UNL A   1      49.678  26.415  24.921  1.00  0.00     0.198 A 
ATOM    104  F   UNL A   1      48.983  26.561  27.162  1.00  0.00    -0.203 F 
ATOM    105  F   UNL A   1      48.147  27.670  21.886  1.00  0.00    -0.200 F 
ATOM    106  C   UNL A   1      49.472  26.691  23.579  1.00  0.00     0.200 A 
ATOM    107  F   UNL A   1      50.756  25.716  25.303  1.00  0.00    -0.200 F 
ATOM    108  F   UNL A   1      50.335  26.238  22.660  1.00  0.00    -0.200 F 
ENDBRANCH  75  98
ENDBRANCH  49  50
ENDBRANCH  42  44
ENDBRANCH  41  42
ENDBRANCH  40  41
ENDBRANCH  39  40
ENDBRANCH  38  39
ENDBRANCH  37  38
ENDBRANCH   1  37
TORSDOF 23
ENDMDL
