MODEL 1
REMARK VINA RESULT:     -11.0      0.000      0.000
REMARK SMILES Cc1onc(-c2cccc(Br)c2)c1C(=O)OCCOCCOCCOC(=O)c1ccc(-c2c3nc(c(-c4c(F)c(F)c(F)c(F)c4F)c4ccc([nH]4)c(-c4c(F)c(F)c(F)c(F)c4F)c4nc(c(-c5c(F)c(F)c(F)c(F)c5F)c5ccc2[nH]5)C=C4)C=C3)cc1
REMARK SMILES IDX 21 1 20 2 19 3 18 4 17 5 16 6 14 7 15 8 13 9 1 10 2 11 3 12
REMARK SMILES IDX 4 13 5 14 6 15 7 16 12 17 8 18 10 19 9 20 11 21 22 22 23 23
REMARK SMILES IDX 24 24 25 25 26 26 27 27 28 28 29 29 90 30 30 31 89 32 31 33
REMARK SMILES IDX 32 34 33 35 83 36 34 37 88 38 82 39 84 40 35 41 87 42 81 43
REMARK SMILES IDX 80 44 36 46 68 47 48 48 67 49 49 50 52 51 66 52 85 53 50 54
REMARK SMILES IDX 51 55 65 57 86 58 53 59 37 60 38 61 46 62 39 63 40 64 44 65
REMARK SMILES IDX 47 66 41 67 42 68 45 69 43 70 69 71 70 72 78 73 71 74 72 75
REMARK SMILES IDX 76 76 79 77 73 78 74 79 77 80 75 81 54 82 55 83 63 84 56 85
REMARK SMILES IDX 57 86 61 87 64 88 58 89 59 90 62 91 60 92
REMARK H PARENT 84 45 52 56
REMARK Flexibility Score: inf
ROOT
ATOM      1  C   UNL A   1      33.242  28.847  23.989  1.00  0.00     0.188 C 
ENDROOT
BRANCH   1   2
ATOM      2  C   UNL A   1      33.923  28.128  22.813  1.00  0.00     0.188 C 
BRANCH   2   3
ATOM      3  O   UNL A   1      33.718  26.719  22.832  1.00  0.00    -0.376 OA
BRANCH   3   4
ATOM      4  C   UNL A   1      33.207  26.165  21.623  1.00  0.00     0.202 C 
BRANCH   4   5
ATOM      5  C   UNL A   1      32.061  25.194  21.916  1.00  0.00     0.261 C 
BRANCH   5   6
ATOM      6  O   UNL A   1      31.792  25.022  23.319  1.00  0.00    -0.459 OA
BRANCH   6   7
ATOM      7  C   UNL A   1      31.517  23.760  23.740  1.00  0.00     0.344 C 
ATOM      8  O   UNL A   1      31.530  22.782  23.000  1.00  0.00    -0.246 OA
BRANCH   7   9
ATOM      9  C   UNL A   1      31.296  23.677  25.167  1.00  0.00     0.130 A 
ATOM     10  C   UNL A   1      29.862  25.804  25.808  1.00  0.00     0.092 C 
ATOM     11  C   UNL A   1      30.599  24.538  25.990  1.00  0.00     0.148 A 
ATOM     12  O   UNL A   1      30.631  24.062  27.265  1.00  0.00    -0.360 OA
ATOM     13  N   UNL A   1      31.400  22.915  27.320  1.00  0.00    -0.079 NA
ATOM     14  C   UNL A   1      31.829  22.708  26.070  1.00  0.00     0.128 A 
BRANCH  14  15
ATOM     15  C   UNL A   1      32.831  21.706  25.755  1.00  0.00     0.006 A 
ATOM     16  C   UNL A   1      34.173  22.035  25.984  1.00  0.00     0.010 A 
ATOM     17  C   UNL A   1      32.503  20.504  25.127  1.00  0.00     0.026 A 
ATOM     18  C   UNL A   1      35.185  21.244  25.464  1.00  0.00     0.002 A 
ATOM     19  C   UNL A   1      33.532  19.682  24.664  1.00  0.00     0.018 A 
ATOM     20  C   UNL A   1      34.866  20.065  24.798  1.00  0.00     0.016 A 
ATOM     21  Br  UNL A   1      33.128  18.047  23.805  1.00  0.00    -0.051 Br
ENDBRANCH  14  15
ENDBRANCH   7   9
ENDBRANCH   6   7
ENDBRANCH   5   6
ENDBRANCH   4   5
ENDBRANCH   3   4
ENDBRANCH   2   3
ENDBRANCH   1   2
BRANCH   1  22
ATOM     22  O   UNL A   1      31.905  28.510  24.347  1.00  0.00    -0.376 OA
BRANCH  22  23
ATOM     23  C   UNL A   1      31.247  29.276  25.344  1.00  0.00     0.202 C 
BRANCH  23  24
ATOM     24  C   UNL A   1      31.915  30.599  25.725  1.00  0.00     0.261 C 
BRANCH  24  25
ATOM     25  O   UNL A   1      32.474  30.597  27.049  1.00  0.00    -0.460 OA
BRANCH  25  26
ATOM     26  C   UNL A   1      33.195  31.700  27.363  1.00  0.00     0.338 C 
ATOM     27  O   UNL A   1      32.817  32.860  27.348  1.00  0.00    -0.246 OA
BRANCH  26  28
ATOM     28  C   UNL A   1      34.536  31.313  27.852  1.00  0.00     0.060 A 
ATOM     29  C   UNL A   1      34.762  29.961  28.137  1.00  0.00     0.016 A 
ATOM     30  C   UNL A   1      35.528  32.262  28.116  1.00  0.00     0.016 A 
ATOM     31  C   UNL A   1      35.961  29.560  28.728  1.00  0.00     0.010 A 
ATOM     32  C   UNL A   1      36.721  31.862  28.731  1.00  0.00     0.010 A 
ATOM     33  C   UNL A   1      36.929  30.515  29.071  1.00  0.00    -0.014 A 
BRANCH  33  34
ATOM     34  C   UNL A   1      38.078  30.108  29.919  1.00  0.00     0.031 A 
ATOM     35  C   UNL A   1      39.137  29.223  29.335  1.00  0.00     0.074 A 
ATOM     36  C   UNL A   1      38.200  30.541  31.185  1.00  0.00     0.049 A 
ATOM     37  N   UNL A   1      40.238  28.778  29.884  1.00  0.00    -0.248 NA
ATOM     38  C   UNL A   1      38.912  28.753  27.960  1.00  0.00     0.031 C 
ATOM     39  C   UNL A   1      37.218  31.363  31.872  1.00  0.00     0.029 A 
ATOM     40  N   UNL A   1      39.198  30.367  32.111  1.00  0.00    -0.354 N 
ATOM     41  C   UNL A   1      40.828  27.962  28.932  1.00  0.00     0.074 A 
ATOM     42  C   UNL A   1      39.966  27.972  27.769  1.00  0.00     0.031 C 
ATOM     43  C   UNL A   1      37.688  31.690  33.086  1.00  0.00     0.029 A 
ATOM     44  C   UNL A   1      38.987  31.057  33.281  1.00  0.00     0.049 A 
ATOM     45  H   UNL A   1      39.990  29.804  31.952  1.00  0.00     0.167 HD
ATOM     46  C   UNL A   1      41.976  27.251  29.030  1.00  0.00     0.037 A 
ATOM     47  C   UNL A   1      39.749  31.160  34.387  1.00  0.00     0.037 A 
ATOM     48  C   UNL A   1      42.821  27.224  30.194  1.00  0.00     0.049 A 
ATOM     49  C   UNL A   1      41.035  30.381  34.459  1.00  0.00     0.074 A 
ATOM     50  C   UNL A   1      43.998  26.523  30.389  1.00  0.00     0.029 A 
ATOM     51  N   UNL A   1      42.576  27.926  31.364  1.00  0.00    -0.354 N 
ATOM     52  N   UNL A   1      41.589  29.618  33.548  1.00  0.00    -0.248 NA
ATOM     53  C   UNL A   1      41.783  30.452  35.721  1.00  0.00     0.031 C 
ATOM     54  C   UNL A   1      44.445  26.771  31.692  1.00  0.00     0.029 A 
ATOM     55  C   UNL A   1      43.571  27.662  32.293  1.00  0.00     0.049 A 
ATOM     56  H   UNL A   1      41.809  28.526  31.514  1.00  0.00     0.167 HD
ATOM     57  C   UNL A   1      42.742  29.111  34.128  1.00  0.00     0.074 A 
ATOM     58  C   UNL A   1      42.831  29.683  35.455  1.00  0.00     0.031 C 
ATOM     59  C   UNL A   1      43.637  28.232  33.614  1.00  0.00     0.037 A 
BRANCH  46  60
ATOM     60  C   UNL A   1      42.349  26.401  27.856  1.00  0.00     0.064 A 
ATOM     61  C   UNL A   1      41.816  25.116  27.678  1.00  0.00     0.173 A 
ATOM     62  C   UNL A   1      43.249  26.882  26.894  1.00  0.00     0.173 A 
ATOM     63  F   UNL A   1      40.970  24.605  28.584  1.00  0.00    -0.203 F 
ATOM     64  C   UNL A   1      42.190  24.334  26.589  1.00  0.00     0.198 A 
ATOM     65  C   UNL A   1      43.603  26.106  25.795  1.00  0.00     0.198 A 
ATOM     66  F   UNL A   1      43.788  28.104  27.023  1.00  0.00    -0.203 F 
ATOM     67  F   UNL A   1      41.706  23.091  26.461  1.00  0.00    -0.200 F 
ATOM     68  C   UNL A   1      43.079  24.831  25.647  1.00  0.00     0.200 A 
ATOM     69  F   UNL A   1      44.458  26.590  24.883  1.00  0.00    -0.200 F 
ATOM     70  F   UNL A   1      43.439  24.076  24.599  1.00  0.00    -0.200 F 
ENDBRANCH  46  60
BRANCH  47  71
ATOM     71  C   UNL A   1      39.323  32.027  35.518  1.00  0.00     0.064 A 
ATOM     72  C   UNL A   1      38.509  31.521  36.541  1.00  0.00     0.173 A 
ATOM     73  C   UNL A   1      39.706  33.373  35.597  1.00  0.00     0.173 A 
ATOM     74  F   UNL A   1      38.089  30.248  36.495  1.00  0.00    -0.203 F 
ATOM     75  C   UNL A   1      38.083  32.331  37.592  1.00  0.00     0.198 A 
ATOM     76  C   UNL A   1      39.306  34.174  36.665  1.00  0.00     0.198 A 
ATOM     77  F   UNL A   1      40.483  33.908  34.644  1.00  0.00    -0.203 F 
ATOM     78  F   UNL A   1      37.265  31.835  38.531  1.00  0.00    -0.200 F 
ATOM     79  C   UNL A   1      38.489  33.656  37.658  1.00  0.00     0.200 A 
ATOM     80  F   UNL A   1      39.710  35.451  36.728  1.00  0.00    -0.200 F 
ATOM     81  F   UNL A   1      38.082  34.435  38.669  1.00  0.00    -0.200 F 
ENDBRANCH  47  71
BRANCH  59  82
ATOM     82  C   UNL A   1      44.784  27.833  34.493  1.00  0.00     0.064 A 
ATOM     83  C   UNL A   1      44.703  26.710  35.329  1.00  0.00     0.173 A 
ATOM     84  C   UNL A   1      45.984  28.559  34.475  1.00  0.00     0.173 A 
ATOM     85  F   UNL A   1      43.571  25.994  35.392  1.00  0.00    -0.203 F 
ATOM     86  C   UNL A   1      45.780  26.337  36.130  1.00  0.00     0.198 A 
ATOM     87  C   UNL A   1      47.065  28.170  35.259  1.00  0.00     0.198 A 
ATOM     88  F   UNL A   1      46.109  29.638  33.689  1.00  0.00    -0.203 F 
ATOM     89  F   UNL A   1      45.669  25.284  36.951  1.00  0.00    -0.200 F 
ATOM     90  C   UNL A   1      46.961  27.064  36.090  1.00  0.00     0.200 A 
ATOM     91  F   UNL A   1      48.209  28.867  35.214  1.00  0.00    -0.200 F 
ATOM     92  F   UNL A   1      47.997  26.702  36.859  1.00  0.00    -0.200 F 
ENDBRANCH  59  82
ENDBRANCH  33  34
ENDBRANCH  26  28
ENDBRANCH  25  26
ENDBRANCH  24  25
ENDBRANCH  23  24
ENDBRANCH  22  23
ENDBRANCH   1  22
TORSDOF 18
ENDMDL
MODEL 2
REMARK VINA RESULT:     -10.9      3.194      8.725
REMARK SMILES Cc1onc(-c2cccc(Br)c2)c1C(=O)OCCOCCOCCOC(=O)c1ccc(-c2c3nc(c(-c4c(F)c(F)c(F)c(F)c4F)c4ccc([nH]4)c(-c4c(F)c(F)c(F)c(F)c4F)c4nc(c(-c5c(F)c(F)c(F)c(F)c5F)c5ccc2[nH]5)C=C4)C=C3)cc1
REMARK SMILES IDX 21 1 20 2 19 3 18 4 17 5 16 6 14 7 15 8 13 9 1 10 2 11 3 12
REMARK SMILES IDX 4 13 5 14 6 15 7 16 12 17 8 18 10 19 9 20 11 21 22 22 23 23
REMARK SMILES IDX 24 24 25 25 26 26 27 27 28 28 29 29 90 30 30 31 89 32 31 33
REMARK SMILES IDX 32 34 33 35 83 36 34 37 88 38 82 39 84 40 35 41 87 42 81 43
REMARK SMILES IDX 80 44 36 46 68 47 48 48 67 49 49 50 52 51 66 52 85 53 50 54
REMARK SMILES IDX 51 55 65 57 86 58 53 59 37 60 38 61 46 62 39 63 40 64 44 65
REMARK SMILES IDX 47 66 41 67 42 68 45 69 43 70 69 71 70 72 78 73 71 74 72 75
REMARK SMILES IDX 76 76 79 77 73 78 74 79 77 80 75 81 54 82 55 83 63 84 56 85
REMARK SMILES IDX 57 86 61 87 64 88 58 89 59 90 62 91 60 92
REMARK H PARENT 84 45 52 56
REMARK Flexibility Score: inf
ROOT
ATOM      1  C   UNL A   1      34.199  32.646  28.136  1.00  0.00     0.188 C 
ENDROOT
BRANCH   1   2
ATOM      2  C   UNL A   1      35.007  31.436  27.637  1.00  0.00     0.188 C 
BRANCH   2   3
ATOM      3  O   UNL A   1      34.214  30.501  26.912  1.00  0.00    -0.376 OA
BRANCH   3   4
ATOM      4  C   UNL A   1      34.427  29.135  27.253  1.00  0.00     0.202 C 
BRANCH   4   5
ATOM      5  C   UNL A   1      33.095  28.388  27.345  1.00  0.00     0.261 C 
BRANCH   5   6
ATOM      6  O   UNL A   1      32.245  28.574  26.199  1.00  0.00    -0.459 OA
BRANCH   6   7
ATOM      7  C   UNL A   1      31.470  27.521  25.832  1.00  0.00     0.344 C 
ATOM      8  O   UNL A   1      30.659  26.985  26.579  1.00  0.00    -0.246 OA
BRANCH   7   9
ATOM      9  C   UNL A   1      31.638  27.154  24.443  1.00  0.00     0.130 A 
ATOM     10  C   UNL A   1      33.980  25.937  24.285  1.00  0.00     0.092 C 
ATOM     11  C   UNL A   1      32.687  26.491  23.839  1.00  0.00     0.148 A 
ATOM     12  O   UNL A   1      32.418  26.342  22.512  1.00  0.00    -0.360 OA
ATOM     13  N   UNL A   1      31.218  26.956  22.204  1.00  0.00    -0.079 NA
ATOM     14  C   UNL A   1      30.773  27.475  23.353  1.00  0.00     0.128 A 
BRANCH  14  15
ATOM     15  C   UNL A   1      29.633  28.372  23.403  1.00  0.00     0.006 A 
ATOM     16  C   UNL A   1      28.354  27.800  23.405  1.00  0.00     0.010 A 
ATOM     17  C   UNL A   1      29.778  29.757  23.324  1.00  0.00     0.026 A 
ATOM     18  C   UNL A   1      27.235  28.587  23.184  1.00  0.00     0.002 A 
ATOM     19  C   UNL A   1      28.638  30.548  23.167  1.00  0.00     0.018 A 
ATOM     20  C   UNL A   1      27.376  29.966  23.060  1.00  0.00     0.016 A 
ATOM     21  Br  UNL A   1      28.795  32.429  23.051  1.00  0.00    -0.051 Br
ENDBRANCH  14  15
ENDBRANCH   7   9
ENDBRANCH   6   7
ENDBRANCH   5   6
ENDBRANCH   4   5
ENDBRANCH   3   4
ENDBRANCH   2   3
ENDBRANCH   1   2
BRANCH   1  22
ATOM     22  O   UNL A   1      34.861  33.880  28.396  1.00  0.00    -0.376 OA
BRANCH  22  23
ATOM     23  C   UNL A   1      34.082  35.054  28.564  1.00  0.00     0.202 C 
BRANCH  23  24
ATOM     24  C   UNL A   1      32.971  34.979  29.612  1.00  0.00     0.261 C 
BRANCH  24  25
ATOM     25  O   UNL A   1      33.100  35.961  30.655  1.00  0.00    -0.460 OA
BRANCH  25  26
ATOM     26  C   UNL A   1      32.784  35.518  31.895  1.00  0.00     0.338 C 
ATOM     27  O   UNL A   1      31.683  35.512  32.420  1.00  0.00    -0.246 OA
BRANCH  26  28
ATOM     28  C   UNL A   1      33.969  34.911  32.539  1.00  0.00     0.060 A 
ATOM     29  C   UNL A   1      35.192  35.581  32.419  1.00  0.00     0.016 A 
ATOM     30  C   UNL A   1      33.909  33.667  33.173  1.00  0.00     0.016 A 
ATOM     31  C   UNL A   1      36.364  34.989  32.890  1.00  0.00     0.010 A 
ATOM     32  C   UNL A   1      35.089  33.062  33.624  1.00  0.00     0.010 A 
ATOM     33  C   UNL A   1      36.326  33.705  33.454  1.00  0.00    -0.014 A 
BRANCH  33  34
ATOM     34  C   UNL A   1      37.602  32.992  33.717  1.00  0.00     0.031 A 
ATOM     35  C   UNL A   1      38.298  33.203  35.027  1.00  0.00     0.074 A 
ATOM     36  C   UNL A   1      38.126  32.143  32.816  1.00  0.00     0.049 A 
ATOM     37  N   UNL A   1      39.398  32.655  35.476  1.00  0.00    -0.248 NA
ATOM     38  C   UNL A   1      37.689  34.180  35.941  1.00  0.00     0.031 C 
ATOM     39  C   UNL A   1      37.569  31.893  31.498  1.00  0.00     0.029 A 
ATOM     40  N   UNL A   1      39.227  31.326  32.874  1.00  0.00    -0.354 N 
ATOM     41  C   UNL A   1      39.626  33.234  36.714  1.00  0.00     0.074 A 
ATOM     42  C   UNL A   1      38.550  34.174  36.950  1.00  0.00     0.031 C 
ATOM     43  C   UNL A   1      38.280  30.930  30.892  1.00  0.00     0.029 A 
ATOM     44  C   UNL A   1      39.379  30.530  31.764  1.00  0.00     0.049 A 
ATOM     45  H   UNL A   1      39.849  31.311  33.637  1.00  0.00     0.167 HD
ATOM     46  C   UNL A   1      40.653  33.015  37.568  1.00  0.00     0.037 A 
ATOM     47  C   UNL A   1      40.301  29.591  31.478  1.00  0.00     0.037 A 
ATOM     48  C   UNL A   1      41.734  32.098  37.325  1.00  0.00     0.049 A 
ATOM     49  C   UNL A   1      41.417  29.347  32.458  1.00  0.00     0.074 A 
ATOM     50  C   UNL A   1      42.826  31.818  38.127  1.00  0.00     0.029 A 
ATOM     51  N   UNL A   1      41.862  31.312  36.188  1.00  0.00    -0.354 N 
ATOM     52  N   UNL A   1      41.618  29.894  33.632  1.00  0.00    -0.248 NA
ATOM     53  C   UNL A   1      42.450  28.382  32.059  1.00  0.00     0.031 C 
ATOM     54  C   UNL A   1      43.635  30.892  37.459  1.00  0.00     0.029 A 
ATOM     55  C   UNL A   1      43.025  30.561  36.260  1.00  0.00     0.049 A 
ATOM     56  H   UNL A   1      41.221  31.290  35.441  1.00  0.00     0.167 HD
ATOM     57  C   UNL A   1      42.802  29.349  34.107  1.00  0.00     0.074 A 
ATOM     58  C   UNL A   1      43.254  28.398  33.113  1.00  0.00     0.031 C 
ATOM     59  C   UNL A   1      43.465  29.627  35.256  1.00  0.00     0.037 A 
BRANCH  46  60
ATOM     60  C   UNL A   1      40.677  33.830  38.823  1.00  0.00     0.064 A 
ATOM     61  C   UNL A   1      39.987  33.427  39.976  1.00  0.00     0.173 A 
ATOM     62  C   UNL A   1      41.402  35.029  38.874  1.00  0.00     0.173 A 
ATOM     63  F   UNL A   1      39.260  32.300  39.968  1.00  0.00    -0.203 F 
ATOM     64  C   UNL A   1      40.005  34.208  41.128  1.00  0.00     0.198 A 
ATOM     65  C   UNL A   1      41.437  35.796  40.034  1.00  0.00     0.198 A 
ATOM     66  F   UNL A   1      42.075  35.458  37.795  1.00  0.00    -0.203 F 
ATOM     67  F   UNL A   1      39.302  33.829  42.204  1.00  0.00    -0.200 F 
ATOM     68  C   UNL A   1      40.733  35.389  41.157  1.00  0.00     0.200 A 
ATOM     69  F   UNL A   1      42.145  36.933  40.062  1.00  0.00    -0.200 F 
ATOM     70  F   UNL A   1      40.749  36.140  42.267  1.00  0.00    -0.200 F 
ENDBRANCH  46  60
BRANCH  47  71
ATOM     71  C   UNL A   1      40.217  28.812  30.214  1.00  0.00     0.064 A 
ATOM     72  C   UNL A   1      39.560  27.573  30.179  1.00  0.00     0.173 A 
ATOM     73  C   UNL A   1      40.796  29.275  29.025  1.00  0.00     0.173 A 
ATOM     74  F   UNL A   1      39.017  27.071  31.298  1.00  0.00    -0.203 F 
ATOM     75  C   UNL A   1      39.497  26.823  29.006  1.00  0.00     0.198 A 
ATOM     76  C   UNL A   1      40.706  28.538  27.845  1.00  0.00     0.198 A 
ATOM     77  F   UNL A   1      41.438  30.452  29.004  1.00  0.00    -0.203 F 
ATOM     78  F   UNL A   1      38.906  25.620  29.012  1.00  0.00    -0.200 F 
ATOM     79  C   UNL A   1      40.064  27.310  27.837  1.00  0.00     0.200 A 
ATOM     80  F   UNL A   1      41.247  29.019  26.717  1.00  0.00    -0.200 F 
ATOM     81  F   UNL A   1      40.002  26.590  26.709  1.00  0.00    -0.200 F 
ENDBRANCH  47  71
BRANCH  59  82
ATOM     82  C   UNL A   1      44.753  28.898  35.494  1.00  0.00     0.064 A 
ATOM     83  C   UNL A   1      44.786  27.695  36.213  1.00  0.00     0.173 A 
ATOM     84  C   UNL A   1      45.959  29.388  34.970  1.00  0.00     0.173 A 
ATOM     85  F   UNL A   1      43.661  27.196  36.747  1.00  0.00    -0.203 F 
ATOM     86  C   UNL A   1      45.986  27.016  36.416  1.00  0.00     0.198 A 
ATOM     87  C   UNL A   1      47.151  28.695  35.154  1.00  0.00     0.198 A 
ATOM     88  F   UNL A   1      45.976  30.533  34.272  1.00  0.00    -0.203 F 
ATOM     89  F   UNL A   1      46.001  25.889  37.139  1.00  0.00    -0.200 F 
ATOM     90  C   UNL A   1      47.165  27.513  35.881  1.00  0.00     0.200 A 
ATOM     91  F   UNL A   1      48.289  29.171  34.631  1.00  0.00    -0.200 F 
ATOM     92  F   UNL A   1      48.318  26.857  36.073  1.00  0.00    -0.200 F 
ENDBRANCH  59  82
ENDBRANCH  33  34
ENDBRANCH  26  28
ENDBRANCH  25  26
ENDBRANCH  24  25
ENDBRANCH  23  24
ENDBRANCH  22  23
ENDBRANCH   1  22
TORSDOF 18
ENDMDL
MODEL 3
REMARK VINA RESULT:     -10.9      4.215      6.920
REMARK SMILES Cc1onc(-c2cccc(Br)c2)c1C(=O)OCCOCCOCCOC(=O)c1ccc(-c2c3nc(c(-c4c(F)c(F)c(F)c(F)c4F)c4ccc([nH]4)c(-c4c(F)c(F)c(F)c(F)c4F)c4nc(c(-c5c(F)c(F)c(F)c(F)c5F)c5ccc2[nH]5)C=C4)C=C3)cc1
REMARK SMILES IDX 21 1 20 2 19 3 18 4 17 5 16 6 14 7 15 8 13 9 1 10 2 11 3 12
REMARK SMILES IDX 4 13 5 14 6 15 7 16 12 17 8 18 10 19 9 20 11 21 22 22 23 23
REMARK SMILES IDX 24 24 25 25 26 26 27 27 28 28 29 29 90 30 30 31 89 32 31 33
REMARK SMILES IDX 32 34 33 35 83 36 34 37 88 38 82 39 84 40 35 41 87 42 81 43
REMARK SMILES IDX 80 44 36 46 68 47 48 48 67 49 49 50 52 51 66 52 85 53 50 54
REMARK SMILES IDX 51 55 65 57 86 58 53 59 37 60 38 61 46 62 39 63 40 64 44 65
REMARK SMILES IDX 47 66 41 67 42 68 45 69 43 70 69 71 70 72 78 73 71 74 72 75
REMARK SMILES IDX 76 76 79 77 73 78 74 79 77 80 75 81 54 82 55 83 63 84 56 85
REMARK SMILES IDX 57 86 61 87 64 88 58 89 59 90 62 91 60 92
REMARK H PARENT 84 45 52 56
REMARK Flexibility Score: inf
ROOT
ATOM      1  C   UNL A   1      35.263  23.112  24.063  1.00  0.00     0.188 C 
ENDROOT
BRANCH   1   2
ATOM      2  C   UNL A   1      34.270  23.612  23.000  1.00  0.00     0.188 C 
BRANCH   2   3
ATOM      3  O   UNL A   1      33.762  24.911  23.284  1.00  0.00    -0.376 OA
BRANCH   3   4
ATOM      4  C   UNL A   1      33.297  25.640  22.152  1.00  0.00     0.202 C 
BRANCH   4   5
ATOM      5  C   UNL A   1      33.460  27.145  22.374  1.00  0.00     0.261 C 
BRANCH   5   6
ATOM      6  O   UNL A   1      32.269  27.903  22.097  1.00  0.00    -0.459 OA
BRANCH   6   7
ATOM      7  C   UNL A   1      31.663  28.502  23.156  1.00  0.00     0.344 C 
ATOM      8  O   UNL A   1      32.226  29.303  23.893  1.00  0.00    -0.246 OA
BRANCH   7   9
ATOM      9  C   UNL A   1      30.261  28.162  23.269  1.00  0.00     0.130 A 
ATOM     10  C   UNL A   1      28.941  30.072  22.004  1.00  0.00     0.092 C 
ATOM     11  C   UNL A   1      29.161  28.831  22.773  1.00  0.00     0.148 A 
ATOM     12  O   UNL A   1      28.033  28.144  23.102  1.00  0.00    -0.360 OA
ATOM     13  N   UNL A   1      28.361  27.045  23.873  1.00  0.00    -0.079 NA
ATOM     14  C   UNL A   1      29.691  27.079  24.004  1.00  0.00     0.128 A 
BRANCH  14  15
ATOM     15  C   UNL A   1      30.399  26.198  24.915  1.00  0.00     0.006 A 
ATOM     16  C   UNL A   1      31.154  26.789  25.935  1.00  0.00     0.010 A 
ATOM     17  C   UNL A   1      30.443  24.817  24.724  1.00  0.00     0.026 A 
ATOM     18  C   UNL A   1      32.057  26.033  26.665  1.00  0.00     0.002 A 
ATOM     19  C   UNL A   1      31.308  24.053  25.510  1.00  0.00     0.018 A 
ATOM     20  C   UNL A   1      32.139  24.660  26.451  1.00  0.00     0.016 A 
ATOM     21  Br  UNL A   1      31.400  22.179  25.277  1.00  0.00    -0.051 Br
ENDBRANCH  14  15
ENDBRANCH   7   9
ENDBRANCH   6   7
ENDBRANCH   5   6
ENDBRANCH   4   5
ENDBRANCH   3   4
ENDBRANCH   2   3
ENDBRANCH   1   2
BRANCH   1  22
ATOM     22  O   UNL A   1      34.953  21.954  24.832  1.00  0.00    -0.376 OA
BRANCH  22  23
ATOM     23  C   UNL A   1      35.924  21.451  25.738  1.00  0.00     0.202 C 
BRANCH  23  24
ATOM     24  C   UNL A   1      37.076  20.660  25.117  1.00  0.00     0.261 C 
BRANCH  24  25
ATOM     25  O   UNL A   1      38.294  21.416  25.006  1.00  0.00    -0.460 OA
BRANCH  25  26
ATOM     26  C   UNL A   1      39.217  21.149  25.961  1.00  0.00     0.338 C 
ATOM     27  O   UNL A   1      39.732  20.071  26.211  1.00  0.00    -0.246 OA
BRANCH  26  28
ATOM     28  C   UNL A   1      39.632  22.397  26.636  1.00  0.00     0.060 A 
ATOM     29  C   UNL A   1      39.025  23.591  26.230  1.00  0.00     0.016 A 
ATOM     30  C   UNL A   1      40.660  22.419  27.584  1.00  0.00     0.016 A 
ATOM     31  C   UNL A   1      39.472  24.813  26.735  1.00  0.00     0.010 A 
ATOM     32  C   UNL A   1      41.125  23.646  28.072  1.00  0.00     0.010 A 
ATOM     33  C   UNL A   1      40.557  24.850  27.625  1.00  0.00    -0.014 A 
BRANCH  33  34
ATOM     34  C   UNL A   1      41.178  26.159  27.954  1.00  0.00     0.031 A 
ATOM     35  C   UNL A   1      42.562  26.452  27.462  1.00  0.00     0.074 A 
ATOM     36  C   UNL A   1      40.512  27.090  28.657  1.00  0.00     0.049 A 
ATOM     37  N   UNL A   1      43.276  27.539  27.601  1.00  0.00    -0.248 NA
ATOM     38  C   UNL A   1      43.242  25.368  26.738  1.00  0.00     0.031 C 
ATOM     39  C   UNL A   1      39.188  26.904  29.225  1.00  0.00     0.029 A 
ATOM     40  N   UNL A   1      40.846  28.376  29.002  1.00  0.00    -0.354 N 
ATOM     41  C   UNL A   1      44.496  27.266  27.004  1.00  0.00     0.074 A 
ATOM     42  C   UNL A   1      44.427  25.911  26.497  1.00  0.00     0.031 C 
ATOM     43  C   UNL A   1      38.781  28.054  29.784  1.00  0.00     0.029 A 
ATOM     44  C   UNL A   1      39.842  29.047  29.657  1.00  0.00     0.049 A 
ATOM     45  H   UNL A   1      41.720  28.780  28.798  1.00  0.00     0.167 HD
ATOM     46  C   UNL A   1      45.582  28.067  26.907  1.00  0.00     0.037 A 
ATOM     47  C   UNL A   1      39.784  30.314  30.112  1.00  0.00     0.037 A 
ATOM     48  C   UNL A   1      45.658  29.405  27.430  1.00  0.00     0.049 A 
ATOM     49  C   UNL A   1      40.997  31.193  29.966  1.00  0.00     0.074 A 
ATOM     50  C   UNL A   1      46.722  30.288  27.390  1.00  0.00     0.029 A 
ATOM     51  N   UNL A   1      44.627  30.052  28.095  1.00  0.00    -0.354 N 
ATOM     52  N   UNL A   1      42.145  30.927  29.390  1.00  0.00    -0.248 NA
ATOM     53  C   UNL A   1      40.919  32.534  30.560  1.00  0.00     0.031 C 
ATOM     54  C   UNL A   1      46.348  31.456  28.064  1.00  0.00     0.029 A 
ATOM     55  C   UNL A   1      45.036  31.317  28.486  1.00  0.00     0.049 A 
ATOM     56  H   UNL A   1      43.735  29.670  28.264  1.00  0.00     0.167 HD
ATOM     57  C   UNL A   1      42.927  32.060  29.561  1.00  0.00     0.074 A 
ATOM     58  C   UNL A   1      42.111  33.031  30.259  1.00  0.00     0.031 C 
ATOM     59  C   UNL A   1      44.214  32.268  29.190  1.00  0.00     0.037 A 
BRANCH  46  60
ATOM     60  C   UNL A   1      46.797  27.486  26.252  1.00  0.00     0.064 A 
ATOM     61  C   UNL A   1      47.790  26.829  26.993  1.00  0.00     0.173 A 
ATOM     62  C   UNL A   1      46.966  27.586  24.864  1.00  0.00     0.173 A 
ATOM     63  F   UNL A   1      47.683  26.730  28.326  1.00  0.00    -0.203 F 
ATOM     64  C   UNL A   1      48.921  26.312  26.368  1.00  0.00     0.198 A 
ATOM     65  C   UNL A   1      48.087  27.048  24.239  1.00  0.00     0.198 A 
ATOM     66  F   UNL A   1      46.044  28.209  24.113  1.00  0.00    -0.203 F 
ATOM     67  F   UNL A   1      49.881  25.729  27.099  1.00  0.00    -0.200 F 
ATOM     68  C   UNL A   1      49.066  26.418  24.992  1.00  0.00     0.200 A 
ATOM     69  F   UNL A   1      48.223  27.146  22.910  1.00  0.00    -0.200 F 
ATOM     70  F   UNL A   1      50.156  25.920  24.392  1.00  0.00    -0.200 F 
ENDBRANCH  46  60
BRANCH  47  71
ATOM     71  C   UNL A   1      38.544  30.832  30.749  1.00  0.00     0.064 A 
ATOM     72  C   UNL A   1      37.504  31.358  29.968  1.00  0.00     0.173 A 
ATOM     73  C   UNL A   1      38.374  30.825  32.140  1.00  0.00     0.173 A 
ATOM     74  F   UNL A   1      37.632  31.416  28.634  1.00  0.00    -0.203 F 
ATOM     75  C   UNL A   1      36.348  31.869  30.556  1.00  0.00     0.198 A 
ATOM     76  C   UNL A   1      37.205  31.308  32.724  1.00  0.00     0.198 A 
ATOM     77  F   UNL A   1      39.338  30.335  32.933  1.00  0.00    -0.203 F 
ATOM     78  F   UNL A   1      35.391  32.411  29.789  1.00  0.00    -0.200 F 
ATOM     79  C   UNL A   1      36.196  31.836  31.934  1.00  0.00     0.200 A 
ATOM     80  F   UNL A   1      37.059  31.264  34.056  1.00  0.00    -0.200 F 
ATOM     81  F   UNL A   1      35.084  32.325  32.500  1.00  0.00    -0.200 F 
ENDBRANCH  47  71
BRANCH  59  82
ATOM     82  C   UNL A   1      44.818  33.594  29.540  1.00  0.00     0.064 A 
ATOM     83  C   UNL A   1      44.709  34.694  28.676  1.00  0.00     0.173 A 
ATOM     84  C   UNL A   1      45.482  33.777  30.762  1.00  0.00     0.173 A 
ATOM     85  F   UNL A   1      44.097  34.563  27.489  1.00  0.00    -0.203 F 
ATOM     86  C   UNL A   1      45.261  35.927  29.016  1.00  0.00     0.198 A 
ATOM     87  C   UNL A   1      46.010  35.016  31.108  1.00  0.00     0.198 A 
ATOM     88  F   UNL A   1      45.609  32.756  31.621  1.00  0.00    -0.203 F 
ATOM     89  F   UNL A   1      45.179  36.954  28.160  1.00  0.00    -0.200 F 
ATOM     90  C   UNL A   1      45.905  36.088  30.234  1.00  0.00     0.200 A 
ATOM     91  F   UNL A   1      46.626  35.175  32.288  1.00  0.00    -0.200 F 
ATOM     92  F   UNL A   1      46.432  37.276  30.561  1.00  0.00    -0.200 F 
ENDBRANCH  59  82
ENDBRANCH  33  34
ENDBRANCH  26  28
ENDBRANCH  25  26
ENDBRANCH  24  25
ENDBRANCH  23  24
ENDBRANCH  22  23
ENDBRANCH   1  22
TORSDOF 18
ENDMDL
