MODEL 1
REMARK VINA RESULT:      -8.7      0.000      0.000
REMARK SMILES COc1cccc(-c2cc(OCC(=O)OCCOCCOCCOC(=O)c3ccc(-c4c5nc(c(-c6c(F)c(F)c(F)c(F)c6F)c6ccc([nH]6)c(-c6c(F)c(F)c(F)c(F)c6F)c6nc(c(-c7c(F)c(F)c(F)c(F)c7F)c7ccc4[nH]7)C=C6)C=C5)cc3)nc(Nc3ccccc3Br)n2)c1
REMARK SMILES IDX 19 1 18 2 17 3 16 4 15 5 13 6 14 7 12 8 11 9 10 10 8 11 9 12
REMARK SMILES IDX 100 13 91 14 90 15 7 16 3 17 4 18 101 19 5 20 6 21 2 22 1 23
REMARK SMILES IDX 92 24 93 26 94 27 98 28 95 29 97 30 99 31 96 32 20 33 21 34
REMARK SMILES IDX 22 35 23 36 24 37 25 38 26 39 27 40 28 41 89 42 29 43 88 44
REMARK SMILES IDX 30 45 31 46 32 47 82 48 33 49 87 50 81 51 83 52 34 53 86 54
REMARK SMILES IDX 80 55 79 56 35 58 67 59 47 60 66 61 48 62 51 63 65 64 84 65
REMARK SMILES IDX 49 66 50 67 64 69 85 70 52 71 36 72 37 73 45 74 38 75 39 76
REMARK SMILES IDX 43 77 46 78 40 79 41 80 44 81 42 82 68 83 69 84 77 85 70 86
REMARK SMILES IDX 71 87 75 88 78 89 72 90 73 91 76 92 74 93 53 94 54 95 62 96
REMARK SMILES IDX 55 97 56 98 60 99 63 100 57 101 58 102 61 103 59 104
REMARK H PARENT 92 25 83 57 51 68
REMARK Flexibility Score: inf
ROOT
ATOM      1  C   UNL A   1      37.307  33.035  41.948  1.00  0.00     0.188 C 
ENDROOT
BRANCH   1   2
ATOM      2  O   UNL A   1      37.419  32.071  40.903  1.00  0.00    -0.376 OA
BRANCH   2   3
ATOM      3  C   UNL A   1      36.502  32.232  39.826  1.00  0.00     0.202 C 
BRANCH   3   4
ATOM      4  C   UNL A   1      37.180  32.554  38.483  1.00  0.00     0.261 C 
BRANCH   4   5
ATOM      5  O   UNL A   1      37.856  31.396  37.910  1.00  0.00    -0.461 OA
BRANCH   5   6
ATOM      6  C   UNL A   1      38.052  31.403  36.559  1.00  0.00     0.344 C 
ATOM      7  O   UNL A   1      38.423  30.423  35.920  1.00  0.00    -0.248 OA
BRANCH   6   8
ATOM      8  C   UNL A   1      37.624  32.720  35.852  1.00  0.00     0.353 C 
BRANCH   8   9
ATOM      9  O   UNL A   1      38.284  33.109  34.656  1.00  0.00    -0.466 OA
BRANCH   9  10
ATOM     10  C   UNL A   1      37.691  32.746  33.453  1.00  0.00     0.219 A 
ATOM     11  C   UNL A   1      36.097  33.226  31.763  1.00  0.00     0.080 A 
ATOM     12  C   UNL A   1      36.431  33.193  33.103  1.00  0.00     0.097 A 
ATOM     13  N   UNL A   1      36.909  32.678  30.874  1.00  0.00    -0.212 NA
ATOM     14  C   UNL A   1      38.103  32.219  31.275  1.00  0.00     0.231 A 
ATOM     15  N   UNL A   1      38.531  32.221  32.547  1.00  0.00    -0.177 NA
BRANCH  11  16
ATOM     16  C   UNL A   1      34.989  33.980  31.127  1.00  0.00     0.004 A 
ATOM     17  C   UNL A   1      33.337  35.811  31.202  1.00  0.00     0.119 A 
ATOM     18  C   UNL A   1      32.905  35.509  29.919  1.00  0.00     0.046 A 
ATOM     19  C   UNL A   1      34.394  35.087  31.773  1.00  0.00     0.056 A 
ATOM     20  C   UNL A   1      33.555  34.495  29.211  1.00  0.00     0.005 A 
ATOM     21  C   UNL A   1      34.588  33.746  29.808  1.00  0.00     0.010 A 
BRANCH  17  22
ATOM     22  O   UNL A   1      32.846  36.889  31.888  1.00  0.00    -0.497 OA
ATOM     23  C   UNL A   1      33.858  37.686  32.500  1.00  0.00     0.278 C 
ENDBRANCH  17  22
ENDBRANCH  11  16
BRANCH  14  24
ATOM     24  N   UNL A   1      38.936  31.756  30.257  1.00  0.00    -0.323 N 
ATOM     25  H   UNL A   1      39.381  32.408  29.669  1.00  0.00     0.170 HD
BRANCH  24  26
ATOM     26  C   UNL A   1      39.160  30.381  30.045  1.00  0.00     0.055 A 
ATOM     27  C   UNL A   1      40.111  29.723  30.836  1.00  0.00     0.027 A 
ATOM     28  C   UNL A   1      38.291  29.591  29.254  1.00  0.00     0.041 A 
ATOM     29  C   UNL A   1      40.175  28.325  30.865  1.00  0.00     0.002 A 
ATOM     30  C   UNL A   1      38.356  28.194  29.286  1.00  0.00     0.018 A 
ATOM     31  Br  UNL A   1      36.999  30.365  28.081  1.00  0.00    -0.049 Br
ATOM     32  C   UNL A   1      39.293  27.563  30.099  1.00  0.00     0.001 A 
ENDBRANCH  24  26
ENDBRANCH  14  24
ENDBRANCH   9  10
ENDBRANCH   8   9
ENDBRANCH   6   8
ENDBRANCH   5   6
ENDBRANCH   4   5
ENDBRANCH   3   4
ENDBRANCH   2   3
ENDBRANCH   1   2
BRANCH   1  33
ATOM     33  C   UNL A   1      38.393  34.120  41.972  1.00  0.00     0.188 C 
BRANCH  33  34
ATOM     34  O   UNL A   1      37.792  35.376  41.660  1.00  0.00    -0.376 OA
BRANCH  34  35
ATOM     35  C   UNL A   1      38.646  36.230  40.912  1.00  0.00     0.202 C 
BRANCH  35  36
ATOM     36  C   UNL A   1      39.197  35.601  39.610  1.00  0.00     0.261 C 
BRANCH  36  37
ATOM     37  O   UNL A   1      40.623  35.466  39.303  1.00  0.00    -0.460 OA
BRANCH  37  38
ATOM     38  C   UNL A   1      41.147  36.312  38.410  1.00  0.00     0.338 C 
ATOM     39  O   UNL A   1      41.106  37.533  38.545  1.00  0.00    -0.246 OA
BRANCH  38  40
ATOM     40  C   UNL A   1      41.787  35.803  37.174  1.00  0.00     0.060 A 
ATOM     41  C   UNL A   1      40.942  35.152  36.260  1.00  0.00     0.016 A 
ATOM     42  C   UNL A   1      43.159  35.606  37.065  1.00  0.00     0.016 A 
ATOM     43  C   UNL A   1      41.424  34.168  35.395  1.00  0.00     0.010 A 
ATOM     44  C   UNL A   1      43.661  34.686  36.130  1.00  0.00     0.010 A 
ATOM     45  C   UNL A   1      42.801  33.937  35.308  1.00  0.00    -0.014 A 
BRANCH  45  46
ATOM     46  C   UNL A   1      43.375  33.218  34.141  1.00  0.00     0.031 A 
ATOM     47  C   UNL A   1      43.522  33.806  32.771  1.00  0.00     0.074 A 
ATOM     48  C   UNL A   1      43.578  31.905  34.339  1.00  0.00     0.049 A 
ATOM     49  N   UNL A   1      43.594  33.208  31.608  1.00  0.00    -0.248 NA
ATOM     50  C   UNL A   1      43.609  35.262  32.688  1.00  0.00     0.031 C 
ATOM     51  C   UNL A   1      43.496  31.230  35.637  1.00  0.00     0.029 A 
ATOM     52  N   UNL A   1      43.804  30.895  33.446  1.00  0.00    -0.354 N 
ATOM     53  C   UNL A   1      43.668  34.220  30.653  1.00  0.00     0.074 A 
ATOM     54  C   UNL A   1      43.636  35.474  31.376  1.00  0.00     0.031 C 
ATOM     55  C   UNL A   1      43.586  29.913  35.452  1.00  0.00     0.029 A 
ATOM     56  C   UNL A   1      43.672  29.659  34.023  1.00  0.00     0.049 A 
ATOM     57  H   UNL A   1      44.034  31.038  32.500  1.00  0.00     0.167 HD
ATOM     58  C   UNL A   1      43.768  34.093  29.306  1.00  0.00     0.037 A 
ATOM     59  C   UNL A   1      43.553  28.444  33.468  1.00  0.00     0.037 A 
ATOM     60  C   UNL A   1      43.907  32.820  28.635  1.00  0.00     0.049 A 
ATOM     61  C   UNL A   1      43.629  28.319  31.987  1.00  0.00     0.074 A 
ATOM     62  C   UNL A   1      44.163  32.568  27.297  1.00  0.00     0.029 A 
ATOM     63  N   UNL A   1      43.807  31.584  29.259  1.00  0.00    -0.354 N 
ATOM     64  N   UNL A   1      43.701  29.269  31.088  1.00  0.00    -0.248 NA
ATOM     65  C   UNL A   1      43.635  26.959  31.449  1.00  0.00     0.031 C 
ATOM     66  C   UNL A   1      44.166  31.181  27.104  1.00  0.00     0.029 A 
ATOM     67  C   UNL A   1      43.959  30.567  28.328  1.00  0.00     0.049 A 
ATOM     68  H   UNL A   1      43.650  31.450  30.221  1.00  0.00     0.167 HD
ATOM     69  C   UNL A   1      43.791  28.622  29.868  1.00  0.00     0.074 A 
ATOM     70  C   UNL A   1      43.765  27.199  30.151  1.00  0.00     0.031 C 
ATOM     71  C   UNL A   1      43.901  29.159  28.629  1.00  0.00     0.037 A 
BRANCH  58  72
ATOM     72  C   UNL A   1      43.724  35.329  28.443  1.00  0.00     0.064 A 
ATOM     73  C   UNL A   1      42.523  35.935  28.050  1.00  0.00     0.173 A 
ATOM     74  C   UNL A   1      44.921  35.983  28.097  1.00  0.00     0.173 A 
ATOM     75  F   UNL A   1      41.348  35.365  28.354  1.00  0.00    -0.203 F 
ATOM     76  C   UNL A   1      42.519  37.134  27.333  1.00  0.00     0.198 A 
ATOM     77  C   UNL A   1      44.914  37.193  27.405  1.00  0.00     0.198 A 
ATOM     78  F   UNL A   1      46.104  35.460  28.456  1.00  0.00    -0.203 F 
ATOM     79  F   UNL A   1      41.357  37.679  26.948  1.00  0.00    -0.200 F 
ATOM     80  C   UNL A   1      43.714  37.766  27.021  1.00  0.00     0.200 A 
ATOM     81  F   UNL A   1      46.070  37.811  27.125  1.00  0.00    -0.200 F 
ATOM     82  F   UNL A   1      43.706  38.927  26.351  1.00  0.00    -0.200 F 
ENDBRANCH  58  72
BRANCH  59  83
ATOM     83  C   UNL A   1      43.387  27.291  34.377  1.00  0.00     0.064 A 
ATOM     84  C   UNL A   1      44.488  26.810  35.091  1.00  0.00     0.173 A 
ATOM     85  C   UNL A   1      42.113  26.804  34.708  1.00  0.00     0.173 A 
ATOM     86  F   UNL A   1      45.716  27.268  34.810  1.00  0.00    -0.203 F 
ATOM     87  C   UNL A   1      44.323  25.892  36.122  1.00  0.00     0.198 A 
ATOM     88  C   UNL A   1      41.947  25.899  35.753  1.00  0.00     0.198 A 
ATOM     89  F   UNL A   1      41.027  27.274  34.076  1.00  0.00    -0.203 F 
ATOM     90  F   UNL A   1      45.389  25.465  36.810  1.00  0.00    -0.200 F 
ATOM     91  C   UNL A   1      43.052  25.450  36.462  1.00  0.00     0.200 A 
ATOM     92  F   UNL A   1      40.717  25.501  36.105  1.00  0.00    -0.200 F 
ATOM     93  F   UNL A   1      42.890  24.605  37.489  1.00  0.00    -0.200 F 
ENDBRANCH  59  83
BRANCH  71  94
ATOM     94  C   UNL A   1      44.014  28.186  27.497  1.00  0.00     0.064 A 
ATOM     95  C   UNL A   1      42.875  27.708  26.834  1.00  0.00     0.173 A 
ATOM     96  C   UNL A   1      45.268  27.705  27.096  1.00  0.00     0.173 A 
ATOM     97  F   UNL A   1      41.655  28.124  27.204  1.00  0.00    -0.203 F 
ATOM     98  C   UNL A   1      42.987  26.753  25.830  1.00  0.00     0.198 A 
ATOM     99  C   UNL A   1      45.377  26.768  26.074  1.00  0.00     0.198 A 
ATOM    100  F   UNL A   1      46.384  28.134  27.704  1.00  0.00    -0.203 F 
ATOM    101  F   UNL A   1      41.883  26.261  25.250  1.00  0.00    -0.200 F 
ATOM    102  C   UNL A   1      44.237  26.286  25.449  1.00  0.00     0.200 A 
ATOM    103  F   UNL A   1      46.584  26.320  25.704  1.00  0.00    -0.200 F 
ATOM    104  F   UNL A   1      44.341  25.356  24.489  1.00  0.00    -0.200 F 
ENDBRANCH  71  94
ENDBRANCH  45  46
ENDBRANCH  38  40
ENDBRANCH  37  38
ENDBRANCH  36  37
ENDBRANCH  35  36
ENDBRANCH  34  35
ENDBRANCH  33  34
ENDBRANCH   1  33
TORSDOF 23
ENDMDL
MODEL 2
REMARK VINA RESULT:      -7.9      4.457     10.263
REMARK SMILES COc1cccc(-c2cc(OCC(=O)OCCOCCOCCOC(=O)c3ccc(-c4c5nc(c(-c6c(F)c(F)c(F)c(F)c6F)c6ccc([nH]6)c(-c6c(F)c(F)c(F)c(F)c6F)c6nc(c(-c7c(F)c(F)c(F)c(F)c7F)c7ccc4[nH]7)C=C6)C=C5)cc3)nc(Nc3ccccc3Br)n2)c1
REMARK SMILES IDX 19 1 18 2 17 3 16 4 15 5 13 6 14 7 12 8 11 9 10 10 8 11 9 12
REMARK SMILES IDX 100 13 91 14 90 15 7 16 3 17 4 18 101 19 5 20 6 21 2 22 1 23
REMARK SMILES IDX 92 24 93 26 94 27 98 28 95 29 97 30 99 31 96 32 20 33 21 34
REMARK SMILES IDX 22 35 23 36 24 37 25 38 26 39 27 40 28 41 89 42 29 43 88 44
REMARK SMILES IDX 30 45 31 46 32 47 82 48 33 49 87 50 81 51 83 52 34 53 86 54
REMARK SMILES IDX 80 55 79 56 35 58 67 59 47 60 66 61 48 62 51 63 65 64 84 65
REMARK SMILES IDX 49 66 50 67 64 69 85 70 52 71 36 72 37 73 45 74 38 75 39 76
REMARK SMILES IDX 43 77 46 78 40 79 41 80 44 81 42 82 68 83 69 84 77 85 70 86
REMARK SMILES IDX 71 87 75 88 78 89 72 90 73 91 76 92 74 93 53 94 54 95 62 96
REMARK SMILES IDX 55 97 56 98 60 99 63 100 57 101 58 102 61 103 59 104
REMARK H PARENT 92 25 83 57 51 68
REMARK Flexibility Score: inf
ROOT
ATOM      1  C   UNL A   1      45.154  25.756  31.914  1.00  0.00     0.188 C 
ENDROOT
BRANCH   1   2
ATOM      2  O   UNL A   1      44.980  25.178  30.622  1.00  0.00    -0.376 OA
BRANCH   2   3
ATOM      3  C   UNL A   1      45.403  25.989  29.530  1.00  0.00     0.202 C 
BRANCH   3   4
ATOM      4  C   UNL A   1      45.834  25.181  28.294  1.00  0.00     0.261 C 
BRANCH   4   5
ATOM      5  O   UNL A   1      46.504  26.007  27.296  1.00  0.00    -0.461 OA
BRANCH   5   6
ATOM      6  C   UNL A   1      45.812  26.271  26.149  1.00  0.00     0.344 C 
ATOM      7  O   UNL A   1      45.667  25.460  25.239  1.00  0.00    -0.248 OA
BRANCH   6   8
ATOM      8  C   UNL A   1      45.081  27.643  26.138  1.00  0.00     0.353 C 
BRANCH   8   9
ATOM      9  O   UNL A   1      45.521  28.669  27.016  1.00  0.00    -0.466 OA
BRANCH   9  10
ATOM     10  C   UNL A   1      44.744  29.817  27.096  1.00  0.00     0.219 A 
ATOM     11  C   UNL A   1      43.636  31.413  28.459  1.00  0.00     0.080 A 
ATOM     12  C   UNL A   1      43.980  30.098  28.214  1.00  0.00     0.097 A 
ATOM     13  N   UNL A   1      43.890  32.335  27.545  1.00  0.00    -0.212 NA
ATOM     14  C   UNL A   1      44.598  31.999  26.457  1.00  0.00     0.231 A 
ATOM     15  N   UNL A   1      45.033  30.759  26.185  1.00  0.00    -0.177 NA
BRANCH  11  16
ATOM     16  C   UNL A   1      43.156  31.998  29.735  1.00  0.00     0.004 A 
ATOM     17  C   UNL A   1      43.568  32.610  32.088  1.00  0.00     0.119 A 
ATOM     18  C   UNL A   1      42.308  33.179  32.189  1.00  0.00     0.046 A 
ATOM     19  C   UNL A   1      43.998  32.073  30.866  1.00  0.00     0.056 A 
ATOM     20  C   UNL A   1      41.497  33.224  31.052  1.00  0.00     0.005 A 
ATOM     21  C   UNL A   1      41.922  32.646  29.840  1.00  0.00     0.010 A 
BRANCH  17  22
ATOM     22  O   UNL A   1      44.466  32.671  33.120  1.00  0.00    -0.497 OA
ATOM     23  C   UNL A   1      45.436  31.625  33.096  1.00  0.00     0.278 C 
ENDBRANCH  17  22
ENDBRANCH  11  16
BRANCH  14  24
ATOM     24  N   UNL A   1      44.911  33.054  25.601  1.00  0.00    -0.323 N 
ATOM     25  H   UNL A   1      45.398  32.865  24.766  1.00  0.00     0.170 HD
BRANCH  24  26
ATOM     26  C   UNL A   1      44.550  34.385  25.894  1.00  0.00     0.055 A 
ATOM     27  C   UNL A   1      43.191  34.727  25.912  1.00  0.00     0.027 A 
ATOM     28  C   UNL A   1      45.477  35.316  26.420  1.00  0.00     0.041 A 
ATOM     29  C   UNL A   1      42.766  35.940  26.463  1.00  0.00     0.002 A 
ATOM     30  C   UNL A   1      45.049  36.527  26.972  1.00  0.00     0.018 A 
ATOM     31  Br  UNL A   1      47.360  35.001  26.394  1.00  0.00    -0.049 Br
ATOM     32  C   UNL A   1      43.692  36.833  27.001  1.00  0.00     0.001 A 
ENDBRANCH  24  26
ENDBRANCH  14  24
ENDBRANCH   9  10
ENDBRANCH   8   9
ENDBRANCH   6   8
ENDBRANCH   5   6
ENDBRANCH   4   5
ENDBRANCH   3   4
ENDBRANCH   2   3
ENDBRANCH   1   2
BRANCH   1  33
ATOM     33  C   UNL A   1      45.931  24.902  32.926  1.00  0.00     0.188 C 
BRANCH  33  34
ATOM     34  O   UNL A   1      45.036  23.957  33.510  1.00  0.00    -0.376 OA
BRANCH  34  35
ATOM     35  C   UNL A   1      45.549  23.366  34.696  1.00  0.00     0.202 C 
BRANCH  35  36
ATOM     36  C   UNL A   1      44.570  23.385  35.894  1.00  0.00     0.261 C 
BRANCH  36  37
ATOM     37  O   UNL A   1      44.674  24.312  37.024  1.00  0.00    -0.460 OA
BRANCH  37  38
ATOM     38  C   UNL A   1      45.366  25.440  36.837  1.00  0.00     0.338 C 
ATOM     39  O   UNL A   1      46.563  25.539  37.098  1.00  0.00    -0.246 OA
BRANCH  38  40
ATOM     40  C   UNL A   1      44.698  26.660  36.324  1.00  0.00     0.060 A 
ATOM     41  C   UNL A   1      43.294  26.669  36.378  1.00  0.00     0.016 A 
ATOM     42  C   UNL A   1      45.336  27.570  35.487  1.00  0.00     0.016 A 
ATOM     43  C   UNL A   1      42.534  27.412  35.474  1.00  0.00     0.010 A 
ATOM     44  C   UNL A   1      44.574  28.391  34.640  1.00  0.00     0.010 A 
ATOM     45  C   UNL A   1      43.171  28.301  34.602  1.00  0.00    -0.014 A 
BRANCH  45  46
ATOM     46  C   UNL A   1      42.404  29.384  33.932  1.00  0.00     0.031 A 
ATOM     47  C   UNL A   1      41.842  30.583  34.632  1.00  0.00     0.074 A 
ATOM     48  C   UNL A   1      42.061  29.120  32.660  1.00  0.00     0.049 A 
ATOM     49  N   UNL A   1      40.836  31.352  34.296  1.00  0.00    -0.248 NA
ATOM     50  C   UNL A   1      42.498  30.985  35.874  1.00  0.00     0.031 C 
ATOM     51  C   UNL A   1      42.574  27.999  31.869  1.00  0.00     0.029 A 
ATOM     52  N   UNL A   1      41.140  29.716  31.846  1.00  0.00    -0.354 N 
ATOM     53  C   UNL A   1      40.701  32.286  35.320  1.00  0.00     0.074 A 
ATOM     54  C   UNL A   1      41.733  31.989  36.291  1.00  0.00     0.031 C 
ATOM     55  C   UNL A   1      41.906  27.935  30.717  1.00  0.00     0.029 A 
ATOM     56  C   UNL A   1      40.887  28.971  30.723  1.00  0.00     0.049 A 
ATOM     57  H   UNL A   1      40.708  30.578  32.042  1.00  0.00     0.167 HD
ATOM     58  C   UNL A   1      39.802  33.298  35.416  1.00  0.00     0.037 A 
ATOM     59  C   UNL A   1      39.895  29.054  29.825  1.00  0.00     0.037 A 
ATOM     60  C   UNL A   1      38.859  33.626  34.371  1.00  0.00     0.049 A 
ATOM     61  C   UNL A   1      38.894  30.147  29.958  1.00  0.00     0.074 A 
ATOM     62  C   UNL A   1      38.001  34.710  34.284  1.00  0.00     0.029 A 
ATOM     63  N   UNL A   1      38.656  32.868  33.226  1.00  0.00    -0.354 N 
ATOM     64  N   UNL A   1      38.766  31.028  30.918  1.00  0.00    -0.248 NA
ATOM     65  C   UNL A   1      37.921  30.273  28.873  1.00  0.00     0.031 C 
ATOM     66  C   UNL A   1      37.245  34.580  33.113  1.00  0.00     0.029 A 
ATOM     67  C   UNL A   1      37.663  33.441  32.445  1.00  0.00     0.049 A 
ATOM     68  H   UNL A   1      39.145  32.045  33.001  1.00  0.00     0.167 HD
ATOM     69  C   UNL A   1      37.710  31.840  30.543  1.00  0.00     0.074 A 
ATOM     70  C   UNL A   1      37.239  31.341  29.265  1.00  0.00     0.031 C 
ATOM     71  C   UNL A   1      37.191  32.911  31.191  1.00  0.00     0.037 A 
BRANCH  58  72
ATOM     72  C   UNL A   1      39.760  34.131  36.672  1.00  0.00     0.064 A 
ATOM     73  C   UNL A   1      39.011  33.766  37.798  1.00  0.00     0.173 A 
ATOM     74  C   UNL A   1      40.582  35.268  36.785  1.00  0.00     0.173 A 
ATOM     75  F   UNL A   1      38.211  32.690  37.757  1.00  0.00    -0.203 F 
ATOM     76  C   UNL A   1      39.071  34.509  38.980  1.00  0.00     0.198 A 
ATOM     77  C   UNL A   1      40.662  35.992  37.974  1.00  0.00     0.198 A 
ATOM     78  F   UNL A   1      41.335  35.662  35.746  1.00  0.00    -0.203 F 
ATOM     79  F   UNL A   1      38.324  34.152  40.033  1.00  0.00    -0.200 F 
ATOM     80  C   UNL A   1      39.903  35.614  39.068  1.00  0.00     0.200 A 
ATOM     81  F   UNL A   1      41.485  37.046  38.061  1.00  0.00    -0.200 F 
ATOM     82  F   UNL A   1      39.976  36.313  40.210  1.00  0.00    -0.200 F 
ENDBRANCH  58  72
BRANCH  59  83
ATOM     83  C   UNL A   1      39.881  28.064  28.728  1.00  0.00     0.064 A 
ATOM     84  C   UNL A   1      40.577  28.333  27.546  1.00  0.00     0.173 A 
ATOM     85  C   UNL A   1      39.372  26.770  28.923  1.00  0.00     0.173 A 
ATOM     86  F   UNL A   1      41.090  29.554  27.338  1.00  0.00    -0.203 F 
ATOM     87  C   UNL A   1      40.782  27.337  26.598  1.00  0.00     0.198 A 
ATOM     88  C   UNL A   1      39.595  25.770  27.982  1.00  0.00     0.198 A 
ATOM     89  F   UNL A   1      38.738  26.461  30.064  1.00  0.00    -0.203 F 
ATOM     90  F   UNL A   1      41.475  27.610  25.485  1.00  0.00    -0.200 F 
ATOM     91  C   UNL A   1      40.306  26.053  26.824  1.00  0.00     0.200 A 
ATOM     92  F   UNL A   1      39.167  24.522  28.218  1.00  0.00    -0.200 F 
ATOM     93  F   UNL A   1      40.550  25.082  25.933  1.00  0.00    -0.200 F 
ENDBRANCH  59  83
BRANCH  71  94
ATOM     94  C   UNL A   1      36.060  33.611  30.504  1.00  0.00     0.064 A 
ATOM     95  C   UNL A   1      34.846  33.849  31.163  1.00  0.00     0.173 A 
ATOM     96  C   UNL A   1      36.183  34.018  29.169  1.00  0.00     0.173 A 
ATOM     97  F   UNL A   1      34.679  33.452  32.433  1.00  0.00    -0.203 F 
ATOM     98  C   UNL A   1      33.778  34.439  30.494  1.00  0.00     0.198 A 
ATOM     99  C   UNL A   1      35.122  34.631  28.511  1.00  0.00     0.198 A 
ATOM    100  F   UNL A   1      37.326  33.809  28.499  1.00  0.00    -0.203 F 
ATOM    101  F   UNL A   1      32.605  34.601  31.121  1.00  0.00    -0.200 F 
ATOM    102  C   UNL A   1      33.918  34.831  29.171  1.00  0.00     0.200 A 
ATOM    103  F   UNL A   1      35.258  35.013  27.234  1.00  0.00    -0.200 F 
ATOM    104  F   UNL A   1      32.885  35.389  28.525  1.00  0.00    -0.200 F 
ENDBRANCH  71  94
ENDBRANCH  45  46
ENDBRANCH  38  40
ENDBRANCH  37  38
ENDBRANCH  36  37
ENDBRANCH  35  36
ENDBRANCH  34  35
ENDBRANCH  33  34
ENDBRANCH   1  33
TORSDOF 23
ENDMDL
MODEL 3
REMARK VINA RESULT:      -7.9      2.004      3.909
REMARK SMILES COc1cccc(-c2cc(OCC(=O)OCCOCCOCCOC(=O)c3ccc(-c4c5nc(c(-c6c(F)c(F)c(F)c(F)c6F)c6ccc([nH]6)c(-c6c(F)c(F)c(F)c(F)c6F)c6nc(c(-c7c(F)c(F)c(F)c(F)c7F)c7ccc4[nH]7)C=C6)C=C5)cc3)nc(Nc3ccccc3Br)n2)c1
REMARK SMILES IDX 19 1 18 2 17 3 16 4 15 5 13 6 14 7 12 8 11 9 10 10 8 11 9 12
REMARK SMILES IDX 100 13 91 14 90 15 7 16 3 17 4 18 101 19 5 20 6 21 2 22 1 23
REMARK SMILES IDX 92 24 93 26 94 27 98 28 95 29 97 30 99 31 96 32 20 33 21 34
REMARK SMILES IDX 22 35 23 36 24 37 25 38 26 39 27 40 28 41 89 42 29 43 88 44
REMARK SMILES IDX 30 45 31 46 32 47 82 48 33 49 87 50 81 51 83 52 34 53 86 54
REMARK SMILES IDX 80 55 79 56 35 58 67 59 47 60 66 61 48 62 51 63 65 64 84 65
REMARK SMILES IDX 49 66 50 67 64 69 85 70 52 71 36 72 37 73 45 74 38 75 39 76
REMARK SMILES IDX 43 77 46 78 40 79 41 80 44 81 42 82 68 83 69 84 77 85 70 86
REMARK SMILES IDX 71 87 75 88 78 89 72 90 73 91 76 92 74 93 53 94 54 95 62 96
REMARK SMILES IDX 55 97 56 98 60 99 63 100 57 101 58 102 61 103 59 104
REMARK H PARENT 92 25 83 57 51 68
REMARK Flexibility Score: inf
ROOT
ATOM      1  C   UNL A   1      37.568  32.776  41.940  1.00  0.00     0.188 C 
ENDROOT
BRANCH   1   2
ATOM      2  O   UNL A   1      37.234  31.853  40.905  1.00  0.00    -0.376 OA
BRANCH   2   3
ATOM      3  C   UNL A   1      36.428  32.380  39.855  1.00  0.00     0.202 C 
BRANCH   3   4
ATOM      4  C   UNL A   1      37.173  32.515  38.516  1.00  0.00     0.261 C 
BRANCH   4   5
ATOM      5  O   UNL A   1      37.394  31.225  37.872  1.00  0.00    -0.461 OA
BRANCH   5   6
ATOM      6  C   UNL A   1      38.054  31.238  36.677  1.00  0.00     0.344 C 
ATOM      7  O   UNL A   1      38.713  30.293  36.253  1.00  0.00    -0.248 OA
BRANCH   6   8
ATOM      8  C   UNL A   1      37.788  32.498  35.807  1.00  0.00     0.353 C 
BRANCH   8   9
ATOM      9  O   UNL A   1      38.883  33.318  35.423  1.00  0.00    -0.466 OA
BRANCH   9  10
ATOM     10  C   UNL A   1      39.277  33.274  34.092  1.00  0.00     0.219 A 
ATOM     11  C   UNL A   1      39.999  31.974  32.243  1.00  0.00     0.080 A 
ATOM     12  C   UNL A   1      40.046  32.237  33.598  1.00  0.00     0.097 A 
ATOM     13  N   UNL A   1      39.369  32.813  31.437  1.00  0.00    -0.212 NA
ATOM     14  C   UNL A   1      38.674  33.830  31.966  1.00  0.00     0.231 A 
ATOM     15  N   UNL A   1      38.608  34.106  33.278  1.00  0.00    -0.177 NA
BRANCH  11  16
ATOM     16  C   UNL A   1      40.425  30.735  31.548  1.00  0.00     0.004 A 
ATOM     17  C   UNL A   1      40.590  29.396  29.483  1.00  0.00     0.119 A 
ATOM     18  C   UNL A   1      41.291  28.403  30.151  1.00  0.00     0.046 A 
ATOM     19  C   UNL A   1      40.208  30.562  30.164  1.00  0.00     0.056 A 
ATOM     20  C   UNL A   1      41.623  28.601  31.493  1.00  0.00     0.005 A 
ATOM     21  C   UNL A   1      41.200  29.756  32.179  1.00  0.00     0.010 A 
BRANCH  17  22
ATOM     22  O   UNL A   1      40.367  29.332  28.134  1.00  0.00    -0.497 OA
ATOM     23  C   UNL A   1      38.991  29.191  27.788  1.00  0.00     0.278 C 
ENDBRANCH  17  22
ENDBRANCH  11  16
BRANCH  14  24
ATOM     24  N   UNL A   1      37.955  34.599  31.052  1.00  0.00    -0.323 N 
ATOM     25  H   UNL A   1      38.146  35.563  30.983  1.00  0.00     0.170 HD
BRANCH  24  26
ATOM     26  C   UNL A   1      36.963  34.039  30.223  1.00  0.00     0.055 A 
ATOM     27  C   UNL A   1      37.347  33.476  28.998  1.00  0.00     0.027 A 
ATOM     28  C   UNL A   1      35.649  33.790  30.686  1.00  0.00     0.041 A 
ATOM     29  C   UNL A   1      36.464  32.667  28.274  1.00  0.00     0.002 A 
ATOM     30  C   UNL A   1      34.769  32.981  29.961  1.00  0.00     0.018 A 
ATOM     31  Br  UNL A   1      34.980  34.553  32.304  1.00  0.00    -0.049 Br
ATOM     32  C   UNL A   1      35.182  32.412  28.760  1.00  0.00     0.001 A 
ENDBRANCH  24  26
ENDBRANCH  14  24
ENDBRANCH   9  10
ENDBRANCH   8   9
ENDBRANCH   6   8
ENDBRANCH   5   6
ENDBRANCH   4   5
ENDBRANCH   3   4
ENDBRANCH   2   3
ENDBRANCH   1   2
BRANCH   1  33
ATOM     33  C   UNL A   1      39.032  33.234  41.977  1.00  0.00     0.188 C 
BRANCH  33  34
ATOM     34  O   UNL A   1      39.067  34.659  41.931  1.00  0.00    -0.376 OA
BRANCH  34  35
ATOM     35  C   UNL A   1      40.131  35.163  41.134  1.00  0.00     0.202 C 
BRANCH  35  36
ATOM     36  C   UNL A   1      40.330  34.420  39.791  1.00  0.00     0.261 C 
BRANCH  36  37
ATOM     37  O   UNL A   1      41.473  33.552  39.496  1.00  0.00    -0.460 OA
BRANCH  37  38
ATOM     38  C   UNL A   1      42.562  34.122  38.970  1.00  0.00     0.338 C 
ATOM     39  O   UNL A   1      43.196  35.004  39.543  1.00  0.00    -0.246 OA
BRANCH  38  40
ATOM     40  C   UNL A   1      43.047  33.726  37.625  1.00  0.00     0.060 A 
ATOM     41  C   UNL A   1      42.164  32.956  36.849  1.00  0.00     0.016 A 
ATOM     42  C   UNL A   1      44.393  33.746  37.277  1.00  0.00     0.016 A 
ATOM     43  C   UNL A   1      42.633  32.064  35.883  1.00  0.00     0.010 A 
ATOM     44  C   UNL A   1      44.858  32.920  36.240  1.00  0.00     0.010 A 
ATOM     45  C   UNL A   1      43.992  32.051  35.553  1.00  0.00    -0.014 A 
BRANCH  45  46
ATOM     46  C   UNL A   1      44.456  31.437  34.282  1.00  0.00     0.031 A 
ATOM     47  C   UNL A   1      44.368  32.096  32.939  1.00  0.00     0.074 A 
ATOM     48  C   UNL A   1      44.788  30.139  34.378  1.00  0.00     0.049 A 
ATOM     49  N   UNL A   1      44.327  31.559  31.746  1.00  0.00    -0.248 NA
ATOM     50  C   UNL A   1      44.326  33.557  32.927  1.00  0.00     0.031 C 
ATOM     51  C   UNL A   1      44.938  29.402  35.636  1.00  0.00     0.029 A 
ATOM     52  N   UNL A   1      44.969  29.193  33.408  1.00  0.00    -0.354 N 
ATOM     53  C   UNL A   1      44.189  32.615  30.848  1.00  0.00     0.074 A 
ATOM     54  C   UNL A   1      44.156  33.828  31.637  1.00  0.00     0.031 C 
ATOM     55  C   UNL A   1      45.106  28.108  35.367  1.00  0.00     0.029 A 
ATOM     56  C   UNL A   1      45.016  27.925  33.927  1.00  0.00     0.049 A 
ATOM     57  H   UNL A   1      45.055  29.398  32.449  1.00  0.00     0.167 HD
ATOM     58  C   UNL A   1      44.114  32.557  29.494  1.00  0.00     0.037 A 
ATOM     59  C   UNL A   1      44.919  26.731  33.326  1.00  0.00     0.037 A 
ATOM     60  C   UNL A   1      44.260  31.333  28.741  1.00  0.00     0.049 A 
ATOM     61  C   UNL A   1      44.801  26.679  31.844  1.00  0.00     0.074 A 
ATOM     62  C   UNL A   1      44.349  31.163  27.368  1.00  0.00     0.029 A 
ATOM     63  N   UNL A   1      44.344  30.066  29.302  1.00  0.00    -0.354 N 
ATOM     64  N   UNL A   1      44.674  27.671  30.997  1.00  0.00    -0.248 NA
ATOM     65  C   UNL A   1      44.841  25.350  31.234  1.00  0.00     0.031 C 
ATOM     66  C   UNL A   1      44.436  29.792  27.100  1.00  0.00     0.029 A 
ATOM     67  C   UNL A   1      44.449  29.108  28.305  1.00  0.00     0.049 A 
ATOM     68  H   UNL A   1      44.332  29.876  30.267  1.00  0.00     0.167 HD
ATOM     69  C   UNL A   1      44.647  27.089  29.742  1.00  0.00     0.074 A 
ATOM     70  C   UNL A   1      44.773  25.658  29.946  1.00  0.00     0.031 C 
ATOM     71  C   UNL A   1      44.543  27.689  28.531  1.00  0.00     0.037 A 
BRANCH  58  72
ATOM     72  C   UNL A   1      43.854  33.822  28.715  1.00  0.00     0.064 A 
ATOM     73  C   UNL A   1      44.845  34.464  27.960  1.00  0.00     0.173 A 
ATOM     74  C   UNL A   1      42.546  34.338  28.637  1.00  0.00     0.173 A 
ATOM     75  F   UNL A   1      46.109  34.018  27.988  1.00  0.00    -0.203 F 
ATOM     76  C   UNL A   1      44.546  35.578  27.173  1.00  0.00     0.198 A 
ATOM     77  C   UNL A   1      42.245  35.433  27.828  1.00  0.00     0.198 A 
ATOM     78  F   UNL A   1      41.550  33.760  29.326  1.00  0.00    -0.203 F 
ATOM     79  F   UNL A   1      45.518  36.188  26.481  1.00  0.00    -0.200 F 
ATOM     80  C   UNL A   1      43.246  36.054  27.100  1.00  0.00     0.200 A 
ATOM     81  F   UNL A   1      40.983  35.876  27.745  1.00  0.00    -0.200 F 
ATOM     82  F   UNL A   1      42.957  37.111  26.326  1.00  0.00    -0.200 F 
ENDBRANCH  58  72
BRANCH  59  83
ATOM     83  C   UNL A   1      44.971  25.528  34.183  1.00  0.00     0.064 A 
ATOM     84  C   UNL A   1      43.782  24.966  34.657  1.00  0.00     0.173 A 
ATOM     85  C   UNL A   1      46.164  24.810  34.357  1.00  0.00     0.173 A 
ATOM     86  F   UNL A   1      42.623  25.619  34.491  1.00  0.00    -0.203 F 
ATOM     87  C   UNL A   1      43.778  23.713  35.260  1.00  0.00     0.198 A 
ATOM     88  C   UNL A   1      46.155  23.548  34.945  1.00  0.00     0.198 A 
ATOM     89  F   UNL A   1      47.319  25.297  33.877  1.00  0.00    -0.203 F 
ATOM     90  F   UNL A   1      42.623  23.182  35.682  1.00  0.00    -0.200 F 
ATOM     91  C   UNL A   1      44.961  22.999  35.389  1.00  0.00     0.200 A 
ATOM     92  F   UNL A   1      47.292  22.845  35.035  1.00  0.00    -0.200 F 
ATOM     93  F   UNL A   1      44.947  21.771  35.924  1.00  0.00    -0.200 F 
ENDBRANCH  59  83
BRANCH  71  94
ATOM     94  C   UNL A   1      44.578  26.780  27.342  1.00  0.00     0.064 A 
ATOM     95  C   UNL A   1      43.397  26.280  26.776  1.00  0.00     0.173 A 
ATOM     96  C   UNL A   1      45.801  26.384  26.786  1.00  0.00     0.173 A 
ATOM     97  F   UNL A   1      42.206  26.614  27.295  1.00  0.00    -0.203 F 
ATOM     98  C   UNL A   1      43.442  25.382  25.715  1.00  0.00     0.198 A 
ATOM     99  C   UNL A   1      45.842  25.506  25.707  1.00  0.00     0.198 A 
ATOM    100  F   UNL A   1      46.956  26.837  27.296  1.00  0.00    -0.203 F 
ATOM    101  F   UNL A   1      42.305  24.865  25.228  1.00  0.00    -0.200 F 
ATOM    102  C   UNL A   1      44.664  24.999  25.180  1.00  0.00     0.200 A 
ATOM    103  F   UNL A   1      47.021  25.138  25.188  1.00  0.00    -0.200 F 
ATOM    104  F   UNL A   1      44.705  24.125  24.165  1.00  0.00    -0.200 F 
ENDBRANCH  71  94
ENDBRANCH  45  46
ENDBRANCH  38  40
ENDBRANCH  37  38
ENDBRANCH  36  37
ENDBRANCH  35  36
ENDBRANCH  34  35
ENDBRANCH  33  34
ENDBRANCH   1  33
TORSDOF 23
ENDMDL
