MODEL 1
REMARK VINA RESULT:     -11.6      0.000      0.000
REMARK SMILES C[C@@H]1Cc2ccccc2N1c1ccc(F)cc1C(=O)OCCOCCOCCOC(=O)c1ccc(-c2c3nc(c(-c4c(F)c(F)c(F)c(F)c4F)c4ccc([nH]4)c(-c4c(F)c(F)c(F)c(F)c4F)c4nc(c(-c5c(F)c(F)c(F)c(F)c5F)c5ccc2[nH]5)C=C4)C=C3)cc1
REMARK SMILES IDX 25 1 24 2 23 3 22 4 21 5 20 6 18 7 19 8 17 9 11 10 12 11
REMARK SMILES IDX 13 12 16 13 14 14 15 15 10 16 1 17 2 18 3 19 4 20 9 21 5 22
REMARK SMILES IDX 8 23 6 24 7 25 26 26 27 27 28 28 29 29 30 30 31 31 32 32
REMARK SMILES IDX 33 33 94 34 34 35 93 36 35 37 36 38 37 39 87 40 38 41 92 42
REMARK SMILES IDX 86 43 88 44 39 45 91 46 85 47 84 48 40 50 72 51 52 52 71 53
REMARK SMILES IDX 53 54 56 55 70 56 89 57 54 58 55 59 69 61 90 62 57 63 41 64
REMARK SMILES IDX 42 65 50 66 43 67 44 68 48 69 51 70 45 71 46 72 49 73 47 74
REMARK SMILES IDX 73 75 74 76 82 77 75 78 76 79 80 80 83 81 77 82 78 83 81 84
REMARK SMILES IDX 79 85 58 86 59 87 67 88 60 89 61 90 65 91 68 92 62 93 63 94
REMARK SMILES IDX 66 95 64 96
REMARK H PARENT 88 49 56 60
REMARK Flexibility Score: inf
ROOT
ATOM      1  C   UNL A   1      30.469  29.501  23.663  1.00  0.00     0.188 C 
ENDROOT
BRANCH   1   2
ATOM      2  C   UNL A   1      30.473  27.983  23.377  1.00  0.00     0.188 C 
BRANCH   2   3
ATOM      3  O   UNL A   1      31.261  27.447  22.330  1.00  0.00    -0.376 OA
BRANCH   3   4
ATOM      4  C   UNL A   1      31.700  26.099  22.416  1.00  0.00     0.202 C 
BRANCH   4   5
ATOM      5  C   UNL A   1      32.685  25.552  21.386  1.00  0.00     0.261 C 
BRANCH   5   6
ATOM      6  O   UNL A   1      33.815  24.908  21.995  1.00  0.00    -0.460 OA
BRANCH   6   7
ATOM      7  C   UNL A   1      33.581  23.677  22.503  1.00  0.00     0.340 C 
ATOM      8  O   UNL A   1      32.902  22.802  21.983  1.00  0.00    -0.246 OA
BRANCH   7   9
ATOM      9  C   UNL A   1      34.381  23.405  23.719  1.00  0.00     0.086 A 
ATOM     10  C   UNL A   1      33.978  23.668  25.047  1.00  0.00     0.056 A 
ATOM     11  C   UNL A   1      34.861  23.256  26.074  1.00  0.00     0.030 A 
ATOM     12  C   UNL A   1      36.127  22.729  25.802  1.00  0.00     0.041 A 
ATOM     13  C   UNL A   1      35.659  22.874  23.451  1.00  0.00     0.057 A 
ATOM     14  C   UNL A   1      36.525  22.573  24.488  1.00  0.00     0.124 A 
ATOM     15  F   UNL A   1      37.760  22.136  24.214  1.00  0.00    -0.207 F 
BRANCH  10  16
ATOM     16  N   UNL A   1      32.844  24.414  25.389  1.00  0.00    -0.337 N 
ATOM     17  C   UNL A   1      30.913  22.756  25.215  1.00  0.00     0.032 C 
ATOM     18  C   UNL A   1      31.641  23.809  26.035  1.00  0.00     0.089 C 
ATOM     19  C   UNL A   1      30.670  24.982  26.343  1.00  0.00     0.063 C 
ATOM     20  C   UNL A   1      31.626  26.113  26.473  1.00  0.00    -0.022 A 
ATOM     21  C   UNL A   1      32.841  25.757  25.889  1.00  0.00     0.045 A 
ATOM     22  C   UNL A   1      31.410  27.370  27.019  1.00  0.00     0.006 A 
ATOM     23  C   UNL A   1      33.878  26.682  25.849  1.00  0.00     0.026 A 
ATOM     24  C   UNL A   1      32.464  28.283  27.011  1.00  0.00     0.000 A 
ATOM     25  C   UNL A   1      33.693  27.940  26.432  1.00  0.00     0.002 A 
ENDBRANCH  10  16
ENDBRANCH   7   9
ENDBRANCH   6   7
ENDBRANCH   5   6
ENDBRANCH   4   5
ENDBRANCH   3   4
ENDBRANCH   2   3
ENDBRANCH   1   2
BRANCH   1  26
ATOM     26  O   UNL A   1      30.649  29.999  24.969  1.00  0.00    -0.376 OA
BRANCH  26  27
ATOM     27  C   UNL A   1      30.767  31.390  25.210  1.00  0.00     0.202 C 
BRANCH  27  28
ATOM     28  C   UNL A   1      31.225  31.952  26.560  1.00  0.00     0.261 C 
BRANCH  28  29
ATOM     29  O   UNL A   1      32.599  31.703  26.880  1.00  0.00    -0.460 OA
BRANCH  29  30
ATOM     30  C   UNL A   1      33.252  32.748  27.460  1.00  0.00     0.338 C 
ATOM     31  O   UNL A   1      32.837  33.864  27.661  1.00  0.00    -0.246 OA
BRANCH  30  32
ATOM     32  C   UNL A   1      34.523  32.240  28.023  1.00  0.00     0.060 A 
ATOM     33  C   UNL A   1      35.629  33.077  28.169  1.00  0.00     0.016 A 
ATOM     34  C   UNL A   1      34.597  30.887  28.381  1.00  0.00     0.016 A 
ATOM     35  C   UNL A   1      36.808  32.560  28.706  1.00  0.00     0.010 A 
ATOM     36  C   UNL A   1      35.782  30.367  28.901  1.00  0.00     0.010 A 
ATOM     37  C   UNL A   1      36.888  31.209  29.092  1.00  0.00    -0.014 A 
BRANCH  37  38
ATOM     38  C   UNL A   1      38.055  30.741  29.874  1.00  0.00     0.031 A 
ATOM     39  C   UNL A   1      38.295  31.166  31.289  1.00  0.00     0.074 A 
ATOM     40  C   UNL A   1      38.910  29.899  29.264  1.00  0.00     0.049 A 
ATOM     41  N   UNL A   1      39.212  30.745  32.124  1.00  0.00    -0.248 NA
ATOM     42  C   UNL A   1      37.401  32.194  31.839  1.00  0.00     0.031 C 
ATOM     43  C   UNL A   1      38.789  29.449  27.876  1.00  0.00     0.029 A 
ATOM     44  N   UNL A   1      40.032  29.264  29.727  1.00  0.00    -0.354 N 
ATOM     45  C   UNL A   1      38.991  31.431  33.309  1.00  0.00     0.074 A 
ATOM     46  C   UNL A   1      37.882  32.334  33.069  1.00  0.00     0.031 C 
ATOM     47  C   UNL A   1      39.782  28.589  27.608  1.00  0.00     0.029 A 
ATOM     48  C   UNL A   1      40.616  28.441  28.798  1.00  0.00     0.049 A 
ATOM     49  H   UNL A   1      40.385  29.387  30.638  1.00  0.00     0.167 HD
ATOM     50  C   UNL A   1      39.644  31.296  34.488  1.00  0.00     0.037 A 
ATOM     51  C   UNL A   1      41.696  27.644  28.893  1.00  0.00     0.037 A 
ATOM     52  C   UNL A   1      40.759  30.407  34.710  1.00  0.00     0.049 A 
ATOM     53  C   UNL A   1      42.426  27.550  30.202  1.00  0.00     0.074 A 
ATOM     54  C   UNL A   1      41.454  30.172  35.884  1.00  0.00     0.029 A 
ATOM     55  N   UNL A   1      41.352  29.618  33.734  1.00  0.00    -0.354 N 
ATOM     56  N   UNL A   1      42.153  28.133  31.343  1.00  0.00    -0.248 NA
ATOM     57  C   UNL A   1      43.609  26.679  30.239  1.00  0.00     0.031 C 
ATOM     58  C   UNL A   1      42.500  29.286  35.608  1.00  0.00     0.029 A 
ATOM     59  C   UNL A   1      42.426  28.924  34.274  1.00  0.00     0.049 A 
ATOM     60  H   UNL A   1      41.056  29.561  32.796  1.00  0.00     0.167 HD
ATOM     61  C   UNL A   1      43.115  27.688  32.238  1.00  0.00     0.074 A 
ATOM     62  C   UNL A   1      43.966  26.769  31.513  1.00  0.00     0.031 C 
ATOM     63  C   UNL A   1      43.274  28.015  33.543  1.00  0.00     0.037 A 
BRANCH  50  64
ATOM     64  C   UNL A   1      39.166  32.111  35.656  1.00  0.00     0.064 A 
ATOM     65  C   UNL A   1      38.318  31.558  36.628  1.00  0.00     0.173 A 
ATOM     66  C   UNL A   1      39.648  33.411  35.869  1.00  0.00     0.173 A 
ATOM     67  F   UNL A   1      37.833  30.317  36.473  1.00  0.00    -0.203 F 
ATOM     68  C   UNL A   1      37.965  32.280  37.765  1.00  0.00     0.198 A 
ATOM     69  C   UNL A   1      39.313  34.121  37.019  1.00  0.00     0.198 A 
ATOM     70  F   UNL A   1      40.474  33.981  34.979  1.00  0.00    -0.203 F 
ATOM     71  F   UNL A   1      37.143  31.736  38.673  1.00  0.00    -0.200 F 
ATOM     72  C   UNL A   1      38.471  33.555  37.965  1.00  0.00     0.200 A 
ATOM     73  F   UNL A   1      39.818  35.346  37.221  1.00  0.00    -0.200 F 
ATOM     74  F   UNL A   1      38.151  34.239  39.073  1.00  0.00    -0.200 F 
ENDBRANCH  50  64
BRANCH  51  75
ATOM     75  C   UNL A   1      42.113  26.840  27.718  1.00  0.00     0.064 A 
ATOM     76  C   UNL A   1      43.093  27.315  26.836  1.00  0.00     0.173 A 
ATOM     77  C   UNL A   1      41.569  25.571  27.474  1.00  0.00     0.173 A 
ATOM     78  F   UNL A   1      43.630  28.529  27.022  1.00  0.00    -0.203 F 
ATOM     79  C   UNL A   1      43.507  26.553  25.746  1.00  0.00     0.198 A 
ATOM     80  C   UNL A   1      42.003  24.799  26.400  1.00  0.00     0.198 A 
ATOM     81  F   UNL A   1      40.634  25.072  28.295  1.00  0.00    -0.203 F 
ATOM     82  F   UNL A   1      44.422  27.042  24.899  1.00  0.00    -0.200 F 
ATOM     83  C   UNL A   1      42.967  25.292  25.533  1.00  0.00     0.200 A 
ATOM     84  F   UNL A   1      41.492  23.575  26.207  1.00  0.00    -0.200 F 
ATOM     85  F   UNL A   1      43.375  24.556  24.492  1.00  0.00    -0.200 F 
ENDBRANCH  51  75
BRANCH  63  86
ATOM     86  C   UNL A   1      44.412  27.374  34.283  1.00  0.00     0.064 A 
ATOM     87  C   UNL A   1      44.269  26.127  34.910  1.00  0.00     0.173 A 
ATOM     88  C   UNL A   1      45.676  27.984  34.321  1.00  0.00     0.173 A 
ATOM     89  F   UNL A   1      43.078  25.509  34.918  1.00  0.00    -0.203 F 
ATOM     90  C   UNL A   1      45.342  25.522  35.557  1.00  0.00     0.198 A 
ATOM     91  C   UNL A   1      46.755  27.363  34.943  1.00  0.00     0.198 A 
ATOM     92  F   UNL A   1      45.869  29.175  33.733  1.00  0.00    -0.203 F 
ATOM     93  F   UNL A   1      45.171  24.348  36.181  1.00  0.00    -0.200 F 
ATOM     94  C   UNL A   1      46.586  26.135  35.565  1.00  0.00     0.200 A 
ATOM     95  F   UNL A   1      47.959  27.950  34.938  1.00  0.00    -0.200 F 
ATOM     96  F   UNL A   1      47.622  25.544  36.177  1.00  0.00    -0.200 F 
ENDBRANCH  63  86
ENDBRANCH  37  38
ENDBRANCH  30  32
ENDBRANCH  29  30
ENDBRANCH  28  29
ENDBRANCH  27  28
ENDBRANCH  26  27
ENDBRANCH   1  26
TORSDOF 18
ENDMDL
MODEL 2
REMARK VINA RESULT:     -11.4      3.278      8.503
REMARK SMILES C[C@@H]1Cc2ccccc2N1c1ccc(F)cc1C(=O)OCCOCCOCCOC(=O)c1ccc(-c2c3nc(c(-c4c(F)c(F)c(F)c(F)c4F)c4ccc([nH]4)c(-c4c(F)c(F)c(F)c(F)c4F)c4nc(c(-c5c(F)c(F)c(F)c(F)c5F)c5ccc2[nH]5)C=C4)C=C3)cc1
REMARK SMILES IDX 25 1 24 2 23 3 22 4 21 5 20 6 18 7 19 8 17 9 11 10 12 11
REMARK SMILES IDX 13 12 16 13 14 14 15 15 10 16 1 17 2 18 3 19 4 20 9 21 5 22
REMARK SMILES IDX 8 23 6 24 7 25 26 26 27 27 28 28 29 29 30 30 31 31 32 32
REMARK SMILES IDX 33 33 94 34 34 35 93 36 35 37 36 38 37 39 87 40 38 41 92 42
REMARK SMILES IDX 86 43 88 44 39 45 91 46 85 47 84 48 40 50 72 51 52 52 71 53
REMARK SMILES IDX 53 54 56 55 70 56 89 57 54 58 55 59 69 61 90 62 57 63 41 64
REMARK SMILES IDX 42 65 50 66 43 67 44 68 48 69 51 70 45 71 46 72 49 73 47 74
REMARK SMILES IDX 73 75 74 76 82 77 75 78 76 79 80 80 83 81 77 82 78 83 81 84
REMARK SMILES IDX 79 85 58 86 59 87 67 88 60 89 61 90 65 91 68 92 62 93 63 94
REMARK SMILES IDX 66 95 64 96
REMARK H PARENT 88 49 56 60
REMARK Flexibility Score: inf
ROOT
ATOM      1  C   UNL A   1      40.711  21.219  26.816  1.00  0.00     0.188 C 
ENDROOT
BRANCH   1   2
ATOM      2  C   UNL A   1      39.782  22.407  26.483  1.00  0.00     0.188 C 
BRANCH   2   3
ATOM      3  O   UNL A   1      38.511  22.189  25.899  1.00  0.00    -0.376 OA
BRANCH   3   4
ATOM      4  C   UNL A   1      37.535  23.218  25.966  1.00  0.00     0.202 C 
BRANCH   4   5
ATOM      5  C   UNL A   1      36.613  23.470  24.775  1.00  0.00     0.261 C 
BRANCH   5   6
ATOM      6  O   UNL A   1      35.600  24.446  25.062  1.00  0.00    -0.460 OA
BRANCH   6   7
ATOM      7  C   UNL A   1      34.625  24.567  24.133  1.00  0.00     0.340 C 
ATOM      8  O   UNL A   1      34.774  24.478  22.921  1.00  0.00    -0.246 OA
BRANCH   7   9
ATOM      9  C   UNL A   1      33.276  24.661  24.734  1.00  0.00     0.086 A 
ATOM     10  C   UNL A   1      32.551  23.592  25.304  1.00  0.00     0.056 A 
ATOM     11  C   UNL A   1      31.308  23.910  25.900  1.00  0.00     0.030 A 
ATOM     12  C   UNL A   1      30.751  25.190  25.826  1.00  0.00     0.041 A 
ATOM     13  C   UNL A   1      32.710  25.950  24.661  1.00  0.00     0.057 A 
ATOM     14  C   UNL A   1      31.449  26.192  25.177  1.00  0.00     0.124 A 
ATOM     15  F   UNL A   1      30.897  27.404  25.037  1.00  0.00    -0.207 F 
BRANCH  10  16
ATOM     16  N   UNL A   1      32.925  22.246  25.197  1.00  0.00    -0.337 N 
ATOM     17  C   UNL A   1      33.975  21.694  27.455  1.00  0.00     0.032 C 
ATOM     18  C   UNL A   1      32.976  21.324  26.370  1.00  0.00     0.089 C 
ATOM     19  C   UNL A   1      33.323  19.918  25.810  1.00  0.00     0.063 C 
ATOM     20  C   UNL A   1      32.790  20.024  24.427  1.00  0.00    -0.022 A 
ATOM     21  C   UNL A   1      32.607  21.370  24.109  1.00  0.00     0.045 A 
ATOM     22  C   UNL A   1      32.540  19.010  23.515  1.00  0.00     0.006 A 
ATOM     23  C   UNL A   1      32.157  21.717  22.840  1.00  0.00     0.026 A 
ATOM     24  C   UNL A   1      32.054  19.360  22.255  1.00  0.00     0.000 A 
ATOM     25  C   UNL A   1      31.860  20.706  21.920  1.00  0.00     0.002 A 
ENDBRANCH  10  16
ENDBRANCH   7   9
ENDBRANCH   6   7
ENDBRANCH   5   6
ENDBRANCH   4   5
ENDBRANCH   3   4
ENDBRANCH   2   3
ENDBRANCH   1   2
BRANCH   1  26
ATOM     26  O   UNL A   1      41.791  20.878  25.976  1.00  0.00    -0.376 OA
BRANCH  26  27
ATOM     27  C   UNL A   1      43.023  21.571  26.053  1.00  0.00     0.202 C 
BRANCH  27  28
ATOM     28  C   UNL A   1      43.494  22.532  24.955  1.00  0.00     0.261 C 
BRANCH  28  29
ATOM     29  O   UNL A   1      42.860  23.816  24.969  1.00  0.00    -0.460 OA
BRANCH  29  30
ATOM     30  C   UNL A   1      43.685  24.861  25.256  1.00  0.00     0.338 C 
ATOM     31  O   UNL A   1      44.700  25.184  24.687  1.00  0.00    -0.246 OA
BRANCH  30  32
ATOM     32  C   UNL A   1      43.021  25.704  26.274  1.00  0.00     0.060 A 
ATOM     33  C   UNL A   1      42.058  25.171  27.132  1.00  0.00     0.016 A 
ATOM     34  C   UNL A   1      43.363  27.062  26.339  1.00  0.00     0.016 A 
ATOM     35  C   UNL A   1      41.456  25.999  28.080  1.00  0.00     0.010 A 
ATOM     36  C   UNL A   1      42.748  27.893  27.276  1.00  0.00     0.010 A 
ATOM     37  C   UNL A   1      41.809  27.359  28.170  1.00  0.00    -0.014 A 
BRANCH  37  38
ATOM     38  C   UNL A   1      41.343  28.158  29.328  1.00  0.00     0.031 A 
ATOM     39  C   UNL A   1      40.152  29.059  29.252  1.00  0.00     0.074 A 
ATOM     40  C   UNL A   1      42.035  28.041  30.477  1.00  0.00     0.049 A 
ATOM     41  N   UNL A   1      39.570  29.727  30.217  1.00  0.00    -0.248 NA
ATOM     42  C   UNL A   1      39.536  29.243  27.932  1.00  0.00     0.031 C 
ATOM     43  C   UNL A   1      43.233  27.217  30.649  1.00  0.00     0.029 A 
ATOM     44  N   UNL A   1      41.830  28.599  31.711  1.00  0.00    -0.354 N 
ATOM     45  C   UNL A   1      38.500  30.387  29.631  1.00  0.00     0.074 A 
ATOM     46  C   UNL A   1      38.543  30.079  28.215  1.00  0.00     0.031 C 
ATOM     47  C   UNL A   1      43.641  27.302  31.923  1.00  0.00     0.029 A 
ATOM     48  C   UNL A   1      42.745  28.197  32.651  1.00  0.00     0.049 A 
ATOM     49  H   UNL A   1      41.097  29.227  31.905  1.00  0.00     0.167 HD
ATOM     50  C   UNL A   1      37.562  31.158  30.232  1.00  0.00     0.037 A 
ATOM     51  C   UNL A   1      42.846  28.502  33.957  1.00  0.00     0.037 A 
ATOM     52  C   UNL A   1      37.541  31.473  31.640  1.00  0.00     0.049 A 
ATOM     53  C   UNL A   1      41.816  29.396  34.584  1.00  0.00     0.074 A 
ATOM     54  C   UNL A   1      36.604  32.211  32.345  1.00  0.00     0.029 A 
ATOM     55  N   UNL A   1      38.508  31.084  32.556  1.00  0.00    -0.354 N 
ATOM     56  N   UNL A   1      40.756  29.941  34.042  1.00  0.00    -0.248 NA
ATOM     57  C   UNL A   1      41.991  29.710  36.009  1.00  0.00     0.031 C 
ATOM     58  C   UNL A   1      37.031  32.313  33.672  1.00  0.00     0.029 A 
ATOM     59  C   UNL A   1      38.206  31.595  33.811  1.00  0.00     0.049 A 
ATOM     60  H   UNL A   1      39.293  30.527  32.347  1.00  0.00     0.167 HD
ATOM     61  C   UNL A   1      40.126  30.645  35.058  1.00  0.00     0.074 A 
ATOM     62  C   UNL A   1      40.913  30.441  36.257  1.00  0.00     0.031 C 
ATOM     63  C   UNL A   1      38.998  31.393  34.999  1.00  0.00     0.037 A 
BRANCH  50  64
ATOM     64  C   UNL A   1      36.453  31.710  29.383  1.00  0.00     0.064 A 
ATOM     65  C   UNL A   1      35.424  30.883  28.908  1.00  0.00     0.173 A 
ATOM     66  C   UNL A   1      36.354  33.088  29.139  1.00  0.00     0.173 A 
ATOM     67  F   UNL A   1      35.469  29.559  29.117  1.00  0.00    -0.203 F 
ATOM     68  C   UNL A   1      34.340  31.416  28.213  1.00  0.00     0.198 A 
ATOM     69  C   UNL A   1      35.257  33.620  28.465  1.00  0.00     0.198 A 
ATOM     70  F   UNL A   1      37.303  33.925  29.585  1.00  0.00    -0.203 F 
ATOM     71  F   UNL A   1      33.376  30.605  27.757  1.00  0.00    -0.200 F 
ATOM     72  C   UNL A   1      34.252  32.783  28.002  1.00  0.00     0.200 A 
ATOM     73  F   UNL A   1      35.162  34.944  28.280  1.00  0.00    -0.200 F 
ATOM     74  F   UNL A   1      33.195  33.297  27.357  1.00  0.00    -0.200 F 
ENDBRANCH  50  64
BRANCH  51  75
ATOM     75  C   UNL A   1      43.946  27.912  34.759  1.00  0.00     0.064 A 
ATOM     76  C   UNL A   1      43.821  26.630  35.313  1.00  0.00     0.173 A 
ATOM     77  C   UNL A   1      45.152  28.598  34.958  1.00  0.00     0.173 A 
ATOM     78  F   UNL A   1      42.679  25.944  35.161  1.00  0.00    -0.203 F 
ATOM     79  C   UNL A   1      44.860  26.061  36.045  1.00  0.00     0.198 A 
ATOM     80  C   UNL A   1      46.200  28.017  35.666  1.00  0.00     0.198 A 
ATOM     81  F   UNL A   1      45.321  29.823  34.440  1.00  0.00    -0.203 F 
ATOM     82  F   UNL A   1      44.705  24.848  36.591  1.00  0.00    -0.200 F 
ATOM     83  C   UNL A   1      46.052  26.751  36.215  1.00  0.00     0.200 A 
ATOM     84  F   UNL A   1      47.356  28.679  35.814  1.00  0.00    -0.200 F 
ATOM     85  F   UNL A   1      47.054  26.198  36.909  1.00  0.00    -0.200 F 
ENDBRANCH  51  75
BRANCH  63  86
ATOM     86  C   UNL A   1      38.536  32.050  36.267  1.00  0.00     0.064 A 
ATOM     87  C   UNL A   1      37.789  31.348  37.225  1.00  0.00     0.173 A 
ATOM     88  C   UNL A   1      38.889  33.378  36.556  1.00  0.00     0.173 A 
ATOM     89  F   UNL A   1      37.410  30.083  36.991  1.00  0.00    -0.203 F 
ATOM     90  C   UNL A   1      37.401  31.955  38.417  1.00  0.00     0.198 A 
ATOM     91  C   UNL A   1      38.525  33.971  37.760  1.00  0.00     0.198 A 
ATOM     92  F   UNL A   1      39.606  34.093  35.675  1.00  0.00    -0.203 F 
ATOM     93  F   UNL A   1      36.655  31.276  39.300  1.00  0.00    -0.200 F 
ATOM     94  C   UNL A   1      37.778  33.261  38.688  1.00  0.00     0.200 A 
ATOM     95  F   UNL A   1      38.902  35.229  38.027  1.00  0.00    -0.200 F 
ATOM     96  F   UNL A   1      37.416  33.839  39.842  1.00  0.00    -0.200 F 
ENDBRANCH  63  86
ENDBRANCH  37  38
ENDBRANCH  30  32
ENDBRANCH  29  30
ENDBRANCH  28  29
ENDBRANCH  27  28
ENDBRANCH  26  27
ENDBRANCH   1  26
TORSDOF 18
ENDMDL
MODEL 3
REMARK VINA RESULT:     -11.2      1.794      3.225
REMARK SMILES C[C@@H]1Cc2ccccc2N1c1ccc(F)cc1C(=O)OCCOCCOCCOC(=O)c1ccc(-c2c3nc(c(-c4c(F)c(F)c(F)c(F)c4F)c4ccc([nH]4)c(-c4c(F)c(F)c(F)c(F)c4F)c4nc(c(-c5c(F)c(F)c(F)c(F)c5F)c5ccc2[nH]5)C=C4)C=C3)cc1
REMARK SMILES IDX 25 1 24 2 23 3 22 4 21 5 20 6 18 7 19 8 17 9 11 10 12 11
REMARK SMILES IDX 13 12 16 13 14 14 15 15 10 16 1 17 2 18 3 19 4 20 9 21 5 22
REMARK SMILES IDX 8 23 6 24 7 25 26 26 27 27 28 28 29 29 30 30 31 31 32 32
REMARK SMILES IDX 33 33 94 34 34 35 93 36 35 37 36 38 37 39 87 40 38 41 92 42
REMARK SMILES IDX 86 43 88 44 39 45 91 46 85 47 84 48 40 50 72 51 52 52 71 53
REMARK SMILES IDX 53 54 56 55 70 56 89 57 54 58 55 59 69 61 90 62 57 63 41 64
REMARK SMILES IDX 42 65 50 66 43 67 44 68 48 69 51 70 45 71 46 72 49 73 47 74
REMARK SMILES IDX 73 75 74 76 82 77 75 78 76 79 80 80 83 81 77 82 78 83 81 84
REMARK SMILES IDX 79 85 58 86 59 87 67 88 60 89 61 90 65 91 68 92 62 93 63 94
REMARK SMILES IDX 66 95 64 96
REMARK H PARENT 88 49 56 60
REMARK Flexibility Score: inf
ROOT
ATOM      1  C   UNL A   1      33.174  28.313  23.730  1.00  0.00     0.188 C 
ENDROOT
BRANCH   1   2
ATOM      2  C   UNL A   1      34.005  28.177  22.435  1.00  0.00     0.188 C 
BRANCH   2   3
ATOM      3  O   UNL A   1      33.916  27.009  21.639  1.00  0.00    -0.376 OA
BRANCH   3   4
ATOM      4  C   UNL A   1      32.852  26.097  21.868  1.00  0.00     0.202 C 
BRANCH   4   5
ATOM      5  C   UNL A   1      32.899  24.702  21.250  1.00  0.00     0.261 C 
BRANCH   5   6
ATOM      6  O   UNL A   1      32.827  23.662  22.237  1.00  0.00    -0.460 OA
BRANCH   6   7
ATOM      7  C   UNL A   1      33.767  23.711  23.208  1.00  0.00     0.340 C 
ATOM      8  O   UNL A   1      34.928  24.072  23.066  1.00  0.00    -0.246 OA
BRANCH   7   9
ATOM      9  C   UNL A   1      33.210  23.435  24.552  1.00  0.00     0.086 A 
ATOM     10  C   UNL A   1      33.599  22.378  25.404  1.00  0.00     0.056 A 
ATOM     11  C   UNL A   1      32.998  22.338  26.685  1.00  0.00     0.030 A 
ATOM     12  C   UNL A   1      31.977  23.217  27.057  1.00  0.00     0.041 A 
ATOM     13  C   UNL A   1      32.179  24.318  24.932  1.00  0.00     0.057 A 
ATOM     14  C   UNL A   1      31.556  24.181  26.160  1.00  0.00     0.124 A 
ATOM     15  F   UNL A   1      30.533  24.983  26.477  1.00  0.00    -0.207 F 
BRANCH  10  16
ATOM     16  N   UNL A   1      34.426  21.318  25.011  1.00  0.00    -0.337 N 
ATOM     17  C   UNL A   1      36.794  22.160  25.453  1.00  0.00     0.032 C 
ATOM     18  C   UNL A   1      35.760  21.060  25.631  1.00  0.00     0.089 C 
ATOM     19  C   UNL A   1      36.293  19.746  24.997  1.00  0.00     0.063 C 
ATOM     20  C   UNL A   1      35.020  19.071  24.632  1.00  0.00    -0.022 A 
ATOM     21  C   UNL A   1      33.989  20.010  24.623  1.00  0.00     0.045 A 
ATOM     22  C   UNL A   1      34.812  17.744  24.288  1.00  0.00     0.006 A 
ATOM     23  C   UNL A   1      32.707  19.614  24.261  1.00  0.00     0.026 A 
ATOM     24  C   UNL A   1      33.518  17.342  23.961  1.00  0.00     0.000 A 
ATOM     25  C   UNL A   1      32.469  18.271  23.951  1.00  0.00     0.002 A 
ENDBRANCH  10  16
ENDBRANCH   7   9
ENDBRANCH   6   7
ENDBRANCH   5   6
ENDBRANCH   4   5
ENDBRANCH   3   4
ENDBRANCH   2   3
ENDBRANCH   1   2
BRANCH   1  26
ATOM     26  O   UNL A   1      32.085  29.205  23.809  1.00  0.00    -0.376 OA
BRANCH  26  27
ATOM     27  C   UNL A   1      31.372  29.380  25.020  1.00  0.00     0.202 C 
BRANCH  27  28
ATOM     28  C   UNL A   1      31.772  30.429  26.064  1.00  0.00     0.261 C 
BRANCH  28  29
ATOM     29  O   UNL A   1      33.166  30.452  26.388  1.00  0.00    -0.460 OA
BRANCH  29  30
ATOM     30  C   UNL A   1      33.547  31.462  27.218  1.00  0.00     0.338 C 
ATOM     31  O   UNL A   1      32.900  32.422  27.566  1.00  0.00    -0.246 OA
BRANCH  30  32
ATOM     32  C   UNL A   1      34.844  31.094  27.827  1.00  0.00     0.060 A 
ATOM     33  C   UNL A   1      35.852  32.043  27.999  1.00  0.00     0.016 A 
ATOM     34  C   UNL A   1      35.045  29.759  28.204  1.00  0.00     0.016 A 
ATOM     35  C   UNL A   1      37.061  31.655  28.579  1.00  0.00     0.010 A 
ATOM     36  C   UNL A   1      36.260  29.370  28.768  1.00  0.00     0.010 A 
ATOM     37  C   UNL A   1      37.266  30.323  28.983  1.00  0.00    -0.014 A 
BRANCH  37  38
ATOM     38  C   UNL A   1      38.450  29.985  29.808  1.00  0.00     0.031 A 
ATOM     39  C   UNL A   1      38.644  30.525  31.190  1.00  0.00     0.074 A 
ATOM     40  C   UNL A   1      39.361  29.155  29.268  1.00  0.00     0.049 A 
ATOM     41  N   UNL A   1      39.574  30.222  32.061  1.00  0.00    -0.248 NA
ATOM     42  C   UNL A   1      37.683  31.533  31.655  1.00  0.00     0.031 C 
ATOM     43  C   UNL A   1      39.286  28.599  27.916  1.00  0.00     0.029 A 
ATOM     44  N   UNL A   1      40.513  28.625  29.786  1.00  0.00    -0.354 N 
ATOM     45  C   UNL A   1      39.296  30.977  33.191  1.00  0.00     0.074 A 
ATOM     46  C   UNL A   1      38.138  31.791  32.876  1.00  0.00     0.031 C 
ATOM     47  C   UNL A   1      40.333  27.785  27.720  1.00  0.00     0.029 A 
ATOM     48  C   UNL A   1      41.159  27.775  28.925  1.00  0.00     0.049 A 
ATOM     49  H   UNL A   1      40.847  28.835  30.689  1.00  0.00     0.167 HD
ATOM     50  C   UNL A   1      39.941  30.968  34.383  1.00  0.00     0.037 A 
ATOM     51  C   UNL A   1      42.283  27.054  29.087  1.00  0.00     0.037 A 
ATOM     52  C   UNL A   1      41.105  30.168  34.678  1.00  0.00     0.049 A 
ATOM     53  C   UNL A   1      43.000  27.100  30.406  1.00  0.00     0.074 A 
ATOM     54  C   UNL A   1      41.798  30.062  35.873  1.00  0.00     0.029 A 
ATOM     55  N   UNL A   1      41.757  29.349  33.768  1.00  0.00    -0.354 N 
ATOM     56  N   UNL A   1      42.678  27.747  31.498  1.00  0.00    -0.248 NA
ATOM     57  C   UNL A   1      44.233  26.308  30.517  1.00  0.00     0.031 C 
ATOM     58  C   UNL A   1      42.898  29.223  35.671  1.00  0.00     0.029 A 
ATOM     59  C   UNL A   1      42.864  28.762  34.366  1.00  0.00     0.049 A 
ATOM     60  H   UNL A   1      41.478  29.206  32.834  1.00  0.00     0.167 HD
ATOM     61  C   UNL A   1      43.653  27.427  32.432  1.00  0.00     0.074 A 
ATOM     62  C   UNL A   1      44.568  26.511  31.784  1.00  0.00     0.031 C 
ATOM     63  C   UNL A   1      43.775  27.856  33.712  1.00  0.00     0.037 A 
BRANCH  50  64
ATOM     64  C   UNL A   1      39.399  31.834  35.484  1.00  0.00     0.064 A 
ATOM     65  C   UNL A   1      38.491  31.327  36.426  1.00  0.00     0.173 A 
ATOM     66  C   UNL A   1      39.876  33.141  35.669  1.00  0.00     0.173 A 
ATOM     67  F   UNL A   1      38.008  30.083  36.296  1.00  0.00    -0.203 F 
ATOM     68  C   UNL A   1      38.075  32.099  37.508  1.00  0.00     0.198 A 
ATOM     69  C   UNL A   1      39.477  33.901  36.766  1.00  0.00     0.198 A 
ATOM     70  F   UNL A   1      40.758  33.668  34.807  1.00  0.00    -0.203 F 
ATOM     71  F   UNL A   1      37.196  31.599  38.386  1.00  0.00    -0.200 F 
ATOM     72  C   UNL A   1      38.576  33.380  37.683  1.00  0.00     0.200 A 
ATOM     73  F   UNL A   1      39.978  35.132  36.946  1.00  0.00    -0.200 F 
ATOM     74  F   UNL A   1      38.195  34.112  38.740  1.00  0.00    -0.200 F 
ENDBRANCH  50  64
BRANCH  51  75
ATOM     75  C   UNL A   1      42.764  26.195  27.978  1.00  0.00     0.064 A 
ATOM     76  C   UNL A   1      42.312  24.874  27.847  1.00  0.00     0.173 A 
ATOM     77  C   UNL A   1      43.652  26.683  27.010  1.00  0.00     0.173 A 
ATOM     78  F   UNL A   1      41.474  24.360  28.758  1.00  0.00    -0.203 F 
ATOM     79  C   UNL A   1      42.741  24.071  26.793  1.00  0.00     0.198 A 
ATOM     80  C   UNL A   1      44.058  25.889  25.941  1.00  0.00     0.198 A 
ATOM     81  F   UNL A   1      44.105  27.943  27.089  1.00  0.00    -0.203 F 
ATOM     82  F   UNL A   1      42.320  22.802  26.707  1.00  0.00    -0.200 F 
ATOM     83  C   UNL A   1      43.607  24.581  25.836  1.00  0.00     0.200 A 
ATOM     84  F   UNL A   1      44.882  26.390  25.010  1.00  0.00    -0.200 F 
ATOM     85  F   UNL A   1      44.008  23.811  24.817  1.00  0.00    -0.200 F 
ENDBRANCH  51  75
BRANCH  63  86
ATOM     86  C   UNL A   1      44.940  27.342  34.506  1.00  0.00     0.064 A 
ATOM     87  C   UNL A   1      44.865  26.135  35.218  1.00  0.00     0.173 A 
ATOM     88  C   UNL A   1      46.163  28.031  34.513  1.00  0.00     0.173 A 
ATOM     89  F   UNL A   1      43.715  25.446  35.258  1.00  0.00    -0.203 F 
ATOM     90  C   UNL A   1      45.965  25.645  35.917  1.00  0.00     0.198 A 
ATOM     91  C   UNL A   1      47.269  27.524  35.188  1.00  0.00     0.198 A 
ATOM     92  F   UNL A   1      46.290  29.188  33.845  1.00  0.00    -0.203 F 
ATOM     93  F   UNL A   1      45.858  24.509  36.621  1.00  0.00    -0.200 F 
ATOM     94  C   UNL A   1      47.168  26.334  35.893  1.00  0.00     0.200 A 
ATOM     95  F   UNL A   1      48.434  28.184  35.153  1.00  0.00    -0.200 F 
ATOM     96  F   UNL A   1      48.230  25.854  36.556  1.00  0.00    -0.200 F 
ENDBRANCH  63  86
ENDBRANCH  37  38
ENDBRANCH  30  32
ENDBRANCH  29  30
ENDBRANCH  28  29
ENDBRANCH  27  28
ENDBRANCH  26  27
ENDBRANCH   1  26
TORSDOF 18
ENDMDL
