MODEL 1
REMARK VINA RESULT:     -12.2      0.000      0.000
REMARK SMILES Cc1ccc2c(c1)c(-c1ccnc3c(C)cccc13)c(C)n2CC(=O)OCCOCCOCCOC(=O)c1ccc(-c2c3nc(c(-c4c(F)c(F)c(F)c(F)c4F)c4ccc([nH]4)c(-c4c(F)c(F)c(F)c(F)c4F)c4nc(c(-c5c(F)c(F)c(F)c(F)c5F)c5ccc2[nH]5)C=C4)C=C3)cc1
REMARK SMILES IDX 30 1 29 2 28 3 27 4 26 5 24 6 25 7 23 8 22 9 1 10 2 11 3 12
REMARK SMILES IDX 7 13 4 14 6 15 5 16 8 17 20 18 21 19 9 20 10 21 19 22 11 23
REMARK SMILES IDX 13 24 18 25 12 26 14 27 17 28 15 29 16 30 31 31 32 32 33 33
REMARK SMILES IDX 34 34 35 35 36 36 37 37 38 38 39 39 100 40 40 41 99 42 41 43
REMARK SMILES IDX 42 44 43 45 93 46 44 47 98 48 92 49 94 50 45 51 97 52 91 53
REMARK SMILES IDX 90 54 46 56 78 57 58 58 77 59 59 60 62 61 76 62 95 63 60 64
REMARK SMILES IDX 61 65 75 67 96 68 63 69 47 70 48 71 56 72 49 73 50 74 54 75
REMARK SMILES IDX 57 76 51 77 52 78 55 79 53 80 79 81 80 82 88 83 81 84 82 85
REMARK SMILES IDX 86 86 89 87 83 88 84 89 87 90 85 91 64 92 65 93 73 94 66 95
REMARK SMILES IDX 67 96 71 97 74 98 68 99 69 100 72 101 70 102
REMARK H PARENT 94 55 62 66
REMARK Flexibility Score: inf
ROOT
ATOM      1  C   UNL A   1      41.969  20.060  26.059  1.00  0.00     0.188 C 
ENDROOT
BRANCH   1   2
ATOM      2  O   UNL A   1      41.847  21.105  27.011  1.00  0.00    -0.376 OA
BRANCH   2   3
ATOM      3  C   UNL A   1      41.209  22.305  26.605  1.00  0.00     0.202 C 
BRANCH   3   4
ATOM      4  C   UNL A   1      39.705  22.350  26.884  1.00  0.00     0.261 C 
BRANCH   4   5
ATOM      5  O   UNL A   1      38.957  21.974  25.707  1.00  0.00    -0.462 OA
BRANCH   5   6
ATOM      6  C   UNL A   1      37.742  22.562  25.569  1.00  0.00     0.326 C 
ATOM      7  O   UNL A   1      37.549  23.579  24.906  1.00  0.00    -0.250 OA
BRANCH   6   8
ATOM      8  C   UNL A   1      36.603  21.706  26.046  1.00  0.00     0.244 C 
BRANCH   8   9
ATOM      9  N   UNL A   1      35.295  21.753  25.412  1.00  0.00    -0.333 N 
ATOM     10  C   UNL A   1      31.992  17.637  23.477  1.00  0.00     0.044 C 
ATOM     11  C   UNL A   1      32.953  18.707  23.897  1.00  0.00    -0.050 A 
ATOM     12  C   UNL A   1      34.257  18.367  24.268  1.00  0.00     0.005 A 
ATOM     13  C   UNL A   1      32.511  20.038  24.006  1.00  0.00     0.014 A 
ATOM     14  C   UNL A   1      35.153  19.329  24.728  1.00  0.00     0.027 A 
ATOM     15  C   UNL A   1      33.374  21.015  24.533  1.00  0.00     0.008 A 
ATOM     16  C   UNL A   1      34.681  20.640  24.871  1.00  0.00     0.049 A 
ATOM     17  C   UNL A   1      33.217  22.378  24.905  1.00  0.00     0.011 A 
ATOM     18  C   UNL A   1      34.309  22.677  25.698  1.00  0.00     0.024 A 
ATOM     19  C   UNL A   1      34.378  23.712  26.752  1.00  0.00     0.065 C 
BRANCH  17  20
ATOM     20  C   UNL A   1      32.092  23.308  24.845  1.00  0.00    -0.005 A 
ATOM     21  C   UNL A   1      31.203  23.368  25.916  1.00  0.00     0.029 A 
ATOM     22  C   UNL A   1      32.035  24.288  23.818  1.00  0.00     0.008 A 
ATOM     23  C   UNL A   1      30.290  24.400  25.930  1.00  0.00     0.112 A 
ATOM     24  C   UNL A   1      31.058  25.304  23.924  1.00  0.00     0.074 A 
ATOM     25  C   UNL A   1      32.936  24.307  22.724  1.00  0.00     0.011 A 
ATOM     26  N   UNL A   1      30.203  25.344  24.969  1.00  0.00    -0.256 NA
ATOM     27  C   UNL A   1      31.010  26.294  22.929  1.00  0.00    -0.025 A 
ATOM     28  C   UNL A   1      32.877  25.296  21.751  1.00  0.00     0.001 A 
ATOM     29  C   UNL A   1      30.002  27.414  22.973  1.00  0.00     0.047 C 
ATOM     30  C   UNL A   1      31.913  26.285  21.851  1.00  0.00     0.005 A 
ENDBRANCH  17  20
ENDBRANCH   8   9
ENDBRANCH   6   8
ENDBRANCH   5   6
ENDBRANCH   4   5
ENDBRANCH   3   4
ENDBRANCH   2   3
ENDBRANCH   1   2
BRANCH   1  31
ATOM     31  C   UNL A   1      42.430  18.662  26.507  1.00  0.00     0.188 C 
BRANCH  31  32
ATOM     32  O   UNL A   1      43.292  17.942  25.644  1.00  0.00    -0.376 OA
BRANCH  32  33
ATOM     33  C   UNL A   1      44.533  18.562  25.323  1.00  0.00     0.202 C 
BRANCH  33  34
ATOM     34  C   UNL A   1      44.697  18.952  23.848  1.00  0.00     0.261 C 
BRANCH  34  35
ATOM     35  O   UNL A   1      44.747  20.391  23.747  1.00  0.00    -0.460 OA
BRANCH  35  36
ATOM     36  C   UNL A   1      45.663  21.006  24.532  1.00  0.00     0.338 C 
ATOM     37  O   UNL A   1      46.869  20.821  24.519  1.00  0.00    -0.246 OA
BRANCH  36  38
ATOM     38  C   UNL A   1      45.000  22.182  25.157  1.00  0.00     0.060 A 
ATOM     39  C   UNL A   1      44.201  23.084  24.442  1.00  0.00     0.016 A 
ATOM     40  C   UNL A   1      45.365  22.486  26.467  1.00  0.00     0.016 A 
ATOM     41  C   UNL A   1      43.910  24.352  24.977  1.00  0.00     0.010 A 
ATOM     42  C   UNL A   1      45.055  23.740  27.001  1.00  0.00     0.010 A 
ATOM     43  C   UNL A   1      44.391  24.716  26.240  1.00  0.00    -0.014 A 
BRANCH  43  44
ATOM     44  C   UNL A   1      43.928  25.942  26.918  1.00  0.00     0.031 A 
ATOM     45  C   UNL A   1      44.862  27.046  26.691  1.00  0.00     0.074 A 
ATOM     46  C   UNL A   1      42.865  26.245  27.700  1.00  0.00     0.049 A 
ATOM     47  N   UNL A   1      45.779  27.368  27.536  1.00  0.00    -0.248 NA
ATOM     48  C   UNL A   1      44.891  27.773  25.422  1.00  0.00     0.031 C 
ATOM     49  C   UNL A   1      41.794  25.369  28.125  1.00  0.00     0.029 A 
ATOM     50  N   UNL A   1      42.485  27.445  28.270  1.00  0.00    -0.354 N 
ATOM     51  C   UNL A   1      46.350  28.503  27.015  1.00  0.00     0.074 A 
ATOM     52  C   UNL A   1      45.928  28.586  25.637  1.00  0.00     0.031 C 
ATOM     53  C   UNL A   1      40.750  26.077  28.620  1.00  0.00     0.029 A 
ATOM     54  C   UNL A   1      41.189  27.455  28.778  1.00  0.00     0.049 A 
ATOM     55  H   UNL A   1      43.082  28.228  28.312  1.00  0.00     0.167 HD
ATOM     56  C   UNL A   1      46.845  29.441  27.858  1.00  0.00     0.037 A 
ATOM     57  C   UNL A   1      40.564  28.396  29.530  1.00  0.00     0.037 A 
ATOM     58  C   UNL A   1      46.913  28.981  29.224  1.00  0.00     0.049 A 
ATOM     59  C   UNL A   1      41.582  28.965  30.435  1.00  0.00     0.074 A 
ATOM     60  C   UNL A   1      47.736  28.168  29.972  1.00  0.00     0.029 A 
ATOM     61  N   UNL A   1      45.752  29.130  29.933  1.00  0.00    -0.354 N 
ATOM     62  N   UNL A   1      42.141  28.296  31.405  1.00  0.00    -0.248 NA
ATOM     63  C   UNL A   1      42.170  30.268  30.147  1.00  0.00     0.031 C 
ATOM     64  C   UNL A   1      46.999  27.779  31.132  1.00  0.00     0.029 A 
ATOM     65  C   UNL A   1      45.737  28.355  31.067  1.00  0.00     0.049 A 
ATOM     66  H   UNL A   1      45.015  29.722  29.662  1.00  0.00     0.167 HD
ATOM     67  C   UNL A   1      43.384  28.872  31.521  1.00  0.00     0.074 A 
ATOM     68  C   UNL A   1      43.275  30.177  30.889  1.00  0.00     0.031 C 
ATOM     69  C   UNL A   1      44.484  28.103  31.744  1.00  0.00     0.037 A 
BRANCH  56  70
ATOM     70  C   UNL A   1      46.844  30.898  27.528  1.00  0.00     0.064 A 
ATOM     71  C   UNL A   1      45.622  31.565  27.371  1.00  0.00     0.173 A 
ATOM     72  C   UNL A   1      47.999  31.598  27.119  1.00  0.00     0.173 A 
ATOM     73  F   UNL A   1      44.468  30.948  27.667  1.00  0.00    -0.203 F 
ATOM     74  C   UNL A   1      45.561  32.855  26.844  1.00  0.00     0.198 A 
ATOM     75  C   UNL A   1      47.943  32.907  26.656  1.00  0.00     0.198 A 
ATOM     76  F   UNL A   1      49.197  31.001  27.052  1.00  0.00    -0.203 F 
ATOM     77  F   UNL A   1      44.370  33.428  26.624  1.00  0.00    -0.200 F 
ATOM     78  C   UNL A   1      46.721  33.530  26.501  1.00  0.00     0.200 A 
ATOM     79  F   UNL A   1      49.074  33.530  26.297  1.00  0.00    -0.200 F 
ATOM     80  F   UNL A   1      46.661  34.760  25.975  1.00  0.00    -0.200 F 
ENDBRANCH  56  70
BRANCH  57  81
ATOM     81  C   UNL A   1      39.137  28.795  29.622  1.00  0.00     0.064 A 
ATOM     82  C   UNL A   1      38.448  28.789  30.850  1.00  0.00     0.173 A 
ATOM     83  C   UNL A   1      38.523  29.492  28.566  1.00  0.00     0.173 A 
ATOM     84  F   UNL A   1      38.967  28.169  31.920  1.00  0.00    -0.203 F 
ATOM     85  C   UNL A   1      37.251  29.489  31.028  1.00  0.00     0.198 A 
ATOM     86  C   UNL A   1      37.324  30.189  28.745  1.00  0.00     0.198 A 
ATOM     87  F   UNL A   1      39.129  29.586  27.374  1.00  0.00    -0.203 F 
ATOM     88  F   UNL A   1      36.671  29.524  32.236  1.00  0.00    -0.200 F 
ATOM     89  C   UNL A   1      36.700  30.205  29.981  1.00  0.00     0.200 A 
ATOM     90  F   UNL A   1      36.813  30.907  27.735  1.00  0.00    -0.200 F 
ATOM     91  F   UNL A   1      35.597  30.943  30.173  1.00  0.00    -0.200 F 
ENDBRANCH  57  81
BRANCH  69  92
ATOM     92  C   UNL A   1      44.316  26.866  32.570  1.00  0.00     0.064 A 
ATOM     93  C   UNL A   1      44.135  26.847  33.962  1.00  0.00     0.173 A 
ATOM     94  C   UNL A   1      44.307  25.634  31.901  1.00  0.00     0.173 A 
ATOM     95  F   UNL A   1      44.068  27.985  34.666  1.00  0.00    -0.203 F 
ATOM     96  C   UNL A   1      43.986  25.642  34.651  1.00  0.00     0.198 A 
ATOM     97  C   UNL A   1      44.125  24.436  32.586  1.00  0.00     0.198 A 
ATOM     98  F   UNL A   1      44.454  25.593  30.567  1.00  0.00    -0.203 F 
ATOM     99  F   UNL A   1      43.832  25.644  35.983  1.00  0.00    -0.200 F 
ATOM    100  C   UNL A   1      43.975  24.439  33.962  1.00  0.00     0.200 A 
ATOM    101  F   UNL A   1      44.084  23.280  31.909  1.00  0.00    -0.200 F 
ATOM    102  F   UNL A   1      43.801  23.285  34.621  1.00  0.00    -0.200 F 
ENDBRANCH  69  92
ENDBRANCH  43  44
ENDBRANCH  36  38
ENDBRANCH  35  36
ENDBRANCH  34  35
ENDBRANCH  33  34
ENDBRANCH  32  33
ENDBRANCH  31  32
ENDBRANCH   1  31
TORSDOF 19
ENDMDL
MODEL 2
REMARK VINA RESULT:     -12.2      6.328     11.585
REMARK SMILES Cc1ccc2c(c1)c(-c1ccnc3c(C)cccc13)c(C)n2CC(=O)OCCOCCOCCOC(=O)c1ccc(-c2c3nc(c(-c4c(F)c(F)c(F)c(F)c4F)c4ccc([nH]4)c(-c4c(F)c(F)c(F)c(F)c4F)c4nc(c(-c5c(F)c(F)c(F)c(F)c5F)c5ccc2[nH]5)C=C4)C=C3)cc1
REMARK SMILES IDX 30 1 29 2 28 3 27 4 26 5 24 6 25 7 23 8 22 9 1 10 2 11 3 12
REMARK SMILES IDX 7 13 4 14 6 15 5 16 8 17 20 18 21 19 9 20 10 21 19 22 11 23
REMARK SMILES IDX 13 24 18 25 12 26 14 27 17 28 15 29 16 30 31 31 32 32 33 33
REMARK SMILES IDX 34 34 35 35 36 36 37 37 38 38 39 39 100 40 40 41 99 42 41 43
REMARK SMILES IDX 42 44 43 45 93 46 44 47 98 48 92 49 94 50 45 51 97 52 91 53
REMARK SMILES IDX 90 54 46 56 78 57 58 58 77 59 59 60 62 61 76 62 95 63 60 64
REMARK SMILES IDX 61 65 75 67 96 68 63 69 47 70 48 71 56 72 49 73 50 74 54 75
REMARK SMILES IDX 57 76 51 77 52 78 55 79 53 80 79 81 80 82 88 83 81 84 82 85
REMARK SMILES IDX 86 86 89 87 83 88 84 89 87 90 85 91 64 92 65 93 73 94 66 95
REMARK SMILES IDX 67 96 71 97 74 98 68 99 69 100 72 101 70 102
REMARK H PARENT 94 55 62 66
REMARK Flexibility Score: inf
ROOT
ATOM      1  C   UNL A   1      33.656  37.397  32.115  1.00  0.00     0.188 C 
ENDROOT
BRANCH   1   2
ATOM      2  O   UNL A   1      32.732  37.013  31.110  1.00  0.00    -0.376 OA
BRANCH   2   3
ATOM      3  C   UNL A   1      33.248  36.573  29.864  1.00  0.00     0.202 C 
BRANCH   3   4
ATOM      4  C   UNL A   1      33.134  35.067  29.625  1.00  0.00     0.261 C 
BRANCH   4   5
ATOM      5  O   UNL A   1      34.259  34.586  28.857  1.00  0.00    -0.462 OA
BRANCH   5   6
ATOM      6  C   UNL A   1      34.754  33.379  29.231  1.00  0.00     0.326 C 
ATOM      7  O   UNL A   1      34.292  32.708  30.150  1.00  0.00    -0.250 OA
BRANCH   6   8
ATOM      8  C   UNL A   1      35.725  32.797  28.243  1.00  0.00     0.244 C 
BRANCH   8   9
ATOM      9  N   UNL A   1      36.921  32.090  28.673  1.00  0.00    -0.333 N 
ATOM     10  C   UNL A   1      40.984  33.573  32.261  1.00  0.00     0.044 C 
ATOM     11  C   UNL A   1      39.945  33.269  31.225  1.00  0.00    -0.050 A 
ATOM     12  C   UNL A   1      39.024  34.252  30.852  1.00  0.00     0.005 A 
ATOM     13  C   UNL A   1      39.841  31.967  30.703  1.00  0.00     0.014 A 
ATOM     14  C   UNL A   1      38.004  33.980  29.944  1.00  0.00     0.027 A 
ATOM     15  C   UNL A   1      38.780  31.649  29.838  1.00  0.00     0.008 A 
ATOM     16  C   UNL A   1      37.891  32.667  29.469  1.00  0.00     0.049 A 
ATOM     17  C   UNL A   1      38.303  30.442  29.258  1.00  0.00     0.011 A 
ATOM     18  C   UNL A   1      37.022  30.720  28.818  1.00  0.00     0.024 A 
ATOM     19  C   UNL A   1      35.916  29.753  28.651  1.00  0.00     0.065 C 
BRANCH  17  20
ATOM     20  C   UNL A   1      38.764  29.058  29.309  1.00  0.00    -0.005 A 
ATOM     21  C   UNL A   1      38.261  28.210  30.293  1.00  0.00     0.029 A 
ATOM     22  C   UNL A   1      39.537  28.527  28.241  1.00  0.00     0.008 A 
ATOM     23  C   UNL A   1      38.541  26.866  30.182  1.00  0.00     0.112 A 
ATOM     24  C   UNL A   1      39.771  27.133  28.221  1.00  0.00     0.074 A 
ATOM     25  C   UNL A   1      40.043  29.328  27.187  1.00  0.00     0.011 A 
ATOM     26  N   UNL A   1      39.277  26.328  29.186  1.00  0.00    -0.256 NA
ATOM     27  C   UNL A   1      40.511  26.593  27.155  1.00  0.00    -0.025 A 
ATOM     28  C   UNL A   1      40.769  28.777  26.140  1.00  0.00     0.001 A 
ATOM     29  C   UNL A   1      40.798  25.117  27.057  1.00  0.00     0.047 C 
ATOM     30  C   UNL A   1      41.006  27.414  26.125  1.00  0.00     0.005 A 
ENDBRANCH  17  20
ENDBRANCH   8   9
ENDBRANCH   6   8
ENDBRANCH   5   6
ENDBRANCH   4   5
ENDBRANCH   3   4
ENDBRANCH   2   3
ENDBRANCH   1   2
BRANCH   1  31
ATOM     31  C   UNL A   1      34.037  36.406  33.229  1.00  0.00     0.188 C 
BRANCH  31  32
ATOM     32  O   UNL A   1      34.508  35.126  32.843  1.00  0.00    -0.376 OA
BRANCH  32  33
ATOM     33  C   UNL A   1      35.751  34.711  33.403  1.00  0.00     0.202 C 
BRANCH  33  34
ATOM     34  C   UNL A   1      35.950  33.191  33.477  1.00  0.00     0.261 C 
BRANCH  34  35
ATOM     35  O   UNL A   1      37.353  32.912  33.665  1.00  0.00    -0.460 OA
BRANCH  35  36
ATOM     36  C   UNL A   1      37.690  32.365  34.858  1.00  0.00     0.338 C 
ATOM     37  O   UNL A   1      37.083  32.488  35.909  1.00  0.00    -0.246 OA
BRANCH  36  38
ATOM     38  C   UNL A   1      38.713  31.316  34.596  1.00  0.00     0.060 A 
ATOM     39  C   UNL A   1      40.028  31.390  35.072  1.00  0.00     0.016 A 
ATOM     40  C   UNL A   1      38.377  30.329  33.672  1.00  0.00     0.016 A 
ATOM     41  C   UNL A   1      41.035  30.589  34.502  1.00  0.00     0.010 A 
ATOM     42  C   UNL A   1      39.377  29.521  33.125  1.00  0.00     0.010 A 
ATOM     43  C   UNL A   1      40.727  29.689  33.475  1.00  0.00    -0.014 A 
BRANCH  43  44
ATOM     44  C   UNL A   1      41.705  28.686  33.009  1.00  0.00     0.031 A 
ATOM     45  C   UNL A   1      42.084  27.786  34.100  1.00  0.00     0.074 A 
ATOM     46  C   UNL A   1      42.321  28.445  31.828  1.00  0.00     0.049 A 
ATOM     47  N   UNL A   1      43.149  27.956  34.805  1.00  0.00    -0.248 NA
ATOM     48  C   UNL A   1      41.203  26.705  34.540  1.00  0.00     0.031 C 
ATOM     49  C   UNL A   1      42.179  29.171  30.585  1.00  0.00     0.029 A 
ATOM     50  N   UNL A   1      43.207  27.447  31.468  1.00  0.00    -0.354 N 
ATOM     51  C   UNL A   1      43.203  26.857  35.625  1.00  0.00     0.074 A 
ATOM     52  C   UNL A   1      41.898  26.240  35.582  1.00  0.00     0.031 C 
ATOM     53  C   UNL A   1      42.687  28.465  29.545  1.00  0.00     0.029 A 
ATOM     54  C   UNL A   1      43.422  27.337  30.097  1.00  0.00     0.049 A 
ATOM     55  H   UNL A   1      43.649  26.863  32.127  1.00  0.00     0.167 HD
ATOM     56  C   UNL A   1      44.410  26.370  36.002  1.00  0.00     0.037 A 
ATOM     57  C   UNL A   1      44.331  26.588  29.423  1.00  0.00     0.037 A 
ATOM     58  C   UNL A   1      45.496  27.257  35.663  1.00  0.00     0.049 A 
ATOM     59  C   UNL A   1      45.561  26.571  30.240  1.00  0.00     0.074 A 
ATOM     60  C   UNL A   1      46.038  28.422  36.162  1.00  0.00     0.029 A 
ATOM     61  N   UNL A   1      45.971  27.114  34.388  1.00  0.00    -0.354 N 
ATOM     62  N   UNL A   1      46.306  27.621  30.446  1.00  0.00    -0.248 NA
ATOM     63  C   UNL A   1      45.891  25.396  31.038  1.00  0.00     0.031 C 
ATOM     64  C   UNL A   1      46.808  29.010  35.111  1.00  0.00     0.029 A 
ATOM     65  C   UNL A   1      46.716  28.197  33.989  1.00  0.00     0.049 A 
ATOM     66  H   UNL A   1      45.801  26.326  33.823  1.00  0.00     0.167 HD
ATOM     67  C   UNL A   1      46.863  27.384  31.680  1.00  0.00     0.074 A 
ATOM     68  C   UNL A   1      46.746  25.951  31.899  1.00  0.00     0.031 C 
ATOM     69  C   UNL A   1      46.996  28.393  32.584  1.00  0.00     0.037 A 
BRANCH  56  70
ATOM     70  C   UNL A   1      44.645  24.919  36.265  1.00  0.00     0.064 A 
ATOM     71  C   UNL A   1      45.203  24.525  37.489  1.00  0.00     0.173 A 
ATOM     72  C   UNL A   1      44.571  23.930  35.261  1.00  0.00     0.173 A 
ATOM     73  F   UNL A   1      45.378  25.418  38.474  1.00  0.00    -0.203 F 
ATOM     74  C   UNL A   1      45.652  23.221  37.696  1.00  0.00     0.198 A 
ATOM     75  C   UNL A   1      44.958  22.615  35.491  1.00  0.00     0.198 A 
ATOM     76  F   UNL A   1      44.227  24.231  34.001  1.00  0.00    -0.203 F 
ATOM     77  F   UNL A   1      46.261  22.902  38.845  1.00  0.00    -0.200 F 
ATOM     78  C   UNL A   1      45.515  22.264  36.703  1.00  0.00     0.200 A 
ATOM     79  F   UNL A   1      44.850  21.713  34.506  1.00  0.00    -0.200 F 
ATOM     80  F   UNL A   1      45.965  21.017  36.895  1.00  0.00    -0.200 F 
ENDBRANCH  56  70
BRANCH  57  81
ATOM     81  C   UNL A   1      44.285  25.957  28.080  1.00  0.00     0.064 A 
ATOM     82  C   UNL A   1      44.670  26.659  26.922  1.00  0.00     0.173 A 
ATOM     83  C   UNL A   1      44.169  24.561  27.954  1.00  0.00     0.173 A 
ATOM     84  F   UNL A   1      44.828  27.990  26.953  1.00  0.00    -0.203 F 
ATOM     85  C   UNL A   1      44.982  26.000  25.729  1.00  0.00     0.198 A 
ATOM     86  C   UNL A   1      44.479  23.904  26.758  1.00  0.00     0.198 A 
ATOM     87  F   UNL A   1      43.849  23.809  29.016  1.00  0.00    -0.203 F 
ATOM     88  F   UNL A   1      45.424  26.701  24.675  1.00  0.00    -0.200 F 
ATOM     89  C   UNL A   1      44.905  24.621  25.653  1.00  0.00     0.200 A 
ATOM     90  F   UNL A   1      44.432  22.565  26.702  1.00  0.00    -0.200 F 
ATOM     91  F   UNL A   1      45.282  23.984  24.536  1.00  0.00    -0.200 F 
ENDBRANCH  57  81
BRANCH  69  92
ATOM     92  C   UNL A   1      47.260  29.770  32.059  1.00  0.00     0.064 A 
ATOM     93  C   UNL A   1      46.275  30.736  31.803  1.00  0.00     0.173 A 
ATOM     94  C   UNL A   1      48.595  30.135  31.834  1.00  0.00     0.173 A 
ATOM     95  F   UNL A   1      44.982  30.487  32.052  1.00  0.00    -0.203 F 
ATOM     96  C   UNL A   1      46.615  31.998  31.312  1.00  0.00     0.198 A 
ATOM     97  C   UNL A   1      48.934  31.405  31.376  1.00  0.00     0.198 A 
ATOM     98  F   UNL A   1      49.582  29.258  32.081  1.00  0.00    -0.203 F 
ATOM     99  F   UNL A   1      45.656  32.901  31.058  1.00  0.00    -0.200 F 
ATOM    100  C   UNL A   1      47.944  32.333  31.105  1.00  0.00     0.200 A 
ATOM    101  F   UNL A   1      50.224  31.731  31.209  1.00  0.00    -0.200 F 
ATOM    102  F   UNL A   1      48.272  33.555  30.663  1.00  0.00    -0.200 F 
ENDBRANCH  69  92
ENDBRANCH  43  44
ENDBRANCH  36  38
ENDBRANCH  35  36
ENDBRANCH  34  35
ENDBRANCH  33  34
ENDBRANCH  32  33
ENDBRANCH  31  32
ENDBRANCH   1  31
TORSDOF 19
ENDMDL
MODEL 3
REMARK VINA RESULT:     -11.6      2.586      4.817
REMARK SMILES Cc1ccc2c(c1)c(-c1ccnc3c(C)cccc13)c(C)n2CC(=O)OCCOCCOCCOC(=O)c1ccc(-c2c3nc(c(-c4c(F)c(F)c(F)c(F)c4F)c4ccc([nH]4)c(-c4c(F)c(F)c(F)c(F)c4F)c4nc(c(-c5c(F)c(F)c(F)c(F)c5F)c5ccc2[nH]5)C=C4)C=C3)cc1
REMARK SMILES IDX 30 1 29 2 28 3 27 4 26 5 24 6 25 7 23 8 22 9 1 10 2 11 3 12
REMARK SMILES IDX 7 13 4 14 6 15 5 16 8 17 20 18 21 19 9 20 10 21 19 22 11 23
REMARK SMILES IDX 13 24 18 25 12 26 14 27 17 28 15 29 16 30 31 31 32 32 33 33
REMARK SMILES IDX 34 34 35 35 36 36 37 37 38 38 39 39 100 40 40 41 99 42 41 43
REMARK SMILES IDX 42 44 43 45 93 46 44 47 98 48 92 49 94 50 45 51 97 52 91 53
REMARK SMILES IDX 90 54 46 56 78 57 58 58 77 59 59 60 62 61 76 62 95 63 60 64
REMARK SMILES IDX 61 65 75 67 96 68 63 69 47 70 48 71 56 72 49 73 50 74 54 75
REMARK SMILES IDX 57 76 51 77 52 78 55 79 53 80 79 81 80 82 88 83 81 84 82 85
REMARK SMILES IDX 86 86 89 87 83 88 84 89 87 90 85 91 64 92 65 93 73 94 66 95
REMARK SMILES IDX 67 96 71 97 74 98 68 99 69 100 72 101 70 102
REMARK H PARENT 94 55 62 66
REMARK Flexibility Score: inf
ROOT
ATOM      1  C   UNL A   1      35.941  21.731  24.429  1.00  0.00     0.188 C 
ENDROOT
BRANCH   1   2
ATOM      2  O   UNL A   1      35.510  20.433  24.807  1.00  0.00    -0.376 OA
BRANCH   2   3
ATOM      3  C   UNL A   1      34.151  20.093  24.585  1.00  0.00     0.202 C 
BRANCH   3   4
ATOM      4  C   UNL A   1      33.274  20.132  25.838  1.00  0.00     0.261 C 
BRANCH   4   5
ATOM      5  O   UNL A   1      32.105  20.951  25.616  1.00  0.00    -0.462 OA
BRANCH   5   6
ATOM      6  C   UNL A   1      32.156  22.204  26.136  1.00  0.00     0.326 C 
ATOM      7  O   UNL A   1      33.112  22.637  26.775  1.00  0.00    -0.250 OA
BRANCH   6   8
ATOM      8  C   UNL A   1      31.081  23.115  25.615  1.00  0.00     0.244 C 
BRANCH   8   9
ATOM      9  N   UNL A   1      31.396  24.385  24.980  1.00  0.00    -0.333 N 
ATOM     10  C   UNL A   1      32.870  25.594  19.693  1.00  0.00     0.044 C 
ATOM     11  C   UNL A   1      32.591  25.213  21.116  1.00  0.00    -0.050 A 
ATOM     12  C   UNL A   1      32.555  23.865  21.483  1.00  0.00     0.005 A 
ATOM     13  C   UNL A   1      32.273  26.211  22.054  1.00  0.00     0.014 A 
ATOM     14  C   UNL A   1      32.230  23.477  22.780  1.00  0.00     0.027 A 
ATOM     15  C   UNL A   1      31.875  25.842  23.352  1.00  0.00     0.008 A 
ATOM     16  C   UNL A   1      31.875  24.482  23.688  1.00  0.00     0.049 A 
ATOM     17  C   UNL A   1      31.365  26.554  24.471  1.00  0.00     0.011 A 
ATOM     18  C   UNL A   1      30.818  25.597  25.305  1.00  0.00     0.024 A 
ATOM     19  C   UNL A   1      29.724  25.795  26.279  1.00  0.00     0.065 C 
BRANCH  17  20
ATOM     20  C   UNL A   1      31.090  27.967  24.717  1.00  0.00    -0.005 A 
ATOM     21  C   UNL A   1      31.984  28.709  25.486  1.00  0.00     0.029 A 
ATOM     22  C   UNL A   1      30.051  28.623  24.003  1.00  0.00     0.008 A 
ATOM     23  C   UNL A   1      31.817  30.076  25.516  1.00  0.00     0.112 A 
ATOM     24  C   UNL A   1      29.964  30.030  24.104  1.00  0.00     0.074 A 
ATOM     25  C   UNL A   1      29.135  27.932  23.172  1.00  0.00     0.011 A 
ATOM     26  N   UNL A   1      30.839  30.732  24.855  1.00  0.00    -0.256 NA
ATOM     27  C   UNL A   1      28.959  30.693  23.380  1.00  0.00    -0.025 A 
ATOM     28  C   UNL A   1      28.150  28.602  22.460  1.00  0.00     0.001 A 
ATOM     29  C   UNL A   1      28.803  32.191  23.428  1.00  0.00     0.047 C 
ATOM     30  C   UNL A   1      28.059  29.979  22.567  1.00  0.00     0.005 A 
ENDBRANCH  17  20
ENDBRANCH   8   9
ENDBRANCH   6   8
ENDBRANCH   5   6
ENDBRANCH   4   5
ENDBRANCH   3   4
ENDBRANCH   2   3
ENDBRANCH   1   2
BRANCH   1  31
ATOM     31  C   UNL A   1      37.336  22.229  24.848  1.00  0.00     0.188 C 
BRANCH  31  32
ATOM     32  O   UNL A   1      37.963  21.592  25.947  1.00  0.00    -0.376 OA
BRANCH  32  33
ATOM     33  C   UNL A   1      39.156  22.198  26.437  1.00  0.00     0.202 C 
BRANCH  33  34
ATOM     34  C   UNL A   1      40.362  21.256  26.546  1.00  0.00     0.261 C 
BRANCH  34  35
ATOM     35  O   UNL A   1      41.453  21.962  27.174  1.00  0.00    -0.460 OA
BRANCH  35  36
ATOM     36  C   UNL A   1      42.250  22.675  26.342  1.00  0.00     0.338 C 
ATOM     37  O   UNL A   1      42.695  22.302  25.270  1.00  0.00    -0.246 OA
BRANCH  36  38
ATOM     38  C   UNL A   1      42.200  24.095  26.784  1.00  0.00     0.060 A 
ATOM     39  C   UNL A   1      42.654  24.527  28.037  1.00  0.00     0.016 A 
ATOM     40  C   UNL A   1      41.488  24.979  25.977  1.00  0.00     0.016 A 
ATOM     41  C   UNL A   1      42.254  25.777  28.545  1.00  0.00     0.010 A 
ATOM     42  C   UNL A   1      41.111  26.229  26.477  1.00  0.00     0.010 A 
ATOM     43  C   UNL A   1      41.423  26.614  27.791  1.00  0.00    -0.014 A 
BRANCH  43  44
ATOM     44  C   UNL A   1      41.165  28.010  28.195  1.00  0.00     0.031 A 
ATOM     45  C   UNL A   1      42.211  28.899  27.686  1.00  0.00     0.074 A 
ATOM     46  C   UNL A   1      40.206  28.619  28.932  1.00  0.00     0.049 A 
ATOM     47  N   UNL A   1      43.219  29.269  28.398  1.00  0.00    -0.248 NA
ATOM     48  C   UNL A   1      42.241  29.322  26.286  1.00  0.00     0.031 C 
ATOM     49  C   UNL A   1      39.068  28.012  29.587  1.00  0.00     0.029 A 
ATOM     50  N   UNL A   1      40.021  29.955  29.232  1.00  0.00    -0.354 N 
ATOM     51  C   UNL A   1      43.889  30.173  27.612  1.00  0.00     0.074 A 
ATOM     52  C   UNL A   1      43.384  30.012  26.269  1.00  0.00     0.031 C 
ATOM     53  C   UNL A   1      38.158  28.948  29.952  1.00  0.00     0.029 A 
ATOM     54  C   UNL A   1      38.775  30.254  29.778  1.00  0.00     0.049 A 
ATOM     55  H   UNL A   1      40.712  30.639  29.072  1.00  0.00     0.167 HD
ATOM     56  C   UNL A   1      44.555  31.196  28.201  1.00  0.00     0.037 A 
ATOM     57  C   UNL A   1      38.328  31.412  30.324  1.00  0.00     0.037 A 
ATOM     58  C   UNL A   1      44.662  31.038  29.631  1.00  0.00     0.049 A 
ATOM     59  C   UNL A   1      39.471  32.019  31.035  1.00  0.00     0.074 A 
ATOM     60  C   UNL A   1      45.429  30.303  30.508  1.00  0.00     0.029 A 
ATOM     61  N   UNL A   1      43.582  31.496  30.336  1.00  0.00    -0.354 N 
ATOM     62  N   UNL A   1      40.009  31.507  32.107  1.00  0.00    -0.248 NA
ATOM     63  C   UNL A   1      40.194  33.135  30.436  1.00  0.00     0.031 C 
ATOM     64  C   UNL A   1      44.732  30.280  31.756  1.00  0.00     0.029 A 
ATOM     65  C   UNL A   1      43.551  30.996  31.615  1.00  0.00     0.049 A 
ATOM     66  H   UNL A   1      42.907  32.111  29.970  1.00  0.00     0.167 HD
ATOM     67  C   UNL A   1      41.319  31.918  32.038  1.00  0.00     0.074 A 
ATOM     68  C   UNL A   1      41.330  33.057  31.133  1.00  0.00     0.031 C 
ATOM     69  C   UNL A   1      42.328  31.072  32.383  1.00  0.00     0.037 A 
BRANCH  56  70
ATOM     70  C   UNL A   1      44.713  32.532  27.552  1.00  0.00     0.064 A 
ATOM     71  C   UNL A   1      45.899  32.827  26.868  1.00  0.00     0.173 A 
ATOM     72  C   UNL A   1      43.840  33.614  27.792  1.00  0.00     0.173 A 
ATOM     73  F   UNL A   1      46.818  31.872  26.660  1.00  0.00    -0.203 F 
ATOM     74  C   UNL A   1      46.190  34.124  26.445  1.00  0.00     0.198 A 
ATOM     75  C   UNL A   1      44.101  34.893  27.313  1.00  0.00     0.198 A 
ATOM     76  F   UNL A   1      42.769  33.492  28.589  1.00  0.00    -0.203 F 
ATOM     77  F   UNL A   1      47.373  34.387  25.874  1.00  0.00    -0.200 F 
ATOM     78  C   UNL A   1      45.285  35.151  26.654  1.00  0.00     0.200 A 
ATOM     79  F   UNL A   1      43.228  35.880  27.556  1.00  0.00    -0.200 F 
ATOM     80  F   UNL A   1      45.574  36.400  26.267  1.00  0.00    -0.200 F 
ENDBRANCH  56  70
BRANCH  57  81
ATOM     81  C   UNL A   1      36.972  32.013  30.383  1.00  0.00     0.064 A 
ATOM     82  C   UNL A   1      36.158  31.886  31.525  1.00  0.00     0.173 A 
ATOM     83  C   UNL A   1      36.585  32.990  29.448  1.00  0.00     0.173 A 
ATOM     84  F   UNL A   1      36.461  30.997  32.481  1.00  0.00    -0.203 F 
ATOM     85  C   UNL A   1      35.062  32.725  31.748  1.00  0.00     0.198 A 
ATOM     86  C   UNL A   1      35.487  33.827  29.672  1.00  0.00     0.198 A 
ATOM     87  F   UNL A   1      37.326  33.211  28.352  1.00  0.00    -0.203 F 
ATOM     88  F   UNL A   1      34.364  32.623  32.888  1.00  0.00    -0.200 F 
ATOM     89  C   UNL A   1      34.739  33.708  30.831  1.00  0.00     0.200 A 
ATOM     90  F   UNL A   1      35.199  34.798  28.793  1.00  0.00    -0.200 F 
ATOM     91  F   UNL A   1      33.740  34.566  31.083  1.00  0.00    -0.200 F 
ENDBRANCH  57  81
BRANCH  69  92
ATOM     92  C   UNL A   1      42.065  30.080  33.472  1.00  0.00     0.064 A 
ATOM     93  C   UNL A   1      41.612  28.767  33.271  1.00  0.00     0.173 A 
ATOM     94  C   UNL A   1      42.319  30.480  34.792  1.00  0.00     0.173 A 
ATOM     95  F   UNL A   1      41.406  28.287  32.037  1.00  0.00    -0.203 F 
ATOM     96  C   UNL A   1      41.393  27.908  34.351  1.00  0.00     0.198 A 
ATOM     97  C   UNL A   1      42.132  29.612  35.863  1.00  0.00     0.198 A 
ATOM     98  F   UNL A   1      42.774  31.719  35.042  1.00  0.00    -0.203 F 
ATOM     99  F   UNL A   1      40.943  26.663  34.139  1.00  0.00    -0.200 F 
ATOM    100  C   UNL A   1      41.659  28.330  35.644  1.00  0.00     0.200 A 
ATOM    101  F   UNL A   1      42.422  30.017  37.107  1.00  0.00    -0.200 F 
ATOM    102  F   UNL A   1      41.479  27.495  36.677  1.00  0.00    -0.200 F 
ENDBRANCH  69  92
ENDBRANCH  43  44
ENDBRANCH  36  38
ENDBRANCH  35  36
ENDBRANCH  34  35
ENDBRANCH  33  34
ENDBRANCH  32  33
ENDBRANCH  31  32
ENDBRANCH   1  31
TORSDOF 19
ENDMDL
