MODEL 1
REMARK VINA RESULT:     -10.7      0.000      0.000
REMARK SMILES O=C(OCCOCCOCCOC(=O)c1cc(OC[C@@H]2Cc3cc(F)ccc3O2)cs1)c1ccc(-c2c3nc(c(-c4c(F)c(F)c(F)c(F)c4F)c4ccc([nH]4)c(-c4c(F)c(F)c(F)c(F)c4F)c4nc(c(-c5c(F)c(F)c(F)c(F)c5F)c5ccc2[nH]5)C=C4)C=C3)cc1
REMARK SMILES IDX 8 1 7 2 6 3 5 4 4 5 3 6 2 7 1 8 32 9 33 10 94 11 34 12 93 13
REMARK SMILES IDX 35 14 36 15 37 16 87 17 38 18 92 19 86 20 88 21 39 22 91 23
REMARK SMILES IDX 85 24 84 25 40 27 72 28 52 29 71 30 53 31 56 32 70 33 89 34
REMARK SMILES IDX 54 35 55 36 69 38 90 39 57 40 41 41 42 42 50 43 43 44 44 45
REMARK SMILES IDX 48 46 51 47 45 48 46 49 49 50 47 51 73 52 74 53 82 54 75 55
REMARK SMILES IDX 76 56 80 57 83 58 77 59 78 60 81 61 79 62 58 63 59 64 67 65
REMARK SMILES IDX 60 66 61 67 65 68 68 69 62 70 63 71 66 72 64 73 9 74 10 75
REMARK SMILES IDX 11 76 12 77 13 78 14 79 15 80 16 81 31 82 17 83 30 84 18 85
REMARK SMILES IDX 19 86 20 87 21 88 29 89 22 90 28 91 23 92 27 93 24 94 26 95
REMARK SMILES IDX 25 96
REMARK H PARENT 88 26 56 37
REMARK Flexibility Score: inf
ROOT
ATOM      1  C   UNL A   1      42.346  18.854  26.004  1.00  0.00     0.188 C 
ENDROOT
BRANCH   1   2
ATOM      2  C   UNL A   1      43.810  19.047  25.618  1.00  0.00     0.188 C 
BRANCH   2   3
ATOM      3  O   UNL A   1      43.930  19.520  24.266  1.00  0.00    -0.376 OA
BRANCH   3   4
ATOM      4  C   UNL A   1      44.829  20.623  24.150  1.00  0.00     0.202 C 
BRANCH   4   5
ATOM      5  C   UNL A   1      44.756  21.620  25.312  1.00  0.00     0.261 C 
BRANCH   5   6
ATOM      6  O   UNL A   1      43.962  22.786  25.037  1.00  0.00    -0.460 OA
BRANCH   6   7
ATOM      7  C   UNL A   1      44.236  24.101  25.202  1.00  0.00     0.338 C 
ATOM      8  O   UNL A   1      45.072  24.600  24.447  1.00  0.00    -0.246 OA
BRANCH   7   9
ATOM      9  C   UNL A   1      43.600  25.015  26.216  1.00  0.00     0.060 A 
ATOM     10  C   UNL A   1      42.639  24.431  27.072  1.00  0.00     0.016 A 
ATOM     11  C   UNL A   1      43.876  26.368  26.410  1.00  0.00     0.016 A 
ATOM     12  C   UNL A   1      42.014  25.155  28.098  1.00  0.00     0.010 A 
ATOM     13  C   UNL A   1      43.271  27.091  27.444  1.00  0.00     0.010 A 
ATOM     14  C   UNL A   1      42.341  26.494  28.299  1.00  0.00    -0.014 A 
BRANCH  14  15
ATOM     15  C   UNL A   1      41.849  27.267  29.461  1.00  0.00     0.031 A 
ATOM     16  C   UNL A   1      40.597  28.083  29.395  1.00  0.00     0.074 A 
ATOM     17  C   UNL A   1      42.610  27.287  30.569  1.00  0.00     0.049 A 
ATOM     18  N   UNL A   1      40.138  28.961  30.254  1.00  0.00    -0.248 NA
ATOM     19  C   UNL A   1      39.757  27.898  28.209  1.00  0.00     0.031 C 
ATOM     20  C   UNL A   1      43.835  26.512  30.758  1.00  0.00     0.029 A 
ATOM     21  N   UNL A   1      42.462  27.981  31.741  1.00  0.00    -0.354 N 
ATOM     22  C   UNL A   1      38.989  29.487  29.677  1.00  0.00     0.074 A 
ATOM     23  C   UNL A   1      38.786  28.773  28.440  1.00  0.00     0.031 C 
ATOM     24  C   UNL A   1      44.314  26.750  31.987  1.00  0.00     0.029 A 
ATOM     25  C   UNL A   1      43.441  27.709  32.661  1.00  0.00     0.049 A 
ATOM     26  H   UNL A   1      41.726  28.613  31.906  1.00  0.00     0.167 HD
ATOM     27  C   UNL A   1      38.210  30.501  30.127  1.00  0.00     0.037 A 
ATOM     28  C   UNL A   1      43.601  28.165  33.916  1.00  0.00     0.037 A 
ATOM     29  C   UNL A   1      38.398  31.152  31.401  1.00  0.00     0.049 A 
ATOM     30  C   UNL A   1      42.610  29.140  34.480  1.00  0.00     0.074 A 
ATOM     31  C   UNL A   1      37.695  32.213  31.948  1.00  0.00     0.029 A 
ATOM     32  N   UNL A   1      39.336  30.765  32.343  1.00  0.00    -0.354 N 
ATOM     33  N   UNL A   1      41.600  29.721  33.881  1.00  0.00    -0.248 NA
ATOM     34  C   UNL A   1      42.766  29.512  35.893  1.00  0.00     0.031 C 
ATOM     35  C   UNL A   1      38.217  32.477  33.216  1.00  0.00     0.029 A 
ATOM     36  C   UNL A   1      39.198  31.538  33.481  1.00  0.00     0.049 A 
ATOM     37  H   UNL A   1      40.000  30.048  32.221  1.00  0.00     0.167 HD
ATOM     38  C   UNL A   1      40.994  30.515  34.842  1.00  0.00     0.074 A 
ATOM     39  C   UNL A   1      41.734  30.329  36.070  1.00  0.00     0.031 C 
ATOM     40  C   UNL A   1      39.924  31.332  34.705  1.00  0.00     0.037 A 
BRANCH  27  41
ATOM     41  C   UNL A   1      37.107  31.031  29.254  1.00  0.00     0.064 A 
ATOM     42  C   UNL A   1      35.936  30.308  28.993  1.00  0.00     0.173 A 
ATOM     43  C   UNL A   1      37.176  32.353  28.779  1.00  0.00     0.173 A 
ATOM     44  F   UNL A   1      35.814  29.042  29.417  1.00  0.00    -0.203 F 
ATOM     45  C   UNL A   1      34.878  30.886  28.289  1.00  0.00     0.198 A 
ATOM     46  C   UNL A   1      36.103  32.940  28.115  1.00  0.00     0.198 A 
ATOM     47  F   UNL A   1      38.277  33.093  28.981  1.00  0.00    -0.203 F 
ATOM     48  F   UNL A   1      33.780  30.166  28.021  1.00  0.00    -0.200 F 
ATOM     49  C   UNL A   1      34.956  32.204  27.867  1.00  0.00     0.200 A 
ATOM     50  F   UNL A   1      36.196  34.206  27.683  1.00  0.00    -0.200 F 
ATOM     51  F   UNL A   1      33.940  32.760  27.192  1.00  0.00    -0.200 F 
ENDBRANCH  27  41
BRANCH  28  52
ATOM     52  C   UNL A   1      44.684  27.588  34.744  1.00  0.00     0.064 A 
ATOM     53  C   UNL A   1      44.466  26.387  35.432  1.00  0.00     0.173 A 
ATOM     54  C   UNL A   1      45.969  28.145  34.779  1.00  0.00     0.173 A 
ATOM     55  F   UNL A   1      43.248  25.825  35.427  1.00  0.00    -0.203 F 
ATOM     56  C   UNL A   1      45.497  25.758  36.123  1.00  0.00     0.198 A 
ATOM     57  C   UNL A   1      47.005  27.505  35.455  1.00  0.00     0.198 A 
ATOM     58  F   UNL A   1      46.226  29.282  34.117  1.00  0.00    -0.203 F 
ATOM     59  F   UNL A   1      45.262  24.612  36.775  1.00  0.00    -0.200 F 
ATOM     60  C   UNL A   1      46.768  26.312  36.124  1.00  0.00     0.200 A 
ATOM     61  F   UNL A   1      48.238  28.029  35.439  1.00  0.00    -0.200 F 
ATOM     62  F   UNL A   1      47.769  25.692  36.766  1.00  0.00    -0.200 F 
ENDBRANCH  28  52
BRANCH  40  63
ATOM     63  C   UNL A   1      39.445  32.083  35.907  1.00  0.00     0.064 A 
ATOM     64  C   UNL A   1      39.873  33.392  36.167  1.00  0.00     0.173 A 
ATOM     65  C   UNL A   1      38.455  31.532  36.732  1.00  0.00     0.173 A 
ATOM     66  F   UNL A   1      40.814  33.961  35.398  1.00  0.00    -0.203 F 
ATOM     67  C   UNL A   1      39.330  34.120  37.222  1.00  0.00     0.198 A 
ATOM     68  C   UNL A   1      37.901  32.270  37.774  1.00  0.00     0.198 A 
ATOM     69  F   UNL A   1      38.004  30.288  36.509  1.00  0.00    -0.203 F 
ATOM     70  F   UNL A   1      39.760  35.367  37.463  1.00  0.00    -0.200 F 
ATOM     71  C   UNL A   1      38.340  33.562  38.017  1.00  0.00     0.200 A 
ATOM     72  F   UNL A   1      36.933  31.736  38.532  1.00  0.00    -0.200 F 
ATOM     73  F   UNL A   1      37.805  34.274  39.019  1.00  0.00    -0.200 F 
ENDBRANCH  40  63
ENDBRANCH  14  15
ENDBRANCH   7   9
ENDBRANCH   6   7
ENDBRANCH   5   6
ENDBRANCH   4   5
ENDBRANCH   3   4
ENDBRANCH   2   3
ENDBRANCH   1   2
BRANCH   1  74
ATOM     74  O   UNL A   1      41.771  19.967  26.690  1.00  0.00    -0.376 OA
BRANCH  74  75
ATOM     75  C   UNL A   1      40.395  20.237  26.433  1.00  0.00     0.202 C 
BRANCH  75  76
ATOM     76  C   UNL A   1      39.985  21.700  26.623  1.00  0.00     0.261 C 
BRANCH  76  77
ATOM     77  O   UNL A   1      38.897  22.086  25.773  1.00  0.00    -0.459 OA
BRANCH  77  78
ATOM     78  C   UNL A   1      38.266  23.259  26.060  1.00  0.00     0.348 C 
ATOM     79  O   UNL A   1      38.722  24.165  26.753  1.00  0.00    -0.245 OA
BRANCH  78  80
ATOM     80  C   UNL A   1      36.975  23.237  25.434  1.00  0.00     0.116 A 
ATOM     81  C   UNL A   1      36.728  23.374  24.087  1.00  0.00     0.074 A 
ATOM     82  S   UNL A   1      35.541  23.043  26.329  1.00  0.00    -0.133 S 
ATOM     83  C   UNL A   1      35.348  23.363  23.780  1.00  0.00     0.131 A 
ATOM     84  C   UNL A   1      34.581  23.188  24.912  1.00  0.00     0.112 A 
BRANCH  83  85
ATOM     85  O   UNL A   1      34.755  23.507  22.571  1.00  0.00    -0.489 OA
BRANCH  85  86
ATOM     86  C   UNL A   1      33.329  23.560  22.585  1.00  0.00     0.275 C 
BRANCH  86  87
ATOM     87  C   UNL A   1      32.704  24.909  22.164  1.00  0.00     0.215 C 
ATOM     88  C   UNL A   1      33.696  26.085  22.201  1.00  0.00     0.088 C 
ATOM     89  O   UNL A   1      31.515  25.244  22.921  1.00  0.00    -0.486 OA
ATOM     90  C   UNL A   1      33.058  26.936  23.226  1.00  0.00     0.001 A 
ATOM     91  C   UNL A   1      31.804  26.436  23.530  1.00  0.00     0.123 A 
ATOM     92  C   UNL A   1      33.518  28.112  23.795  1.00  0.00     0.047 A 
ATOM     93  C   UNL A   1      30.937  27.116  24.362  1.00  0.00     0.050 A 
ATOM     94  C   UNL A   1      32.664  28.789  24.660  1.00  0.00     0.123 A 
ATOM     95  C   UNL A   1      31.376  28.316  24.930  1.00  0.00     0.043 A 
ATOM     96  F   UNL A   1      33.074  29.930  25.230  1.00  0.00    -0.207 F 
ENDBRANCH  86  87
ENDBRANCH  85  86
ENDBRANCH  83  85
ENDBRANCH  78  80
ENDBRANCH  77  78
ENDBRANCH  76  77
ENDBRANCH  75  76
ENDBRANCH  74  75
ENDBRANCH   1  74
TORSDOF 20
ENDMDL
MODEL 2
REMARK VINA RESULT:     -10.7      4.725      9.372
REMARK SMILES O=C(OCCOCCOCCOC(=O)c1cc(OC[C@@H]2Cc3cc(F)ccc3O2)cs1)c1ccc(-c2c3nc(c(-c4c(F)c(F)c(F)c(F)c4F)c4ccc([nH]4)c(-c4c(F)c(F)c(F)c(F)c4F)c4nc(c(-c5c(F)c(F)c(F)c(F)c5F)c5ccc2[nH]5)C=C4)C=C3)cc1
REMARK SMILES IDX 8 1 7 2 6 3 5 4 4 5 3 6 2 7 1 8 32 9 33 10 94 11 34 12 93 13
REMARK SMILES IDX 35 14 36 15 37 16 87 17 38 18 92 19 86 20 88 21 39 22 91 23
REMARK SMILES IDX 85 24 84 25 40 27 72 28 52 29 71 30 53 31 56 32 70 33 89 34
REMARK SMILES IDX 54 35 55 36 69 38 90 39 57 40 41 41 42 42 50 43 43 44 44 45
REMARK SMILES IDX 48 46 51 47 45 48 46 49 49 50 47 51 73 52 74 53 82 54 75 55
REMARK SMILES IDX 76 56 80 57 83 58 77 59 78 60 81 61 79 62 58 63 59 64 67 65
REMARK SMILES IDX 60 66 61 67 65 68 68 69 62 70 63 71 66 72 64 73 9 74 10 75
REMARK SMILES IDX 11 76 12 77 13 78 14 79 15 80 16 81 31 82 17 83 30 84 18 85
REMARK SMILES IDX 19 86 20 87 21 88 29 89 22 90 28 91 23 92 27 93 24 94 26 95
REMARK SMILES IDX 25 96
REMARK H PARENT 88 26 56 37
REMARK Flexibility Score: inf
ROOT
ATOM      1  C   UNL A   1      35.968  23.014  24.773  1.00  0.00     0.188 C 
ENDROOT
BRANCH   1   2
ATOM      2  C   UNL A   1      37.072  22.106  24.238  1.00  0.00     0.188 C 
BRANCH   2   3
ATOM      3  O   UNL A   1      37.371  21.052  25.168  1.00  0.00    -0.376 OA
BRANCH   3   4
ATOM      4  C   UNL A   1      38.773  20.886  25.376  1.00  0.00     0.202 C 
BRANCH   4   5
ATOM      5  C   UNL A   1      39.164  19.536  25.987  1.00  0.00     0.261 C 
BRANCH   5   6
ATOM      6  O   UNL A   1      40.421  19.021  25.519  1.00  0.00    -0.460 OA
BRANCH   6   7
ATOM      7  C   UNL A   1      41.683  19.235  25.958  1.00  0.00     0.338 C 
ATOM      8  O   UNL A   1      42.403  18.244  26.105  1.00  0.00    -0.246 OA
BRANCH   7   9
ATOM      9  C   UNL A   1      42.295  20.575  26.271  1.00  0.00     0.060 A 
ATOM     10  C   UNL A   1      42.719  21.344  25.163  1.00  0.00     0.016 A 
ATOM     11  C   UNL A   1      42.466  21.141  27.534  1.00  0.00     0.016 A 
ATOM     12  C   UNL A   1      43.251  22.634  25.310  1.00  0.00     0.010 A 
ATOM     13  C   UNL A   1      42.977  22.435  27.685  1.00  0.00     0.010 A 
ATOM     14  C   UNL A   1      43.370  23.194  26.579  1.00  0.00    -0.014 A 
BRANCH  14  15
ATOM     15  C   UNL A   1      43.763  24.605  26.793  1.00  0.00     0.031 A 
ATOM     16  C   UNL A   1      45.126  25.108  26.440  1.00  0.00     0.074 A 
ATOM     17  C   UNL A   1      42.880  25.418  27.400  1.00  0.00     0.049 A 
ATOM     18  N   UNL A   1      45.685  26.256  26.738  1.00  0.00    -0.248 NA
ATOM     19  C   UNL A   1      45.976  24.204  25.660  1.00  0.00     0.031 C 
ATOM     20  C   UNL A   1      41.515  25.045  27.766  1.00  0.00     0.029 A 
ATOM     21  N   UNL A   1      43.000  26.719  27.810  1.00  0.00    -0.354 N 
ATOM     22  C   UNL A   1      46.981  26.184  26.243  1.00  0.00     0.074 A 
ATOM     23  C   UNL A   1      47.091  24.918  25.561  1.00  0.00     0.031 C 
ATOM     24  C   UNL A   1      40.910  26.106  28.321  1.00  0.00     0.029 A 
ATOM     25  C   UNL A   1      41.853  27.221  28.368  1.00  0.00     0.049 A 
ATOM     26  H   UNL A   1      43.828  27.242  27.714  1.00  0.00     0.167 HD
ATOM     27  C   UNL A   1      47.988  27.080  26.387  1.00  0.00     0.037 A 
ATOM     28  C   UNL A   1      41.587  28.452  28.842  1.00  0.00     0.037 A 
ATOM     29  C   UNL A   1      47.830  28.369  27.015  1.00  0.00     0.049 A 
ATOM     30  C   UNL A   1      42.657  29.503  28.809  1.00  0.00     0.074 A 
ATOM     31  C   UNL A   1      48.785  29.345  27.251  1.00  0.00     0.029 A 
ATOM     32  N   UNL A   1      46.622  28.874  27.466  1.00  0.00    -0.354 N 
ATOM     33  N   UNL A   1      43.911  29.384  28.452  1.00  0.00    -0.248 NA
ATOM     34  C   UNL A   1      42.276  30.859  29.228  1.00  0.00     0.031 C 
ATOM     35  C   UNL A   1      48.157  30.435  27.857  1.00  0.00     0.029 A 
ATOM     36  C   UNL A   1      46.803  30.162  27.936  1.00  0.00     0.049 A 
ATOM     37  H   UNL A   1      45.765  28.390  27.453  1.00  0.00     0.167 HD
ATOM     38  C   UNL A   1      44.466  30.647  28.589  1.00  0.00     0.074 A 
ATOM     39  C   UNL A   1      43.410  31.524  29.044  1.00  0.00     0.031 C 
ATOM     40  C   UNL A   1      45.744  31.033  28.366  1.00  0.00     0.037 A 
BRANCH  27  41
ATOM     41  C   UNL A   1      49.370  26.722  25.917  1.00  0.00     0.064 A 
ATOM     42  C   UNL A   1      49.855  27.079  24.652  1.00  0.00     0.173 A 
ATOM     43  C   UNL A   1      50.271  26.121  26.815  1.00  0.00     0.173 A 
ATOM     44  F   UNL A   1      49.042  27.652  23.753  1.00  0.00    -0.203 F 
ATOM     45  C   UNL A   1      51.186  26.847  24.303  1.00  0.00     0.198 A 
ATOM     46  C   UNL A   1      51.608  25.930  26.478  1.00  0.00     0.198 A 
ATOM     47  F   UNL A   1      49.865  25.740  28.035  1.00  0.00    -0.203 F 
ATOM     48  F   UNL A   1      51.622  27.166  23.076  1.00  0.00    -0.200 F 
ATOM     49  C   UNL A   1      52.064  26.291  25.221  1.00  0.00     0.200 A 
ATOM     50  F   UNL A   1      52.445  25.364  27.359  1.00  0.00    -0.200 F 
ATOM     51  F   UNL A   1      53.343  26.069  24.886  1.00  0.00    -0.200 F 
ENDBRANCH  27  41
BRANCH  28  52
ATOM     52  C   UNL A   1      40.202  28.761  29.263  1.00  0.00     0.064 A 
ATOM     53  C   UNL A   1      39.283  29.245  28.323  1.00  0.00     0.173 A 
ATOM     54  C   UNL A   1      39.739  28.482  30.555  1.00  0.00     0.173 A 
ATOM     55  F   UNL A   1      39.688  29.530  27.077  1.00  0.00    -0.203 F 
ATOM     56  C   UNL A   1      37.946  29.435  28.658  1.00  0.00     0.198 A 
ATOM     57  C   UNL A   1      38.397  28.654  30.884  1.00  0.00     0.198 A 
ATOM     58  F   UNL A   1      40.581  27.997  31.480  1.00  0.00    -0.203 F 
ATOM     59  F   UNL A   1      37.088  29.902  27.742  1.00  0.00    -0.200 F 
ATOM     60  C   UNL A   1      37.502  29.128  29.936  1.00  0.00     0.200 A 
ATOM     61  F   UNL A   1      37.964  28.337  32.112  1.00  0.00    -0.200 F 
ATOM     62  F   UNL A   1      36.209  29.284  30.251  1.00  0.00    -0.200 F 
ENDBRANCH  28  52
BRANCH  40  63
ATOM     63  C   UNL A   1      46.098  32.472  28.576  1.00  0.00     0.064 A 
ATOM     64  C   UNL A   1      45.994  33.407  27.539  1.00  0.00     0.173 A 
ATOM     65  C   UNL A   1      46.424  32.936  29.859  1.00  0.00     0.173 A 
ATOM     66  F   UNL A   1      45.678  33.008  26.297  1.00  0.00    -0.203 F 
ATOM     67  C   UNL A   1      46.213  34.761  27.778  1.00  0.00     0.198 A 
ATOM     68  C   UNL A   1      46.623  34.292  30.098  1.00  0.00     0.198 A 
ATOM     69  F   UNL A   1      46.518  32.077  30.885  1.00  0.00    -0.203 F 
ATOM     70  F   UNL A   1      46.118  35.640  26.770  1.00  0.00    -0.200 F 
ATOM     71  C   UNL A   1      46.517  35.202  29.057  1.00  0.00     0.200 A 
ATOM     72  F   UNL A   1      46.902  34.720  31.337  1.00  0.00    -0.200 F 
ATOM     73  F   UNL A   1      46.707  36.509  29.288  1.00  0.00    -0.200 F 
ENDBRANCH  40  63
ENDBRANCH  14  15
ENDBRANCH   7   9
ENDBRANCH   6   7
ENDBRANCH   5   6
ENDBRANCH   4   5
ENDBRANCH   3   4
ENDBRANCH   2   3
ENDBRANCH   1   2
BRANCH   1  74
ATOM     74  O   UNL A   1      34.649  22.602  24.416  1.00  0.00    -0.376 OA
BRANCH  74  75
ATOM     75  C   UNL A   1      33.884  21.951  25.427  1.00  0.00     0.202 C 
BRANCH  75  76
ATOM     76  C   UNL A   1      33.726  22.750  26.723  1.00  0.00     0.261 C 
BRANCH  76  77
ATOM     77  O   UNL A   1      32.999  23.971  26.537  1.00  0.00    -0.459 OA
BRANCH  77  78
ATOM     78  C   UNL A   1      31.641  23.912  26.634  1.00  0.00     0.348 C 
ATOM     79  O   UNL A   1      31.013  23.386  27.550  1.00  0.00    -0.245 OA
BRANCH  78  80
ATOM     80  C   UNL A   1      31.082  24.545  25.475  1.00  0.00     0.116 A 
ATOM     81  C   UNL A   1      30.544  25.812  25.426  1.00  0.00     0.074 A 
ATOM     82  S   UNL A   1      31.006  23.763  23.966  1.00  0.00    -0.133 S 
ATOM     83  C   UNL A   1      30.024  26.137  24.153  1.00  0.00     0.131 A 
ATOM     84  C   UNL A   1      30.209  25.108  23.255  1.00  0.00     0.112 A 
BRANCH  83  85
ATOM     85  O   UNL A   1      29.399  27.275  23.766  1.00  0.00    -0.489 OA
BRANCH  85  86
ATOM     86  C   UNL A   1      30.003  27.969  22.674  1.00  0.00     0.275 C 
BRANCH  86  87
ATOM     87  C   UNL A   1      31.045  29.044  23.059  1.00  0.00     0.215 C 
ATOM     88  C   UNL A   1      32.455  28.477  23.300  1.00  0.00     0.088 C 
ATOM     89  O   UNL A   1      30.638  29.849  24.193  1.00  0.00    -0.486 OA
ATOM     90  C   UNL A   1      32.641  28.826  24.722  1.00  0.00     0.001 A 
ATOM     91  C   UNL A   1      31.613  29.657  25.134  1.00  0.00     0.123 A 
ATOM     92  C   UNL A   1      33.681  28.499  25.574  1.00  0.00     0.047 A 
ATOM     93  C   UNL A   1      31.613  30.242  26.385  1.00  0.00     0.050 A 
ATOM     94  C   UNL A   1      33.675  29.056  26.848  1.00  0.00     0.123 A 
ATOM     95  C   UNL A   1      32.667  29.938  27.252  1.00  0.00     0.043 A 
ATOM     96  F   UNL A   1      34.666  28.762  27.701  1.00  0.00    -0.207 F 
ENDBRANCH  86  87
ENDBRANCH  85  86
ENDBRANCH  83  85
ENDBRANCH  78  80
ENDBRANCH  77  78
ENDBRANCH  76  77
ENDBRANCH  75  76
ENDBRANCH  74  75
ENDBRANCH   1  74
TORSDOF 20
ENDMDL
MODEL 3
REMARK VINA RESULT:     -10.6      4.865      7.783
REMARK SMILES O=C(OCCOCCOCCOC(=O)c1cc(OC[C@@H]2Cc3cc(F)ccc3O2)cs1)c1ccc(-c2c3nc(c(-c4c(F)c(F)c(F)c(F)c4F)c4ccc([nH]4)c(-c4c(F)c(F)c(F)c(F)c4F)c4nc(c(-c5c(F)c(F)c(F)c(F)c5F)c5ccc2[nH]5)C=C4)C=C3)cc1
REMARK SMILES IDX 8 1 7 2 6 3 5 4 4 5 3 6 2 7 1 8 32 9 33 10 94 11 34 12 93 13
REMARK SMILES IDX 35 14 36 15 37 16 87 17 38 18 92 19 86 20 88 21 39 22 91 23
REMARK SMILES IDX 85 24 84 25 40 27 72 28 52 29 71 30 53 31 56 32 70 33 89 34
REMARK SMILES IDX 54 35 55 36 69 38 90 39 57 40 41 41 42 42 50 43 43 44 44 45
REMARK SMILES IDX 48 46 51 47 45 48 46 49 49 50 47 51 73 52 74 53 82 54 75 55
REMARK SMILES IDX 76 56 80 57 83 58 77 59 78 60 81 61 79 62 58 63 59 64 67 65
REMARK SMILES IDX 60 66 61 67 65 68 68 69 62 70 63 71 66 72 64 73 9 74 10 75
REMARK SMILES IDX 11 76 12 77 13 78 14 79 15 80 16 81 31 82 17 83 30 84 18 85
REMARK SMILES IDX 19 86 20 87 21 88 29 89 22 90 28 91 23 92 27 93 24 94 26 95
REMARK SMILES IDX 25 96
REMARK H PARENT 88 26 56 37
REMARK Flexibility Score: inf
ROOT
ATOM      1  C   UNL A   1      36.177  23.569  25.417  1.00  0.00     0.188 C 
ENDROOT
BRANCH   1   2
ATOM      2  C   UNL A   1      36.421  22.491  24.365  1.00  0.00     0.188 C 
BRANCH   2   3
ATOM      3  O   UNL A   1      36.759  21.236  24.979  1.00  0.00    -0.376 OA
BRANCH   3   4
ATOM      4  C   UNL A   1      38.088  21.220  25.499  1.00  0.00     0.202 C 
BRANCH   4   5
ATOM      5  C   UNL A   1      38.901  19.980  25.110  1.00  0.00     0.261 C 
BRANCH   5   6
ATOM      6  O   UNL A   1      39.866  19.578  26.096  1.00  0.00    -0.460 OA
BRANCH   6   7
ATOM      7  C   UNL A   1      41.213  19.708  26.119  1.00  0.00     0.338 C 
ATOM      8  O   UNL A   1      41.879  18.718  25.808  1.00  0.00    -0.246 OA
BRANCH   7   9
ATOM      9  C   UNL A   1      41.974  20.958  26.474  1.00  0.00     0.060 A 
ATOM     10  C   UNL A   1      42.197  21.877  25.423  1.00  0.00     0.016 A 
ATOM     11  C   UNL A   1      42.461  21.310  27.733  1.00  0.00     0.016 A 
ATOM     12  C   UNL A   1      42.840  23.107  25.630  1.00  0.00     0.010 A 
ATOM     13  C   UNL A   1      43.086  22.543  27.949  1.00  0.00     0.010 A 
ATOM     14  C   UNL A   1      43.277  23.454  26.906  1.00  0.00    -0.014 A 
BRANCH  14  15
ATOM     15  C   UNL A   1      43.809  24.797  27.227  1.00  0.00     0.031 A 
ATOM     16  C   UNL A   1      42.963  25.849  27.871  1.00  0.00     0.074 A 
ATOM     17  C   UNL A   1      45.066  25.083  26.845  1.00  0.00     0.049 A 
ATOM     18  N   UNL A   1      43.218  27.123  28.041  1.00  0.00    -0.248 NA
ATOM     19  C   UNL A   1      41.658  25.419  28.381  1.00  0.00     0.031 C 
ATOM     20  C   UNL A   1      45.991  24.131  26.233  1.00  0.00     0.029 A 
ATOM     21  N   UNL A   1      45.777  26.251  26.917  1.00  0.00    -0.354 N 
ATOM     22  C   UNL A   1      42.075  27.664  28.615  1.00  0.00     0.074 A 
ATOM     23  C   UNL A   1      41.165  26.565  28.833  1.00  0.00     0.031 C 
ATOM     24  C   UNL A   1      47.163  24.745  26.012  1.00  0.00     0.029 A 
ATOM     25  C   UNL A   1      47.060  26.136  26.446  1.00  0.00     0.049 A 
ATOM     26  H   UNL A   1      45.405  27.090  27.271  1.00  0.00     0.167 HD
ATOM     27  C   UNL A   1      41.804  28.964  28.890  1.00  0.00     0.037 A 
ATOM     28  C   UNL A   1      48.048  27.048  26.394  1.00  0.00     0.037 A 
ATOM     29  C   UNL A   1      42.758  30.033  28.725  1.00  0.00     0.049 A 
ATOM     30  C   UNL A   1      47.796  28.439  26.894  1.00  0.00     0.074 A 
ATOM     31  C   UNL A   1      42.588  31.391  28.936  1.00  0.00     0.029 A 
ATOM     32  N   UNL A   1      44.079  29.849  28.349  1.00  0.00    -0.354 N 
ATOM     33  N   UNL A   1      46.675  28.967  27.319  1.00  0.00    -0.248 NA
ATOM     34  C   UNL A   1      48.943  29.358  26.924  1.00  0.00     0.031 C 
ATOM     35  C   UNL A   1      43.802  32.031  28.675  1.00  0.00     0.029 A 
ATOM     36  C   UNL A   1      44.741  31.063  28.367  1.00  0.00     0.049 A 
ATOM     37  H   UNL A   1      44.484  28.985  28.107  1.00  0.00     0.167 HD
ATOM     38  C   UNL A   1      46.981  30.271  27.677  1.00  0.00     0.074 A 
ATOM     39  C   UNL A   1      48.396  30.452  27.441  1.00  0.00     0.031 C 
ATOM     40  C   UNL A   1      46.152  31.230  28.151  1.00  0.00     0.037 A 
BRANCH  27  41
ATOM     41  C   UNL A   1      40.427  29.352  29.352  1.00  0.00     0.064 A 
ATOM     42  C   UNL A   1      40.115  29.570  30.699  1.00  0.00     0.173 A 
ATOM     43  C   UNL A   1      39.435  29.640  28.398  1.00  0.00     0.173 A 
ATOM     44  F   UNL A   1      41.021  29.311  31.654  1.00  0.00    -0.203 F 
ATOM     45  C   UNL A   1      38.863  30.059  31.076  1.00  0.00     0.198 A 
ATOM     46  C   UNL A   1      38.203  30.167  28.773  1.00  0.00     0.198 A 
ATOM     47  F   UNL A   1      39.664  29.436  27.091  1.00  0.00    -0.203 F 
ATOM     48  F   UNL A   1      38.573  30.230  32.373  1.00  0.00    -0.200 F 
ATOM     49  C   UNL A   1      37.917  30.373  30.113  1.00  0.00     0.200 A 
ATOM     50  F   UNL A   1      37.280  30.440  27.840  1.00  0.00    -0.200 F 
ATOM     51  F   UNL A   1      36.714  30.844  30.474  1.00  0.00    -0.200 F 
ENDBRANCH  27  41
BRANCH  28  52
ATOM     52  C   UNL A   1      49.393  26.605  25.961  1.00  0.00     0.064 A 
ATOM     53  C   UNL A   1      49.819  26.861  24.651  1.00  0.00     0.173 A 
ATOM     54  C   UNL A   1      50.308  26.033  26.854  1.00  0.00     0.173 A 
ATOM     55  F   UNL A   1      48.970  27.403  23.766  1.00  0.00    -0.203 F 
ATOM     56  C   UNL A   1      51.117  26.564  24.249  1.00  0.00     0.198 A 
ATOM     57  C   UNL A   1      51.613  25.754  26.455  1.00  0.00     0.198 A 
ATOM     58  F   UNL A   1      49.948  25.792  28.123  1.00  0.00    -0.203 F 
ATOM     59  F   UNL A   1      51.499  26.814  22.990  1.00  0.00    -0.200 F 
ATOM     60  C   UNL A   1      52.016  26.021  25.154  1.00  0.00     0.200 A 
ATOM     61  F   UNL A   1      52.488  25.249  27.336  1.00  0.00    -0.200 F 
ATOM     62  F   UNL A   1      53.275  25.761  24.774  1.00  0.00    -0.200 F 
ENDBRANCH  28  52
BRANCH  40  63
ATOM     63  C   UNL A   1      46.730  32.570  28.481  1.00  0.00     0.064 A 
ATOM     64  C   UNL A   1      47.256  32.844  29.750  1.00  0.00     0.173 A 
ATOM     65  C   UNL A   1      46.871  33.541  27.479  1.00  0.00     0.173 A 
ATOM     66  F   UNL A   1      47.150  31.940  30.735  1.00  0.00    -0.203 F 
ATOM     67  C   UNL A   1      47.897  34.053  30.007  1.00  0.00     0.198 A 
ATOM     68  C   UNL A   1      47.529  34.740  27.735  1.00  0.00     0.198 A 
ATOM     69  F   UNL A   1      46.396  33.314  26.245  1.00  0.00    -0.203 F 
ATOM     70  F   UNL A   1      48.385  34.302  31.230  1.00  0.00    -0.200 F 
ATOM     71  C   UNL A   1      48.040  34.994  28.998  1.00  0.00     0.200 A 
ATOM     72  F   UNL A   1      47.680  35.643  26.756  1.00  0.00    -0.200 F 
ATOM     73  F   UNL A   1      48.676  36.149  29.244  1.00  0.00    -0.200 F 
ENDBRANCH  40  63
ENDBRANCH  14  15
ENDBRANCH   7   9
ENDBRANCH   6   7
ENDBRANCH   5   6
ENDBRANCH   4   5
ENDBRANCH   3   4
ENDBRANCH   2   3
ENDBRANCH   1   2
BRANCH   1  74
ATOM     74  O   UNL A   1      34.827  23.641  25.878  1.00  0.00    -0.376 OA
BRANCH  74  75
ATOM     75  C   UNL A   1      34.520  22.935  27.077  1.00  0.00     0.202 C 
BRANCH  75  76
ATOM     76  C   UNL A   1      33.296  22.021  26.986  1.00  0.00     0.261 C 
BRANCH  76  77
ATOM     77  O   UNL A   1      32.343  22.464  26.011  1.00  0.00    -0.459 OA
BRANCH  77  78
ATOM     78  C   UNL A   1      31.435  23.400  26.405  1.00  0.00     0.348 C 
ATOM     79  O   UNL A   1      30.967  23.509  27.536  1.00  0.00    -0.245 OA
BRANCH  78  80
ATOM     80  C   UNL A   1      31.109  24.212  25.269  1.00  0.00     0.116 A 
ATOM     81  C   UNL A   1      30.461  25.426  25.302  1.00  0.00     0.074 A 
ATOM     82  S   UNL A   1      31.491  23.738  23.680  1.00  0.00    -0.133 S 
ATOM     83  C   UNL A   1      30.234  25.962  24.014  1.00  0.00     0.131 A 
ATOM     84  C   UNL A   1      30.747  25.143  23.030  1.00  0.00     0.112 A 
BRANCH  83  85
ATOM     85  O   UNL A   1      29.600  27.111  23.681  1.00  0.00    -0.489 OA
BRANCH  85  86
ATOM     86  C   UNL A   1      30.189  27.854  22.614  1.00  0.00     0.275 C 
BRANCH  86  87
ATOM     87  C   UNL A   1      31.124  29.009  23.038  1.00  0.00     0.215 C 
ATOM     88  C   UNL A   1      32.599  28.593  23.167  1.00  0.00     0.088 C 
ATOM     89  O   UNL A   1      30.692  29.671  24.253  1.00  0.00    -0.486 OA
ATOM     90  C   UNL A   1      32.822  28.850  24.604  1.00  0.00     0.001 A 
ATOM     91  C   UNL A   1      31.732  29.522  25.130  1.00  0.00     0.123 A 
ATOM     92  C   UNL A   1      33.938  28.580  25.378  1.00  0.00     0.047 A 
ATOM     93  C   UNL A   1      31.735  30.004  26.424  1.00  0.00     0.050 A 
ATOM     94  C   UNL A   1      33.939  29.033  26.693  1.00  0.00     0.123 A 
ATOM     95  C   UNL A   1      32.862  29.758  27.214  1.00  0.00     0.043 A 
ATOM     96  F   UNL A   1      35.002  28.791  27.473  1.00  0.00    -0.207 F 
ENDBRANCH  86  87
ENDBRANCH  85  86
ENDBRANCH  83  85
ENDBRANCH  78  80
ENDBRANCH  77  78
ENDBRANCH  76  77
ENDBRANCH  75  76
ENDBRANCH  74  75
ENDBRANCH   1  74
TORSDOF 20
ENDMDL
