MODEL 1
REMARK VINA RESULT:     -10.3      0.000      0.000
REMARK SMILES CS(=O)(=O)c1cccc(-c2ccc(C(=O)OCCOCCOCCOC(=O)c3ccc(-c4c5nc(c(-c6c(F)c(F)c(F)c(F)c6F)c6ccc([nH]6)c(-c6c(F)c(F)c(F)c(F)c6F)c6nc(c(-c7c(F)c(F)c(F)c(F)c7F)c7ccc4[nH]7)C=C6)C=C5)cc3)nc2)c1
REMARK SMILES IDX 20 1 19 2 18 3 17 4 16 5 14 6 15 7 13 8 10 9 11 10 92 11
REMARK SMILES IDX 12 12 91 13 9 14 5 15 6 16 93 17 7 18 8 19 2 20 1 21 3 22
REMARK SMILES IDX 4 23 21 24 22 25 23 26 24 27 25 28 26 29 27 30 28 31 29 32
REMARK SMILES IDX 90 33 30 34 89 35 31 36 32 37 33 38 83 39 34 40 88 41 82 42
REMARK SMILES IDX 84 43 35 44 87 45 81 46 80 47 36 49 68 50 48 51 67 52 49 53
REMARK SMILES IDX 52 54 66 55 85 56 50 57 51 58 65 60 86 61 53 62 37 63 38 64
REMARK SMILES IDX 46 65 39 66 40 67 44 68 47 69 41 70 42 71 45 72 43 73 69 74
REMARK SMILES IDX 70 75 78 76 71 77 72 78 76 79 79 80 73 81 74 82 77 83 75 84
REMARK SMILES IDX 54 85 55 86 63 87 56 88 57 89 61 90 64 91 58 92 59 93 62 94
REMARK SMILES IDX 60 95
REMARK H PARENT 84 48 52 59
REMARK Flexibility Score: inf
ROOT
ATOM      1  C   UNL A   1      32.540  36.103  31.109  1.00  0.00     0.188 C 
ENDROOT
BRANCH   1   2
ATOM      2  O   UNL A   1      32.605  36.291  29.710  1.00  0.00    -0.376 OA
BRANCH   2   3
ATOM      3  C   UNL A   1      32.990  35.227  28.853  1.00  0.00     0.202 C 
BRANCH   3   4
ATOM      4  C   UNL A   1      34.451  34.880  28.516  1.00  0.00     0.261 C 
BRANCH   4   5
ATOM      5  O   UNL A   1      34.664  33.639  27.833  1.00  0.00    -0.459 OA
BRANCH   5   6
ATOM      6  C   UNL A   1      34.856  32.559  28.639  1.00  0.00     0.356 C 
ATOM      7  O   UNL A   1      35.210  32.582  29.807  1.00  0.00    -0.244 OA
BRANCH   6   8
ATOM      8  C   UNL A   1      34.403  31.328  27.929  1.00  0.00     0.148 A 
ATOM      9  C   UNL A   1      33.403  29.061  26.725  1.00  0.00     0.000 A 
ATOM     10  C   UNL A   1      34.764  29.137  27.061  1.00  0.00     0.013 A 
ATOM     11  C   UNL A   1      32.633  30.197  26.959  1.00  0.00     0.120 A 
ATOM     12  C   UNL A   1      35.277  30.280  27.672  1.00  0.00     0.037 A 
ATOM     13  N   UNL A   1      33.097  31.324  27.545  1.00  0.00    -0.249 NA
BRANCH   9  14
ATOM     14  C   UNL A   1      32.791  27.794  26.318  1.00  0.00    -0.016 A 
ATOM     15  C   UNL A   1      33.097  25.555  25.417  1.00  0.00     0.067 A 
ATOM     16  C   UNL A   1      31.744  25.274  25.597  1.00  0.00     0.020 A 
ATOM     17  C   UNL A   1      33.620  26.796  25.782  1.00  0.00     0.029 A 
ATOM     18  C   UNL A   1      30.908  26.260  26.126  1.00  0.00     0.002 A 
ATOM     19  C   UNL A   1      31.427  27.511  26.485  1.00  0.00     0.009 A 
BRANCH  15  20
ATOM     20  S   UNL A   1      34.188  24.318  24.764  1.00  0.00     0.175 S 
ATOM     21  C   UNL A   1      33.223  22.835  24.864  1.00  0.00     0.163 C 
ATOM     22  O   UNL A   1      35.309  24.203  25.679  1.00  0.00    -0.224 OA
ATOM     23  O   UNL A   1      34.400  24.615  23.361  1.00  0.00    -0.224 OA
ENDBRANCH  15  20
ENDBRANCH   9  14
ENDBRANCH   6   8
ENDBRANCH   5   6
ENDBRANCH   4   5
ENDBRANCH   3   4
ENDBRANCH   2   3
ENDBRANCH   1   2
BRANCH   1  24
ATOM     24  C   UNL A   1      33.702  36.589  32.000  1.00  0.00     0.188 C 
BRANCH  24  25
ATOM     25  O   UNL A   1      34.696  35.654  32.340  1.00  0.00    -0.376 OA
BRANCH  25  26
ATOM     26  C   UNL A   1      34.679  35.019  33.608  1.00  0.00     0.202 C 
BRANCH  26  27
ATOM     27  C   UNL A   1      35.146  33.581  33.924  1.00  0.00     0.261 C 
BRANCH  27  28
ATOM     28  O   UNL A   1      36.283  33.059  33.233  1.00  0.00    -0.460 OA
BRANCH  28  29
ATOM     29  C   UNL A   1      37.124  32.297  33.973  1.00  0.00     0.338 C 
ATOM     30  O   UNL A   1      37.033  32.025  35.160  1.00  0.00    -0.246 OA
BRANCH  29  31
ATOM     31  C   UNL A   1      38.109  31.671  33.074  1.00  0.00     0.060 A 
ATOM     32  C   UNL A   1      39.018  30.745  33.605  1.00  0.00     0.016 A 
ATOM     33  C   UNL A   1      38.160  32.024  31.726  1.00  0.00     0.016 A 
ATOM     34  C   UNL A   1      39.994  30.178  32.787  1.00  0.00     0.010 A 
ATOM     35  C   UNL A   1      39.153  31.472  30.913  1.00  0.00     0.010 A 
ATOM     36  C   UNL A   1      40.091  30.567  31.446  1.00  0.00    -0.014 A 
BRANCH  36  37
ATOM     37  C   UNL A   1      41.266  30.157  30.640  1.00  0.00     0.031 A 
ATOM     38  C   UNL A   1      41.199  28.869  29.869  1.00  0.00     0.074 A 
ATOM     39  C   UNL A   1      42.373  30.918  30.588  1.00  0.00     0.049 A 
ATOM     40  N   UNL A   1      42.121  28.271  29.160  1.00  0.00    -0.248 NA
ATOM     41  C   UNL A   1      39.912  28.154  29.909  1.00  0.00     0.031 C 
ATOM     42  C   UNL A   1      42.546  32.206  31.255  1.00  0.00     0.029 A 
ATOM     43  N   UNL A   1      43.572  30.701  29.953  1.00  0.00    -0.354 N 
ATOM     44  C   UNL A   1      41.533  27.107  28.681  1.00  0.00     0.074 A 
ATOM     45  C   UNL A   1      40.185  27.067  29.203  1.00  0.00     0.031 C 
ATOM     46  C   UNL A   1      43.786  32.659  31.008  1.00  0.00     0.029 A 
ATOM     47  C   UNL A   1      44.506  31.675  30.202  1.00  0.00     0.049 A 
ATOM     48  H   UNL A   1      43.744  29.923  29.376  1.00  0.00     0.167 HD
ATOM     49  C   UNL A   1      42.070  26.161  27.874  1.00  0.00     0.037 A 
ATOM     50  C   UNL A   1      45.804  31.746  29.842  1.00  0.00     0.037 A 
ATOM     51  C   UNL A   1      43.415  26.203  27.361  1.00  0.00     0.049 A 
ATOM     52  C   UNL A   1      46.403  30.640  29.009  1.00  0.00     0.074 A 
ATOM     53  C   UNL A   1      44.044  25.306  26.518  1.00  0.00     0.029 A 
ATOM     54  N   UNL A   1      44.342  27.192  27.657  1.00  0.00    -0.354 N 
ATOM     55  N   UNL A   1      45.835  29.557  28.534  1.00  0.00    -0.248 NA
ATOM     56  C   UNL A   1      47.825  30.768  28.660  1.00  0.00     0.031 C 
ATOM     57  C   UNL A   1      45.372  25.715  26.356  1.00  0.00     0.029 A 
ATOM     58  C   UNL A   1      45.551  26.907  27.039  1.00  0.00     0.049 A 
ATOM     59  H   UNL A   1      44.169  27.980  28.222  1.00  0.00     0.167 HD
ATOM     60  C   UNL A   1      46.817  28.897  27.805  1.00  0.00     0.074 A 
ATOM     61  C   UNL A   1      48.014  29.706  27.890  1.00  0.00     0.031 C 
ATOM     62  C   UNL A   1      46.734  27.726  27.124  1.00  0.00     0.037 A 
BRANCH  49  63
ATOM     63  C   UNL A   1      41.212  24.978  27.527  1.00  0.00     0.064 A 
ATOM     64  C   UNL A   1      40.183  25.061  26.577  1.00  0.00     0.173 A 
ATOM     65  C   UNL A   1      41.444  23.734  28.134  1.00  0.00     0.173 A 
ATOM     66  F   UNL A   1      39.909  26.229  25.976  1.00  0.00    -0.203 F 
ATOM     67  C   UNL A   1      39.398  23.951  26.273  1.00  0.00     0.198 A 
ATOM     68  C   UNL A   1      40.681  22.619  27.801  1.00  0.00     0.198 A 
ATOM     69  F   UNL A   1      42.419  23.597  29.046  1.00  0.00    -0.203 F 
ATOM     70  F   UNL A   1      38.385  24.068  25.402  1.00  0.00    -0.200 F 
ATOM     71  C   UNL A   1      39.653  22.730  26.877  1.00  0.00     0.200 A 
ATOM     72  F   UNL A   1      40.938  21.436  28.376  1.00  0.00    -0.200 F 
ATOM     73  F   UNL A   1      38.902  21.662  26.577  1.00  0.00    -0.200 F 
ENDBRANCH  49  63
BRANCH  50  74
ATOM     74  C   UNL A   1      46.635  32.898  30.283  1.00  0.00     0.064 A 
ATOM     75  C   UNL A   1      47.301  32.881  31.517  1.00  0.00     0.173 A 
ATOM     76  C   UNL A   1      46.763  34.049  29.491  1.00  0.00     0.173 A 
ATOM     77  F   UNL A   1      47.185  31.816  32.324  1.00  0.00    -0.203 F 
ATOM     78  C   UNL A   1      48.043  33.978  31.951  1.00  0.00     0.198 A 
ATOM     79  C   UNL A   1      47.533  35.131  29.911  1.00  0.00     0.198 A 
ATOM     80  F   UNL A   1      46.142  34.121  28.304  1.00  0.00    -0.203 F 
ATOM     81  F   UNL A   1      48.621  33.957  33.159  1.00  0.00    -0.200 F 
ATOM     82  C   UNL A   1      48.164  35.099  31.144  1.00  0.00     0.200 A 
ATOM     83  F   UNL A   1      47.654  36.210  29.124  1.00  0.00    -0.200 F 
ATOM     84  F   UNL A   1      48.879  36.153  31.562  1.00  0.00    -0.200 F 
ENDBRANCH  50  74
BRANCH  62  85
ATOM     85  C   UNL A   1      47.955  27.269  26.374  1.00  0.00     0.064 A 
ATOM     86  C   UNL A   1      48.962  26.509  26.987  1.00  0.00     0.173 A 
ATOM     87  C   UNL A   1      48.095  27.559  25.006  1.00  0.00     0.173 A 
ATOM     88  F   UNL A   1      48.885  26.213  28.293  1.00  0.00    -0.203 F 
ATOM     89  C   UNL A   1      50.076  26.082  26.267  1.00  0.00     0.198 A 
ATOM     90  C   UNL A   1      49.191  27.101  24.282  1.00  0.00     0.198 A 
ATOM     91  F   UNL A   1      47.157  28.273  24.367  1.00  0.00    -0.203 F 
ATOM     92  F   UNL A   1      51.052  25.403  26.886  1.00  0.00    -0.200 F 
ATOM     93  C   UNL A   1      50.186  26.371  24.914  1.00  0.00     0.200 A 
ATOM     94  F   UNL A   1      49.285  27.364  22.971  1.00  0.00    -0.200 F 
ATOM     95  F   UNL A   1      51.253  25.950  24.222  1.00  0.00    -0.200 F 
ENDBRANCH  62  85
ENDBRANCH  36  37
ENDBRANCH  29  31
ENDBRANCH  28  29
ENDBRANCH  27  28
ENDBRANCH  26  27
ENDBRANCH  25  26
ENDBRANCH  24  25
ENDBRANCH   1  24
TORSDOF 19
ENDMDL
MODEL 2
REMARK VINA RESULT:     -10.3      1.318      7.287
REMARK SMILES CS(=O)(=O)c1cccc(-c2ccc(C(=O)OCCOCCOCCOC(=O)c3ccc(-c4c5nc(c(-c6c(F)c(F)c(F)c(F)c6F)c6ccc([nH]6)c(-c6c(F)c(F)c(F)c(F)c6F)c6nc(c(-c7c(F)c(F)c(F)c(F)c7F)c7ccc4[nH]7)C=C6)C=C5)cc3)nc2)c1
REMARK SMILES IDX 20 1 19 2 18 3 17 4 16 5 14 6 15 7 13 8 10 9 11 10 92 11
REMARK SMILES IDX 12 12 91 13 9 14 5 15 6 16 93 17 7 18 8 19 2 20 1 21 3 22
REMARK SMILES IDX 4 23 21 24 22 25 23 26 24 27 25 28 26 29 27 30 28 31 29 32
REMARK SMILES IDX 90 33 30 34 89 35 31 36 32 37 33 38 83 39 34 40 88 41 82 42
REMARK SMILES IDX 84 43 35 44 87 45 81 46 80 47 36 49 68 50 48 51 67 52 49 53
REMARK SMILES IDX 52 54 66 55 85 56 50 57 51 58 65 60 86 61 53 62 37 63 38 64
REMARK SMILES IDX 46 65 39 66 40 67 44 68 47 69 41 70 42 71 45 72 43 73 69 74
REMARK SMILES IDX 70 75 78 76 71 77 72 78 76 79 79 80 73 81 74 82 77 83 75 84
REMARK SMILES IDX 54 85 55 86 63 87 56 88 57 89 61 90 64 91 58 92 59 93 62 94
REMARK SMILES IDX 60 95
REMARK H PARENT 84 48 52 59
REMARK Flexibility Score: inf
ROOT
ATOM      1  C   UNL A   1      32.369  36.147  31.475  1.00  0.00     0.188 C 
ENDROOT
BRANCH   1   2
ATOM      2  O   UNL A   1      32.799  36.918  30.370  1.00  0.00    -0.376 OA
BRANCH   2   3
ATOM      3  C   UNL A   1      32.900  36.339  29.078  1.00  0.00     0.202 C 
BRANCH   3   4
ATOM      4  C   UNL A   1      34.028  35.382  28.652  1.00  0.00     0.261 C 
BRANCH   4   5
ATOM      5  O   UNL A   1      33.691  33.990  28.611  1.00  0.00    -0.459 OA
BRANCH   5   6
ATOM      6  C   UNL A   1      34.743  33.144  28.436  1.00  0.00     0.356 C 
ATOM      7  O   UNL A   1      35.886  33.321  28.825  1.00  0.00    -0.244 OA
BRANCH   6   8
ATOM      8  C   UNL A   1      34.255  31.868  27.836  1.00  0.00     0.148 A 
ATOM      9  C   UNL A   1      33.522  29.503  26.629  1.00  0.00     0.000 A 
ATOM     10  C   UNL A   1      32.578  30.528  26.799  1.00  0.00     0.013 A 
ATOM     11  C   UNL A   1      34.789  29.720  27.162  1.00  0.00     0.120 A 
ATOM     12  C   UNL A   1      32.942  31.728  27.408  1.00  0.00     0.037 A 
ATOM     13  N   UNL A   1      35.176  30.869  27.763  1.00  0.00    -0.249 NA
BRANCH   9  14
ATOM     14  C   UNL A   1      33.240  28.344  25.779  1.00  0.00    -0.016 A 
ATOM     15  C   UNL A   1      32.069  26.230  25.503  1.00  0.00     0.067 A 
ATOM     16  C   UNL A   1      32.538  26.115  24.196  1.00  0.00     0.020 A 
ATOM     17  C   UNL A   1      32.406  27.335  26.284  1.00  0.00     0.029 A 
ATOM     18  C   UNL A   1      33.372  27.111  23.682  1.00  0.00     0.002 A 
ATOM     19  C   UNL A   1      33.721  28.218  24.467  1.00  0.00     0.009 A 
BRANCH  15  20
ATOM     20  S   UNL A   1      30.995  24.990  26.179  1.00  0.00     0.175 S 
ATOM     21  C   UNL A   1      31.041  23.706  24.958  1.00  0.00     0.163 C 
ATOM     22  O   UNL A   1      29.656  25.550  26.211  1.00  0.00    -0.224 OA
ATOM     23  O   UNL A   1      31.616  24.478  27.384  1.00  0.00    -0.224 OA
ENDBRANCH  15  20
ENDBRANCH   9  14
ENDBRANCH   6   8
ENDBRANCH   5   6
ENDBRANCH   4   5
ENDBRANCH   3   4
ENDBRANCH   2   3
ENDBRANCH   1   2
BRANCH   1  24
ATOM     24  C   UNL A   1      33.132  36.237  32.812  1.00  0.00     0.188 C 
BRANCH  24  25
ATOM     25  O   UNL A   1      34.534  36.328  32.756  1.00  0.00    -0.376 OA
BRANCH  25  26
ATOM     26  C   UNL A   1      35.331  35.155  32.793  1.00  0.00     0.202 C 
BRANCH  26  27
ATOM     27  C   UNL A   1      35.255  34.024  33.842  1.00  0.00     0.261 C 
BRANCH  27  28
ATOM     28  O   UNL A   1      36.154  32.918  33.729  1.00  0.00    -0.460 OA
BRANCH  28  29
ATOM     29  C   UNL A   1      35.964  32.111  32.659  1.00  0.00     0.338 C 
ATOM     30  O   UNL A   1      34.903  31.793  32.144  1.00  0.00    -0.246 OA
BRANCH  29  31
ATOM     31  C   UNL A   1      37.275  31.796  32.066  1.00  0.00     0.060 A 
ATOM     32  C   UNL A   1      37.483  32.056  30.704  1.00  0.00     0.016 A 
ATOM     33  C   UNL A   1      38.278  31.211  32.839  1.00  0.00     0.016 A 
ATOM     34  C   UNL A   1      38.697  31.718  30.106  1.00  0.00     0.010 A 
ATOM     35  C   UNL A   1      39.485  30.852  32.233  1.00  0.00     0.010 A 
ATOM     36  C   UNL A   1      39.690  31.080  30.859  1.00  0.00    -0.014 A 
BRANCH  36  37
ATOM     37  C   UNL A   1      40.875  30.503  30.180  1.00  0.00     0.031 A 
ATOM     38  C   UNL A   1      42.087  31.369  29.985  1.00  0.00     0.074 A 
ATOM     39  C   UNL A   1      40.879  29.229  29.750  1.00  0.00     0.049 A 
ATOM     40  N   UNL A   1      43.206  31.110  29.357  1.00  0.00    -0.248 NA
ATOM     41  C   UNL A   1      42.026  32.716  30.576  1.00  0.00     0.031 C 
ATOM     42  C   UNL A   1      39.784  28.277  29.919  1.00  0.00     0.029 A 
ATOM     43  N   UNL A   1      41.838  28.525  29.065  1.00  0.00    -0.354 N 
ATOM     44  C   UNL A   1      43.974  32.262  29.466  1.00  0.00     0.074 A 
ATOM     45  C   UNL A   1      43.185  33.232  30.193  1.00  0.00     0.031 C 
ATOM     46  C   UNL A   1      40.126  27.116  29.336  1.00  0.00     0.029 A 
ATOM     47  C   UNL A   1      41.444  27.256  28.721  1.00  0.00     0.049 A 
ATOM     48  H   UNL A   1      42.724  28.894  28.843  1.00  0.00     0.167 HD
ATOM     49  C   UNL A   1      45.227  32.487  29.004  1.00  0.00     0.037 A 
ATOM     50  C   UNL A   1      42.068  26.327  27.968  1.00  0.00     0.037 A 
ATOM     51  C   UNL A   1      46.007  31.521  28.276  1.00  0.00     0.049 A 
ATOM     52  C   UNL A   1      43.431  26.630  27.397  1.00  0.00     0.074 A 
ATOM     53  C   UNL A   1      47.294  31.644  27.786  1.00  0.00     0.029 A 
ATOM     54  N   UNL A   1      45.564  30.254  27.921  1.00  0.00    -0.354 N 
ATOM     55  N   UNL A   1      44.165  27.709  27.527  1.00  0.00    -0.248 NA
ATOM     56  C   UNL A   1      44.053  25.582  26.574  1.00  0.00     0.031 C 
ATOM     57  C   UNL A   1      47.607  30.479  27.078  1.00  0.00     0.029 A 
ATOM     58  C   UNL A   1      46.542  29.599  27.188  1.00  0.00     0.049 A 
ATOM     59  H   UNL A   1      44.685  29.876  28.154  1.00  0.00     0.167 HD
ATOM     60  C   UNL A   1      45.344  27.457  26.835  1.00  0.00     0.074 A 
ATOM     61  C   UNL A   1      45.233  26.118  26.296  1.00  0.00     0.031 C 
ATOM     62  C   UNL A   1      46.423  28.261  26.664  1.00  0.00     0.037 A 
BRANCH  49  63
ATOM     63  C   UNL A   1      45.819  33.848  29.240  1.00  0.00     0.064 A 
ATOM     64  C   UNL A   1      45.795  34.848  28.256  1.00  0.00     0.173 A 
ATOM     65  C   UNL A   1      46.392  34.164  30.481  1.00  0.00     0.173 A 
ATOM     66  F   UNL A   1      45.270  34.595  27.047  1.00  0.00    -0.203 F 
ATOM     67  C   UNL A   1      46.352  36.102  28.495  1.00  0.00     0.198 A 
ATOM     68  C   UNL A   1      46.916  35.430  30.729  1.00  0.00     0.198 A 
ATOM     69  F   UNL A   1      46.438  33.247  31.459  1.00  0.00    -0.203 F 
ATOM     70  F   UNL A   1      46.366  37.023  27.522  1.00  0.00    -0.200 F 
ATOM     71  C   UNL A   1      46.903  36.395  29.733  1.00  0.00     0.200 A 
ATOM     72  F   UNL A   1      47.435  35.715  31.930  1.00  0.00    -0.200 F 
ATOM     73  F   UNL A   1      47.432  37.604  29.964  1.00  0.00    -0.200 F 
ENDBRANCH  49  63
BRANCH  50  74
ATOM     74  C   UNL A   1      41.403  25.026  27.693  1.00  0.00     0.064 A 
ATOM     75  C   UNL A   1      40.292  24.946  26.841  1.00  0.00     0.173 A 
ATOM     76  C   UNL A   1      41.848  23.838  28.293  1.00  0.00     0.173 A 
ATOM     77  F   UNL A   1      39.809  26.057  26.266  1.00  0.00    -0.203 F 
ATOM     78  C   UNL A   1      39.640  23.734  26.617  1.00  0.00     0.198 A 
ATOM     79  C   UNL A   1      41.217  22.622  28.043  1.00  0.00     0.198 A 
ATOM     80  F   UNL A   1      42.902  23.859  29.122  1.00  0.00    -0.203 F 
ATOM     81  F   UNL A   1      38.547  23.697  25.844  1.00  0.00    -0.200 F 
ATOM     82  C   UNL A   1      40.108  22.572  27.213  1.00  0.00     0.200 A 
ATOM     83  F   UNL A   1      41.677  21.500  28.614  1.00  0.00    -0.200 F 
ATOM     84  F   UNL A   1      39.481  21.407  26.997  1.00  0.00    -0.200 F 
ENDBRANCH  50  74
BRANCH  62  85
ATOM     85  C   UNL A   1      47.594  27.703  25.903  1.00  0.00     0.064 A 
ATOM     86  C   UNL A   1      48.604  26.960  26.532  1.00  0.00     0.173 A 
ATOM     87  C   UNL A   1      47.682  27.878  24.511  1.00  0.00     0.173 A 
ATOM     88  F   UNL A   1      48.576  26.773  27.860  1.00  0.00    -0.203 F 
ATOM     89  C   UNL A   1      49.670  26.439  25.803  1.00  0.00     0.198 A 
ATOM     90  C   UNL A   1      48.729  27.325  23.781  1.00  0.00     0.198 A 
ATOM     91  F   UNL A   1      46.738  28.571  23.856  1.00  0.00    -0.203 F 
ATOM     92  F   UNL A   1      50.651  25.779  26.434  1.00  0.00    -0.200 F 
ATOM     93  C   UNL A   1      49.728  26.614  24.428  1.00  0.00     0.200 A 
ATOM     94  F   UNL A   1      48.772  27.479  22.450  1.00  0.00    -0.200 F 
ATOM     95  F   UNL A   1      50.749  26.103  23.728  1.00  0.00    -0.200 F 
ENDBRANCH  62  85
ENDBRANCH  36  37
ENDBRANCH  29  31
ENDBRANCH  28  29
ENDBRANCH  27  28
ENDBRANCH  26  27
ENDBRANCH  25  26
ENDBRANCH  24  25
ENDBRANCH   1  24
TORSDOF 19
ENDMDL
MODEL 3
REMARK VINA RESULT:      -9.9      9.850     15.418
REMARK SMILES CS(=O)(=O)c1cccc(-c2ccc(C(=O)OCCOCCOCCOC(=O)c3ccc(-c4c5nc(c(-c6c(F)c(F)c(F)c(F)c6F)c6ccc([nH]6)c(-c6c(F)c(F)c(F)c(F)c6F)c6nc(c(-c7c(F)c(F)c(F)c(F)c7F)c7ccc4[nH]7)C=C6)C=C5)cc3)nc2)c1
REMARK SMILES IDX 20 1 19 2 18 3 17 4 16 5 14 6 15 7 13 8 10 9 11 10 92 11
REMARK SMILES IDX 12 12 91 13 9 14 5 15 6 16 93 17 7 18 8 19 2 20 1 21 3 22
REMARK SMILES IDX 4 23 21 24 22 25 23 26 24 27 25 28 26 29 27 30 28 31 29 32
REMARK SMILES IDX 90 33 30 34 89 35 31 36 32 37 33 38 83 39 34 40 88 41 82 42
REMARK SMILES IDX 84 43 35 44 87 45 81 46 80 47 36 49 68 50 48 51 67 52 49 53
REMARK SMILES IDX 52 54 66 55 85 56 50 57 51 58 65 60 86 61 53 62 37 63 38 64
REMARK SMILES IDX 46 65 39 66 40 67 44 68 47 69 41 70 42 71 45 72 43 73 69 74
REMARK SMILES IDX 70 75 78 76 71 77 72 78 76 79 79 80 73 81 74 82 77 83 75 84
REMARK SMILES IDX 54 85 55 86 63 87 56 88 57 89 61 90 64 91 58 92 59 93 62 94
REMARK SMILES IDX 60 95
REMARK H PARENT 84 48 52 59
REMARK Flexibility Score: inf
ROOT
ATOM      1  C   UNL A   1      50.089  21.052  39.879  1.00  0.00     0.188 C 
ENDROOT
BRANCH   1   2
ATOM      2  O   UNL A   1      49.931  20.527  38.576  1.00  0.00    -0.376 OA
BRANCH   2   3
ATOM      3  C   UNL A   1      48.935  19.554  38.302  1.00  0.00     0.202 C 
BRANCH   3   4
ATOM      4  C   UNL A   1      47.430  19.867  38.219  1.00  0.00     0.261 C 
BRANCH   4   5
ATOM      5  O   UNL A   1      46.552  18.901  38.808  1.00  0.00    -0.459 OA
BRANCH   5   6
ATOM      6  C   UNL A   1      45.580  18.421  37.983  1.00  0.00     0.356 C 
ATOM      7  O   UNL A   1      45.500  18.601  36.779  1.00  0.00    -0.244 OA
BRANCH   6   8
ATOM      8  C   UNL A   1      44.702  17.488  38.748  1.00  0.00     0.148 A 
ATOM      9  C   UNL A   1      43.231  15.734  40.281  1.00  0.00     0.000 A 
ATOM     10  C   UNL A   1      43.125  15.704  38.882  1.00  0.00     0.013 A 
ATOM     11  C   UNL A   1      44.039  16.726  40.829  1.00  0.00     0.120 A 
ATOM     12  C   UNL A   1      43.868  16.588  38.099  1.00  0.00     0.037 A 
ATOM     13  N   UNL A   1      44.770  17.602  40.102  1.00  0.00    -0.249 NA
BRANCH   9  14
ATOM     14  C   UNL A   1      42.664  14.668  41.108  1.00  0.00    -0.016 A 
ATOM     15  C   UNL A   1      42.481  13.645  43.308  1.00  0.00     0.067 A 
ATOM     16  C   UNL A   1      41.553  12.723  42.826  1.00  0.00     0.020 A 
ATOM     17  C   UNL A   1      43.024  14.613  42.464  1.00  0.00     0.029 A 
ATOM     18  C   UNL A   1      41.189  12.764  41.479  1.00  0.00     0.002 A 
ATOM     19  C   UNL A   1      41.740  13.729  40.625  1.00  0.00     0.009 A 
BRANCH  15  20
ATOM     20  S   UNL A   1      42.951  13.630  45.019  1.00  0.00     0.175 S 
ATOM     21  C   UNL A   1      44.421  14.621  45.041  1.00  0.00     0.163 C 
ATOM     22  O   UNL A   1      43.309  12.265  45.356  1.00  0.00    -0.224 OA
ATOM     23  O   UNL A   1      41.929  14.339  45.763  1.00  0.00    -0.224 OA
ENDBRANCH  15  20
ENDBRANCH   9  14
ENDBRANCH   6   8
ENDBRANCH   5   6
ENDBRANCH   4   5
ENDBRANCH   3   4
ENDBRANCH   2   3
ENDBRANCH   1   2
BRANCH   1  24
ATOM     24  C   UNL A   1      49.647  22.499  40.178  1.00  0.00     0.188 C 
BRANCH  24  25
ATOM     25  O   UNL A   1      48.294  22.822  39.968  1.00  0.00    -0.376 OA
BRANCH  25  26
ATOM     26  C   UNL A   1      47.931  24.108  39.493  1.00  0.00     0.202 C 
BRANCH  26  27
ATOM     27  C   UNL A   1      46.737  24.446  38.572  1.00  0.00     0.261 C 
BRANCH  27  28
ATOM     28  O   UNL A   1      46.782  25.647  37.798  1.00  0.00    -0.460 OA
BRANCH  28  29
ATOM     29  C   UNL A   1      46.767  25.484  36.454  1.00  0.00     0.338 C 
ATOM     30  O   UNL A   1      47.427  24.696  35.792  1.00  0.00    -0.246 OA
BRANCH  29  31
ATOM     31  C   UNL A   1      45.676  26.296  35.890  1.00  0.00     0.060 A 
ATOM     32  C   UNL A   1      44.384  25.754  35.839  1.00  0.00     0.016 A 
ATOM     33  C   UNL A   1      45.933  27.569  35.381  1.00  0.00     0.016 A 
ATOM     34  C   UNL A   1      43.344  26.481  35.263  1.00  0.00     0.010 A 
ATOM     35  C   UNL A   1      44.894  28.287  34.784  1.00  0.00     0.010 A 
ATOM     36  C   UNL A   1      43.601  27.736  34.698  1.00  0.00    -0.014 A 
BRANCH  36  37
ATOM     37  C   UNL A   1      42.564  28.403  33.875  1.00  0.00     0.031 A 
ATOM     38  C   UNL A   1      41.620  29.363  34.543  1.00  0.00     0.074 A 
ATOM     39  C   UNL A   1      42.464  28.167  32.556  1.00  0.00     0.049 A 
ATOM     40  N   UNL A   1      40.592  30.004  34.048  1.00  0.00    -0.248 NA
ATOM     41  C   UNL A   1      41.869  29.633  35.969  1.00  0.00     0.031 C 
ATOM     42  C   UNL A   1      43.345  27.293  31.785  1.00  0.00     0.029 A 
ATOM     43  N   UNL A   1      41.559  28.634  31.635  1.00  0.00    -0.354 N 
ATOM     44  C   UNL A   1      40.065  30.740  35.101  1.00  0.00     0.074 A 
ATOM     45  C   UNL A   1      40.866  30.446  36.268  1.00  0.00     0.031 C 
ATOM     46  C   UNL A   1      42.927  27.272  30.509  1.00  0.00     0.029 A 
ATOM     47  C   UNL A   1      41.728  28.098  30.382  1.00  0.00     0.049 A 
ATOM     48  H   UNL A   1      40.858  29.290  31.851  1.00  0.00     0.167 HD
ATOM     49  C   UNL A   1      39.010  31.590  35.092  1.00  0.00     0.037 A 
ATOM     50  C   UNL A   1      40.978  28.238  29.270  1.00  0.00     0.037 A 
ATOM     51  C   UNL A   1      38.212  31.875  33.928  1.00  0.00     0.049 A 
ATOM     52  C   UNL A   1      39.760  29.127  29.304  1.00  0.00     0.074 A 
ATOM     53  C   UNL A   1      37.138  32.738  33.810  1.00  0.00     0.029 A 
ATOM     54  N   UNL A   1      38.395  31.292  32.682  1.00  0.00    -0.354 N 
ATOM     55  N   UNL A   1      39.283  29.844  30.294  1.00  0.00    -0.248 NA
ATOM     56  C   UNL A   1      38.977  29.228  28.064  1.00  0.00     0.031 C 
ATOM     57  C   UNL A   1      36.628  32.628  32.512  1.00  0.00     0.029 A 
ATOM     58  C   UNL A   1      37.430  31.752  31.798  1.00  0.00     0.049 A 
ATOM     59  H   UNL A   1      39.104  30.647  32.457  1.00  0.00     0.167 HD
ATOM     60  C   UNL A   1      38.170  30.504  29.787  1.00  0.00     0.074 A 
ATOM     61  C   UNL A   1      38.049  30.113  28.399  1.00  0.00     0.031 C 
ATOM     62  C   UNL A   1      37.325  31.361  30.414  1.00  0.00     0.037 A 
BRANCH  49  63
ATOM     63  C   UNL A   1      38.633  32.242  36.391  1.00  0.00     0.064 A 
ATOM     64  C   UNL A   1      39.041  33.545  36.713  1.00  0.00     0.173 A 
ATOM     65  C   UNL A   1      37.826  31.561  37.316  1.00  0.00     0.173 A 
ATOM     66  F   UNL A   1      39.824  34.236  35.871  1.00  0.00    -0.203 F 
ATOM     67  C   UNL A   1      38.682  34.129  37.925  1.00  0.00     0.198 A 
ATOM     68  C   UNL A   1      37.439  32.162  38.510  1.00  0.00     0.198 A 
ATOM     69  F   UNL A   1      37.404  30.314  37.057  1.00  0.00    -0.203 F 
ATOM     70  F   UNL A   1      39.128  35.354  38.235  1.00  0.00    -0.200 F 
ATOM     71  C   UNL A   1      37.875  33.441  38.818  1.00  0.00     0.200 A 
ATOM     72  F   UNL A   1      36.648  31.501  39.366  1.00  0.00    -0.200 F 
ATOM     73  F   UNL A   1      37.524  34.008  39.981  1.00  0.00    -0.200 F 
ENDBRANCH  49  63
BRANCH  50  74
ATOM     74  C   UNL A   1      41.345  27.503  28.030  1.00  0.00     0.064 A 
ATOM     75  C   UNL A   1      40.903  26.191  27.807  1.00  0.00     0.173 A 
ATOM     76  C   UNL A   1      42.164  28.088  27.052  1.00  0.00     0.173 A 
ATOM     77  F   UNL A   1      40.143  25.577  28.726  1.00  0.00    -0.203 F 
ATOM     78  C   UNL A   1      41.283  25.486  26.667  1.00  0.00     0.198 A 
ATOM     79  C   UNL A   1      42.516  27.393  25.897  1.00  0.00     0.198 A 
ATOM     80  F   UNL A   1      42.620  29.338  27.218  1.00  0.00    -0.203 F 
ATOM     81  F   UNL A   1      40.894  24.214  26.508  1.00  0.00    -0.200 F 
ATOM     82  C   UNL A   1      42.084  26.090  25.710  1.00  0.00     0.200 A 
ATOM     83  F   UNL A   1      43.283  27.985  24.969  1.00  0.00    -0.200 F 
ATOM     84  F   UNL A   1      42.448  25.411  24.613  1.00  0.00    -0.200 F 
ENDBRANCH  50  74
BRANCH  62  85
ATOM     85  C   UNL A   1      36.221  31.974  29.598  1.00  0.00     0.064 A 
ATOM     86  C   UNL A   1      36.205  33.339  29.275  1.00  0.00     0.173 A 
ATOM     87  C   UNL A   1      35.185  31.170  29.092  1.00  0.00     0.173 A 
ATOM     88  F   UNL A   1      37.163  34.154  29.742  1.00  0.00    -0.203 F 
ATOM     89  C   UNL A   1      35.180  33.881  28.503  1.00  0.00     0.198 A 
ATOM     90  C   UNL A   1      34.183  31.709  28.291  1.00  0.00     0.198 A 
ATOM     91  F   UNL A   1      35.156  29.856  29.360  1.00  0.00    -0.203 F 
ATOM     92  F   UNL A   1      35.157  35.197  28.253  1.00  0.00    -0.200 F 
ATOM     93  C   UNL A   1      34.175  33.065  28.004  1.00  0.00     0.200 A 
ATOM     94  F   UNL A   1      33.224  30.914  27.793  1.00  0.00    -0.200 F 
ATOM     95  F   UNL A   1      33.196  33.587  27.253  1.00  0.00    -0.200 F 
ENDBRANCH  62  85
ENDBRANCH  36  37
ENDBRANCH  29  31
ENDBRANCH  28  29
ENDBRANCH  27  28
ENDBRANCH  26  27
ENDBRANCH  25  26
ENDBRANCH  24  25
ENDBRANCH   1  24
TORSDOF 19
ENDMDL
