MODEL 1
REMARK VINA RESULT:     -11.2      0.000      0.000
REMARK SMILES Cc1cccc(S(=O)(=O)Nc2cc(C(=O)OCCOCCOCCOC(=O)c3ccc(-c4c5nc(c(-c6c(F)c(F)c(F)c(F)c6F)c6ccc([nH]6)c(-c6c(F)c(F)c(F)c(F)c6F)c6nc(c(-c7c(F)c(F)c(F)c(F)c7F)c7ccc4[nH]7)C=C6)C=C5)cc3)ccc2N2CCC[C@H](C[NH+]3CCCC3)C2)c1
REMARK SMILES IDX 20 1 19 2 18 3 17 4 16 5 14 6 15 7 13 8 11 9 12 10 93 11
REMARK SMILES IDX 92 12 91 13 10 14 7 16 8 17 9 18 6 19 1 20 2 21 3 22 106 23
REMARK SMILES IDX 4 24 5 25 94 26 95 27 105 28 96 29 98 30 97 31 99 32 100 33
REMARK SMILES IDX 101 34 104 35 102 37 103 38 21 39 22 40 23 41 24 42 25 43
REMARK SMILES IDX 26 44 27 45 28 46 29 47 90 48 30 49 89 50 31 51 32 52 33 53
REMARK SMILES IDX 83 54 34 55 88 56 82 57 84 58 35 59 87 60 81 61 80 62 36 64
REMARK SMILES IDX 68 65 48 66 67 67 49 68 52 69 66 70 85 71 50 72 51 73 65 75
REMARK SMILES IDX 86 76 53 77 37 78 38 79 46 80 39 81 40 82 44 83 47 84 41 85
REMARK SMILES IDX 42 86 45 87 43 88 69 89 70 90 78 91 71 92 72 93 76 94 79 95
REMARK SMILES IDX 73 96 74 97 77 98 75 99 54 100 55 101 63 102 56 103 57 104
REMARK SMILES IDX 61 105 64 106 58 107 59 108 62 109 60 110
REMARK H PARENT 10 15 100 36 84 63 52 74
REMARK Flexibility Score: inf
ROOT
ATOM      1  C   UNL A   1      42.068  24.064  26.304  1.00  0.00     0.188 C 
ENDROOT
BRANCH   1   2
ATOM      2  O   UNL A   1      41.613  23.215  27.353  1.00  0.00    -0.376 OA
BRANCH   2   3
ATOM      3  C   UNL A   1      40.197  23.065  27.577  1.00  0.00     0.202 C 
BRANCH   3   4
ATOM      4  C   UNL A   1      39.259  22.764  26.368  1.00  0.00     0.261 C 
BRANCH   4   5
ATOM      5  O   UNL A   1      39.151  21.374  25.817  1.00  0.00    -0.460 OA
BRANCH   5   6
ATOM      6  C   UNL A   1      38.127  20.769  25.116  1.00  0.00     0.338 C 
ATOM      7  O   UNL A   1      38.172  19.586  24.808  1.00  0.00    -0.246 OA
BRANCH   6   8
ATOM      8  C   UNL A   1      36.917  21.718  24.612  1.00  0.00     0.062 A 
ATOM      9  C   UNL A   1      34.693  22.696  24.952  1.00  0.00     0.073 A 
ATOM     10  C   UNL A   1      35.722  21.743  25.296  1.00  0.00     0.044 A 
ATOM     11  C   UNL A   1      34.682  23.525  23.800  1.00  0.00     0.061 A 
ATOM     12  C   UNL A   1      35.863  23.500  23.114  1.00  0.00     0.029 A 
ATOM     13  C   UNL A   1      36.915  22.689  23.580  1.00  0.00     0.018 A 
BRANCH   9  14
ATOM     14  N   UNL A   1      33.724  22.982  25.926  1.00  0.00    -0.277 N 
ATOM     15  H   UNL A   1      33.712  23.860  26.370  1.00  0.00     0.180 HD
BRANCH  14  16
ATOM     16  S   UNL A   1      32.588  21.817  26.329  1.00  0.00     0.261 S 
ATOM     17  O   UNL A   1      31.303  22.438  26.178  1.00  0.00    -0.201 OA
ATOM     18  O   UNL A   1      33.037  21.326  27.633  1.00  0.00    -0.201 OA
BRANCH  16  19
ATOM     19  C   UNL A   1      32.562  20.363  25.258  1.00  0.00     0.088 A 
ATOM     20  C   UNL A   1      33.149  16.576  24.975  1.00  0.00     0.044 C 
ATOM     21  C   UNL A   1      32.735  17.992  24.642  1.00  0.00    -0.050 A 
ATOM     22  C   UNL A   1      32.417  18.311  23.320  1.00  0.00     0.003 A 
ATOM     23  C   UNL A   1      32.778  19.025  25.611  1.00  0.00     0.025 A 
ATOM     24  C   UNL A   1      32.204  19.637  22.955  1.00  0.00     0.002 A 
ATOM     25  C   UNL A   1      32.294  20.653  23.911  1.00  0.00     0.022 A 
ENDBRANCH  16  19
ENDBRANCH  14  16
ENDBRANCH   9  14
BRANCH  11  26
ATOM     26  N   UNL A   1      33.711  24.433  23.366  1.00  0.00    -0.369 N 
ATOM     27  C   UNL A   1      33.297  24.252  21.959  1.00  0.00     0.116 C 
ATOM     28  C   UNL A   1      32.766  25.137  24.242  1.00  0.00     0.126 C 
ATOM     29  C   UNL A   1      32.701  25.528  21.357  1.00  0.00     0.022 C 
ATOM     30  C   UNL A   1      32.283  26.483  23.652  1.00  0.00     0.064 C 
ATOM     31  C   UNL A   1      31.678  26.186  22.279  1.00  0.00     0.013 C 
BRANCH  30  32
ATOM     32  C   UNL A   1      33.391  27.575  23.663  1.00  0.00     0.267 C 
BRANCH  32  33
ATOM     33  N   UNL A   1      33.315  28.698  24.613  1.00  0.00    -0.335 N 
ATOM     34  C   UNL A   1      34.025  28.511  25.878  1.00  0.00     0.262 C 
ATOM     35  C   UNL A   1      31.993  29.229  24.937  1.00  0.00     0.262 C 
ATOM     36  H   UNL A   1      33.797  29.387  24.035  1.00  0.00     0.348 HD
ATOM     37  C   UNL A   1      32.954  28.162  26.893  1.00  0.00     0.067 C 
ATOM     38  C   UNL A   1      31.727  28.916  26.409  1.00  0.00     0.067 C 
ENDBRANCH  32  33
ENDBRANCH  30  32
ENDBRANCH  11  26
ENDBRANCH   6   8
ENDBRANCH   5   6
ENDBRANCH   4   5
ENDBRANCH   3   4
ENDBRANCH   2   3
ENDBRANCH   1   2
BRANCH   1  39
ATOM     39  C   UNL A   1      43.026  23.506  25.257  1.00  0.00     0.188 C 
BRANCH  39  40
ATOM     40  O   UNL A   1      42.754  22.123  25.092  1.00  0.00    -0.376 OA
BRANCH  40  41
ATOM     41  C   UNL A   1      43.675  21.236  25.702  1.00  0.00     0.202 C 
BRANCH  41  42
ATOM     42  C   UNL A   1      44.840  20.861  24.776  1.00  0.00     0.261 C 
BRANCH  42  43
ATOM     43  O   UNL A   1      46.065  21.468  25.251  1.00  0.00    -0.460 OA
BRANCH  43  44
ATOM     44  C   UNL A   1      46.286  22.771  24.898  1.00  0.00     0.338 C 
ATOM     45  O   UNL A   1      46.507  23.159  23.760  1.00  0.00    -0.246 OA
BRANCH  44  46
ATOM     46  C   UNL A   1      46.531  23.593  26.132  1.00  0.00     0.060 A 
ATOM     47  C   UNL A   1      45.925  23.315  27.360  1.00  0.00     0.016 A 
ATOM     48  C   UNL A   1      46.963  24.872  25.944  1.00  0.00     0.016 A 
ATOM     49  C   UNL A   1      45.565  24.376  28.265  1.00  0.00     0.010 A 
ATOM     50  C   UNL A   1      46.289  25.857  26.677  1.00  0.00     0.010 A 
ATOM     51  C   UNL A   1      45.608  25.732  27.911  1.00  0.00    -0.014 A 
BRANCH  51  52
ATOM     52  C   UNL A   1      44.824  26.944  28.683  1.00  0.00     0.031 A 
ATOM     53  C   UNL A   1      43.352  27.643  28.555  1.00  0.00     0.074 A 
ATOM     54  C   UNL A   1      45.470  27.394  29.783  1.00  0.00     0.049 A 
ATOM     55  N   UNL A   1      42.677  28.184  29.549  1.00  0.00    -0.248 NA
ATOM     56  C   UNL A   1      42.480  27.767  27.373  1.00  0.00     0.031 C 
ATOM     57  C   UNL A   1      44.961  28.178  30.904  1.00  0.00     0.029 A 
ATOM     58  N   UNL A   1      46.851  27.394  29.994  1.00  0.00    -0.354 N 
ATOM     59  C   UNL A   1      41.373  28.479  29.170  1.00  0.00     0.074 A 
ATOM     60  C   UNL A   1      41.248  28.017  27.831  1.00  0.00     0.031 C 
ATOM     61  C   UNL A   1      45.959  28.909  31.408  1.00  0.00     0.029 A 
ATOM     62  C   UNL A   1      47.125  28.630  30.610  1.00  0.00     0.049 A 
ATOM     63  H   UNL A   1      47.493  26.684  29.761  1.00  0.00     0.167 HD
ATOM     64  C   UNL A   1      40.574  29.417  29.759  1.00  0.00     0.037 A 
ATOM     65  C   UNL A   1      47.894  29.542  29.965  1.00  0.00     0.037 A 
ATOM     66  C   UNL A   1      41.431  30.437  30.317  1.00  0.00     0.049 A 
ATOM     67  C   UNL A   1      47.122  30.794  29.628  1.00  0.00     0.074 A 
ATOM     68  C   UNL A   1      42.018  30.661  31.541  1.00  0.00     0.029 A 
ATOM     69  N   UNL A   1      42.092  31.244  29.398  1.00  0.00    -0.354 N 
ATOM     70  N   UNL A   1      45.815  30.883  29.577  1.00  0.00    -0.248 NA
ATOM     71  C   UNL A   1      47.785  32.066  29.385  1.00  0.00     0.031 C 
ATOM     72  C   UNL A   1      43.152  31.497  31.304  1.00  0.00     0.029 A 
ATOM     73  C   UNL A   1      43.207  31.826  29.953  1.00  0.00     0.049 A 
ATOM     74  H   UNL A   1      41.799  31.381  28.468  1.00  0.00     0.167 HD
ATOM     75  C   UNL A   1      45.462  32.182  29.291  1.00  0.00     0.074 A 
ATOM     76  C   UNL A   1      46.731  32.880  29.217  1.00  0.00     0.031 C 
ATOM     77  C   UNL A   1      44.162  32.596  29.147  1.00  0.00     0.037 A 
BRANCH  64  78
ATOM     78  C   UNL A   1      39.067  29.562  29.566  1.00  0.00     0.064 A 
ATOM     79  C   UNL A   1      38.497  29.761  28.288  1.00  0.00     0.173 A 
ATOM     80  C   UNL A   1      38.146  29.639  30.637  1.00  0.00     0.173 A 
ATOM     81  F   UNL A   1      39.265  29.791  27.190  1.00  0.00    -0.203 F 
ATOM     82  C   UNL A   1      37.119  29.962  28.097  1.00  0.00     0.198 A 
ATOM     83  C   UNL A   1      36.763  29.793  30.441  1.00  0.00     0.198 A 
ATOM     84  F   UNL A   1      38.561  29.598  31.910  1.00  0.00    -0.203 F 
ATOM     85  F   UNL A   1      36.635  30.169  26.863  1.00  0.00    -0.200 F 
ATOM     86  C   UNL A   1      36.249  29.955  29.172  1.00  0.00     0.200 A 
ATOM     87  F   UNL A   1      35.935  29.796  31.496  1.00  0.00    -0.200 F 
ATOM     88  F   UNL A   1      34.932  30.123  28.987  1.00  0.00    -0.200 F 
ENDBRANCH  64  78
BRANCH  65  89
ATOM     89  C   UNL A   1      49.037  28.889  29.259  1.00  0.00     0.064 A 
ATOM     90  C   UNL A   1      50.066  28.395  30.102  1.00  0.00     0.173 A 
ATOM     91  C   UNL A   1      48.965  28.355  27.968  1.00  0.00     0.173 A 
ATOM     92  F   UNL A   1      50.183  28.867  31.355  1.00  0.00    -0.203 F 
ATOM     93  C   UNL A   1      50.838  27.292  29.753  1.00  0.00     0.198 A 
ATOM     94  C   UNL A   1      49.800  27.288  27.592  1.00  0.00     0.198 A 
ATOM     95  F   UNL A   1      47.987  28.729  27.131  1.00  0.00    -0.203 F 
ATOM     96  F   UNL A   1      51.618  26.707  30.672  1.00  0.00    -0.200 F 
ATOM     97  C   UNL A   1      50.693  26.728  28.500  1.00  0.00     0.200 A 
ATOM     98  F   UNL A   1      49.613  26.681  26.410  1.00  0.00    -0.200 F 
ATOM     99  F   UNL A   1      51.337  25.589  28.204  1.00  0.00    -0.200 F 
ENDBRANCH  65  89
BRANCH  77 100
ATOM    100  C   UNL A   1      43.735  33.832  28.346  1.00  0.00     0.064 A 
ATOM    101  C   UNL A   1      43.728  33.896  26.935  1.00  0.00     0.173 A 
ATOM    102  C   UNL A   1      43.200  34.989  28.966  1.00  0.00     0.173 A 
ATOM    103  F   UNL A   1      43.950  32.818  26.177  1.00  0.00    -0.203 F 
ATOM    104  C   UNL A   1      43.401  35.057  26.225  1.00  0.00     0.198 A 
ATOM    105  C   UNL A   1      42.799  36.125  28.249  1.00  0.00     0.198 A 
ATOM    106  F   UNL A   1      42.974  35.044  30.285  1.00  0.00    -0.203 F 
ATOM    107  F   UNL A   1      43.502  35.060  24.887  1.00  0.00    -0.200 F 
ATOM    108  C   UNL A   1      42.943  36.174  26.881  1.00  0.00     0.200 A 
ATOM    109  F   UNL A   1      42.246  37.158  28.899  1.00  0.00    -0.200 F 
ATOM    110  F   UNL A   1      42.593  37.271  26.197  1.00  0.00    -0.200 F 
ENDBRANCH  77 100
ENDBRANCH  51  52
ENDBRANCH  44  46
ENDBRANCH  43  44
ENDBRANCH  42  43
ENDBRANCH  41  42
ENDBRANCH  40  41
ENDBRANCH  39  40
ENDBRANCH   1  39
TORSDOF 23
ENDMDL
MODEL 2
REMARK VINA RESULT:     -10.1      3.066      4.224
REMARK SMILES Cc1cccc(S(=O)(=O)Nc2cc(C(=O)OCCOCCOCCOC(=O)c3ccc(-c4c5nc(c(-c6c(F)c(F)c(F)c(F)c6F)c6ccc([nH]6)c(-c6c(F)c(F)c(F)c(F)c6F)c6nc(c(-c7c(F)c(F)c(F)c(F)c7F)c7ccc4[nH]7)C=C6)C=C5)cc3)ccc2N2CCC[C@H](C[NH+]3CCCC3)C2)c1
REMARK SMILES IDX 20 1 19 2 18 3 17 4 16 5 14 6 15 7 13 8 11 9 12 10 93 11
REMARK SMILES IDX 92 12 91 13 10 14 7 16 8 17 9 18 6 19 1 20 2 21 3 22 106 23
REMARK SMILES IDX 4 24 5 25 94 26 95 27 105 28 96 29 98 30 97 31 99 32 100 33
REMARK SMILES IDX 101 34 104 35 102 37 103 38 21 39 22 40 23 41 24 42 25 43
REMARK SMILES IDX 26 44 27 45 28 46 29 47 90 48 30 49 89 50 31 51 32 52 33 53
REMARK SMILES IDX 83 54 34 55 88 56 82 57 84 58 35 59 87 60 81 61 80 62 36 64
REMARK SMILES IDX 68 65 48 66 67 67 49 68 52 69 66 70 85 71 50 72 51 73 65 75
REMARK SMILES IDX 86 76 53 77 37 78 38 79 46 80 39 81 40 82 44 83 47 84 41 85
REMARK SMILES IDX 42 86 45 87 43 88 69 89 70 90 78 91 71 92 72 93 76 94 79 95
REMARK SMILES IDX 73 96 74 97 77 98 75 99 54 100 55 101 63 102 56 103 57 104
REMARK SMILES IDX 61 105 64 106 58 107 59 108 62 109 60 110
REMARK H PARENT 10 15 100 36 84 63 52 74
REMARK Flexibility Score: inf
ROOT
ATOM      1  C   UNL A   1      41.923  24.875  27.039  1.00  0.00     0.188 C 
ENDROOT
BRANCH   1   2
ATOM      2  O   UNL A   1      41.206  23.801  27.637  1.00  0.00    -0.376 OA
BRANCH   2   3
ATOM      3  C   UNL A   1      39.776  23.725  27.468  1.00  0.00     0.202 C 
BRANCH   3   4
ATOM      4  C   UNL A   1      39.193  23.142  26.145  1.00  0.00     0.261 C 
BRANCH   4   5
ATOM      5  O   UNL A   1      38.872  21.681  26.034  1.00  0.00    -0.460 OA
BRANCH   5   6
ATOM      6  C   UNL A   1      37.996  21.021  25.196  1.00  0.00     0.338 C 
ATOM      7  O   UNL A   1      38.194  19.869  24.839  1.00  0.00    -0.246 OA
BRANCH   6   8
ATOM      8  C   UNL A   1      36.754  21.875  24.606  1.00  0.00     0.062 A 
ATOM      9  C   UNL A   1      34.474  22.752  24.830  1.00  0.00     0.073 A 
ATOM     10  C   UNL A   1      35.540  21.875  25.255  1.00  0.00     0.044 A 
ATOM     11  C   UNL A   1      34.455  23.515  23.633  1.00  0.00     0.061 A 
ATOM     12  C   UNL A   1      35.656  23.514  22.981  1.00  0.00     0.029 A 
ATOM     13  C   UNL A   1      36.733  22.787  23.522  1.00  0.00     0.018 A 
BRANCH   9  14
ATOM     14  N   UNL A   1      33.463  23.039  25.760  1.00  0.00    -0.277 N 
ATOM     15  H   UNL A   1      33.357  23.953  26.110  1.00  0.00     0.180 HD
BRANCH  14  16
ATOM     16  S   UNL A   1      32.436  21.816  26.270  1.00  0.00     0.261 S 
ATOM     17  O   UNL A   1      31.101  22.311  26.093  1.00  0.00    -0.201 OA
ATOM     18  O   UNL A   1      32.939  21.470  27.601  1.00  0.00    -0.201 OA
BRANCH  16  19
ATOM     19  C   UNL A   1      32.527  20.286  25.316  1.00  0.00     0.088 A 
ATOM     20  C   UNL A   1      33.516  16.573  25.291  1.00  0.00     0.044 C 
ATOM     21  C   UNL A   1      32.935  17.905  24.873  1.00  0.00    -0.050 A 
ATOM     22  C   UNL A   1      32.529  18.080  23.548  1.00  0.00     0.003 A 
ATOM     23  C   UNL A   1      32.904  19.012  25.758  1.00  0.00     0.025 A 
ATOM     24  C   UNL A   1      32.156  19.343  23.095  1.00  0.00     0.002 A 
ATOM     25  C   UNL A   1      32.173  20.436  23.965  1.00  0.00     0.022 A 
ENDBRANCH  16  19
ENDBRANCH  14  16
ENDBRANCH   9  14
BRANCH  11  26
ATOM     26  N   UNL A   1      33.452  24.345  23.122  1.00  0.00    -0.369 N 
ATOM     27  C   UNL A   1      33.289  24.266  21.656  1.00  0.00     0.116 C 
ATOM     28  C   UNL A   1      32.299  24.837  23.885  1.00  0.00     0.126 C 
ATOM     29  C   UNL A   1      32.630  25.521  21.073  1.00  0.00     0.022 C 
ATOM     30  C   UNL A   1      31.740  26.173  23.340  1.00  0.00     0.064 C 
ATOM     31  C   UNL A   1      31.400  25.955  21.864  1.00  0.00     0.013 C 
BRANCH  30  32
ATOM     32  C   UNL A   1      32.679  27.379  23.629  1.00  0.00     0.267 C 
BRANCH  32  33
ATOM     33  N   UNL A   1      32.989  27.762  25.016  1.00  0.00    -0.335 N 
ATOM     34  C   UNL A   1      31.848  27.836  25.927  1.00  0.00     0.262 C 
ATOM     35  C   UNL A   1      33.787  28.968  25.229  1.00  0.00     0.262 C 
ATOM     36  H   UNL A   1      33.572  26.956  25.243  1.00  0.00     0.348 HD
ATOM     37  C   UNL A   1      31.535  29.314  26.060  1.00  0.00     0.067 C 
ATOM     38  C   UNL A   1      32.887  29.992  25.916  1.00  0.00     0.067 C 
ENDBRANCH  32  33
ENDBRANCH  30  32
ENDBRANCH  11  26
ENDBRANCH   6   8
ENDBRANCH   5   6
ENDBRANCH   4   5
ENDBRANCH   3   4
ENDBRANCH   2   3
ENDBRANCH   1   2
BRANCH   1  39
ATOM     39  C   UNL A   1      42.711  24.622  25.758  1.00  0.00     0.188 C 
BRANCH  39  40
ATOM     40  O   UNL A   1      42.860  25.855  25.071  1.00  0.00    -0.376 OA
BRANCH  40  41
ATOM     41  C   UNL A   1      44.072  26.550  25.310  1.00  0.00     0.202 C 
BRANCH  41  42
ATOM     42  C   UNL A   1      45.285  25.615  25.389  1.00  0.00     0.261 C 
BRANCH  42  43
ATOM     43  O   UNL A   1      46.033  25.876  26.602  1.00  0.00    -0.460 OA
BRANCH  43  44
ATOM     44  C   UNL A   1      46.356  24.794  27.373  1.00  0.00     0.338 C 
ATOM     45  O   UNL A   1      46.696  23.703  26.939  1.00  0.00    -0.246 OA
BRANCH  44  46
ATOM     46  C   UNL A   1      45.929  25.041  28.793  1.00  0.00     0.060 A 
ATOM     47  C   UNL A   1      44.817  24.421  29.370  1.00  0.00     0.016 A 
ATOM     48  C   UNL A   1      46.332  26.213  29.361  1.00  0.00     0.016 A 
ATOM     49  C   UNL A   1      44.010  25.106  30.346  1.00  0.00     0.010 A 
ATOM     50  C   UNL A   1      45.339  26.942  30.026  1.00  0.00     0.010 A 
ATOM     51  C   UNL A   1      44.152  26.470  30.634  1.00  0.00    -0.014 A 
BRANCH  51  52
ATOM     52  C   UNL A   1      43.032  27.409  31.371  1.00  0.00     0.031 A 
ATOM     53  C   UNL A   1      41.947  28.530  30.878  1.00  0.00     0.074 A 
ATOM     54  C   UNL A   1      42.838  27.103  32.674  1.00  0.00     0.049 A 
ATOM     55  N   UNL A   1      40.788  28.773  31.455  1.00  0.00    -0.248 NA
ATOM     56  C   UNL A   1      42.004  29.428  29.712  1.00  0.00     0.031 C 
ATOM     57  C   UNL A   1      41.723  27.441  33.553  1.00  0.00     0.029 A 
ATOM     58  N   UNL A   1      43.783  26.563  33.550  1.00  0.00    -0.354 N 
ATOM     59  C   UNL A   1      40.002  29.608  30.670  1.00  0.00     0.074 A 
ATOM     60  C   UNL A   1      40.751  29.839  29.484  1.00  0.00     0.031 C 
ATOM     61  C   UNL A   1      42.171  27.514  34.810  1.00  0.00     0.029 A 
ATOM     62  C   UNL A   1      43.586  27.247  34.764  1.00  0.00     0.049 A 
ATOM     63  H   UNL A   1      44.445  25.859  33.359  1.00  0.00     0.167 HD
ATOM     64  C   UNL A   1      38.990  30.401  31.132  1.00  0.00     0.037 A 
ATOM     65  C   UNL A   1      44.569  28.045  35.250  1.00  0.00     0.037 A 
ATOM     66  C   UNL A   1      39.288  30.739  32.505  1.00  0.00     0.049 A 
ATOM     67  C   UNL A   1      44.151  29.494  35.295  1.00  0.00     0.074 A 
ATOM     68  C   UNL A   1      38.976  30.207  33.735  1.00  0.00     0.029 A 
ATOM     69  N   UNL A   1      40.360  31.601  32.697  1.00  0.00    -0.354 N 
ATOM     70  N   UNL A   1      43.162  30.015  34.611  1.00  0.00    -0.248 NA
ATOM     71  C   UNL A   1      44.793  30.455  36.179  1.00  0.00     0.031 C 
ATOM     72  C   UNL A   1      39.991  30.645  34.638  1.00  0.00     0.029 A 
ATOM     73  C   UNL A   1      40.871  31.489  33.969  1.00  0.00     0.049 A 
ATOM     74  H   UNL A   1      40.711  32.214  32.011  1.00  0.00     0.167 HD
ATOM     75  C   UNL A   1      43.037  31.345  34.938  1.00  0.00     0.074 A 
ATOM     76  C   UNL A   1      44.058  31.553  35.946  1.00  0.00     0.031 C 
ATOM     77  C   UNL A   1      42.104  32.177  34.373  1.00  0.00     0.037 A 
BRANCH  64  78
ATOM     78  C   UNL A   1      37.932  31.094  30.279  1.00  0.00     0.064 A 
ATOM     79  C   UNL A   1      36.838  30.387  29.731  1.00  0.00     0.173 A 
ATOM     80  C   UNL A   1      38.023  32.444  29.864  1.00  0.00     0.173 A 
ATOM     81  F   UNL A   1      36.673  29.079  29.977  1.00  0.00    -0.203 F 
ATOM     82  C   UNL A   1      35.889  30.992  28.889  1.00  0.00     0.198 A 
ATOM     83  C   UNL A   1      37.049  33.059  29.060  1.00  0.00     0.198 A 
ATOM     84  F   UNL A   1      39.077  33.200  30.200  1.00  0.00    -0.203 F 
ATOM     85  F   UNL A   1      34.884  30.266  28.378  1.00  0.00    -0.200 F 
ATOM     86  C   UNL A   1      35.983  32.335  28.572  1.00  0.00     0.200 A 
ATOM     87  F   UNL A   1      37.161  34.361  28.754  1.00  0.00    -0.200 F 
ATOM     88  F   UNL A   1      35.064  32.918  27.789  1.00  0.00    -0.200 F 
ENDBRANCH  64  78
BRANCH  65  89
ATOM     89  C   UNL A   1      45.916  27.431  35.051  1.00  0.00     0.064 A 
ATOM     90  C   UNL A   1      46.253  26.400  35.966  1.00  0.00     0.173 A 
ATOM     91  C   UNL A   1      46.630  27.468  33.848  1.00  0.00     0.173 A 
ATOM     92  F   UNL A   1      45.600  26.310  37.137  1.00  0.00    -0.203 F 
ATOM     93  C   UNL A   1      47.095  25.350  35.614  1.00  0.00     0.198 A 
ATOM     94  C   UNL A   1      47.538  26.444  33.528  1.00  0.00     0.198 A 
ATOM     95  F   UNL A   1      46.332  28.377  32.908  1.00  0.00    -0.203 F 
ATOM     96  F   UNL A   1      47.187  24.275  36.409  1.00  0.00    -0.200 F 
ATOM     97  C   UNL A   1      47.727  25.365  34.386  1.00  0.00     0.200 A 
ATOM     98  F   UNL A   1      48.095  26.405  32.307  1.00  0.00    -0.200 F 
ATOM     99  F   UNL A   1      48.435  24.298  33.988  1.00  0.00    -0.200 F 
ENDBRANCH  65  89
BRANCH  77 100
ATOM    100  C   UNL A   1      42.245  33.702  34.292  1.00  0.00     0.064 A 
ATOM    101  C   UNL A   1      42.736  34.392  33.162  1.00  0.00     0.173 A 
ATOM    102  C   UNL A   1      41.783  34.561  35.321  1.00  0.00     0.173 A 
ATOM    103  F   UNL A   1      42.974  33.771  32.003  1.00  0.00    -0.203 F 
ATOM    104  C   UNL A   1      42.922  35.778  33.134  1.00  0.00     0.198 A 
ATOM    105  C   UNL A   1      41.899  35.956  35.261  1.00  0.00     0.198 A 
ATOM    106  F   UNL A   1      41.136  34.093  36.396  1.00  0.00    -0.203 F 
ATOM    107  F   UNL A   1      43.474  36.347  32.053  1.00  0.00    -0.200 F 
ATOM    108  C   UNL A   1      42.509  36.562  34.187  1.00  0.00     0.200 A 
ATOM    109  F   UNL A   1      41.385  36.707  36.245  1.00  0.00    -0.200 F 
ATOM    110  F   UNL A   1      42.653  37.893  34.143  1.00  0.00    -0.200 F 
ENDBRANCH  77 100
ENDBRANCH  51  52
ENDBRANCH  44  46
ENDBRANCH  43  44
ENDBRANCH  42  43
ENDBRANCH  41  42
ENDBRANCH  40  41
ENDBRANCH  39  40
ENDBRANCH   1  39
TORSDOF 23
ENDMDL
MODEL 3
REMARK VINA RESULT:     -10.0      5.039      7.125
REMARK SMILES Cc1cccc(S(=O)(=O)Nc2cc(C(=O)OCCOCCOCCOC(=O)c3ccc(-c4c5nc(c(-c6c(F)c(F)c(F)c(F)c6F)c6ccc([nH]6)c(-c6c(F)c(F)c(F)c(F)c6F)c6nc(c(-c7c(F)c(F)c(F)c(F)c7F)c7ccc4[nH]7)C=C6)C=C5)cc3)ccc2N2CCC[C@H](C[NH+]3CCCC3)C2)c1
REMARK SMILES IDX 20 1 19 2 18 3 17 4 16 5 14 6 15 7 13 8 11 9 12 10 93 11
REMARK SMILES IDX 92 12 91 13 10 14 7 16 8 17 9 18 6 19 1 20 2 21 3 22 106 23
REMARK SMILES IDX 4 24 5 25 94 26 95 27 105 28 96 29 98 30 97 31 99 32 100 33
REMARK SMILES IDX 101 34 104 35 102 37 103 38 21 39 22 40 23 41 24 42 25 43
REMARK SMILES IDX 26 44 27 45 28 46 29 47 90 48 30 49 89 50 31 51 32 52 33 53
REMARK SMILES IDX 83 54 34 55 88 56 82 57 84 58 35 59 87 60 81 61 80 62 36 64
REMARK SMILES IDX 68 65 48 66 67 67 49 68 52 69 66 70 85 71 50 72 51 73 65 75
REMARK SMILES IDX 86 76 53 77 37 78 38 79 46 80 39 81 40 82 44 83 47 84 41 85
REMARK SMILES IDX 42 86 45 87 43 88 69 89 70 90 78 91 71 92 72 93 76 94 79 95
REMARK SMILES IDX 73 96 74 97 77 98 75 99 54 100 55 101 63 102 56 103 57 104
REMARK SMILES IDX 61 105 64 106 58 107 59 108 62 109 60 110
REMARK H PARENT 10 15 100 36 84 63 52 74
REMARK Flexibility Score: inf
ROOT
ATOM      1  C   UNL A   1      42.109  24.628  26.758  1.00  0.00     0.188 C 
ENDROOT
BRANCH   1   2
ATOM      2  O   UNL A   1      41.712  23.298  27.074  1.00  0.00    -0.376 OA
BRANCH   2   3
ATOM      3  C   UNL A   1      40.321  23.019  27.331  1.00  0.00     0.202 C 
BRANCH   3   4
ATOM      4  C   UNL A   1      39.386  22.634  26.144  1.00  0.00     0.261 C 
BRANCH   4   5
ATOM      5  O   UNL A   1      38.790  21.261  26.060  1.00  0.00    -0.460 OA
BRANCH   5   6
ATOM      6  C   UNL A   1      37.957  20.705  25.109  1.00  0.00     0.338 C 
ATOM      7  O   UNL A   1      38.176  19.602  24.630  1.00  0.00    -0.246 OA
BRANCH   6   8
ATOM      8  C   UNL A   1      36.742  21.626  24.565  1.00  0.00     0.062 A 
ATOM      9  C   UNL A   1      34.469  22.516  24.810  1.00  0.00     0.073 A 
ATOM     10  C   UNL A   1      35.512  21.590  25.184  1.00  0.00     0.044 A 
ATOM     11  C   UNL A   1      34.490  23.377  23.681  1.00  0.00     0.061 A 
ATOM     12  C   UNL A   1      35.707  23.413  23.060  1.00  0.00     0.029 A 
ATOM     13  C   UNL A   1      36.761  22.626  23.562  1.00  0.00     0.018 A 
BRANCH   9  14
ATOM     14  N   UNL A   1      33.440  22.740  25.736  1.00  0.00    -0.277 N 
ATOM     15  H   UNL A   1      33.299  23.638  26.113  1.00  0.00     0.180 HD
BRANCH  14  16
ATOM     16  S   UNL A   1      32.450  21.467  26.197  1.00  0.00     0.261 S 
ATOM     17  O   UNL A   1      31.101  21.927  26.036  1.00  0.00    -0.201 OA
ATOM     18  O   UNL A   1      32.962  21.085  27.514  1.00  0.00    -0.201 OA
BRANCH  16  19
ATOM     19  C   UNL A   1      32.589  19.978  25.184  1.00  0.00     0.088 A 
ATOM     20  C   UNL A   1      32.266  18.441  21.677  1.00  0.00     0.044 C 
ATOM     21  C   UNL A   1      32.587  18.609  23.145  1.00  0.00    -0.050 A 
ATOM     22  C   UNL A   1      32.900  17.478  23.903  1.00  0.00     0.003 A 
ATOM     23  C   UNL A   1      32.460  19.862  23.795  1.00  0.00     0.025 A 
ATOM     24  C   UNL A   1      33.027  17.579  25.286  1.00  0.00     0.002 A 
ATOM     25  C   UNL A   1      32.855  18.812  25.920  1.00  0.00     0.022 A 
ENDBRANCH  16  19
ENDBRANCH  14  16
ENDBRANCH   9  14
BRANCH  11  26
ATOM     26  N   UNL A   1      33.512  24.263  23.219  1.00  0.00    -0.369 N 
ATOM     27  C   UNL A   1      33.533  24.482  21.758  1.00  0.00     0.116 C 
ATOM     28  C   UNL A   1      32.248  24.554  23.907  1.00  0.00     0.126 C 
ATOM     29  C   UNL A   1      32.881  25.808  21.356  1.00  0.00     0.022 C 
ATOM     30  C   UNL A   1      31.686  25.955  23.570  1.00  0.00     0.064 C 
ATOM     31  C   UNL A   1      31.540  26.033  22.049  1.00  0.00     0.013 C 
BRANCH  30  32
ATOM     32  C   UNL A   1      32.513  27.105  24.214  1.00  0.00     0.267 C 
BRANCH  32  33
ATOM     33  N   UNL A   1      32.897  27.037  25.634  1.00  0.00    -0.335 N 
ATOM     34  C   UNL A   1      31.831  26.674  26.566  1.00  0.00     0.262 C 
ATOM     35  C   UNL A   1      33.595  28.186  26.207  1.00  0.00     0.262 C 
ATOM     36  H   UNL A   1      33.568  26.273  25.548  1.00  0.00     0.348 HD
ATOM     37  C   UNL A   1      31.395  27.977  27.206  1.00  0.00     0.067 C 
ATOM     38  C   UNL A   1      32.662  28.813  27.240  1.00  0.00     0.067 C 
ENDBRANCH  32  33
ENDBRANCH  30  32
ENDBRANCH  11  26
ENDBRANCH   6   8
ENDBRANCH   5   6
ENDBRANCH   4   5
ENDBRANCH   3   4
ENDBRANCH   2   3
ENDBRANCH   1   2
BRANCH   1  39
ATOM     39  C   UNL A   1      42.734  24.914  25.396  1.00  0.00     0.188 C 
BRANCH  39  40
ATOM     40  O   UNL A   1      42.545  26.288  25.095  1.00  0.00    -0.376 OA
BRANCH  40  41
ATOM     41  C   UNL A   1      43.521  27.173  25.619  1.00  0.00     0.202 C 
BRANCH  41  42
ATOM     42  C   UNL A   1      44.946  26.617  25.505  1.00  0.00     0.261 C 
BRANCH  42  43
ATOM     43  O   UNL A   1      45.529  26.474  26.823  1.00  0.00    -0.460 OA
BRANCH  43  44
ATOM     44  C   UNL A   1      46.498  25.520  26.969  1.00  0.00     0.338 C 
ATOM     45  O   UNL A   1      47.152  25.043  26.054  1.00  0.00    -0.246 OA
BRANCH  44  46
ATOM     46  C   UNL A   1      46.417  24.927  28.348  1.00  0.00     0.060 A 
ATOM     47  C   UNL A   1      45.370  24.096  28.755  1.00  0.00     0.016 A 
ATOM     48  C   UNL A   1      47.099  25.571  29.336  1.00  0.00     0.016 A 
ATOM     49  C   UNL A   1      44.894  24.115  30.114  1.00  0.00     0.010 A 
ATOM     50  C   UNL A   1      46.385  25.804  30.518  1.00  0.00     0.010 A 
ATOM     51  C   UNL A   1      45.294  25.079  31.051  1.00  0.00    -0.014 A 
BRANCH  51  52
ATOM     52  C   UNL A   1      44.504  25.446  32.437  1.00  0.00     0.031 A 
ATOM     53  C   UNL A   1      43.817  26.791  33.063  1.00  0.00     0.074 A 
ATOM     54  C   UNL A   1      44.210  24.366  33.197  1.00  0.00     0.049 A 
ATOM     55  N   UNL A   1      42.780  26.810  33.875  1.00  0.00    -0.248 NA
ATOM     56  C   UNL A   1      44.158  28.205  32.825  1.00  0.00     0.031 C 
ATOM     57  C   UNL A   1      43.241  24.226  34.279  1.00  0.00     0.029 A 
ATOM     58  N   UNL A   1      44.936  23.174  33.262  1.00  0.00    -0.354 N 
ATOM     59  C   UNL A   1      42.294  28.101  34.040  1.00  0.00     0.074 A 
ATOM     60  C   UNL A   1      43.093  28.923  33.198  1.00  0.00     0.031 C 
ATOM     61  C   UNL A   1      43.674  23.292  35.129  1.00  0.00     0.029 A 
ATOM     62  C   UNL A   1      44.941  22.826  34.626  1.00  0.00     0.049 A 
ATOM     63  H   UNL A   1      45.355  22.685  32.517  1.00  0.00     0.167 HD
ATOM     64  C   UNL A   1      41.566  28.539  35.110  1.00  0.00     0.037 A 
ATOM     65  C   UNL A   1      46.115  22.803  35.306  1.00  0.00     0.037 A 
ATOM     66  C   UNL A   1      41.936  27.735  36.252  1.00  0.00     0.049 A 
ATOM     67  C   UNL A   1      46.157  23.843  36.398  1.00  0.00     0.074 A 
ATOM     68  C   UNL A   1      41.463  26.581  36.833  1.00  0.00     0.029 A 
ATOM     69  N   UNL A   1      43.217  27.941  36.748  1.00  0.00    -0.354 N 
ATOM     70  N   UNL A   1      45.381  24.897  36.465  1.00  0.00    -0.248 NA
ATOM     71  C   UNL A   1      47.050  23.725  37.541  1.00  0.00     0.031 C 
ATOM     72  C   UNL A   1      42.552  26.014  37.561  1.00  0.00     0.029 A 
ATOM     73  C   UNL A   1      43.655  26.857  37.472  1.00  0.00     0.049 A 
ATOM     74  H   UNL A   1      43.746  28.759  36.600  1.00  0.00     0.167 HD
ATOM     75  C   UNL A   1      45.662  25.592  37.618  1.00  0.00     0.074 A 
ATOM     76  C   UNL A   1      46.686  24.795  38.265  1.00  0.00     0.031 C 
ATOM     77  C   UNL A   1      45.034  26.761  37.968  1.00  0.00     0.037 A 
BRANCH  64  78
ATOM     78  C   UNL A   1      40.779  29.843  35.187  1.00  0.00     0.064 A 
ATOM     79  C   UNL A   1      41.097  30.850  36.126  1.00  0.00     0.173 A 
ATOM     80  C   UNL A   1      39.609  30.097  34.432  1.00  0.00     0.173 A 
ATOM     81  F   UNL A   1      42.135  30.705  36.963  1.00  0.00    -0.203 F 
ATOM     82  C   UNL A   1      40.345  32.030  36.258  1.00  0.00     0.198 A 
ATOM     83  C   UNL A   1      38.885  31.297  34.531  1.00  0.00     0.198 A 
ATOM     84  F   UNL A   1      39.114  29.175  33.596  1.00  0.00    -0.203 F 
ATOM     85  F   UNL A   1      40.680  32.941  37.183  1.00  0.00    -0.200 F 
ATOM     86  C   UNL A   1      39.252  32.263  35.444  1.00  0.00     0.200 A 
ATOM     87  F   UNL A   1      37.820  31.502  33.741  1.00  0.00    -0.200 F 
ATOM     88  F   UNL A   1      38.548  33.399  35.552  1.00  0.00    -0.200 F 
ENDBRANCH  64  78
BRANCH  65  89
ATOM     89  C   UNL A   1      47.214  22.227  34.474  1.00  0.00     0.064 A 
ATOM     90  C   UNL A   1      48.261  23.127  34.147  1.00  0.00     0.173 A 
ATOM     91  C   UNL A   1      47.503  20.861  34.385  1.00  0.00     0.173 A 
ATOM     92  F   UNL A   1      48.045  24.452  34.217  1.00  0.00    -0.203 F 
ATOM     93  C   UNL A   1      49.569  22.696  33.950  1.00  0.00     0.198 A 
ATOM     94  C   UNL A   1      48.813  20.428  34.111  1.00  0.00     0.198 A 
ATOM     95  F   UNL A   1      46.585  19.947  34.732  1.00  0.00    -0.203 F 
ATOM     96  F   UNL A   1      50.564  23.592  33.894  1.00  0.00    -0.200 F 
ATOM     97  C   UNL A   1      49.848  21.343  33.948  1.00  0.00     0.200 A 
ATOM     98  F   UNL A   1      49.111  19.121  34.187  1.00  0.00    -0.200 F 
ATOM     99  F   UNL A   1      51.120  20.926  33.889  1.00  0.00    -0.200 F 
ENDBRANCH  65  89
BRANCH  77 100
ATOM    100  C   UNL A   1      45.633  27.815  38.906  1.00  0.00     0.064 A 
ATOM    101  C   UNL A   1      46.233  29.015  38.468  1.00  0.00     0.173 A 
ATOM    102  C   UNL A   1      45.531  27.718  40.317  1.00  0.00     0.173 A 
ATOM    103  F   UNL A   1      46.187  29.402  37.189  1.00  0.00    -0.203 F 
ATOM    104  C   UNL A   1      46.835  29.931  39.337  1.00  0.00     0.198 A 
ATOM    105  C   UNL A   1      46.067  28.674  41.190  1.00  0.00     0.198 A 
ATOM    106  F   UNL A   1      44.847  26.732  40.911  1.00  0.00    -0.203 F 
ATOM    107  F   UNL A   1      47.460  31.005  38.832  1.00  0.00    -0.200 F 
ATOM    108  C   UNL A   1      46.759  29.758  40.699  1.00  0.00     0.200 A 
ATOM    109  F   UNL A   1      45.880  28.547  42.511  1.00  0.00    -0.200 F 
ATOM    110  F   UNL A   1      47.303  30.656  41.531  1.00  0.00    -0.200 F 
ENDBRANCH  77 100
ENDBRANCH  51  52
ENDBRANCH  44  46
ENDBRANCH  43  44
ENDBRANCH  42  43
ENDBRANCH  41  42
ENDBRANCH  40  41
ENDBRANCH  39  40
ENDBRANCH   1  39
TORSDOF 23
ENDMDL
