MODEL 1
REMARK VINA RESULT:     -11.1      0.000      0.000
REMARK SMILES O=C(OCCOCCOCCOC(=O)c1ccc(-c2c(F)cccc2F)cn1)c1ccc(-c2c3nc(c(-c4c(F)c(F)c(F)c(F)c4F)c4ccc([nH]4)c(-c4c(F)c(F)c(F)c(F)c4F)c4nc(c(-c5c(F)c(F)c(F)c(F)c5F)c5ccc2[nH]5)C=C4)C=C3)cc1
REMARK SMILES IDX 7 1 6 2 5 3 4 4 3 5 2 6 1 7 29 8 30 9 91 10 31 11 90 12
REMARK SMILES IDX 32 13 33 14 34 15 84 16 35 17 89 18 83 19 85 20 36 21 88 22
REMARK SMILES IDX 82 23 81 24 37 26 69 27 49 28 68 29 50 30 53 31 67 32 86 33
REMARK SMILES IDX 51 34 52 35 66 37 87 38 54 39 38 40 39 41 47 42 40 43 41 44
REMARK SMILES IDX 45 45 48 46 42 47 43 48 46 49 44 50 70 51 71 52 79 53 72 54
REMARK SMILES IDX 73 55 77 56 80 57 74 58 75 59 78 60 76 61 55 62 56 63 64 64
REMARK SMILES IDX 57 65 58 66 62 67 65 68 59 69 60 70 63 71 61 72 8 73 9 74
REMARK SMILES IDX 10 75 11 76 12 77 13 78 14 79 15 80 16 81 28 82 17 83 27 84
REMARK SMILES IDX 18 85 19 86 20 87 25 88 21 89 22 90 24 91 26 92 23 93
REMARK H PARENT 85 25 53 36
REMARK Flexibility Score: inf
ROOT
ATOM      1  C   UNL A   1      41.608  21.910  26.576  1.00  0.00     0.188 C 
ENDROOT
BRANCH   1   2
ATOM      2  O   UNL A   1      42.366  21.745  25.374  1.00  0.00    -0.376 OA
BRANCH   2   3
ATOM      3  C   UNL A   1      43.777  21.916  25.530  1.00  0.00     0.202 C 
BRANCH   3   4
ATOM      4  C   UNL A   1      44.461  22.914  24.574  1.00  0.00     0.261 C 
BRANCH   4   5
ATOM      5  O   UNL A   1      43.912  24.243  24.598  1.00  0.00    -0.460 OA
BRANCH   5   6
ATOM      6  C   UNL A   1      44.435  25.362  25.159  1.00  0.00     0.338 C 
ATOM      7  O   UNL A   1      45.485  25.813  24.706  1.00  0.00    -0.246 OA
BRANCH   6   8
ATOM      8  C   UNL A   1      43.818  26.071  26.323  1.00  0.00     0.060 A 
ATOM      9  C   UNL A   1      44.125  27.373  26.707  1.00  0.00     0.016 A 
ATOM     10  C   UNL A   1      42.802  25.410  27.031  1.00  0.00     0.016 A 
ATOM     11  C   UNL A   1      43.523  27.985  27.794  1.00  0.00     0.010 A 
ATOM     12  C   UNL A   1      42.138  26.042  28.092  1.00  0.00     0.010 A 
ATOM     13  C   UNL A   1      42.513  27.335  28.484  1.00  0.00    -0.014 A 
BRANCH  13  14
ATOM     14  C   UNL A   1      41.956  27.985  29.685  1.00  0.00     0.031 A 
ATOM     15  C   UNL A   1      40.731  28.824  29.527  1.00  0.00     0.074 A 
ATOM     16  C   UNL A   1      42.433  27.702  30.912  1.00  0.00     0.049 A 
ATOM     17  N   UNL A   1      40.139  29.599  30.393  1.00  0.00    -0.248 NA
ATOM     18  C   UNL A   1      40.051  28.738  28.222  1.00  0.00     0.031 C 
ATOM     19  C   UNL A   1      43.449  26.695  31.213  1.00  0.00     0.029 A 
ATOM     20  N   UNL A   1      42.123  28.230  32.138  1.00  0.00    -0.354 N 
ATOM     21  C   UNL A   1      39.004  30.071  29.750  1.00  0.00     0.074 A 
ATOM     22  C   UNL A   1      39.017  29.543  28.404  1.00  0.00     0.031 C 
ATOM     23  C   UNL A   1      43.713  26.708  32.528  1.00  0.00     0.029 A 
ATOM     24  C   UNL A   1      42.940  27.771  33.143  1.00  0.00     0.049 A 
ATOM     25  H   UNL A   1      41.391  28.871  32.284  1.00  0.00     0.167 HD
ATOM     26  C   UNL A   1      38.031  30.856  30.263  1.00  0.00     0.037 A 
ATOM     27  C   UNL A   1      43.098  28.217  34.401  1.00  0.00     0.037 A 
ATOM     28  C   UNL A   1      38.078  31.389  31.599  1.00  0.00     0.049 A 
ATOM     29  C   UNL A   1      42.238  29.354  34.844  1.00  0.00     0.074 A 
ATOM     30  C   UNL A   1      37.221  32.282  32.211  1.00  0.00     0.029 A 
ATOM     31  N   UNL A   1      39.061  31.072  32.531  1.00  0.00    -0.354 N 
ATOM     32  N   UNL A   1      41.263  29.940  34.196  1.00  0.00    -0.248 NA
ATOM     33  C   UNL A   1      42.498  29.896  36.180  1.00  0.00     0.031 C 
ATOM     34  C   UNL A   1      37.717  32.548  33.492  1.00  0.00     0.029 A 
ATOM     35  C   UNL A   1      38.845  31.769  33.707  1.00  0.00     0.049 A 
ATOM     36  H   UNL A   1      39.803  30.443  32.376  1.00  0.00     0.167 HD
ATOM     37  C   UNL A   1      40.736  30.874  35.069  1.00  0.00     0.074 A 
ATOM     38  C   UNL A   1      41.542  30.810  36.276  1.00  0.00     0.031 C 
ATOM     39  C   UNL A   1      39.656  31.676  34.897  1.00  0.00     0.037 A 
BRANCH  26  40
ATOM     40  C   UNL A   1      36.897  31.211  29.348  1.00  0.00     0.064 A 
ATOM     41  C   UNL A   1      35.892  30.275  29.065  1.00  0.00     0.173 A 
ATOM     42  C   UNL A   1      36.768  32.495  28.793  1.00  0.00     0.173 A 
ATOM     43  F   UNL A   1      35.959  29.037  29.578  1.00  0.00    -0.203 F 
ATOM     44  C   UNL A   1      34.801  30.610  28.267  1.00  0.00     0.198 A 
ATOM     45  C   UNL A   1      35.660  32.837  28.021  1.00  0.00     0.198 A 
ATOM     46  F   UNL A   1      37.683  33.441  29.058  1.00  0.00    -0.203 F 
ATOM     47  F   UNL A   1      33.856  29.695  28.009  1.00  0.00    -0.200 F 
ATOM     48  C   UNL A   1      34.680  31.893  27.755  1.00  0.00     0.200 A 
ATOM     49  F   UNL A   1      35.523  34.089  27.562  1.00  0.00    -0.200 F 
ATOM     50  F   UNL A   1      33.608  32.225  27.022  1.00  0.00    -0.200 F 
ENDBRANCH  26  40
BRANCH  27  51
ATOM     51  C   UNL A   1      44.179  27.667  35.254  1.00  0.00     0.064 A 
ATOM     52  C   UNL A   1      43.903  26.610  36.131  1.00  0.00     0.173 A 
ATOM     53  C   UNL A   1      45.479  28.180  35.248  1.00  0.00     0.173 A 
ATOM     54  F   UNL A   1      42.683  26.064  36.136  1.00  0.00    -0.203 F 
ATOM     55  C   UNL A   1      44.867  26.113  37.003  1.00  0.00     0.198 A 
ATOM     56  C   UNL A   1      46.455  27.669  36.105  1.00  0.00     0.198 A 
ATOM     57  F   UNL A   1      45.803  29.168  34.402  1.00  0.00    -0.203 F 
ATOM     58  F   UNL A   1      44.553  25.129  37.857  1.00  0.00    -0.200 F 
ATOM     59  C   UNL A   1      46.145  26.645  36.991  1.00  0.00     0.200 A 
ATOM     60  F   UNL A   1      47.699  28.165  36.073  1.00  0.00    -0.200 F 
ATOM     61  F   UNL A   1      47.077  26.169  37.826  1.00  0.00    -0.200 F 
ENDBRANCH  27  51
BRANCH  39  62
ATOM     62  C   UNL A   1      39.214  32.458  36.094  1.00  0.00     0.064 A 
ATOM     63  C   UNL A   1      38.275  31.897  36.973  1.00  0.00     0.173 A 
ATOM     64  C   UNL A   1      39.691  33.747  36.366  1.00  0.00     0.173 A 
ATOM     65  F   UNL A   1      37.795  30.663  36.752  1.00  0.00    -0.203 F 
ATOM     66  C   UNL A   1      37.821  32.603  38.078  1.00  0.00     0.198 A 
ATOM     67  C   UNL A   1      39.260  34.436  37.495  1.00  0.00     0.198 A 
ATOM     68  F   UNL A   1      40.610  34.310  35.568  1.00  0.00    -0.203 F 
ATOM     69  F   UNL A   1      36.903  32.057  38.888  1.00  0.00    -0.200 F 
ATOM     70  C   UNL A   1      38.319  33.869  38.342  1.00  0.00     0.200 A 
ATOM     71  F   UNL A   1      39.770  35.644  37.772  1.00  0.00    -0.200 F 
ATOM     72  F   UNL A   1      37.901  34.540  39.424  1.00  0.00    -0.200 F 
ENDBRANCH  39  62
ENDBRANCH  13  14
ENDBRANCH   6   8
ENDBRANCH   5   6
ENDBRANCH   4   5
ENDBRANCH   3   4
ENDBRANCH   2   3
ENDBRANCH   1   2
BRANCH   1  73
ATOM     73  C   UNL A   1      40.180  22.399  26.324  1.00  0.00     0.188 C 
BRANCH  73  74
ATOM     74  O   UNL A   1      39.151  21.410  26.340  1.00  0.00    -0.376 OA
BRANCH  74  75
ATOM     75  C   UNL A   1      38.168  21.492  25.315  1.00  0.00     0.202 C 
BRANCH  75  76
ATOM     76  C   UNL A   1      36.866  22.245  25.626  1.00  0.00     0.261 C 
BRANCH  76  77
ATOM     77  O   UNL A   1      36.703  23.518  24.972  1.00  0.00    -0.459 OA
BRANCH  77  78
ATOM     78  C   UNL A   1      36.129  23.454  23.745  1.00  0.00     0.356 C 
ATOM     79  O   UNL A   1      36.627  22.933  22.747  1.00  0.00    -0.244 OA
BRANCH  78  80
ATOM     80  C   UNL A   1      34.859  24.222  23.649  1.00  0.00     0.148 A 
ATOM     81  C   UNL A   1      34.523  24.979  24.761  1.00  0.00     0.037 A 
ATOM     82  N   UNL A   1      34.119  24.211  22.508  1.00  0.00    -0.249 NA
ATOM     83  C   UNL A   1      33.386  25.773  24.708  1.00  0.00     0.013 A 
ATOM     84  C   UNL A   1      33.012  25.018  22.491  1.00  0.00     0.121 A 
ATOM     85  C   UNL A   1      32.583  25.820  23.557  1.00  0.00     0.006 A 
BRANCH  85  86
ATOM     86  C   UNL A   1      31.334  26.613  23.572  1.00  0.00     0.055 A 
ATOM     87  C   UNL A   1      30.130  26.062  24.044  1.00  0.00     0.134 A 
ATOM     88  C   UNL A   1      31.239  27.883  22.985  1.00  0.00     0.134 A 
ATOM     89  F   UNL A   1      30.129  24.861  24.644  1.00  0.00    -0.206 F 
ATOM     90  C   UNL A   1      28.894  26.693  23.872  1.00  0.00     0.040 A 
ATOM     91  C   UNL A   1      30.008  28.522  22.788  1.00  0.00     0.040 A 
ATOM     92  F   UNL A   1      32.340  28.512  22.550  1.00  0.00    -0.206 F 
ATOM     93  C   UNL A   1      28.829  27.917  23.217  1.00  0.00     0.006 A 
ENDBRANCH  85  86
ENDBRANCH  78  80
ENDBRANCH  77  78
ENDBRANCH  76  77
ENDBRANCH  75  76
ENDBRANCH  74  75
ENDBRANCH  73  74
ENDBRANCH   1  73
TORSDOF 18
ENDMDL
MODEL 2
REMARK VINA RESULT:     -10.9      3.534      8.914
REMARK SMILES O=C(OCCOCCOCCOC(=O)c1ccc(-c2c(F)cccc2F)cn1)c1ccc(-c2c3nc(c(-c4c(F)c(F)c(F)c(F)c4F)c4ccc([nH]4)c(-c4c(F)c(F)c(F)c(F)c4F)c4nc(c(-c5c(F)c(F)c(F)c(F)c5F)c5ccc2[nH]5)C=C4)C=C3)cc1
REMARK SMILES IDX 7 1 6 2 5 3 4 4 3 5 2 6 1 7 29 8 30 9 91 10 31 11 90 12
REMARK SMILES IDX 32 13 33 14 34 15 84 16 35 17 89 18 83 19 85 20 36 21 88 22
REMARK SMILES IDX 82 23 81 24 37 26 69 27 49 28 68 29 50 30 53 31 67 32 86 33
REMARK SMILES IDX 51 34 52 35 66 37 87 38 54 39 38 40 39 41 47 42 40 43 41 44
REMARK SMILES IDX 45 45 48 46 42 47 43 48 46 49 44 50 70 51 71 52 79 53 72 54
REMARK SMILES IDX 73 55 77 56 80 57 74 58 75 59 78 60 76 61 55 62 56 63 64 64
REMARK SMILES IDX 57 65 58 66 62 67 65 68 59 69 60 70 63 71 61 72 8 73 9 74
REMARK SMILES IDX 10 75 11 76 12 77 13 78 14 79 15 80 16 81 28 82 17 83 27 84
REMARK SMILES IDX 18 85 19 86 20 87 25 88 21 89 22 90 24 91 26 92 23 93
REMARK H PARENT 85 25 53 36
REMARK Flexibility Score: inf
ROOT
ATOM      1  C   UNL A   1      32.874  29.514  27.299  1.00  0.00     0.188 C 
ENDROOT
BRANCH   1   2
ATOM      2  O   UNL A   1      33.143  30.906  27.109  1.00  0.00    -0.376 OA
BRANCH   2   3
ATOM      3  C   UNL A   1      31.985  31.745  27.116  1.00  0.00     0.202 C 
BRANCH   3   4
ATOM      4  C   UNL A   1      32.195  33.215  26.700  1.00  0.00     0.261 C 
BRANCH   4   5
ATOM      5  O   UNL A   1      32.156  34.158  27.785  1.00  0.00    -0.460 OA
BRANCH   5   6
ATOM      6  C   UNL A   1      33.191  34.658  28.506  1.00  0.00     0.338 C 
ATOM      7  O   UNL A   1      33.262  35.874  28.670  1.00  0.00    -0.246 OA
BRANCH   6   8
ATOM      8  C   UNL A   1      34.274  33.812  29.096  1.00  0.00     0.060 A 
ATOM      9  C   UNL A   1      34.055  32.704  29.910  1.00  0.00     0.016 A 
ATOM     10  C   UNL A   1      35.602  34.102  28.742  1.00  0.00     0.016 A 
ATOM     11  C   UNL A   1      35.095  31.951  30.430  1.00  0.00     0.010 A 
ATOM     12  C   UNL A   1      36.659  33.308  29.208  1.00  0.00     0.010 A 
ATOM     13  C   UNL A   1      36.403  32.234  30.071  1.00  0.00    -0.014 A 
BRANCH  13  14
ATOM     14  C   UNL A   1      37.486  31.464  30.711  1.00  0.00     0.031 A 
ATOM     15  C   UNL A   1      37.778  31.724  32.152  1.00  0.00     0.074 A 
ATOM     16  C   UNL A   1      38.084  30.442  30.069  1.00  0.00     0.049 A 
ATOM     17  N   UNL A   1      38.756  31.282  32.893  1.00  0.00    -0.248 NA
ATOM     18  C   UNL A   1      36.801  32.562  32.869  1.00  0.00     0.031 C 
ATOM     19  C   UNL A   1      37.696  29.924  28.758  1.00  0.00     0.029 A 
ATOM     20  N   UNL A   1      39.140  29.650  30.434  1.00  0.00    -0.354 N 
ATOM     21  C   UNL A   1      38.500  31.764  34.167  1.00  0.00     0.074 A 
ATOM     22  C   UNL A   1      37.307  32.578  34.092  1.00  0.00     0.031 C 
ATOM     23  C   UNL A   1      38.529  28.933  28.407  1.00  0.00     0.029 A 
ATOM     24  C   UNL A   1      39.547  28.801  29.433  1.00  0.00     0.049 A 
ATOM     25  H   UNL A   1      39.564  29.684  31.321  1.00  0.00     0.167 HD
ATOM     26  C   UNL A   1      39.195  31.516  35.299  1.00  0.00     0.037 A 
ATOM     27  C   UNL A   1      40.662  28.058  29.328  1.00  0.00     0.037 A 
ATOM     28  C   UNL A   1      40.399  30.728  35.321  1.00  0.00     0.049 A 
ATOM     29  C   UNL A   1      41.619  28.082  30.474  1.00  0.00     0.074 A 
ATOM     30  C   UNL A   1      41.263  30.487  36.370  1.00  0.00     0.029 A 
ATOM     31  N   UNL A   1      40.911  30.055  34.216  1.00  0.00    -0.354 N 
ATOM     32  N   UNL A   1      41.483  28.669  31.637  1.00  0.00    -0.248 NA
ATOM     33  C   UNL A   1      42.876  27.353  30.298  1.00  0.00     0.031 C 
ATOM     34  C   UNL A   1      42.327  29.716  35.887  1.00  0.00     0.029 A 
ATOM     35  C   UNL A   1      42.093  29.417  34.552  1.00  0.00     0.049 A 
ATOM     36  H   UNL A   1      40.494  30.037  33.324  1.00  0.00     0.167 HD
ATOM     37  C   UNL A   1      42.604  28.322  32.368  1.00  0.00     0.074 A 
ATOM     38  C   UNL A   1      43.435  27.515  31.491  1.00  0.00     0.031 C 
ATOM     39  C   UNL A   1      42.892  28.610  33.661  1.00  0.00     0.037 A 
BRANCH  26  40
ATOM     40  C   UNL A   1      38.690  32.156  36.558  1.00  0.00     0.064 A 
ATOM     41  C   UNL A   1      37.827  31.457  37.413  1.00  0.00     0.173 A 
ATOM     42  C   UNL A   1      39.100  33.441  36.951  1.00  0.00     0.173 A 
ATOM     43  F   UNL A   1      37.412  30.221  37.093  1.00  0.00    -0.203 F 
ATOM     44  C   UNL A   1      37.398  32.015  38.615  1.00  0.00     0.198 A 
ATOM     45  C   UNL A   1      38.695  33.984  38.168  1.00  0.00     0.198 A 
ATOM     46  F   UNL A   1      39.952  34.142  36.186  1.00  0.00    -0.203 F 
ATOM     47  F   UNL A   1      36.571  31.326  39.414  1.00  0.00    -0.200 F 
ATOM     48  C   UNL A   1      37.840  33.272  38.997  1.00  0.00     0.200 A 
ATOM     49  F   UNL A   1      39.157  35.181  38.555  1.00  0.00    -0.200 F 
ATOM     50  F   UNL A   1      37.460  33.789  40.173  1.00  0.00    -0.200 F 
ENDBRANCH  26  40
BRANCH  27  51
ATOM     51  C   UNL A   1      40.968  27.351  28.060  1.00  0.00     0.064 A 
ATOM     52  C   UNL A   1      40.572  26.018  27.895  1.00  0.00     0.173 A 
ATOM     53  C   UNL A   1      41.672  27.952  27.014  1.00  0.00     0.173 A 
ATOM     54  F   UNL A   1      39.860  25.422  28.857  1.00  0.00    -0.203 F 
ATOM     55  C   UNL A   1      40.903  25.294  26.754  1.00  0.00     0.198 A 
ATOM     56  C   UNL A   1      41.985  27.236  25.857  1.00  0.00     0.198 A 
ATOM     57  F   UNL A   1      42.042  29.237  27.108  1.00  0.00    -0.203 F 
ATOM     58  F   UNL A   1      40.542  24.007  26.650  1.00  0.00    -0.200 F 
ATOM     59  C   UNL A   1      41.612  25.903  25.734  1.00  0.00     0.200 A 
ATOM     60  F   UNL A   1      42.648  27.835  24.859  1.00  0.00    -0.200 F 
ATOM     61  F   UNL A   1      41.932  25.212  24.633  1.00  0.00    -0.200 F 
ENDBRANCH  27  51
BRANCH  39  62
ATOM     62  C   UNL A   1      44.101  27.942  34.236  1.00  0.00     0.064 A 
ATOM     63  C   UNL A   1      43.977  26.662  34.798  1.00  0.00     0.173 A 
ATOM     64  C   UNL A   1      45.361  28.555  34.253  1.00  0.00     0.173 A 
ATOM     65  F   UNL A   1      42.790  26.036  34.800  1.00  0.00    -0.203 F 
ATOM     66  C   UNL A   1      45.070  26.023  35.366  1.00  0.00     0.198 A 
ATOM     67  C   UNL A   1      46.461  27.895  34.791  1.00  0.00     0.198 A 
ATOM     68  F   UNL A   1      45.530  29.767  33.703  1.00  0.00    -0.203 F 
ATOM     69  F   UNL A   1      44.922  24.812  35.921  1.00  0.00    -0.200 F 
ATOM     70  C   UNL A   1      46.313  26.637  35.354  1.00  0.00     0.200 A 
ATOM     71  F   UNL A   1      47.670  28.472  34.746  1.00  0.00    -0.200 F 
ATOM     72  F   UNL A   1      47.374  26.008  35.878  1.00  0.00    -0.200 F 
ENDBRANCH  39  62
ENDBRANCH  13  14
ENDBRANCH   6   8
ENDBRANCH   5   6
ENDBRANCH   4   5
ENDBRANCH   3   4
ENDBRANCH   2   3
ENDBRANCH   1   2
BRANCH   1  73
ATOM     73  C   UNL A   1      33.990  28.608  26.772  1.00  0.00     0.188 C 
BRANCH  73  74
ATOM     74  O   UNL A   1      33.646  27.718  25.712  1.00  0.00    -0.376 OA
BRANCH  74  75
ATOM     75  C   UNL A   1      34.027  28.107  24.399  1.00  0.00     0.202 C 
BRANCH  75  76
ATOM     76  C   UNL A   1      32.914  28.468  23.403  1.00  0.00     0.261 C 
BRANCH  76  77
ATOM     77  O   UNL A   1      32.758  27.577  22.283  1.00  0.00    -0.459 OA
BRANCH  77  78
ATOM     78  C   UNL A   1      31.561  26.940  22.230  1.00  0.00     0.356 C 
ATOM     79  O   UNL A   1      30.475  27.473  22.001  1.00  0.00    -0.244 OA
BRANCH  78  80
ATOM     80  C   UNL A   1      31.637  25.509  22.629  1.00  0.00     0.148 A 
ATOM     81  C   UNL A   1      32.765  24.823  22.207  1.00  0.00     0.037 A 
ATOM     82  N   UNL A   1      30.675  24.948  23.409  1.00  0.00    -0.249 NA
ATOM     83  C   UNL A   1      32.930  23.503  22.606  1.00  0.00     0.013 A 
ATOM     84  C   UNL A   1      30.881  23.648  23.792  1.00  0.00     0.121 A 
ATOM     85  C   UNL A   1      31.982  22.865  23.422  1.00  0.00     0.006 A 
BRANCH  85  86
ATOM     86  C   UNL A   1      32.153  21.433  23.754  1.00  0.00     0.055 A 
ATOM     87  C   UNL A   1      32.483  21.024  25.058  1.00  0.00     0.134 A 
ATOM     88  C   UNL A   1      32.153  20.427  22.777  1.00  0.00     0.134 A 
ATOM     89  F   UNL A   1      32.484  21.915  26.063  1.00  0.00    -0.206 F 
ATOM     90  C   UNL A   1      32.868  19.715  25.363  1.00  0.00     0.040 A 
ATOM     91  C   UNL A   1      32.553  19.115  23.060  1.00  0.00     0.040 A 
ATOM     92  F   UNL A   1      31.803  20.709  21.514  1.00  0.00    -0.206 F 
ATOM     93  C   UNL A   1      32.929  18.761  24.354  1.00  0.00     0.006 A 
ENDBRANCH  85  86
ENDBRANCH  78  80
ENDBRANCH  77  78
ENDBRANCH  76  77
ENDBRANCH  75  76
ENDBRANCH  74  75
ENDBRANCH  73  74
ENDBRANCH   1  73
TORSDOF 18
ENDMDL
MODEL 3
REMARK VINA RESULT:     -10.9      3.608      9.139
REMARK SMILES O=C(OCCOCCOCCOC(=O)c1ccc(-c2c(F)cccc2F)cn1)c1ccc(-c2c3nc(c(-c4c(F)c(F)c(F)c(F)c4F)c4ccc([nH]4)c(-c4c(F)c(F)c(F)c(F)c4F)c4nc(c(-c5c(F)c(F)c(F)c(F)c5F)c5ccc2[nH]5)C=C4)C=C3)cc1
REMARK SMILES IDX 7 1 6 2 5 3 4 4 3 5 2 6 1 7 29 8 30 9 91 10 31 11 90 12
REMARK SMILES IDX 32 13 33 14 34 15 84 16 35 17 89 18 83 19 85 20 36 21 88 22
REMARK SMILES IDX 82 23 81 24 37 26 69 27 49 28 68 29 50 30 53 31 67 32 86 33
REMARK SMILES IDX 51 34 52 35 66 37 87 38 54 39 38 40 39 41 47 42 40 43 41 44
REMARK SMILES IDX 45 45 48 46 42 47 43 48 46 49 44 50 70 51 71 52 79 53 72 54
REMARK SMILES IDX 73 55 77 56 80 57 74 58 75 59 78 60 76 61 55 62 56 63 64 64
REMARK SMILES IDX 57 65 58 66 62 67 65 68 59 69 60 70 63 71 61 72 8 73 9 74
REMARK SMILES IDX 10 75 11 76 12 77 13 78 14 79 15 80 16 81 28 82 17 83 27 84
REMARK SMILES IDX 18 85 19 86 20 87 25 88 21 89 22 90 24 91 26 92 23 93
REMARK H PARENT 85 25 53 36
REMARK Flexibility Score: inf
ROOT
ATOM      1  C   UNL A   1      32.805  29.458  27.243  1.00  0.00     0.188 C 
ENDROOT
BRANCH   1   2
ATOM      2  O   UNL A   1      33.058  30.827  26.915  1.00  0.00    -0.376 OA
BRANCH   2   3
ATOM      3  C   UNL A   1      31.959  31.711  27.151  1.00  0.00     0.202 C 
BRANCH   3   4
ATOM      4  C   UNL A   1      32.157  33.184  26.738  1.00  0.00     0.261 C 
BRANCH   4   5
ATOM      5  O   UNL A   1      32.176  34.117  27.832  1.00  0.00    -0.460 OA
BRANCH   5   6
ATOM      6  C   UNL A   1      33.247  34.715  28.414  1.00  0.00     0.338 C 
ATOM      7  O   UNL A   1      33.329  35.941  28.376  1.00  0.00    -0.246 OA
BRANCH   6   8
ATOM      8  C   UNL A   1      34.354  33.962  29.080  1.00  0.00     0.060 A 
ATOM      9  C   UNL A   1      35.709  34.205  28.871  1.00  0.00     0.016 A 
ATOM     10  C   UNL A   1      34.010  33.000  30.041  1.00  0.00     0.016 A 
ATOM     11  C   UNL A   1      36.698  33.480  29.516  1.00  0.00     0.010 A 
ATOM     12  C   UNL A   1      35.001  32.304  30.749  1.00  0.00     0.010 A 
ATOM     13  C   UNL A   1      36.355  32.537  30.472  1.00  0.00    -0.014 A 
BRANCH  13  14
ATOM     14  C   UNL A   1      37.431  31.728  31.074  1.00  0.00     0.031 A 
ATOM     15  C   UNL A   1      37.780  31.974  32.505  1.00  0.00     0.074 A 
ATOM     16  C   UNL A   1      37.971  30.688  30.411  1.00  0.00     0.049 A 
ATOM     17  N   UNL A   1      38.766  31.496  33.212  1.00  0.00    -0.248 NA
ATOM     18  C   UNL A   1      36.857  32.843  33.256  1.00  0.00     0.031 C 
ATOM     19  C   UNL A   1      37.523  30.188  29.112  1.00  0.00     0.029 A 
ATOM     20  N   UNL A   1      39.011  29.858  30.739  1.00  0.00    -0.354 N 
ATOM     21  C   UNL A   1      38.569  31.982  34.495  1.00  0.00     0.074 A 
ATOM     22  C   UNL A   1      37.404  32.837  34.461  1.00  0.00     0.031 C 
ATOM     23  C   UNL A   1      38.308  29.169  28.732  1.00  0.00     0.029 A 
ATOM     24  C   UNL A   1      39.354  28.999  29.723  1.00  0.00     0.049 A 
ATOM     25  H   UNL A   1      39.465  29.875  31.612  1.00  0.00     0.167 HD
ATOM     26  C   UNL A   1      39.293  31.707  35.603  1.00  0.00     0.037 A 
ATOM     27  C   UNL A   1      40.439  28.218  29.579  1.00  0.00     0.037 A 
ATOM     28  C   UNL A   1      40.469  30.878  35.583  1.00  0.00     0.049 A 
ATOM     29  C   UNL A   1      41.434  28.206  30.693  1.00  0.00     0.074 A 
ATOM     30  C   UNL A   1      41.359  30.604  36.603  1.00  0.00     0.029 A 
ATOM     31  N   UNL A   1      40.921  30.191  34.460  1.00  0.00    -0.354 N 
ATOM     32  N   UNL A   1      41.358  28.793  31.861  1.00  0.00    -0.248 NA
ATOM     33  C   UNL A   1      42.659  27.434  30.474  1.00  0.00     0.031 C 
ATOM     34  C   UNL A   1      42.378  29.798  36.082  1.00  0.00     0.029 A 
ATOM     35  C   UNL A   1      42.089  29.512  34.756  1.00  0.00     0.049 A 
ATOM     36  H   UNL A   1      40.474  30.190  33.583  1.00  0.00     0.167 HD
ATOM     37  C   UNL A   1      42.490  28.406  32.554  1.00  0.00     0.074 A 
ATOM     38  C   UNL A   1      43.262  27.573  31.648  1.00  0.00     0.031 C 
ATOM     39  C   UNL A   1      42.830  28.680  33.837  1.00  0.00     0.037 A 
BRANCH  26  40
ATOM     40  C   UNL A   1      38.853  32.361  36.879  1.00  0.00     0.064 A 
ATOM     41  C   UNL A   1      37.932  31.723  37.722  1.00  0.00     0.173 A 
ATOM     42  C   UNL A   1      39.380  33.593  37.299  1.00  0.00     0.173 A 
ATOM     43  F   UNL A   1      37.405  30.539  37.375  1.00  0.00    -0.203 F 
ATOM     44  C   UNL A   1      37.560  32.289  38.939  1.00  0.00     0.198 A 
ATOM     45  C   UNL A   1      39.030  34.142  38.531  1.00  0.00     0.198 A 
ATOM     46  F   UNL A   1      40.290  34.231  36.547  1.00  0.00    -0.203 F 
ATOM     47  F   UNL A   1      36.676  31.660  39.726  1.00  0.00    -0.200 F 
ATOM     48  C   UNL A   1      38.117  33.491  39.348  1.00  0.00     0.200 A 
ATOM     49  F   UNL A   1      39.601  35.282  38.944  1.00  0.00    -0.200 F 
ATOM     50  F   UNL A   1      37.789  34.013  40.538  1.00  0.00    -0.200 F 
ENDBRANCH  26  40
BRANCH  27  51
ATOM     51  C   UNL A   1      40.678  27.505  28.302  1.00  0.00     0.064 A 
ATOM     52  C   UNL A   1      40.226  26.189  28.146  1.00  0.00     0.173 A 
ATOM     53  C   UNL A   1      41.371  28.083  27.235  1.00  0.00     0.173 A 
ATOM     54  F   UNL A   1      39.523  25.616  29.128  1.00  0.00    -0.203 F 
ATOM     55  C   UNL A   1      40.493  25.456  26.993  1.00  0.00     0.198 A 
ATOM     56  C   UNL A   1      41.620  27.359  26.067  1.00  0.00     0.198 A 
ATOM     57  F   UNL A   1      41.792  29.352  27.320  1.00  0.00    -0.203 F 
ATOM     58  F   UNL A   1      40.080  24.184  26.897  1.00  0.00    -0.200 F 
ATOM     59  C   UNL A   1      41.193  26.042  25.952  1.00  0.00     0.200 A 
ATOM     60  F   UNL A   1      42.273  27.936  25.050  1.00  0.00    -0.200 F 
ATOM     61  F   UNL A   1      41.451  25.343  24.840  1.00  0.00    -0.200 F 
ENDBRANCH  27  51
BRANCH  39  62
ATOM     62  C   UNL A   1      44.034  27.969  34.370  1.00  0.00     0.064 A 
ATOM     63  C   UNL A   1      43.885  26.689  34.928  1.00  0.00     0.173 A 
ATOM     64  C   UNL A   1      45.313  28.540  34.351  1.00  0.00     0.173 A 
ATOM     65  F   UNL A   1      42.678  26.103  34.963  1.00  0.00    -0.203 F 
ATOM     66  C   UNL A   1      44.974  26.011  35.458  1.00  0.00     0.198 A 
ATOM     67  C   UNL A   1      46.407  27.841  34.850  1.00  0.00     0.198 A 
ATOM     68  F   UNL A   1      45.505  29.749  33.803  1.00  0.00    -0.203 F 
ATOM     69  F   UNL A   1      44.803  24.802  36.010  1.00  0.00    -0.200 F 
ATOM     70  C   UNL A   1      46.235  26.584  35.411  1.00  0.00     0.200 A 
ATOM     71  F   UNL A   1      47.632  28.377  34.771  1.00  0.00    -0.200 F 
ATOM     72  F   UNL A   1      47.291  25.917  35.898  1.00  0.00    -0.200 F 
ENDBRANCH  39  62
ENDBRANCH  13  14
ENDBRANCH   6   8
ENDBRANCH   5   6
ENDBRANCH   4   5
ENDBRANCH   3   4
ENDBRANCH   2   3
ENDBRANCH   1   2
BRANCH   1  73
ATOM     73  C   UNL A   1      33.769  28.487  26.558  1.00  0.00     0.188 C 
BRANCH  73  74
ATOM     74  O   UNL A   1      33.185  27.377  25.876  1.00  0.00    -0.376 OA
BRANCH  74  75
ATOM     75  C   UNL A   1      31.778  27.419  25.674  1.00  0.00     0.202 C 
BRANCH  75  76
ATOM     76  C   UNL A   1      30.906  26.444  26.480  1.00  0.00     0.261 C 
BRANCH  76  77
ATOM     77  O   UNL A   1      30.452  25.274  25.775  1.00  0.00    -0.459 OA
BRANCH  77  78
ATOM     78  C   UNL A   1      30.610  24.109  26.451  1.00  0.00     0.356 C 
ATOM     79  O   UNL A   1      29.806  23.630  27.252  1.00  0.00    -0.244 OA
BRANCH  78  80
ATOM     80  C   UNL A   1      31.951  23.494  26.258  1.00  0.00     0.148 A 
ATOM     81  C   UNL A   1      32.424  23.470  24.956  1.00  0.00     0.037 A 
ATOM     82  N   UNL A   1      32.672  23.043  27.319  1.00  0.00    -0.249 NA
ATOM     83  C   UNL A   1      33.699  22.973  24.719  1.00  0.00     0.013 A 
ATOM     84  C   UNL A   1      33.930  22.573  27.045  1.00  0.00     0.121 A 
ATOM     85  C   UNL A   1      34.504  22.503  25.768  1.00  0.00     0.006 A 
BRANCH  85  86
ATOM     86  C   UNL A   1      35.821  21.903  25.463  1.00  0.00     0.055 A 
ATOM     87  C   UNL A   1      35.927  20.579  25.003  1.00  0.00     0.134 A 
ATOM     88  C   UNL A   1      37.031  22.550  25.755  1.00  0.00     0.134 A 
ATOM     89  F   UNL A   1      34.822  19.890  24.675  1.00  0.00    -0.206 F 
ATOM     90  C   UNL A   1      37.150  19.907  24.915  1.00  0.00     0.040 A 
ATOM     91  C   UNL A   1      38.263  21.888  25.690  1.00  0.00     0.040 A 
ATOM     92  F   UNL A   1      37.036  23.830  26.152  1.00  0.00    -0.206 F 
ATOM     93  C   UNL A   1      38.323  20.556  25.285  1.00  0.00     0.006 A 
ENDBRANCH  85  86
ENDBRANCH  78  80
ENDBRANCH  77  78
ENDBRANCH  76  77
ENDBRANCH  75  76
ENDBRANCH  74  75
ENDBRANCH  73  74
ENDBRANCH   1  73
TORSDOF 18
ENDMDL
