MODEL 1
REMARK VINA RESULT:     -11.2      0.000      0.000
REMARK SMILES Cc1occc1C(=O)NN1C(=O)/C(=C\c2ccc(O[C@H](C)C(=O)OCCOCCOCCOC(=O)c3ccc(-c4c5nc(c(-c6c(F)c(F)c(F)c(F)c6F)c6ccc([nH]6)c(-c6c(F)c(F)c(F)c(F)c6F)c6nc(c(-c7c(F)c(F)c(F)c(F)c7F)c7ccc4[nH]7)C=C6)C=C5)cc3)cc2)SC1=S
REMARK SMILES IDX 27 1 26 2 25 3 24 4 22 5 23 6 20 7 21 8 19 9 18 10 15 11
REMARK SMILES IDX 16 12 100 13 17 14 99 15 14 16 10 17 11 18 102 19 12 20
REMARK SMILES IDX 13 21 101 22 103 23 9 24 7 25 8 26 6 28 1 29 2 30 3 31 4 32
REMARK SMILES IDX 5 33 28 34 29 35 30 36 31 37 32 38 33 39 34 40 35 41 36 42
REMARK SMILES IDX 37 43 98 44 38 45 97 46 39 47 40 48 41 49 91 50 42 51 96 52
REMARK SMILES IDX 90 53 92 54 43 55 95 56 89 57 88 58 44 60 76 61 56 62 75 63
REMARK SMILES IDX 57 64 60 65 74 66 93 67 58 68 59 69 73 71 94 72 61 73 45 74
REMARK SMILES IDX 46 75 54 76 47 77 48 78 52 79 55 80 49 81 50 82 53 83 51 84
REMARK SMILES IDX 77 85 78 86 86 87 79 88 80 89 84 90 87 91 81 92 82 93 85 94
REMARK SMILES IDX 83 95 62 96 63 97 71 98 64 99 65 100 69 101 72 102 66 103
REMARK SMILES IDX 67 104 70 105 68 106
REMARK H PARENT 9 27 92 59 60 70
REMARK Flexibility Score: inf
ROOT
ATOM      1  O   UNL A   1      38.837  21.762  26.396  1.00  0.00    -0.376 OA
ENDROOT
BRANCH   1   2
ATOM      2  C   UNL A   1      38.211  22.547  25.392  1.00  0.00     0.202 C 
BRANCH   2   3
ATOM      3  C   UNL A   1      36.891  22.057  24.773  1.00  0.00     0.261 C 
BRANCH   3   4
ATOM      4  O   UNL A   1      36.099  21.144  25.561  1.00  0.00    -0.461 OA
BRANCH   4   5
ATOM      5  C   UNL A   1      35.954  19.892  25.046  1.00  0.00     0.347 C 
ATOM      6  O   UNL A   1      36.896  19.151  24.777  1.00  0.00    -0.248 OA
BRANCH   5   7
ATOM      7  C   UNL A   1      34.504  19.492  24.746  1.00  0.00     0.279 C 
ATOM      8  C   UNL A   1      34.123  18.079  24.292  1.00  0.00     0.066 C 
BRANCH   7   9
ATOM      9  O   UNL A   1      33.643  20.082  25.712  1.00  0.00    -0.479 OA
BRANCH   9  10
ATOM     10  C   UNL A   1      33.039  21.282  25.518  1.00  0.00     0.120 A 
ATOM     11  C   UNL A   1      31.324  23.411  24.928  1.00  0.00    -0.024 A 
ATOM     12  C   UNL A   1      31.990  23.359  26.154  1.00  0.00     0.012 A 
ATOM     13  C   UNL A   1      31.676  22.499  23.932  1.00  0.00     0.012 A 
ATOM     14  C   UNL A   1      32.869  22.310  26.436  1.00  0.00     0.047 A 
ATOM     15  C   UNL A   1      32.499  21.420  24.242  1.00  0.00     0.047 A 
BRANCH  11  16
ATOM     16  C   UNL A   1      30.223  24.370  24.775  1.00  0.00     0.029 C 
ATOM     17  N   UNL A   1      31.283  27.518  23.321  1.00  0.00    -0.198 N 
ATOM     18  C   UNL A   1      31.531  26.174  23.539  1.00  0.00     0.285 C 
ATOM     19  C   UNL A   1      29.968  27.925  23.284  1.00  0.00     0.168 C 
ATOM     20  O   UNL A   1      32.570  25.606  23.236  1.00  0.00    -0.266 OA
ATOM     21  C   UNL A   1      30.313  25.543  24.127  1.00  0.00     0.082 C 
ATOM     22  S   UNL A   1      28.960  26.605  23.894  1.00  0.00    -0.052 SA
ATOM     23  S   UNL A   1      29.353  29.381  22.760  1.00  0.00    -0.050 S 
BRANCH  17  24
ATOM     24  N   UNL A   1      32.349  28.284  22.876  1.00  0.00    -0.254 N 
ATOM     25  C   UNL A   1      33.342  28.865  23.632  1.00  0.00     0.273 C 
ATOM     26  O   UNL A   1      34.304  29.324  23.009  1.00  0.00    -0.267 OA
ATOM     27  H   UNL A   1      32.402  28.430  21.903  1.00  0.00     0.192 HD
BRANCH  25  28
ATOM     28  C   UNL A   1      33.259  29.056  25.077  1.00  0.00     0.082 A 
ATOM     29  C   UNL A   1      31.379  30.831  25.752  1.00  0.00     0.088 C 
ATOM     30  C   UNL A   1      32.480  29.859  25.902  1.00  0.00     0.113 A 
ATOM     31  O   UNL A   1      32.800  29.644  27.214  1.00  0.00    -0.469 OA
ATOM     32  C   UNL A   1      33.727  28.664  27.260  1.00  0.00     0.196 A 
ATOM     33  C   UNL A   1      34.028  28.251  25.991  1.00  0.00     0.056 A 
ENDBRANCH  25  28
ENDBRANCH  17  24
ENDBRANCH  11  16
ENDBRANCH   9  10
ENDBRANCH   7   9
ENDBRANCH   5   7
ENDBRANCH   4   5
ENDBRANCH   3   4
ENDBRANCH   2   3
ENDBRANCH   1   2
BRANCH   1  34
ATOM     34  C   UNL A   1      40.095  21.153  26.136  1.00  0.00     0.188 C 
BRANCH  34  35
ATOM     35  C   UNL A   1      41.106  20.959  27.281  1.00  0.00     0.188 C 
BRANCH  35  36
ATOM     36  O   UNL A   1      42.297  20.312  26.905  1.00  0.00    -0.376 OA
BRANCH  36  37
ATOM     37  C   UNL A   1      42.203  19.171  26.077  1.00  0.00     0.202 C 
BRANCH  37  38
ATOM     38  C   UNL A   1      43.505  18.529  25.573  1.00  0.00     0.261 C 
BRANCH  38  39
ATOM     39  O   UNL A   1      43.937  18.890  24.249  1.00  0.00    -0.460 OA
BRANCH  39  40
ATOM     40  C   UNL A   1      45.147  19.492  24.131  1.00  0.00     0.338 C 
ATOM     41  O   UNL A   1      46.113  19.078  23.525  1.00  0.00    -0.246 OA
BRANCH  40  42
ATOM     42  C   UNL A   1      45.014  20.869  24.670  1.00  0.00     0.060 A 
ATOM     43  C   UNL A   1      44.460  21.869  23.858  1.00  0.00     0.016 A 
ATOM     44  C   UNL A   1      45.416  21.167  25.973  1.00  0.00     0.016 A 
ATOM     45  C   UNL A   1      44.326  23.175  24.339  1.00  0.00     0.010 A 
ATOM     46  C   UNL A   1      45.305  22.480  26.444  1.00  0.00     0.010 A 
ATOM     47  C   UNL A   1      44.785  23.498  25.622  1.00  0.00    -0.014 A 
BRANCH  47  48
ATOM     48  C   UNL A   1      44.907  24.918  26.039  1.00  0.00     0.031 A 
ATOM     49  C   UNL A   1      46.262  25.570  25.963  1.00  0.00     0.074 A 
ATOM     50  C   UNL A   1      43.850  25.626  26.478  1.00  0.00     0.049 A 
ATOM     51  N   UNL A   1      46.643  26.758  26.357  1.00  0.00    -0.248 NA
ATOM     52  C   UNL A   1      47.336  24.762  25.363  1.00  0.00     0.031 C 
ATOM     53  C   UNL A   1      42.477  25.138  26.555  1.00  0.00     0.029 A 
ATOM     54  N   UNL A   1      43.779  26.912  26.957  1.00  0.00    -0.354 N 
ATOM     55  C   UNL A   1      47.998  26.835  26.065  1.00  0.00     0.074 A 
ATOM     56  C   UNL A   1      48.381  25.565  25.488  1.00  0.00     0.031 C 
ATOM     57  C   UNL A   1      41.699  26.106  27.072  1.00  0.00     0.029 A 
ATOM     58  C   UNL A   1      42.527  27.267  27.397  1.00  0.00     0.049 A 
ATOM     59  H   UNL A   1      44.552  27.522  26.982  1.00  0.00     0.167 HD
ATOM     60  C   UNL A   1      48.848  27.872  26.255  1.00  0.00     0.037 A 
ATOM     61  C   UNL A   1      42.107  28.388  28.020  1.00  0.00     0.037 A 
ATOM     62  C   UNL A   1      48.470  29.136  26.832  1.00  0.00     0.049 A 
ATOM     63  C   UNL A   1      43.093  29.498  28.301  1.00  0.00     0.074 A 
ATOM     64  C   UNL A   1      49.256  30.254  27.049  1.00  0.00     0.029 A 
ATOM     65  N   UNL A   1      47.199  29.445  27.294  1.00  0.00    -0.354 N 
ATOM     66  N   UNL A   1      44.367  29.574  28.003  1.00  0.00    -0.248 NA
ATOM     67  C   UNL A   1      42.577  30.680  29.007  1.00  0.00     0.031 C 
ATOM     68  C   UNL A   1      48.478  31.215  27.700  1.00  0.00     0.029 A 
ATOM     69  C   UNL A   1      47.188  30.725  27.824  1.00  0.00     0.049 A 
ATOM     70  H   UNL A   1      46.420  28.844  27.251  1.00  0.00     0.167 HD
ATOM     71  C   UNL A   1      44.793  30.819  28.451  1.00  0.00     0.074 A 
ATOM     72  C   UNL A   1      43.639  31.471  29.030  1.00  0.00     0.031 C 
ATOM     73  C   UNL A   1      46.031  31.372  28.387  1.00  0.00     0.037 A 
BRANCH  60  74
ATOM     74  C   UNL A   1      50.284  27.673  25.865  1.00  0.00     0.064 A 
ATOM     75  C   UNL A   1      50.717  27.813  24.538  1.00  0.00     0.173 A 
ATOM     76  C   UNL A   1      51.247  27.371  26.840  1.00  0.00     0.173 A 
ATOM     77  F   UNL A   1      49.835  28.085  23.564  1.00  0.00    -0.203 F 
ATOM     78  C   UNL A   1      52.056  27.631  24.198  1.00  0.00     0.198 A 
ATOM     79  C   UNL A   1      52.589  27.224  26.502  1.00  0.00     0.198 A 
ATOM     80  F   UNL A   1      50.888  27.230  28.125  1.00  0.00    -0.203 F 
ATOM     81  F   UNL A   1      52.438  27.718  22.916  1.00  0.00    -0.200 F 
ATOM     82  C   UNL A   1      52.992  27.346  25.181  1.00  0.00     0.200 A 
ATOM     83  F   UNL A   1      53.494  26.963  27.456  1.00  0.00    -0.200 F 
ATOM     84  F   UNL A   1      54.280  27.180  24.854  1.00  0.00    -0.200 F 
ENDBRANCH  60  74
BRANCH  61  85
ATOM     85  C   UNL A   1      40.687  28.519  28.449  1.00  0.00     0.064 A 
ATOM     86  C   UNL A   1      39.717  29.052  27.588  1.00  0.00     0.173 A 
ATOM     87  C   UNL A   1      40.280  28.157  29.742  1.00  0.00     0.173 A 
ATOM     88  F   UNL A   1      40.061  29.445  26.353  1.00  0.00    -0.203 F 
ATOM     89  C   UNL A   1      38.402  29.239  28.011  1.00  0.00     0.198 A 
ATOM     90  C   UNL A   1      38.957  28.313  30.153  1.00  0.00     0.198 A 
ATOM     91  F   UNL A   1      41.169  27.652  30.609  1.00  0.00    -0.203 F 
ATOM     92  F   UNL A   1      37.510  29.807  27.187  1.00  0.00    -0.200 F 
ATOM     93  C   UNL A   1      38.022  28.864  29.291  1.00  0.00     0.200 A 
ATOM     94  F   UNL A   1      38.594  27.942  31.388  1.00  0.00    -0.200 F 
ATOM     95  F   UNL A   1      36.759  29.047  29.698  1.00  0.00    -0.200 F 
ENDBRANCH  61  85
BRANCH  73  96
ATOM     96  C   UNL A   1      46.197  32.773  28.910  1.00  0.00     0.064 A 
ATOM     97  C   UNL A   1      46.492  33.033  30.256  1.00  0.00     0.173 A 
ATOM     98  C   UNL A   1      46.104  33.870  28.038  1.00  0.00     0.173 A 
ATOM     99  F   UNL A   1      46.581  32.024  31.135  1.00  0.00    -0.203 F 
ATOM    100  C   UNL A   1      46.659  34.339  30.715  1.00  0.00     0.198 A 
ATOM    101  C   UNL A   1      46.306  35.170  28.493  1.00  0.00     0.198 A 
ATOM    102  F   UNL A   1      45.834  33.680  26.737  1.00  0.00    -0.203 F 
ATOM    103  F   UNL A   1      46.888  34.565  32.017  1.00  0.00    -0.200 F 
ATOM    104  C   UNL A   1      46.574  35.405  29.832  1.00  0.00     0.200 A 
ATOM    105  F   UNL A   1      46.244  36.196  27.633  1.00  0.00    -0.200 F 
ATOM    106  F   UNL A   1      46.745  36.658  30.274  1.00  0.00    -0.200 F 
ENDBRANCH  73  96
ENDBRANCH  47  48
ENDBRANCH  40  42
ENDBRANCH  39  40
ENDBRANCH  38  39
ENDBRANCH  37  38
ENDBRANCH  36  37
ENDBRANCH  35  36
ENDBRANCH  34  35
ENDBRANCH   1  34
TORSDOF 22
ENDMDL
MODEL 2
REMARK VINA RESULT:      -9.8      4.140      7.423
REMARK SMILES Cc1occc1C(=O)NN1C(=O)/C(=C\c2ccc(O[C@H](C)C(=O)OCCOCCOCCOC(=O)c3ccc(-c4c5nc(c(-c6c(F)c(F)c(F)c(F)c6F)c6ccc([nH]6)c(-c6c(F)c(F)c(F)c(F)c6F)c6nc(c(-c7c(F)c(F)c(F)c(F)c7F)c7ccc4[nH]7)C=C6)C=C5)cc3)cc2)SC1=S
REMARK SMILES IDX 27 1 26 2 25 3 24 4 22 5 23 6 20 7 21 8 19 9 18 10 15 11
REMARK SMILES IDX 16 12 100 13 17 14 99 15 14 16 10 17 11 18 102 19 12 20
REMARK SMILES IDX 13 21 101 22 103 23 9 24 7 25 8 26 6 28 1 29 2 30 3 31 4 32
REMARK SMILES IDX 5 33 28 34 29 35 30 36 31 37 32 38 33 39 34 40 35 41 36 42
REMARK SMILES IDX 37 43 98 44 38 45 97 46 39 47 40 48 41 49 91 50 42 51 96 52
REMARK SMILES IDX 90 53 92 54 43 55 95 56 89 57 88 58 44 60 76 61 56 62 75 63
REMARK SMILES IDX 57 64 60 65 74 66 93 67 58 68 59 69 73 71 94 72 61 73 45 74
REMARK SMILES IDX 46 75 54 76 47 77 48 78 52 79 55 80 49 81 50 82 53 83 51 84
REMARK SMILES IDX 77 85 78 86 86 87 79 88 80 89 84 90 87 91 81 92 82 93 85 94
REMARK SMILES IDX 83 95 62 96 63 97 71 98 64 99 65 100 69 101 72 102 66 103
REMARK SMILES IDX 67 104 70 105 68 106
REMARK H PARENT 9 27 92 59 60 70
REMARK Flexibility Score: inf
ROOT
ATOM      1  O   UNL A   1      39.650  21.840  25.751  1.00  0.00    -0.376 OA
ENDROOT
BRANCH   1   2
ATOM      2  C   UNL A   1      38.297  22.241  25.918  1.00  0.00     0.202 C 
BRANCH   2   3
ATOM      3  C   UNL A   1      37.278  21.912  24.815  1.00  0.00     0.261 C 
BRANCH   3   4
ATOM      4  O   UNL A   1      36.032  21.316  25.232  1.00  0.00    -0.461 OA
BRANCH   4   5
ATOM      5  C   UNL A   1      35.910  19.980  25.001  1.00  0.00     0.347 C 
ATOM      6  O   UNL A   1      36.860  19.202  24.975  1.00  0.00    -0.248 OA
BRANCH   5   7
ATOM      7  C   UNL A   1      34.481  19.515  24.695  1.00  0.00     0.279 C 
ATOM      8  C   UNL A   1      34.164  18.083  24.250  1.00  0.00     0.066 C 
BRANCH   7   9
ATOM      9  O   UNL A   1      33.588  20.075  25.650  1.00  0.00    -0.479 OA
BRANCH   9  10
ATOM     10  C   UNL A   1      32.992  21.282  25.475  1.00  0.00     0.120 A 
ATOM     11  C   UNL A   1      31.296  23.431  24.904  1.00  0.00    -0.024 A 
ATOM     12  C   UNL A   1      31.933  23.343  26.144  1.00  0.00     0.012 A 
ATOM     13  C   UNL A   1      31.669  22.545  23.892  1.00  0.00     0.012 A 
ATOM     14  C   UNL A   1      32.804  22.285  26.417  1.00  0.00     0.047 A 
ATOM     15  C   UNL A   1      32.481  21.455  24.192  1.00  0.00     0.047 A 
BRANCH  11  16
ATOM     16  C   UNL A   1      30.201  24.397  24.752  1.00  0.00     0.029 C 
ATOM     17  N   UNL A   1      31.282  27.543  23.310  1.00  0.00    -0.198 N 
ATOM     18  C   UNL A   1      31.522  26.197  23.525  1.00  0.00     0.285 C 
ATOM     19  C   UNL A   1      29.970  27.958  23.272  1.00  0.00     0.168 C 
ATOM     20  O   UNL A   1      32.558  25.623  23.222  1.00  0.00    -0.266 OA
ATOM     21  C   UNL A   1      30.299  25.572  24.108  1.00  0.00     0.082 C 
ATOM     22  S   UNL A   1      28.953  26.642  23.876  1.00  0.00    -0.052 SA
ATOM     23  S   UNL A   1      29.365  29.419  22.751  1.00  0.00    -0.050 S 
BRANCH  17  24
ATOM     24  N   UNL A   1      32.354  28.304  22.869  1.00  0.00    -0.254 N 
ATOM     25  C   UNL A   1      33.352  28.871  23.628  1.00  0.00     0.273 C 
ATOM     26  O   UNL A   1      34.318  29.327  23.008  1.00  0.00    -0.267 OA
ATOM     27  H   UNL A   1      32.407  28.457  21.897  1.00  0.00     0.192 HD
BRANCH  25  28
ATOM     28  C   UNL A   1      33.273  29.052  25.075  1.00  0.00     0.082 A 
ATOM     29  C   UNL A   1      31.400  30.828  25.767  1.00  0.00     0.088 C 
ATOM     30  C   UNL A   1      32.498  29.852  25.907  1.00  0.00     0.113 A 
ATOM     31  O   UNL A   1      32.820  29.625  27.217  1.00  0.00    -0.469 OA
ATOM     32  C   UNL A   1      33.744  28.642  27.254  1.00  0.00     0.196 A 
ATOM     33  C   UNL A   1      34.041  28.238  25.981  1.00  0.00     0.056 A 
ENDBRANCH  25  28
ENDBRANCH  17  24
ENDBRANCH  11  16
ENDBRANCH   9  10
ENDBRANCH   7   9
ENDBRANCH   5   7
ENDBRANCH   4   5
ENDBRANCH   3   4
ENDBRANCH   2   3
ENDBRANCH   1   2
BRANCH   1  34
ATOM     34  C   UNL A   1      40.543  21.884  26.856  1.00  0.00     0.188 C 
BRANCH  34  35
ATOM     35  C   UNL A   1      41.834  21.047  26.834  1.00  0.00     0.188 C 
BRANCH  35  36
ATOM     36  O   UNL A   1      43.017  21.801  26.720  1.00  0.00    -0.376 OA
BRANCH  36  37
ATOM     37  C   UNL A   1      42.930  23.096  26.163  1.00  0.00     0.202 C 
BRANCH  37  38
ATOM     38  C   UNL A   1      43.963  23.502  25.100  1.00  0.00     0.261 C 
BRANCH  38  39
ATOM     39  O   UNL A   1      44.074  24.906  24.805  1.00  0.00    -0.460 OA
BRANCH  39  40
ATOM     40  C   UNL A   1      45.267  25.502  25.048  1.00  0.00     0.338 C 
ATOM     41  O   UNL A   1      46.319  25.291  24.482  1.00  0.00    -0.246 OA
BRANCH  40  42
ATOM     42  C   UNL A   1      45.016  26.640  25.969  1.00  0.00     0.060 A 
ATOM     43  C   UNL A   1      46.107  27.279  26.576  1.00  0.00     0.016 A 
ATOM     44  C   UNL A   1      43.717  27.085  26.217  1.00  0.00     0.016 A 
ATOM     45  C   UNL A   1      45.901  28.351  27.449  1.00  0.00     0.010 A 
ATOM     46  C   UNL A   1      43.510  28.141  27.112  1.00  0.00     0.010 A 
ATOM     47  C   UNL A   1      44.597  28.763  27.754  1.00  0.00    -0.014 A 
BRANCH  47  48
ATOM     48  C   UNL A   1      44.351  29.701  28.879  1.00  0.00     0.031 A 
ATOM     49  C   UNL A   1      44.109  29.124  30.248  1.00  0.00     0.074 A 
ATOM     50  C   UNL A   1      44.339  31.035  28.706  1.00  0.00     0.049 A 
ATOM     51  N   UNL A   1      43.778  29.724  31.364  1.00  0.00    -0.248 NA
ATOM     52  C   UNL A   1      44.256  27.665  30.371  1.00  0.00     0.031 C 
ATOM     53  C   UNL A   1      44.606  31.728  27.450  1.00  0.00     0.029 A 
ATOM     54  N   UNL A   1      44.074  32.046  29.600  1.00  0.00    -0.354 N 
ATOM     55  C   UNL A   1      43.665  28.717  32.313  1.00  0.00     0.074 A 
ATOM     56  C   UNL A   1      43.934  27.466  31.640  1.00  0.00     0.031 C 
ATOM     57  C   UNL A   1      44.472  33.052  27.646  1.00  0.00     0.029 A 
ATOM     58  C   UNL A   1      44.071  33.296  29.032  1.00  0.00     0.049 A 
ATOM     59  H   UNL A   1      43.901  31.888  30.556  1.00  0.00     0.167 HD
ATOM     60  C   UNL A   1      43.370  28.826  33.631  1.00  0.00     0.037 A 
ATOM     61  C   UNL A   1      43.751  34.494  29.564  1.00  0.00     0.037 A 
ATOM     62  C   UNL A   1      43.100  30.070  34.302  1.00  0.00     0.049 A 
ATOM     63  C   UNL A   1      43.339  34.579  31.014  1.00  0.00     0.074 A 
ATOM     64  C   UNL A   1      42.808  30.283  35.638  1.00  0.00     0.029 A 
ATOM     65  N   UNL A   1      43.077  31.312  33.686  1.00  0.00    -0.354 N 
ATOM     66  N   UNL A   1      43.255  33.628  31.912  1.00  0.00    -0.248 NA
ATOM     67  C   UNL A   1      42.976  35.911  31.524  1.00  0.00     0.031 C 
ATOM     68  C   UNL A   1      42.546  31.644  35.818  1.00  0.00     0.029 A 
ATOM     69  C   UNL A   1      42.745  32.292  34.608  1.00  0.00     0.049 A 
ATOM     70  H   UNL A   1      43.268  31.474  32.733  1.00  0.00     0.167 HD
ATOM     71  C   UNL A   1      42.868  34.248  33.095  1.00  0.00     0.074 A 
ATOM     72  C   UNL A   1      42.745  35.660  32.804  1.00  0.00     0.031 C 
ATOM     73  C   UNL A   1      42.636  33.697  34.313  1.00  0.00     0.037 A 
BRANCH  60  74
ATOM     74  C   UNL A   1      43.291  27.558  34.431  1.00  0.00     0.064 A 
ATOM     75  C   UNL A   1      44.415  27.012  35.068  1.00  0.00     0.173 A 
ATOM     76  C   UNL A   1      42.063  26.896  34.589  1.00  0.00     0.173 A 
ATOM     77  F   UNL A   1      45.616  27.596  34.935  1.00  0.00    -0.203 F 
ATOM     78  C   UNL A   1      44.319  25.838  35.811  1.00  0.00     0.198 A 
ATOM     79  C   UNL A   1      41.964  25.743  35.361  1.00  0.00     0.198 A 
ATOM     80  F   UNL A   1      40.956  27.376  34.004  1.00  0.00    -0.203 F 
ATOM     81  F   UNL A   1      45.416  25.308  36.368  1.00  0.00    -0.200 F 
ATOM     82  C   UNL A   1      43.093  25.210  35.965  1.00  0.00     0.200 A 
ATOM     83  F   UNL A   1      40.774  25.145  35.519  1.00  0.00    -0.200 F 
ATOM     84  F   UNL A   1      42.999  24.085  36.688  1.00  0.00    -0.200 F 
ENDBRANCH  60  74
BRANCH  61  85
ATOM     85  C   UNL A   1      43.780  35.721  28.718  1.00  0.00     0.064 A 
ATOM     86  C   UNL A   1      42.630  36.167  28.052  1.00  0.00     0.173 A 
ATOM     87  C   UNL A   1      44.966  36.445  28.526  1.00  0.00     0.173 A 
ATOM     88  F   UNL A   1      41.479  35.491  28.175  1.00  0.00    -0.203 F 
ATOM     89  C   UNL A   1      42.672  37.275  27.206  1.00  0.00     0.198 A 
ATOM     90  C   UNL A   1      44.998  37.572  27.707  1.00  0.00     0.198 A 
ATOM     91  F   UNL A   1      46.097  36.056  29.132  1.00  0.00    -0.203 F 
ATOM     92  F   UNL A   1      41.573  37.642  26.533  1.00  0.00    -0.200 F 
ATOM     93  C   UNL A   1      43.854  37.980  27.040  1.00  0.00     0.200 A 
ATOM     94  F   UNL A   1      46.141  38.254  27.556  1.00  0.00    -0.200 F 
ATOM     95  F   UNL A   1      43.893  39.042  26.224  1.00  0.00    -0.200 F 
ENDBRANCH  61  85
BRANCH  73  96
ATOM     96  C   UNL A   1      42.274  34.624  35.441  1.00  0.00     0.064 A 
ATOM     97  C   UNL A   1      43.250  35.256  36.226  1.00  0.00     0.173 A 
ATOM     98  C   UNL A   1      40.928  34.919  35.711  1.00  0.00     0.173 A 
ATOM     99  F   UNL A   1      44.551  35.003  36.019  1.00  0.00    -0.203 F 
ATOM    100  C   UNL A   1      42.891  36.124  37.256  1.00  0.00     0.198 A 
ATOM    101  C   UNL A   1      40.575  35.813  36.718  1.00  0.00     0.198 A 
ATOM    102  F   UNL A   1      39.952  34.350  34.986  1.00  0.00    -0.203 F 
ATOM    103  F   UNL A   1      43.841  36.675  38.026  1.00  0.00    -0.200 F 
ATOM    104  C   UNL A   1      41.555  36.408  37.495  1.00  0.00     0.200 A 
ATOM    105  F   UNL A   1      39.283  36.101  36.932  1.00  0.00    -0.200 F 
ATOM    106  F   UNL A   1      41.213  37.251  38.479  1.00  0.00    -0.200 F 
ENDBRANCH  73  96
ENDBRANCH  47  48
ENDBRANCH  40  42
ENDBRANCH  39  40
ENDBRANCH  38  39
ENDBRANCH  37  38
ENDBRANCH  36  37
ENDBRANCH  35  36
ENDBRANCH  34  35
ENDBRANCH   1  34
TORSDOF 22
ENDMDL
MODEL 3
REMARK VINA RESULT:      -9.7      4.796      8.373
REMARK SMILES Cc1occc1C(=O)NN1C(=O)/C(=C\c2ccc(O[C@H](C)C(=O)OCCOCCOCCOC(=O)c3ccc(-c4c5nc(c(-c6c(F)c(F)c(F)c(F)c6F)c6ccc([nH]6)c(-c6c(F)c(F)c(F)c(F)c6F)c6nc(c(-c7c(F)c(F)c(F)c(F)c7F)c7ccc4[nH]7)C=C6)C=C5)cc3)cc2)SC1=S
REMARK SMILES IDX 27 1 26 2 25 3 24 4 22 5 23 6 20 7 21 8 19 9 18 10 15 11
REMARK SMILES IDX 16 12 100 13 17 14 99 15 14 16 10 17 11 18 102 19 12 20
REMARK SMILES IDX 13 21 101 22 103 23 9 24 7 25 8 26 6 28 1 29 2 30 3 31 4 32
REMARK SMILES IDX 5 33 28 34 29 35 30 36 31 37 32 38 33 39 34 40 35 41 36 42
REMARK SMILES IDX 37 43 98 44 38 45 97 46 39 47 40 48 41 49 91 50 42 51 96 52
REMARK SMILES IDX 90 53 92 54 43 55 95 56 89 57 88 58 44 60 76 61 56 62 75 63
REMARK SMILES IDX 57 64 60 65 74 66 93 67 58 68 59 69 73 71 94 72 61 73 45 74
REMARK SMILES IDX 46 75 54 76 47 77 48 78 52 79 55 80 49 81 50 82 53 83 51 84
REMARK SMILES IDX 77 85 78 86 86 87 79 88 80 89 84 90 87 91 81 92 82 93 85 94
REMARK SMILES IDX 83 95 62 96 63 97 71 98 64 99 65 100 69 101 72 102 66 103
REMARK SMILES IDX 67 104 70 105 68 106
REMARK H PARENT 9 27 92 59 60 70
REMARK Flexibility Score: inf
ROOT
ATOM      1  O   UNL A   1      44.848  21.000  25.821  1.00  0.00    -0.376 OA
ENDROOT
BRANCH   1   2
ATOM      2  C   UNL A   1      44.275  20.029  24.955  1.00  0.00     0.202 C 
BRANCH   2   3
ATOM      3  C   UNL A   1      43.081  19.196  25.451  1.00  0.00     0.261 C 
BRANCH   3   4
ATOM      4  O   UNL A   1      41.850  19.904  25.703  1.00  0.00    -0.461 OA
BRANCH   4   5
ATOM      5  C   UNL A   1      41.560  20.136  27.013  1.00  0.00     0.347 C 
ATOM      6  O   UNL A   1      41.737  19.312  27.907  1.00  0.00    -0.248 OA
BRANCH   5   7
ATOM      7  C   UNL A   1      40.913  21.499  27.291  1.00  0.00     0.279 C 
ATOM      8  C   UNL A   1      41.504  22.495  28.294  1.00  0.00     0.066 C 
BRANCH   7   9
ATOM      9  O   UNL A   1      40.449  22.057  26.069  1.00  0.00    -0.479 OA
BRANCH   9  10
ATOM     10  C   UNL A   1      39.160  22.444  25.883  1.00  0.00     0.120 A 
ATOM     11  C   UNL A   1      36.381  22.749  25.848  1.00  0.00    -0.024 A 
ATOM     12  C   UNL A   1      37.207  23.833  26.153  1.00  0.00     0.012 A 
ATOM     13  C   UNL A   1      36.962  21.573  25.372  1.00  0.00     0.012 A 
ATOM     14  C   UNL A   1      38.596  23.686  26.141  1.00  0.00     0.047 A 
ATOM     15  C   UNL A   1      38.343  21.412  25.429  1.00  0.00     0.047 A 
BRANCH  11  16
ATOM     16  C   UNL A   1      34.944  22.870  26.126  1.00  0.00     0.029 C 
ATOM     17  N   UNL A   1      33.036  23.980  23.250  1.00  0.00    -0.198 N 
ATOM     18  C   UNL A   1      34.198  23.419  23.753  1.00  0.00     0.285 C 
ATOM     19  C   UNL A   1      31.876  23.794  23.968  1.00  0.00     0.168 C 
ATOM     20  O   UNL A   1      35.191  23.172  23.085  1.00  0.00    -0.266 OA
ATOM     21  C   UNL A   1      34.002  23.112  25.201  1.00  0.00     0.082 C 
ATOM     22  S   UNL A   1      32.305  23.157  25.562  1.00  0.00    -0.052 SA
ATOM     23  S   UNL A   1      30.309  24.082  23.487  1.00  0.00    -0.050 S 
BRANCH  17  24
ATOM     24  N   UNL A   1      33.079  24.427  21.938  1.00  0.00    -0.254 N 
ATOM     25  C   UNL A   1      32.964  25.722  21.487  1.00  0.00     0.273 C 
ATOM     26  O   UNL A   1      33.241  25.913  20.299  1.00  0.00    -0.267 OA
ATOM     27  H   UNL A   1      33.205  23.736  21.248  1.00  0.00     0.192 HD
BRANCH  25  28
ATOM     28  C   UNL A   1      32.440  26.822  22.292  1.00  0.00     0.082 A 
ATOM     29  C   UNL A   1      34.382  28.402  23.225  1.00  0.00     0.088 C 
ATOM     30  C   UNL A   1      33.025  27.871  22.991  1.00  0.00     0.113 A 
ATOM     31  O   UNL A   1      32.063  28.643  23.581  1.00  0.00    -0.469 OA
ATOM     32  C   UNL A   1      30.858  28.153  23.221  1.00  0.00     0.196 A 
ATOM     33  C   UNL A   1      31.025  27.059  22.417  1.00  0.00     0.056 A 
ENDBRANCH  25  28
ENDBRANCH  17  24
ENDBRANCH  11  16
ENDBRANCH   9  10
ENDBRANCH   7   9
ENDBRANCH   5   7
ENDBRANCH   4   5
ENDBRANCH   3   4
ENDBRANCH   2   3
ENDBRANCH   1   2
BRANCH   1  34
ATOM     34  C   UNL A   1      44.422  22.354  25.745  1.00  0.00     0.188 C 
BRANCH  34  35
ATOM     35  C   UNL A   1      44.447  23.092  24.395  1.00  0.00     0.188 C 
BRANCH  35  36
ATOM     36  O   UNL A   1      45.736  23.328  23.882  1.00  0.00    -0.376 OA
BRANCH  36  37
ATOM     37  C   UNL A   1      46.677  23.972  24.716  1.00  0.00     0.202 C 
BRANCH  37  38
ATOM     38  C   UNL A   1      47.246  25.326  24.261  1.00  0.00     0.261 C 
BRANCH  38  39
ATOM     39  O   UNL A   1      46.372  26.464  24.364  1.00  0.00    -0.460 OA
BRANCH  39  40
ATOM     40  C   UNL A   1      46.946  27.675  24.573  1.00  0.00     0.338 C 
ATOM     41  O   UNL A   1      47.580  28.331  23.774  1.00  0.00    -0.246 OA
BRANCH  40  42
ATOM     42  C   UNL A   1      46.461  28.177  25.884  1.00  0.00     0.060 A 
ATOM     43  C   UNL A   1      45.087  28.138  26.163  1.00  0.00     0.016 A 
ATOM     44  C   UNL A   1      47.355  28.667  26.837  1.00  0.00     0.016 A 
ATOM     45  C   UNL A   1      44.601  28.607  27.387  1.00  0.00     0.010 A 
ATOM     46  C   UNL A   1      46.866  29.160  28.051  1.00  0.00     0.010 A 
ATOM     47  C   UNL A   1      45.485  29.159  28.324  1.00  0.00    -0.014 A 
BRANCH  47  48
ATOM     48  C   UNL A   1      44.963  29.909  29.494  1.00  0.00     0.031 A 
ATOM     49  C   UNL A   1      44.678  29.148  30.761  1.00  0.00     0.074 A 
ATOM     50  C   UNL A   1      44.740  31.235  29.450  1.00  0.00     0.049 A 
ATOM     51  N   UNL A   1      44.132  29.555  31.879  1.00  0.00    -0.248 NA
ATOM     52  C   UNL A   1      45.060  27.726  30.761  1.00  0.00     0.031 C 
ATOM     53  C   UNL A   1      45.017  32.102  28.309  1.00  0.00     0.029 A 
ATOM     54  N   UNL A   1      44.212  32.081  30.395  1.00  0.00    -0.354 N 
ATOM     55  C   UNL A   1      44.093  28.440  32.706  1.00  0.00     0.074 A 
ATOM     56  C   UNL A   1      44.643  27.333  31.955  1.00  0.00     0.031 C 
ATOM     57  C   UNL A   1      44.637  33.356  28.612  1.00  0.00     0.029 A 
ATOM     58  C   UNL A   1      44.055  33.372  29.954  1.00  0.00     0.049 A 
ATOM     59  H   UNL A   1      43.968  31.789  31.304  1.00  0.00     0.167 HD
ATOM     60  C   UNL A   1      43.645  28.348  33.981  1.00  0.00     0.037 A 
ATOM     61  C   UNL A   1      43.479  34.434  30.554  1.00  0.00     0.037 A 
ATOM     62  C   UNL A   1      43.095  29.448  34.729  1.00  0.00     0.049 A 
ATOM     63  C   UNL A   1      42.906  34.286  31.944  1.00  0.00     0.074 A 
ATOM     64  C   UNL A   1      42.630  29.456  36.033  1.00  0.00     0.029 A 
ATOM     65  N   UNL A   1      42.925  30.733  34.237  1.00  0.00    -0.354 N 
ATOM     66  N   UNL A   1      42.892  33.236  32.729  1.00  0.00    -0.248 NA
ATOM     67  C   UNL A   1      42.268  35.474  32.529  1.00  0.00     0.031 C 
ATOM     68  C   UNL A   1      42.121  30.728  36.308  1.00  0.00     0.029 A 
ATOM     69  C   UNL A   1      42.333  31.534  35.200  1.00  0.00     0.049 A 
ATOM     70  H   UNL A   1      43.187  31.032  33.335  1.00  0.00     0.167 HD
ATOM     71  C   UNL A   1      42.280  33.647  33.908  1.00  0.00     0.074 A 
ATOM     72  C   UNL A   1      41.948  35.044  33.741  1.00  0.00     0.031 C 
ATOM     73  C   UNL A   1      42.017  32.929  35.030  1.00  0.00     0.037 A 
BRANCH  60  74
ATOM     74  C   UNL A   1      43.700  27.000  34.640  1.00  0.00     0.064 A 
ATOM     75  C   UNL A   1      42.562  26.189  34.762  1.00  0.00     0.173 A 
ATOM     76  C   UNL A   1      44.917  26.499  35.126  1.00  0.00     0.173 A 
ATOM     77  F   UNL A   1      41.370  26.627  34.329  1.00  0.00    -0.203 F 
ATOM     78  C   UNL A   1      42.635  24.938  35.371  1.00  0.00     0.198 A 
ATOM     79  C   UNL A   1      44.994  25.234  35.702  1.00  0.00     0.198 A 
ATOM     80  F   UNL A   1      46.037  27.232  35.032  1.00  0.00    -0.203 F 
ATOM     81  F   UNL A   1      41.526  24.202  35.523  1.00  0.00    -0.200 F 
ATOM     82  C   UNL A   1      43.852  24.458  35.831  1.00  0.00     0.200 A 
ATOM     83  F   UNL A   1      46.174  24.767  36.134  1.00  0.00    -0.200 F 
ATOM     84  F   UNL A   1      43.923  23.251  36.408  1.00  0.00    -0.200 F 
ENDBRANCH  60  74
BRANCH  61  85
ATOM     85  C   UNL A   1      43.387  35.739  29.841  1.00  0.00     0.064 A 
ATOM     86  C   UNL A   1      44.217  36.814  30.189  1.00  0.00     0.173 A 
ATOM     87  C   UNL A   1      42.439  35.950  28.828  1.00  0.00     0.173 A 
ATOM     88  F   UNL A   1      45.116  36.675  31.173  1.00  0.00    -0.203 F 
ATOM     89  C   UNL A   1      44.085  38.056  29.569  1.00  0.00     0.198 A 
ATOM     90  C   UNL A   1      42.332  37.182  28.185  1.00  0.00     0.198 A 
ATOM     91  F   UNL A   1      41.615  34.958  28.463  1.00  0.00    -0.203 F 
ATOM     92  F   UNL A   1      44.849  39.084  29.965  1.00  0.00    -0.200 F 
ATOM     93  C   UNL A   1      43.147  38.237  28.563  1.00  0.00     0.200 A 
ATOM     94  F   UNL A   1      41.430  37.349  27.210  1.00  0.00    -0.200 F 
ATOM     95  F   UNL A   1      43.020  39.432  27.971  1.00  0.00    -0.200 F 
ENDBRANCH  61  85
BRANCH  73  96
ATOM     96  C   UNL A   1      41.383  33.650  36.188  1.00  0.00     0.064 A 
ATOM     97  C   UNL A   1      39.995  33.663  36.385  1.00  0.00     0.173 A 
ATOM     98  C   UNL A   1      42.184  34.300  37.141  1.00  0.00     0.173 A 
ATOM     99  F   UNL A   1      39.182  33.066  35.500  1.00  0.00    -0.203 F 
ATOM    100  C   UNL A   1      39.430  34.323  37.475  1.00  0.00     0.198 A 
ATOM    101  C   UNL A   1      41.619  34.929  38.247  1.00  0.00     0.198 A 
ATOM    102  F   UNL A   1      43.519  34.312  37.008  1.00  0.00    -0.203 F 
ATOM    103  F   UNL A   1      38.097  34.365  37.613  1.00  0.00    -0.200 F 
ATOM    104  C   UNL A   1      40.243  34.948  38.409  1.00  0.00     0.200 A 
ATOM    105  F   UNL A   1      42.409  35.514  39.159  1.00  0.00    -0.200 F 
ATOM    106  F   UNL A   1      39.699  35.573  39.461  1.00  0.00    -0.200 F 
ENDBRANCH  73  96
ENDBRANCH  47  48
ENDBRANCH  40  42
ENDBRANCH  39  40
ENDBRANCH  38  39
ENDBRANCH  37  38
ENDBRANCH  36  37
ENDBRANCH  35  36
ENDBRANCH  34  35
ENDBRANCH   1  34
TORSDOF 22
ENDMDL
