MODEL 1
REMARK VINA RESULT:     -11.0      0.000      0.000
REMARK SMILES CCc1cccc(NC(=O)N2CCO[C@@H](CC(=O)OCCOCCOCCOC(=O)c3ccc(-c4c5nc(c(-c6c(F)c(F)c(F)c(F)c6F)c6ccc([nH]6)c(-c6c(F)c(F)c(F)c(F)c6F)c6nc(c(-c7c(F)c(F)c(F)c(F)c7F)c7ccc4[nH]7)C=C6)C=C5)cc3)C2)c1
REMARK SMILES IDX 23 1 22 2 21 3 20 4 19 5 17 6 18 7 16 8 15 9 11 10 12 11
REMARK SMILES IDX 94 12 13 13 14 14 9 15 8 16 10 18 7 19 3 20 4 21 95 22 5 23
REMARK SMILES IDX 6 24 2 25 1 26 24 27 25 28 26 29 27 30 28 31 29 32 30 33
REMARK SMILES IDX 31 34 32 35 93 36 33 37 92 38 34 39 35 40 36 41 86 42 37 43
REMARK SMILES IDX 91 44 85 45 87 46 38 47 90 48 84 49 83 50 39 52 71 53 51 54
REMARK SMILES IDX 70 55 52 56 55 57 69 58 88 59 53 60 54 61 68 63 89 64 56 65
REMARK SMILES IDX 40 66 41 67 49 68 42 69 43 70 47 71 50 72 44 73 45 74 48 75
REMARK SMILES IDX 46 76 72 77 73 78 81 79 74 80 75 81 79 82 82 83 76 84 77 85
REMARK SMILES IDX 80 86 78 87 57 88 58 89 66 90 59 91 60 92 64 93 67 94 61 95
REMARK SMILES IDX 62 96 65 97 63 98
REMARK H PARENT 8 17 87 51 55 62
REMARK Flexibility Score: inf
ROOT
ATOM      1  C   UNL A   1      41.596  20.158  27.358  1.00  0.00     0.188 C 
ENDROOT
BRANCH   1   2
ATOM      2  O   UNL A   1      40.491  21.050  27.469  1.00  0.00    -0.376 OA
BRANCH   2   3
ATOM      3  C   UNL A   1      40.124  21.767  26.289  1.00  0.00     0.202 C 
BRANCH   3   4
ATOM      4  C   UNL A   1      38.775  21.394  25.651  1.00  0.00     0.261 C 
BRANCH   4   5
ATOM      5  O   UNL A   1      37.659  22.216  26.072  1.00  0.00    -0.463 OA
BRANCH   5   6
ATOM      6  C   UNL A   1      37.035  22.904  25.089  1.00  0.00     0.308 C 
ATOM      7  O   UNL A   1      37.134  22.642  23.893  1.00  0.00    -0.252 OA
BRANCH   6   8
ATOM      8  C   UNL A   1      36.090  23.986  25.546  1.00  0.00     0.156 C 
BRANCH   8   9
ATOM      9  C   UNL A   1      34.585  23.998  25.290  1.00  0.00     0.149 C 
ATOM     10  N   UNL A   1      32.532  23.091  24.322  1.00  0.00    -0.320 N 
ATOM     11  C   UNL A   1      31.918  22.967  25.648  1.00  0.00     0.150 C 
ATOM     12  C   UNL A   1      33.998  22.943  24.341  1.00  0.00     0.154 C 
ATOM     13  C   UNL A   1      32.588  23.904  26.658  1.00  0.00     0.182 C 
ATOM     14  O   UNL A   1      34.017  23.808  26.623  1.00  0.00    -0.374 OA
BRANCH  10  15
ATOM     15  C   UNL A   1      31.845  22.997  23.139  1.00  0.00     0.322 C 
ATOM     16  N   UNL A   1      31.241  24.093  22.590  1.00  0.00    -0.308 N 
ATOM     17  H   UNL A   1      30.455  23.881  22.035  1.00  0.00     0.171 HD
ATOM     18  O   UNL A   1      31.745  21.925  22.535  1.00  0.00    -0.248 OA
BRANCH  16  19
ATOM     19  C   UNL A   1      31.531  25.472  22.670  1.00  0.00     0.043 A 
ATOM     20  C   UNL A   1      30.713  27.775  22.778  1.00  0.00    -0.046 A 
ATOM     21  C   UNL A   1      32.028  28.208  23.001  1.00  0.00     0.004 A 
ATOM     22  C   UNL A   1      30.470  26.393  22.656  1.00  0.00     0.029 A 
ATOM     23  C   UNL A   1      33.086  27.312  22.937  1.00  0.00     0.002 A 
ATOM     24  C   UNL A   1      32.830  25.965  22.696  1.00  0.00     0.026 A 
BRANCH  20  25
ATOM     25  C   UNL A   1      29.664  28.853  22.624  1.00  0.00     0.032 C 
ATOM     26  C   UNL A   1      29.732  30.048  23.560  1.00  0.00     0.009 C 
ENDBRANCH  20  25
ENDBRANCH  16  19
ENDBRANCH  10  15
ENDBRANCH   8   9
ENDBRANCH   6   8
ENDBRANCH   5   6
ENDBRANCH   4   5
ENDBRANCH   3   4
ENDBRANCH   2   3
ENDBRANCH   1   2
BRANCH   1  27
ATOM     27  C   UNL A   1      41.555  19.188  26.176  1.00  0.00     0.188 C 
BRANCH  27  28
ATOM     28  O   UNL A   1      42.524  19.415  25.169  1.00  0.00    -0.376 OA
BRANCH  28  29
ATOM     29  C   UNL A   1      43.755  20.021  25.569  1.00  0.00     0.202 C 
BRANCH  29  30
ATOM     30  C   UNL A   1      44.167  21.342  24.878  1.00  0.00     0.261 C 
BRANCH  30  31
ATOM     31  O   UNL A   1      43.436  22.535  25.239  1.00  0.00    -0.460 OA
BRANCH  31  32
ATOM     32  C   UNL A   1      44.068  23.731  25.126  1.00  0.00     0.338 C 
ATOM     33  O   UNL A   1      44.855  24.055  24.267  1.00  0.00    -0.246 OA
BRANCH  32  34
ATOM     34  C   UNL A   1      43.415  24.689  26.067  1.00  0.00     0.060 A 
ATOM     35  C   UNL A   1      43.695  26.057  25.922  1.00  0.00     0.016 A 
ATOM     36  C   UNL A   1      42.484  24.274  27.023  1.00  0.00     0.016 A 
ATOM     37  C   UNL A   1      43.078  27.004  26.748  1.00  0.00     0.010 A 
ATOM     38  C   UNL A   1      41.882  25.219  27.864  1.00  0.00     0.010 A 
ATOM     39  C   UNL A   1      42.198  26.587  27.755  1.00  0.00    -0.014 A 
BRANCH  39  40
ATOM     40  C   UNL A   1      41.786  27.522  28.837  1.00  0.00     0.031 A 
ATOM     41  C   UNL A   1      42.573  27.499  30.122  1.00  0.00     0.074 A 
ATOM     42  C   UNL A   1      40.744  28.365  28.712  1.00  0.00     0.049 A 
ATOM     43  N   UNL A   1      42.349  28.115  31.254  1.00  0.00    -0.248 NA
ATOM     44  C   UNL A   1      43.778  26.654  30.125  1.00  0.00     0.031 C 
ATOM     45  C   UNL A   1      39.931  28.540  27.513  1.00  0.00     0.029 A 
ATOM     46  N   UNL A   1      40.183  29.225  29.628  1.00  0.00    -0.354 N 
ATOM     47  C   UNL A   1      43.368  27.714  32.108  1.00  0.00     0.074 A 
ATOM     48  C   UNL A   1      44.200  26.787  31.373  1.00  0.00     0.031 C 
ATOM     49  C   UNL A   1      38.961  29.437  27.772  1.00  0.00     0.029 A 
ATOM     50  C   UNL A   1      39.058  29.868  29.167  1.00  0.00     0.049 A 
ATOM     51  H   UNL A   1      40.552  29.369  30.530  1.00  0.00     0.167 HD
ATOM     52  C   UNL A   1      43.593  28.084  33.391  1.00  0.00     0.037 A 
ATOM     53  C   UNL A   1      38.191  30.680  29.808  1.00  0.00     0.037 A 
ATOM     54  C   UNL A   1      42.772  29.009  34.125  1.00  0.00     0.049 A 
ATOM     55  C   UNL A   1      38.413  31.009  31.267  1.00  0.00     0.074 A 
ATOM     56  C   UNL A   1      42.935  29.464  35.422  1.00  0.00     0.029 A 
ATOM     57  N   UNL A   1      41.625  29.613  33.630  1.00  0.00    -0.354 N 
ATOM     58  N   UNL A   1      39.388  30.642  32.063  1.00  0.00    -0.248 NA
ATOM     59  C   UNL A   1      37.407  31.865  31.917  1.00  0.00     0.031 C 
ATOM     60  C   UNL A   1      41.852  30.289  35.734  1.00  0.00     0.029 A 
ATOM     61  C   UNL A   1      41.054  30.410  34.608  1.00  0.00     0.049 A 
ATOM     62  H   UNL A   1      41.271  29.492  32.719  1.00  0.00     0.167 HD
ATOM     63  C   UNL A   1      39.137  31.253  33.287  1.00  0.00     0.074 A 
ATOM     64  C   UNL A   1      37.920  32.020  33.130  1.00  0.00     0.031 C 
ATOM     65  C   UNL A   1      39.855  31.189  34.436  1.00  0.00     0.037 A 
BRANCH  52  66
ATOM     66  C   UNL A   1      44.757  27.455  34.102  1.00  0.00     0.064 A 
ATOM     67  C   UNL A   1      44.632  26.253  34.813  1.00  0.00     0.173 A 
ATOM     68  C   UNL A   1      46.027  28.051  34.040  1.00  0.00     0.173 A 
ATOM     69  F   UNL A   1      43.437  25.651  34.917  1.00  0.00    -0.203 F 
ATOM     70  C   UNL A   1      45.728  25.684  35.458  1.00  0.00     0.198 A 
ATOM     71  C   UNL A   1      47.126  27.462  34.655  1.00  0.00     0.198 A 
ATOM     72  F   UNL A   1      46.202  29.200  33.370  1.00  0.00    -0.203 F 
ATOM     73  F   UNL A   1      45.573  24.564  36.175  1.00  0.00    -0.200 F 
ATOM     74  C   UNL A   1      46.975  26.284  35.370  1.00  0.00     0.200 A 
ATOM     75  F   UNL A   1      48.333  28.036  34.557  1.00  0.00    -0.200 F 
ATOM     76  F   UNL A   1      48.030  25.731  35.984  1.00  0.00    -0.200 F 
ENDBRANCH  52  66
BRANCH  53  77
ATOM     77  C   UNL A   1      37.007  31.233  29.091  1.00  0.00     0.064 A 
ATOM     78  C   UNL A   1      36.934  32.593  28.758  1.00  0.00     0.173 A 
ATOM     79  C   UNL A   1      35.905  30.426  28.770  1.00  0.00     0.173 A 
ATOM     80  F   UNL A   1      37.946  33.415  29.074  1.00  0.00    -0.203 F 
ATOM     81  C   UNL A   1      35.798  33.128  28.152  1.00  0.00     0.198 A 
ATOM     82  C   UNL A   1      34.783  30.956  28.136  1.00  0.00     0.198 A 
ATOM     83  F   UNL A   1      35.915  29.121  29.079  1.00  0.00    -0.203 F 
ATOM     84  F   UNL A   1      35.732  34.443  27.902  1.00  0.00    -0.200 F 
ATOM     85  C   UNL A   1      34.726  32.308  27.836  1.00  0.00     0.200 A 
ATOM     86  F   UNL A   1      33.752  30.158  27.826  1.00  0.00    -0.200 F 
ATOM     87  F   UNL A   1      33.633  32.824  27.257  1.00  0.00    -0.200 F 
ENDBRANCH  53  77
BRANCH  65  88
ATOM     88  C   UNL A   1      39.393  32.017  35.604  1.00  0.00     0.064 A 
ATOM     89  C   UNL A   1      39.772  33.357  35.764  1.00  0.00     0.173 A 
ATOM     90  C   UNL A   1      38.499  31.474  36.541  1.00  0.00     0.173 A 
ATOM     91  F   UNL A   1      40.633  33.924  34.904  1.00  0.00    -0.203 F 
ATOM     92  C   UNL A   1      39.291  34.116  36.829  1.00  0.00     0.198 A 
ATOM     93  C   UNL A   1      37.993  32.245  37.584  1.00  0.00     0.198 A 
ATOM     94  F   UNL A   1      38.094  30.200  36.431  1.00  0.00    -0.203 F 
ATOM     95  F   UNL A   1      39.700  35.382  36.987  1.00  0.00    -0.200 F 
ATOM     96  C   UNL A   1      38.394  33.563  37.731  1.00  0.00     0.200 A 
ATOM     97  F   UNL A   1      37.111  31.713  38.443  1.00  0.00    -0.200 F 
ATOM     98  F   UNL A   1      37.920  34.300  38.745  1.00  0.00    -0.200 F 
ENDBRANCH  65  88
ENDBRANCH  39  40
ENDBRANCH  32  34
ENDBRANCH  31  32
ENDBRANCH  30  31
ENDBRANCH  29  30
ENDBRANCH  28  29
ENDBRANCH  27  28
ENDBRANCH   1  27
TORSDOF 21
ENDMDL
MODEL 2
REMARK VINA RESULT:     -11.0      1.068      2.191
REMARK SMILES CCc1cccc(NC(=O)N2CCO[C@@H](CC(=O)OCCOCCOCCOC(=O)c3ccc(-c4c5nc(c(-c6c(F)c(F)c(F)c(F)c6F)c6ccc([nH]6)c(-c6c(F)c(F)c(F)c(F)c6F)c6nc(c(-c7c(F)c(F)c(F)c(F)c7F)c7ccc4[nH]7)C=C6)C=C5)cc3)C2)c1
REMARK SMILES IDX 23 1 22 2 21 3 20 4 19 5 17 6 18 7 16 8 15 9 11 10 12 11
REMARK SMILES IDX 94 12 13 13 14 14 9 15 8 16 10 18 7 19 3 20 4 21 95 22 5 23
REMARK SMILES IDX 6 24 2 25 1 26 24 27 25 28 26 29 27 30 28 31 29 32 30 33
REMARK SMILES IDX 31 34 32 35 93 36 33 37 92 38 34 39 35 40 36 41 86 42 37 43
REMARK SMILES IDX 91 44 85 45 87 46 38 47 90 48 84 49 83 50 39 52 71 53 51 54
REMARK SMILES IDX 70 55 52 56 55 57 69 58 88 59 53 60 54 61 68 63 89 64 56 65
REMARK SMILES IDX 40 66 41 67 49 68 42 69 43 70 47 71 50 72 44 73 45 74 48 75
REMARK SMILES IDX 46 76 72 77 73 78 81 79 74 80 75 81 79 82 82 83 76 84 77 85
REMARK SMILES IDX 80 86 78 87 57 88 58 89 66 90 59 91 60 92 64 93 67 94 61 95
REMARK SMILES IDX 62 96 65 97 63 98
REMARK H PARENT 8 17 87 51 55 62
REMARK Flexibility Score: inf
ROOT
ATOM      1  C   UNL A   1      42.198  19.729  26.729  1.00  0.00     0.188 C 
ENDROOT
BRANCH   1   2
ATOM      2  O   UNL A   1      41.016  20.345  26.227  1.00  0.00    -0.376 OA
BRANCH   2   3
ATOM      3  C   UNL A   1      40.630  21.580  26.833  1.00  0.00     0.202 C 
BRANCH   3   4
ATOM      4  C   UNL A   1      39.508  22.367  26.134  1.00  0.00     0.261 C 
BRANCH   4   5
ATOM      5  O   UNL A   1      38.286  21.618  25.924  1.00  0.00    -0.463 OA
BRANCH   5   6
ATOM      6  C   UNL A   1      37.239  22.329  25.447  1.00  0.00     0.308 C 
ATOM      7  O   UNL A   1      37.187  23.556  25.434  1.00  0.00    -0.252 OA
BRANCH   6   8
ATOM      8  C   UNL A   1      36.137  21.523  24.808  1.00  0.00     0.156 C 
BRANCH   8   9
ATOM      9  C   UNL A   1      34.647  21.707  25.080  1.00  0.00     0.149 C 
ATOM     10  N   UNL A   1      32.710  23.008  25.808  1.00  0.00    -0.320 N 
ATOM     11  C   UNL A   1      32.059  22.837  24.505  1.00  0.00     0.150 C 
ATOM     12  C   UNL A   1      34.181  23.019  25.729  1.00  0.00     0.154 C 
ATOM     13  C   UNL A   1      32.614  21.616  23.765  1.00  0.00     0.182 C 
ATOM     14  O   UNL A   1      34.046  21.594  23.753  1.00  0.00    -0.374 OA
BRANCH  10  15
ATOM     15  C   UNL A   1      32.077  23.465  26.935  1.00  0.00     0.322 C 
ATOM     16  N   UNL A   1      31.699  24.773  27.046  1.00  0.00    -0.308 N 
ATOM     17  H   UNL A   1      31.668  25.104  27.973  1.00  0.00     0.171 HD
ATOM     18  O   UNL A   1      31.832  22.716  27.886  1.00  0.00    -0.248 OA
BRANCH  16  19
ATOM     19  C   UNL A   1      31.346  25.741  26.080  1.00  0.00     0.043 A 
ATOM     20  C   UNL A   1      32.022  27.606  24.649  1.00  0.00    -0.046 A 
ATOM     21  C   UNL A   1      30.758  27.569  24.042  1.00  0.00     0.004 A 
ATOM     22  C   UNL A   1      32.321  26.653  25.642  1.00  0.00     0.029 A 
ATOM     23  C   UNL A   1      29.769  26.723  24.524  1.00  0.00     0.002 A 
ATOM     24  C   UNL A   1      30.053  25.873  25.589  1.00  0.00     0.026 A 
BRANCH  20  25
ATOM     25  C   UNL A   1      32.946  28.723  24.218  1.00  0.00     0.032 C 
ATOM     26  C   UNL A   1      33.110  28.973  22.728  1.00  0.00     0.009 C 
ENDBRANCH  20  25
ENDBRANCH  16  19
ENDBRANCH  10  15
ENDBRANCH   8   9
ENDBRANCH   6   8
ENDBRANCH   5   6
ENDBRANCH   4   5
ENDBRANCH   3   4
ENDBRANCH   2   3
ENDBRANCH   1   2
BRANCH   1  27
ATOM     27  C   UNL A   1      42.999  18.900  25.723  1.00  0.00     0.188 C 
BRANCH  27  28
ATOM     28  O   UNL A   1      43.685  19.643  24.732  1.00  0.00    -0.376 OA
BRANCH  28  29
ATOM     29  C   UNL A   1      44.193  20.925  25.109  1.00  0.00     0.202 C 
BRANCH  29  30
ATOM     30  C   UNL A   1      43.765  22.148  24.263  1.00  0.00     0.261 C 
BRANCH  30  31
ATOM     31  O   UNL A   1      43.210  23.280  24.969  1.00  0.00    -0.460 OA
BRANCH  31  32
ATOM     32  C   UNL A   1      44.015  24.351  25.190  1.00  0.00     0.338 C 
ATOM     33  O   UNL A   1      45.002  24.657  24.562  1.00  0.00    -0.246 OA
BRANCH  32  34
ATOM     34  C   UNL A   1      43.322  25.257  26.154  1.00  0.00     0.060 A 
ATOM     35  C   UNL A   1      43.620  26.628  26.108  1.00  0.00     0.016 A 
ATOM     36  C   UNL A   1      42.338  24.795  27.033  1.00  0.00     0.016 A 
ATOM     37  C   UNL A   1      42.968  27.530  26.958  1.00  0.00     0.010 A 
ATOM     38  C   UNL A   1      41.701  25.694  27.899  1.00  0.00     0.010 A 
ATOM     39  C   UNL A   1      42.033  27.062  27.890  1.00  0.00    -0.014 A 
BRANCH  39  40
ATOM     40  C   UNL A   1      41.573  27.934  29.005  1.00  0.00     0.031 A 
ATOM     41  C   UNL A   1      42.338  27.878  30.302  1.00  0.00     0.074 A 
ATOM     42  C   UNL A   1      40.506  28.749  28.899  1.00  0.00     0.049 A 
ATOM     43  N   UNL A   1      42.075  28.435  31.456  1.00  0.00    -0.248 NA
ATOM     44  C   UNL A   1      43.570  27.072  30.290  1.00  0.00     0.031 C 
ATOM     45  C   UNL A   1      39.709  28.952  27.694  1.00  0.00     0.029 A 
ATOM     46  N   UNL A   1      39.902  29.548  29.842  1.00  0.00    -0.354 N 
ATOM     47  C   UNL A   1      43.092  28.027  32.310  1.00  0.00     0.074 A 
ATOM     48  C   UNL A   1      43.966  27.162  31.550  1.00  0.00     0.031 C 
ATOM     49  C   UNL A   1      38.706  29.805  27.975  1.00  0.00     0.029 A 
ATOM     50  C   UNL A   1      38.766  30.175  29.389  1.00  0.00     0.049 A 
ATOM     51  H   UNL A   1      40.251  29.662  30.756  1.00  0.00     0.167 HD
ATOM     52  C   UNL A   1      43.284  28.346  33.612  1.00  0.00     0.037 A 
ATOM     53  C   UNL A   1      37.862  30.929  30.050  1.00  0.00     0.037 A 
ATOM     54  C   UNL A   1      42.421  29.211  34.371  1.00  0.00     0.049 A 
ATOM     55  C   UNL A   1      38.048  31.199  31.526  1.00  0.00     0.074 A 
ATOM     56  C   UNL A   1      42.547  29.611  35.690  1.00  0.00     0.029 A 
ATOM     57  N   UNL A   1      41.264  29.800  33.883  1.00  0.00    -0.354 N 
ATOM     58  N   UNL A   1      39.021  30.828  32.322  1.00  0.00    -0.248 NA
ATOM     59  C   UNL A   1      37.004  31.993  32.195  1.00  0.00     0.031 C 
ATOM     60  C   UNL A   1      41.432  30.387  36.019  1.00  0.00     0.029 A 
ATOM     61  C   UNL A   1      40.650  30.533  34.885  1.00  0.00     0.049 A 
ATOM     62  H   UNL A   1      40.929  29.709  32.962  1.00  0.00     0.167 HD
ATOM     63  C   UNL A   1      38.729  31.375  33.567  1.00  0.00     0.074 A 
ATOM     64  C   UNL A   1      37.491  32.108  33.423  1.00  0.00     0.031 C 
ATOM     65  C   UNL A   1      39.429  31.282  34.725  1.00  0.00     0.037 A 
BRANCH  52  66
ATOM     66  C   UNL A   1      44.454  27.722  34.316  1.00  0.00     0.064 A 
ATOM     67  C   UNL A   1      44.343  26.513  35.016  1.00  0.00     0.173 A 
ATOM     68  C   UNL A   1      45.718  28.332  34.257  1.00  0.00     0.173 A 
ATOM     69  F   UNL A   1      43.155  25.898  35.117  1.00  0.00    -0.203 F 
ATOM     70  C   UNL A   1      45.446  25.950  35.654  1.00  0.00     0.198 A 
ATOM     71  C   UNL A   1      46.825  27.749  34.865  1.00  0.00     0.198 A 
ATOM     72  F   UNL A   1      45.881  29.489  33.598  1.00  0.00    -0.203 F 
ATOM     73  F   UNL A   1      45.304  24.821  36.362  1.00  0.00    -0.200 F 
ATOM     74  C   UNL A   1      46.687  26.563  35.570  1.00  0.00     0.200 A 
ATOM     75  F   UNL A   1      48.026  28.335  34.771  1.00  0.00    -0.200 F 
ATOM     76  F   UNL A   1      47.749  26.016  36.177  1.00  0.00    -0.200 F 
ENDBRANCH  52  66
BRANCH  53  77
ATOM     77  C   UNL A   1      36.673  31.477  29.337  1.00  0.00     0.064 A 
ATOM     78  C   UNL A   1      35.634  30.636  28.912  1.00  0.00     0.173 A 
ATOM     79  C   UNL A   1      36.575  32.840  29.021  1.00  0.00     0.173 A 
ATOM     80  F   UNL A   1      35.696  29.319  29.158  1.00  0.00    -0.203 F 
ATOM     81  C   UNL A   1      34.555  31.133  28.182  1.00  0.00     0.198 A 
ATOM     82  C   UNL A   1      35.480  33.341  28.318  1.00  0.00     0.198 A 
ATOM     83  F   UNL A   1      37.547  33.687  29.389  1.00  0.00    -0.203 F 
ATOM     84  F   UNL A   1      33.609  30.296  27.737  1.00  0.00    -0.200 F 
ATOM     85  C   UNL A   1      34.476  32.486  27.891  1.00  0.00     0.200 A 
ATOM     86  F   UNL A   1      35.405  34.651  28.045  1.00  0.00    -0.200 F 
ATOM     87  F   UNL A   1      33.441  32.963  27.186  1.00  0.00    -0.200 F 
ENDBRANCH  53  77
BRANCH  65  88
ATOM     88  C   UNL A   1      38.921  32.040  35.921  1.00  0.00     0.064 A 
ATOM     89  C   UNL A   1      38.142  31.430  36.915  1.00  0.00     0.173 A 
ATOM     90  C   UNL A   1      39.280  33.385  36.106  1.00  0.00     0.173 A 
ATOM     91  F   UNL A   1      37.761  30.149  36.784  1.00  0.00    -0.203 F 
ATOM     92  C   UNL A   1      37.725  32.142  38.037  1.00  0.00     0.198 A 
ATOM     93  C   UNL A   1      38.891  34.084  37.245  1.00  0.00     0.198 A 
ATOM     94  F   UNL A   1      40.033  34.016  35.193  1.00  0.00    -0.203 F 
ATOM     95  F   UNL A   1      36.946  31.551  38.953  1.00  0.00    -0.200 F 
ATOM     96  C   UNL A   1      38.109  33.464  38.207  1.00  0.00     0.200 A 
ATOM     97  F   UNL A   1      39.279  35.356  37.416  1.00  0.00    -0.200 F 
ATOM     98  F   UNL A   1      37.720  34.143  39.295  1.00  0.00    -0.200 F 
ENDBRANCH  65  88
ENDBRANCH  39  40
ENDBRANCH  32  34
ENDBRANCH  31  32
ENDBRANCH  30  31
ENDBRANCH  29  30
ENDBRANCH  28  29
ENDBRANCH  27  28
ENDBRANCH   1  27
TORSDOF 21
ENDMDL
MODEL 3
REMARK VINA RESULT:     -10.7      1.053      2.315
REMARK SMILES CCc1cccc(NC(=O)N2CCO[C@@H](CC(=O)OCCOCCOCCOC(=O)c3ccc(-c4c5nc(c(-c6c(F)c(F)c(F)c(F)c6F)c6ccc([nH]6)c(-c6c(F)c(F)c(F)c(F)c6F)c6nc(c(-c7c(F)c(F)c(F)c(F)c7F)c7ccc4[nH]7)C=C6)C=C5)cc3)C2)c1
REMARK SMILES IDX 23 1 22 2 21 3 20 4 19 5 17 6 18 7 16 8 15 9 11 10 12 11
REMARK SMILES IDX 94 12 13 13 14 14 9 15 8 16 10 18 7 19 3 20 4 21 95 22 5 23
REMARK SMILES IDX 6 24 2 25 1 26 24 27 25 28 26 29 27 30 28 31 29 32 30 33
REMARK SMILES IDX 31 34 32 35 93 36 33 37 92 38 34 39 35 40 36 41 86 42 37 43
REMARK SMILES IDX 91 44 85 45 87 46 38 47 90 48 84 49 83 50 39 52 71 53 51 54
REMARK SMILES IDX 70 55 52 56 55 57 69 58 88 59 53 60 54 61 68 63 89 64 56 65
REMARK SMILES IDX 40 66 41 67 49 68 42 69 43 70 47 71 50 72 44 73 45 74 48 75
REMARK SMILES IDX 46 76 72 77 73 78 81 79 74 80 75 81 79 82 82 83 76 84 77 85
REMARK SMILES IDX 80 86 78 87 57 88 58 89 66 90 59 91 60 92 64 93 67 94 61 95
REMARK SMILES IDX 62 96 65 97 63 98
REMARK H PARENT 8 17 87 51 55 62
REMARK Flexibility Score: inf
ROOT
ATOM      1  C   UNL A   1      40.775  20.485  27.221  1.00  0.00     0.188 C 
ENDROOT
BRANCH   1   2
ATOM      2  O   UNL A   1      39.677  21.392  27.220  1.00  0.00    -0.376 OA
BRANCH   2   3
ATOM      3  C   UNL A   1      39.324  21.970  25.961  1.00  0.00     0.202 C 
BRANCH   3   4
ATOM      4  C   UNL A   1      37.961  21.560  25.376  1.00  0.00     0.261 C 
BRANCH   4   5
ATOM      5  O   UNL A   1      36.815  22.037  26.123  1.00  0.00    -0.463 OA
BRANCH   5   6
ATOM      6  C   UNL A   1      36.122  23.047  25.549  1.00  0.00     0.308 C 
ATOM      7  O   UNL A   1      36.562  24.183  25.390  1.00  0.00    -0.252 OA
BRANCH   6   8
ATOM      8  C   UNL A   1      34.769  22.680  24.994  1.00  0.00     0.156 C 
BRANCH   8   9
ATOM      9  C   UNL A   1      33.778  23.664  24.380  1.00  0.00     0.149 C 
ATOM     10  N   UNL A   1      32.533  24.619  22.505  1.00  0.00    -0.320 N 
ATOM     11  C   UNL A   1      31.253  24.333  23.161  1.00  0.00     0.150 C 
ATOM     12  C   UNL A   1      33.596  23.660  22.854  1.00  0.00     0.154 C 
ATOM     13  C   UNL A   1      31.430  24.181  24.676  1.00  0.00     0.182 C 
ATOM     14  O   UNL A   1      32.511  23.303  25.011  1.00  0.00    -0.374 OA
BRANCH  10  15
ATOM     15  C   UNL A   1      32.679  25.443  21.419  1.00  0.00     0.322 C 
ATOM     16  N   UNL A   1      32.163  26.708  21.426  1.00  0.00    -0.308 N 
ATOM     17  H   UNL A   1      31.926  27.049  20.532  1.00  0.00     0.171 HD
ATOM     18  O   UNL A   1      33.272  25.072  20.402  1.00  0.00    -0.248 OA
BRANCH  16  19
ATOM     19  C   UNL A   1      31.906  27.620  22.474  1.00  0.00     0.043 A 
ATOM     20  C   UNL A   1      30.392  29.239  23.508  1.00  0.00    -0.046 A 
ATOM     21  C   UNL A   1      31.257  29.311  24.609  1.00  0.00     0.004 A 
ATOM     22  C   UNL A   1      30.707  28.352  22.460  1.00  0.00     0.029 A 
ATOM     23  C   UNL A   1      32.478  28.650  24.591  1.00  0.00     0.002 A 
ATOM     24  C   UNL A   1      32.821  27.873  23.489  1.00  0.00     0.026 A 
BRANCH  20  25
ATOM     25  C   UNL A   1      29.209  30.181  23.515  1.00  0.00     0.032 C 
ATOM     26  C   UNL A   1      28.430  30.352  22.222  1.00  0.00     0.009 C 
ENDBRANCH  20  25
ENDBRANCH  16  19
ENDBRANCH  10  15
ENDBRANCH   8   9
ENDBRANCH   6   8
ENDBRANCH   5   6
ENDBRANCH   4   5
ENDBRANCH   3   4
ENDBRANCH   2   3
ENDBRANCH   1   2
BRANCH   1  27
ATOM     27  C   UNL A   1      40.804  19.468  26.078  1.00  0.00     0.188 C 
BRANCH  27  28
ATOM     28  O   UNL A   1      41.993  19.449  25.311  1.00  0.00    -0.376 OA
BRANCH  28  29
ATOM     29  C   UNL A   1      43.211  19.785  25.980  1.00  0.00     0.202 C 
BRANCH  29  30
ATOM     30  C   UNL A   1      43.797  21.197  25.745  1.00  0.00     0.261 C 
BRANCH  30  31
ATOM     31  O   UNL A   1      42.860  22.279  25.543  1.00  0.00    -0.460 OA
BRANCH  31  32
ATOM     32  C   UNL A   1      43.354  23.499  25.213  1.00  0.00     0.338 C 
ATOM     33  O   UNL A   1      43.726  23.859  24.120  1.00  0.00    -0.246 OA
BRANCH  32  34
ATOM     34  C   UNL A   1      43.096  24.426  26.356  1.00  0.00     0.060 A 
ATOM     35  C   UNL A   1      42.155  24.040  27.324  1.00  0.00     0.016 A 
ATOM     36  C   UNL A   1      43.815  25.612  26.528  1.00  0.00     0.016 A 
ATOM     37  C   UNL A   1      41.905  24.849  28.439  1.00  0.00     0.010 A 
ATOM     38  C   UNL A   1      43.549  26.432  27.633  1.00  0.00     0.010 A 
ATOM     39  C   UNL A   1      42.571  26.073  28.579  1.00  0.00    -0.014 A 
BRANCH  39  40
ATOM     40  C   UNL A   1      42.098  27.084  29.564  1.00  0.00     0.031 A 
ATOM     41  C   UNL A   1      42.834  27.184  30.875  1.00  0.00     0.074 A 
ATOM     42  C   UNL A   1      41.047  27.891  29.330  1.00  0.00     0.049 A 
ATOM     43  N   UNL A   1      42.554  27.886  31.942  1.00  0.00    -0.248 NA
ATOM     44  C   UNL A   1      44.054  26.369  30.994  1.00  0.00     0.031 C 
ATOM     45  C   UNL A   1      40.279  27.949  28.091  1.00  0.00     0.029 A 
ATOM     46  N   UNL A   1      40.434  28.811  30.150  1.00  0.00    -0.354 N 
ATOM     47  C   UNL A   1      43.546  27.579  32.866  1.00  0.00     0.074 A 
ATOM     48  C   UNL A   1      44.424  26.613  32.241  1.00  0.00     0.031 C 
ATOM     49  C   UNL A   1      39.283  28.843  28.237  1.00  0.00     0.029 A 
ATOM     50  C   UNL A   1      39.316  29.389  29.594  1.00  0.00     0.049 A 
ATOM     51  H   UNL A   1      40.764  29.036  31.050  1.00  0.00     0.167 HD
ATOM     52  C   UNL A   1      43.713  28.058  34.120  1.00  0.00     0.037 A 
ATOM     53  C   UNL A   1      38.410  30.231  30.133  1.00  0.00     0.037 A 
ATOM     54  C   UNL A   1      42.847  29.022  34.744  1.00  0.00     0.049 A 
ATOM     55  C   UNL A   1      38.567  30.684  31.567  1.00  0.00     0.074 A 
ATOM     56  C   UNL A   1      42.949  29.585  36.004  1.00  0.00     0.029 A 
ATOM     57  N   UNL A   1      41.709  29.557  34.158  1.00  0.00    -0.354 N 
ATOM     58  N   UNL A   1      39.517  30.405  32.426  1.00  0.00    -0.248 NA
ATOM     59  C   UNL A   1      37.520  31.568  32.105  1.00  0.00     0.031 C 
ATOM     60  C   UNL A   1      41.839  30.409  36.205  1.00  0.00     0.029 A 
ATOM     61  C   UNL A   1      41.085  30.419  35.044  1.00  0.00     0.049 A 
ATOM     62  H   UNL A   1      41.393  29.355  33.247  1.00  0.00     0.167 HD
ATOM     63  C   UNL A   1      39.206  31.109  33.585  1.00  0.00     0.074 A 
ATOM     64  C   UNL A   1      37.982  31.833  33.319  1.00  0.00     0.031 C 
ATOM     65  C   UNL A   1      39.878  31.155  34.762  1.00  0.00     0.037 A 
BRANCH  52  66
ATOM     66  C   UNL A   1      44.859  27.515  34.925  1.00  0.00     0.064 A 
ATOM     67  C   UNL A   1      46.104  28.157  34.972  1.00  0.00     0.173 A 
ATOM     68  C   UNL A   1      44.693  26.349  35.689  1.00  0.00     0.173 A 
ATOM     69  F   UNL A   1      46.321  29.265  34.247  1.00  0.00    -0.203 F 
ATOM     70  C   UNL A   1      47.150  27.638  35.732  1.00  0.00     0.198 A 
ATOM     71  C   UNL A   1      45.728  25.852  36.475  1.00  0.00     0.198 A 
ATOM     72  F   UNL A   1      43.521  25.696  35.682  1.00  0.00    -0.203 F 
ATOM     73  F   UNL A   1      48.347  28.239  35.720  1.00  0.00    -0.200 F 
ATOM     74  C   UNL A   1      46.958  26.492  36.490  1.00  0.00     0.200 A 
ATOM     75  F   UNL A   1      45.536  24.754  37.218  1.00  0.00    -0.200 F 
ATOM     76  F   UNL A   1      47.962  25.999  37.228  1.00  0.00    -0.200 F 
ENDBRANCH  52  66
BRANCH  53  77
ATOM     77  C   UNL A   1      37.245  30.697  29.328  1.00  0.00     0.064 A 
ATOM     78  C   UNL A   1      36.178  29.836  29.032  1.00  0.00     0.173 A 
ATOM     79  C   UNL A   1      37.197  31.995  28.796  1.00  0.00     0.173 A 
ATOM     80  F   UNL A   1      36.192  28.574  29.487  1.00  0.00    -0.203 F 
ATOM     81  C   UNL A   1      35.122  30.246  28.220  1.00  0.00     0.198 A 
ATOM     82  C   UNL A   1      36.125  32.414  28.011  1.00  0.00     0.198 A 
ATOM     83  F   UNL A   1      38.197  32.856  29.035  1.00  0.00    -0.203 F 
ATOM     84  F   UNL A   1      34.148  29.381  27.905  1.00  0.00    -0.200 F 
ATOM     85  C   UNL A   1      35.093  31.536  27.715  1.00  0.00     0.200 A 
ATOM     86  F   UNL A   1      36.097  33.665  27.531  1.00  0.00    -0.200 F 
ATOM     87  F   UNL A   1      34.079  31.929  26.931  1.00  0.00    -0.200 F 
ENDBRANCH  53  77
BRANCH  65  88
ATOM     88  C   UNL A   1      39.355  32.065  35.839  1.00  0.00     0.064 A 
ATOM     89  C   UNL A   1      38.401  31.640  36.775  1.00  0.00     0.173 A 
ATOM     90  C   UNL A   1      39.871  33.364  35.977  1.00  0.00     0.173 A 
ATOM     91  F   UNL A   1      37.866  30.412  36.685  1.00  0.00    -0.203 F 
ATOM     92  C   UNL A   1      37.969  32.487  37.794  1.00  0.00     0.198 A 
ATOM     93  C   UNL A   1      39.463  34.195  37.015  1.00  0.00     0.198 A 
ATOM     94  F   UNL A   1      40.794  33.819  35.116  1.00  0.00    -0.203 F 
ATOM     95  F   UNL A   1      37.025  32.075  38.651  1.00  0.00    -0.200 F 
ATOM     96  C   UNL A   1      38.508  33.759  37.919  1.00  0.00     0.200 A 
ATOM     97  F   UNL A   1      40.000  35.417  37.146  1.00  0.00    -0.200 F 
ATOM     98  F   UNL A   1      38.102  34.566  38.910  1.00  0.00    -0.200 F 
ENDBRANCH  65  88
ENDBRANCH  39  40
ENDBRANCH  32  34
ENDBRANCH  31  32
ENDBRANCH  30  31
ENDBRANCH  29  30
ENDBRANCH  28  29
ENDBRANCH  27  28
ENDBRANCH   1  27
TORSDOF 21
ENDMDL
