MODEL 1
REMARK VINA RESULT:     -10.7      0.000      0.000
REMARK SMILES Cc1cccc(C[N@@H+](C)C[C@]2(C(=O)OCCOCCOCCOC(=O)c3ccc(-c4c5nc(c(-c6c(F)c(F)c(F)c(F)c6F)c6ccc([nH]6)c(-c6c(F)c(F)c(F)c(F)c6F)c6nc(c(-c7c(F)c(F)c(F)c(F)c7F)c7ccc4[nH]7)C=C6)C=C5)cc3)CCOC2)n1
REMARK SMILES IDX 18 1 17 2 16 3 15 4 14 5 12 6 13 7 11 8 89 9 92 10 90 11
REMARK SMILES IDX 91 12 10 13 8 14 9 15 7 17 6 18 1 19 2 20 3 21 93 22 4 23
REMARK SMILES IDX 5 24 19 25 20 26 21 27 22 28 23 29 24 30 25 31 26 32 27 33
REMARK SMILES IDX 88 34 28 35 87 36 29 37 30 38 31 39 81 40 32 41 86 42 80 43
REMARK SMILES IDX 82 44 33 45 85 46 79 47 78 48 34 50 66 51 46 52 65 53 47 54
REMARK SMILES IDX 50 55 64 56 83 57 48 58 49 59 63 61 84 62 51 63 35 64 36 65
REMARK SMILES IDX 44 66 37 67 38 68 42 69 45 70 39 71 40 72 43 73 41 74 67 75
REMARK SMILES IDX 68 76 76 77 69 78 70 79 74 80 77 81 71 82 72 83 75 84 73 85
REMARK SMILES IDX 52 86 53 87 61 88 54 89 55 90 59 91 62 92 56 93 57 94 60 95
REMARK SMILES IDX 58 96
REMARK H PARENT 8 16 82 49 50 60
REMARK Flexibility Score: inf
ROOT
ATOM      1  C   UNL A   1      33.667  31.285  27.595  1.00  0.00     0.188 C 
ENDROOT
BRANCH   1   2
ATOM      2  O   UNL A   1      34.548  30.175  27.734  1.00  0.00    -0.376 OA
BRANCH   2   3
ATOM      3  C   UNL A   1      34.428  29.166  26.737  1.00  0.00     0.202 C 
BRANCH   3   4
ATOM      4  C   UNL A   1      32.971  28.753  26.560  1.00  0.00     0.261 C 
BRANCH   4   5
ATOM      5  O   UNL A   1      32.895  27.347  26.250  1.00  0.00    -0.463 OA
BRANCH   5   6
ATOM      6  C   UNL A   1      31.679  26.759  26.364  1.00  0.00     0.320 C 
ATOM      7  O   UNL A   1      30.839  27.075  27.195  1.00  0.00    -0.251 OA
BRANCH   6   8
ATOM      8  C   UNL A   1      31.482  25.659  25.341  1.00  0.00     0.142 C 
ATOM      9  C   UNL A   1      32.764  24.953  24.907  1.00  0.00     0.055 C 
ATOM     10  C   UNL A   1      30.824  24.493  26.101  1.00  0.00     0.185 C 
ATOM     11  C   UNL A   1      32.301  23.556  24.565  1.00  0.00     0.161 C 
ATOM     12  O   UNL A   1      31.201  23.276  25.434  1.00  0.00    -0.380 OA
BRANCH   8  13
ATOM     13  C   UNL A   1      30.507  26.099  24.207  1.00  0.00     0.283 C 
BRANCH  13  14
ATOM     14  N   UNL A   1      30.922  26.788  22.982  1.00  0.00    -0.331 N 
ATOM     15  C   UNL A   1      31.501  25.971  21.938  1.00  0.00     0.333 C 
ATOM     16  H   UNL A   1      29.982  27.008  22.655  1.00  0.00     0.348 HD
BRANCH  14  17
ATOM     17  C   UNL A   1      31.512  28.127  23.081  1.00  0.00     0.319 C 
BRANCH  17  18
ATOM     18  C   UNL A   1      30.530  29.285  23.104  1.00  0.00     0.095 A 
ATOM     19  C   UNL A   1      28.030  30.732  20.825  1.00  0.00     0.067 C 
ATOM     20  C   UNL A   1      28.846  30.497  22.058  1.00  0.00     0.038 A 
ATOM     21  C   UNL A   1      28.709  31.338  23.157  1.00  0.00     0.023 A 
ATOM     22  N   UNL A   1      29.747  29.485  22.012  1.00  0.00    -0.252 NA
ATOM     23  C   UNL A   1      29.531  31.138  24.256  1.00  0.00     0.004 A 
ATOM     24  C   UNL A   1      30.463  30.112  24.223  1.00  0.00     0.030 A 
ENDBRANCH  17  18
ENDBRANCH  14  17
ENDBRANCH  13  14
ENDBRANCH   8  13
ENDBRANCH   6   8
ENDBRANCH   5   6
ENDBRANCH   4   5
ENDBRANCH   3   4
ENDBRANCH   2   3
ENDBRANCH   1   2
BRANCH   1  25
ATOM     25  C   UNL A   1      34.318  32.612  28.003  1.00  0.00     0.188 C 
BRANCH  25  26
ATOM     26  O   UNL A   1      33.644  33.402  28.974  1.00  0.00    -0.376 OA
BRANCH  26  27
ATOM     27  C   UNL A   1      34.436  34.254  29.798  1.00  0.00     0.202 C 
BRANCH  27  28
ATOM     28  C   UNL A   1      34.421  33.893  31.281  1.00  0.00     0.261 C 
BRANCH  28  29
ATOM     29  O   UNL A   1      34.470  32.464  31.472  1.00  0.00    -0.460 OA
BRANCH  29  30
ATOM     30  C   UNL A   1      35.425  32.043  32.330  1.00  0.00     0.338 C 
ATOM     31  O   UNL A   1      35.544  32.328  33.509  1.00  0.00    -0.246 OA
BRANCH  30  32
ATOM     32  C   UNL A   1      36.359  31.128  31.655  1.00  0.00     0.060 A 
ATOM     33  C   UNL A   1      37.202  30.322  32.424  1.00  0.00     0.016 A 
ATOM     34  C   UNL A   1      36.554  31.248  30.277  1.00  0.00     0.016 A 
ATOM     35  C   UNL A   1      38.287  29.679  31.818  1.00  0.00     0.010 A 
ATOM     36  C   UNL A   1      37.631  30.589  29.673  1.00  0.00     0.010 A 
ATOM     37  C   UNL A   1      38.532  29.837  30.447  1.00  0.00    -0.014 A 
BRANCH  37  38
ATOM     38  C   UNL A   1      39.816  29.368  29.855  1.00  0.00     0.031 A 
ATOM     39  C   UNL A   1      40.987  30.312  29.805  1.00  0.00     0.074 A 
ATOM     40  C   UNL A   1      39.971  28.106  29.415  1.00  0.00     0.049 A 
ATOM     41  N   UNL A   1      42.146  30.176  29.213  1.00  0.00    -0.248 NA
ATOM     42  C   UNL A   1      40.831  31.581  30.535  1.00  0.00     0.031 C 
ATOM     43  C   UNL A   1      38.970  27.048  29.506  1.00  0.00     0.029 A 
ATOM     44  N   UNL A   1      41.045  27.505  28.802  1.00  0.00    -0.354 N 
ATOM     45  C   UNL A   1      42.846  31.348  29.472  1.00  0.00     0.074 A 
ATOM     46  C   UNL A   1      41.981  32.186  30.277  1.00  0.00     0.031 C 
ATOM     47  C   UNL A   1      39.476  25.925  28.969  1.00  0.00     0.029 A 
ATOM     48  C   UNL A   1      40.810  26.201  28.439  1.00  0.00     0.049 A 
ATOM     49  H   UNL A   1      41.900  27.964  28.638  1.00  0.00     0.167 HD
ATOM     50  C   UNL A   1      44.093  31.697  29.075  1.00  0.00     0.037 A 
ATOM     51  C   UNL A   1      41.568  25.344  27.725  1.00  0.00     0.037 A 
ATOM     52  C   UNL A   1      44.964  30.863  28.291  1.00  0.00     0.049 A 
ATOM     53  C   UNL A   1      42.907  25.793  27.199  1.00  0.00     0.074 A 
ATOM     54  C   UNL A   1      46.229  31.147  27.806  1.00  0.00     0.029 A 
ATOM     55  N   UNL A   1      44.662  29.573  27.885  1.00  0.00    -0.354 N 
ATOM     56  N   UNL A   1      43.534  26.929  27.383  1.00  0.00    -0.248 NA
ATOM     57  C   UNL A   1      43.638  24.841  26.348  1.00  0.00     0.031 C 
ATOM     58  C   UNL A   1      46.677  30.042  27.073  1.00  0.00     0.029 A 
ATOM     59  C   UNL A   1      45.708  29.054  27.138  1.00  0.00     0.049 A 
ATOM     60  H   UNL A   1      43.827  29.096  28.094  1.00  0.00     0.167 HD
ATOM     61  C   UNL A   1      44.735  26.821  26.692  1.00  0.00     0.074 A 
ATOM     62  C   UNL A   1      44.758  25.503  26.095  1.00  0.00     0.031 C 
ATOM     63  C   UNL A   1      45.727  27.735  26.559  1.00  0.00     0.037 A 
BRANCH  50  64
ATOM     64  C   UNL A   1      44.566  33.073  29.437  1.00  0.00     0.064 A 
ATOM     65  C   UNL A   1      45.377  33.307  30.558  1.00  0.00     0.173 A 
ATOM     66  C   UNL A   1      44.209  34.173  28.643  1.00  0.00     0.173 A 
ATOM     67  F   UNL A   1      45.732  32.291  31.359  1.00  0.00    -0.203 F 
ATOM     68  C   UNL A   1      45.789  34.597  30.885  1.00  0.00     0.198 A 
ATOM     69  C   UNL A   1      44.642  35.456  28.958  1.00  0.00     0.198 A 
ATOM     70  F   UNL A   1      43.438  34.001  27.559  1.00  0.00    -0.203 F 
ATOM     71  F   UNL A   1      46.523  34.805  31.986  1.00  0.00    -0.200 F 
ATOM     72  C   UNL A   1      45.425  35.669  30.083  1.00  0.00     0.200 A 
ATOM     73  F   UNL A   1      44.296  36.489  28.178  1.00  0.00    -0.200 F 
ATOM     74  F   UNL A   1      45.820  36.910  30.400  1.00  0.00    -0.200 F 
ENDBRANCH  50  64
BRANCH  51  75
ATOM     75  C   UNL A   1      41.056  23.984  27.411  1.00  0.00     0.064 A 
ATOM     76  C   UNL A   1      41.644  22.842  27.971  1.00  0.00     0.173 A 
ATOM     77  C   UNL A   1      39.995  23.799  26.512  1.00  0.00     0.173 A 
ATOM     78  F   UNL A   1      42.687  22.966  28.805  1.00  0.00    -0.203 F 
ATOM     79  C   UNL A   1      41.196  21.566  27.636  1.00  0.00     0.198 A 
ATOM     80  C   UNL A   1      39.530  22.524  26.200  1.00  0.00     0.198 A 
ATOM     81  F   UNL A   1      39.407  24.858  25.937  1.00  0.00    -0.203 F 
ATOM     82  F   UNL A   1      41.805  20.488  28.149  1.00  0.00    -0.200 F 
ATOM     83  C   UNL A   1      40.135  21.407  26.757  1.00  0.00     0.200 A 
ATOM     84  F   UNL A   1      38.497  22.376  25.359  1.00  0.00    -0.200 F 
ATOM     85  F   UNL A   1      39.701  20.180  26.440  1.00  0.00    -0.200 F 
ENDBRANCH  51  75
BRANCH  63  86
ATOM     86  C   UNL A   1      46.937  27.336  25.767  1.00  0.00     0.064 A 
ATOM     87  C   UNL A   1      47.043  27.616  24.397  1.00  0.00     0.173 A 
ATOM     88  C   UNL A   1      48.022  26.709  26.396  1.00  0.00     0.173 A 
ATOM     89  F   UNL A   1      46.026  28.201  23.747  1.00  0.00    -0.203 F 
ATOM     90  C   UNL A   1      48.185  27.266  23.682  1.00  0.00     0.198 A 
ATOM     91  C   UNL A   1      49.173  26.382  25.683  1.00  0.00     0.198 A 
ATOM     92  F   UNL A   1      47.973  26.424  27.707  1.00  0.00    -0.203 F 
ATOM     93  F   UNL A   1      48.250  27.509  22.366  1.00  0.00    -0.200 F 
ATOM     94  C   UNL A   1      49.251  26.655  24.326  1.00  0.00     0.200 A 
ATOM     95  F   UNL A   1      50.206  25.801  26.309  1.00  0.00    -0.200 F 
ATOM     96  F   UNL A   1      50.353  26.327  23.637  1.00  0.00    -0.200 F 
ENDBRANCH  63  86
ENDBRANCH  37  38
ENDBRANCH  30  32
ENDBRANCH  29  30
ENDBRANCH  28  29
ENDBRANCH  27  28
ENDBRANCH  26  27
ENDBRANCH  25  26
ENDBRANCH   1  25
TORSDOF 21
ENDMDL
MODEL 2
REMARK VINA RESULT:     -10.7      5.260     10.278
REMARK SMILES Cc1cccc(C[N@@H+](C)C[C@]2(C(=O)OCCOCCOCCOC(=O)c3ccc(-c4c5nc(c(-c6c(F)c(F)c(F)c(F)c6F)c6ccc([nH]6)c(-c6c(F)c(F)c(F)c(F)c6F)c6nc(c(-c7c(F)c(F)c(F)c(F)c7F)c7ccc4[nH]7)C=C6)C=C5)cc3)CCOC2)n1
REMARK SMILES IDX 18 1 17 2 16 3 15 4 14 5 12 6 13 7 11 8 89 9 92 10 90 11
REMARK SMILES IDX 91 12 10 13 8 14 9 15 7 17 6 18 1 19 2 20 3 21 93 22 4 23
REMARK SMILES IDX 5 24 19 25 20 26 21 27 22 28 23 29 24 30 25 31 26 32 27 33
REMARK SMILES IDX 88 34 28 35 87 36 29 37 30 38 31 39 81 40 32 41 86 42 80 43
REMARK SMILES IDX 82 44 33 45 85 46 79 47 78 48 34 50 66 51 46 52 65 53 47 54
REMARK SMILES IDX 50 55 64 56 83 57 48 58 49 59 63 61 84 62 51 63 35 64 36 65
REMARK SMILES IDX 44 66 37 67 38 68 42 69 45 70 39 71 40 72 43 73 41 74 67 75
REMARK SMILES IDX 68 76 76 77 69 78 70 79 74 80 77 81 71 82 72 83 75 84 73 85
REMARK SMILES IDX 52 86 53 87 61 88 54 89 55 90 59 91 62 92 56 93 57 94 60 95
REMARK SMILES IDX 58 96
REMARK H PARENT 8 16 82 49 50 60
REMARK Flexibility Score: inf
ROOT
ATOM      1  C   UNL A   1      39.870  21.296  26.269  1.00  0.00     0.188 C 
ENDROOT
BRANCH   1   2
ATOM      2  O   UNL A   1      38.571  20.884  25.859  1.00  0.00    -0.376 OA
BRANCH   2   3
ATOM      3  C   UNL A   1      37.811  21.859  25.153  1.00  0.00     0.202 C 
BRANCH   3   4
ATOM      4  C   UNL A   1      36.411  21.983  25.743  1.00  0.00     0.261 C 
BRANCH   4   5
ATOM      5  O   UNL A   1      35.532  21.021  25.125  1.00  0.00    -0.463 OA
BRANCH   5   6
ATOM      6  C   UNL A   1      34.463  21.512  24.451  1.00  0.00     0.320 C 
ATOM      7  O   UNL A   1      34.454  22.588  23.870  1.00  0.00    -0.251 OA
BRANCH   6   8
ATOM      8  C   UNL A   1      33.277  20.572  24.506  1.00  0.00     0.142 C 
ATOM      9  C   UNL A   1      33.519  19.200  23.882  1.00  0.00     0.055 C 
ATOM     10  C   UNL A   1      33.153  20.137  25.977  1.00  0.00     0.185 C 
ATOM     11  C   UNL A   1      32.613  18.286  24.673  1.00  0.00     0.161 C 
ATOM     12  O   UNL A   1      32.546  18.834  25.993  1.00  0.00    -0.380 OA
BRANCH   8  13
ATOM     13  C   UNL A   1      31.954  21.296  24.110  1.00  0.00     0.283 C 
BRANCH  13  14
ATOM     14  N   UNL A   1      31.629  22.678  24.471  1.00  0.00    -0.331 N 
ATOM     15  C   UNL A   1      31.155  22.907  25.818  1.00  0.00     0.333 C 
ATOM     16  H   UNL A   1      32.589  23.023  24.466  1.00  0.00     0.348 HD
BRANCH  14  17
ATOM     17  C   UNL A   1      31.006  23.550  23.470  1.00  0.00     0.319 C 
BRANCH  17  18
ATOM     18  C   UNL A   1      31.696  24.882  23.228  1.00  0.00     0.095 A 
ATOM     19  C   UNL A   1      31.693  28.225  24.765  1.00  0.00     0.067 C 
ATOM     20  C   UNL A   1      32.061  27.086  23.865  1.00  0.00     0.038 A 
ATOM     21  C   UNL A   1      32.980  27.276  22.839  1.00  0.00     0.023 A 
ATOM     22  N   UNL A   1      31.411  25.914  24.064  1.00  0.00    -0.252 NA
ATOM     23  C   UNL A   1      33.245  26.222  21.978  1.00  0.00     0.004 A 
ATOM     24  C   UNL A   1      32.584  25.017  22.164  1.00  0.00     0.030 A 
ENDBRANCH  17  18
ENDBRANCH  14  17
ENDBRANCH  13  14
ENDBRANCH   8  13
ENDBRANCH   6   8
ENDBRANCH   5   6
ENDBRANCH   4   5
ENDBRANCH   3   4
ENDBRANCH   2   3
ENDBRANCH   1   2
BRANCH   1  25
ATOM     25  C   UNL A   1      40.896  20.157  26.220  1.00  0.00     0.188 C 
BRANCH  25  26
ATOM     26  O   UNL A   1      42.051  20.278  27.042  1.00  0.00    -0.376 OA
BRANCH  26  27
ATOM     27  C   UNL A   1      42.829  21.466  26.915  1.00  0.00     0.202 C 
BRANCH  27  28
ATOM     28  C   UNL A   1      43.319  21.752  25.497  1.00  0.00     0.261 C 
BRANCH  28  29
ATOM     29  O   UNL A   1      42.655  22.904  24.938  1.00  0.00    -0.460 OA
BRANCH  29  30
ATOM     30  C   UNL A   1      43.360  24.054  25.016  1.00  0.00     0.338 C 
ATOM     31  O   UNL A   1      44.459  24.287  24.543  1.00  0.00    -0.246 OA
BRANCH  30  32
ATOM     32  C   UNL A   1      42.605  25.072  25.765  1.00  0.00     0.060 A 
ATOM     33  C   UNL A   1      43.032  26.402  25.729  1.00  0.00     0.016 A 
ATOM     34  C   UNL A   1      41.628  24.665  26.675  1.00  0.00     0.016 A 
ATOM     35  C   UNL A   1      42.521  27.317  26.656  1.00  0.00     0.010 A 
ATOM     36  C   UNL A   1      41.107  25.589  27.588  1.00  0.00     0.010 A 
ATOM     37  C   UNL A   1      41.584  26.911  27.615  1.00  0.00    -0.014 A 
BRANCH  37  38
ATOM     38  C   UNL A   1      41.234  27.809  28.750  1.00  0.00     0.031 A 
ATOM     39  C   UNL A   1      42.085  27.784  29.993  1.00  0.00     0.074 A 
ATOM     40  C   UNL A   1      40.211  28.679  28.674  1.00  0.00     0.049 A 
ATOM     41  N   UNL A   1      41.892  28.364  31.150  1.00  0.00    -0.248 NA
ATOM     42  C   UNL A   1      43.332  27.007  29.911  1.00  0.00     0.031 C 
ATOM     43  C   UNL A   1      39.375  28.901  27.499  1.00  0.00     0.029 A 
ATOM     44  N   UNL A   1      39.707  29.544  29.617  1.00  0.00    -0.354 N 
ATOM     45  C   UNL A   1      42.973  28.000  31.943  1.00  0.00     0.074 A 
ATOM     46  C   UNL A   1      43.821  27.148  31.134  1.00  0.00     0.031 C 
ATOM     47  C   UNL A   1      38.460  29.842  27.788  1.00  0.00     0.029 A 
ATOM     48  C   UNL A   1      38.605  30.242  29.186  1.00  0.00     0.049 A 
ATOM     49  H   UNL A   1      40.098  29.652  30.513  1.00  0.00     0.167 HD
ATOM     50  C   UNL A   1      43.236  28.340  33.227  1.00  0.00     0.037 A 
ATOM     51  C   UNL A   1      37.785  31.075  29.857  1.00  0.00     0.037 A 
ATOM     52  C   UNL A   1      42.408  29.200  34.031  1.00  0.00     0.049 A 
ATOM     53  C   UNL A   1      38.034  31.353  31.317  1.00  0.00     0.074 A 
ATOM     54  C   UNL A   1      42.572  29.569  35.355  1.00  0.00     0.029 A 
ATOM     55  N   UNL A   1      41.261  29.834  33.579  1.00  0.00    -0.354 N 
ATOM     56  N   UNL A   1      39.016  30.948  32.085  1.00  0.00    -0.248 NA
ATOM     57  C   UNL A   1      37.046  32.195  32.010  1.00  0.00     0.031 C 
ATOM     58  C   UNL A   1      41.502  30.396  35.716  1.00  0.00     0.029 A 
ATOM     59  C   UNL A   1      40.696  30.577  34.603  1.00  0.00     0.049 A 
ATOM     60  H   UNL A   1      40.901  29.766  32.665  1.00  0.00     0.167 HD
ATOM     61  C   UNL A   1      38.776  31.498  33.338  1.00  0.00     0.074 A 
ATOM     62  C   UNL A   1      37.563  32.279  33.228  1.00  0.00     0.031 C 
ATOM     63  C   UNL A   1      39.495  31.362  34.479  1.00  0.00     0.037 A 
BRANCH  50  64
ATOM     64  C   UNL A   1      44.448  27.729  33.863  1.00  0.00     0.064 A 
ATOM     65  C   UNL A   1      45.660  28.427  33.972  1.00  0.00     0.173 A 
ATOM     66  C   UNL A   1      44.392  26.425  34.378  1.00  0.00     0.173 A 
ATOM     67  F   UNL A   1      45.770  29.670  33.479  1.00  0.00    -0.203 F 
ATOM     68  C   UNL A   1      46.779  27.830  34.550  1.00  0.00     0.198 A 
ATOM     69  C   UNL A   1      45.503  25.841  34.977  1.00  0.00     0.198 A 
ATOM     70  F   UNL A   1      43.254  25.717  34.302  1.00  0.00    -0.203 F 
ATOM     71  F   UNL A   1      47.940  28.496  34.601  1.00  0.00    -0.200 F 
ATOM     72  C   UNL A   1      46.698  26.541  35.056  1.00  0.00     0.200 A 
ATOM     73  F   UNL A   1      45.421  24.599  35.472  1.00  0.00    -0.200 F 
ATOM     74  F   UNL A   1      47.775  25.967  35.609  1.00  0.00    -0.200 F 
ENDBRANCH  50  64
BRANCH  51  75
ATOM     75  C   UNL A   1      36.606  31.670  29.171  1.00  0.00     0.064 A 
ATOM     76  C   UNL A   1      36.550  33.040  28.886  1.00  0.00     0.173 A 
ATOM     77  C   UNL A   1      35.497  30.884  28.825  1.00  0.00     0.173 A 
ATOM     78  F   UNL A   1      37.569  33.840  29.234  1.00  0.00    -0.203 F 
ATOM     79  C   UNL A   1      35.424  33.604  28.290  1.00  0.00     0.198 A 
ATOM     80  C   UNL A   1      34.384  31.444  28.203  1.00  0.00     0.198 A 
ATOM     81  F   UNL A   1      35.495  29.569  29.088  1.00  0.00    -0.203 F 
ATOM     82  F   UNL A   1      35.375  34.925  28.070  1.00  0.00    -0.200 F 
ATOM     83  C   UNL A   1      34.345  32.805  27.941  1.00  0.00     0.200 A 
ATOM     84  F   UNL A   1      33.349  30.666  27.858  1.00  0.00    -0.200 F 
ATOM     85  F   UNL A   1      33.265  33.347  27.362  1.00  0.00    -0.200 F 
ENDBRANCH  51  75
BRANCH  63  86
ATOM     86  C   UNL A   1      39.011  32.097  35.695  1.00  0.00     0.064 A 
ATOM     87  C   UNL A   1      38.236  31.464  36.676  1.00  0.00     0.173 A 
ATOM     88  C   UNL A   1      39.369  33.438  35.902  1.00  0.00     0.173 A 
ATOM     89  F   UNL A   1      37.856  30.188  36.517  1.00  0.00    -0.203 F 
ATOM     90  C   UNL A   1      37.820  32.152  37.813  1.00  0.00     0.198 A 
ATOM     91  C   UNL A   1      38.971  34.116  37.052  1.00  0.00     0.198 A 
ATOM     92  F   UNL A   1      40.115  34.088  34.996  1.00  0.00    -0.203 F 
ATOM     93  F   UNL A   1      37.048  31.538  38.721  1.00  0.00    -0.200 F 
ATOM     94  C   UNL A   1      38.194  33.475  38.003  1.00  0.00     0.200 A 
ATOM     95  F   UNL A   1      39.342  35.391  37.239  1.00  0.00    -0.200 F 
ATOM     96  F   UNL A   1      37.799  34.132  39.103  1.00  0.00    -0.200 F 
ENDBRANCH  63  86
ENDBRANCH  37  38
ENDBRANCH  30  32
ENDBRANCH  29  30
ENDBRANCH  28  29
ENDBRANCH  27  28
ENDBRANCH  26  27
ENDBRANCH  25  26
ENDBRANCH   1  25
TORSDOF 21
ENDMDL
MODEL 3
REMARK VINA RESULT:     -10.6      1.522      3.425
REMARK SMILES Cc1cccc(C[N@@H+](C)C[C@]2(C(=O)OCCOCCOCCOC(=O)c3ccc(-c4c5nc(c(-c6c(F)c(F)c(F)c(F)c6F)c6ccc([nH]6)c(-c6c(F)c(F)c(F)c(F)c6F)c6nc(c(-c7c(F)c(F)c(F)c(F)c7F)c7ccc4[nH]7)C=C6)C=C5)cc3)CCOC2)n1
REMARK SMILES IDX 18 1 17 2 16 3 15 4 14 5 12 6 13 7 11 8 89 9 92 10 90 11
REMARK SMILES IDX 91 12 10 13 8 14 9 15 7 17 6 18 1 19 2 20 3 21 93 22 4 23
REMARK SMILES IDX 5 24 19 25 20 26 21 27 22 28 23 29 24 30 25 31 26 32 27 33
REMARK SMILES IDX 88 34 28 35 87 36 29 37 30 38 31 39 81 40 32 41 86 42 80 43
REMARK SMILES IDX 82 44 33 45 85 46 79 47 78 48 34 50 66 51 46 52 65 53 47 54
REMARK SMILES IDX 50 55 64 56 83 57 48 58 49 59 63 61 84 62 51 63 35 64 36 65
REMARK SMILES IDX 44 66 37 67 38 68 42 69 45 70 39 71 40 72 43 73 41 74 67 75
REMARK SMILES IDX 68 76 76 77 69 78 70 79 74 80 77 81 71 82 72 83 75 84 73 85
REMARK SMILES IDX 52 86 53 87 61 88 54 89 55 90 59 91 62 92 56 93 57 94 60 95
REMARK SMILES IDX 58 96
REMARK H PARENT 8 16 82 49 50 60
REMARK Flexibility Score: inf
ROOT
ATOM      1  C   UNL A   1      34.163  31.700  27.644  1.00  0.00     0.188 C 
ENDROOT
BRANCH   1   2
ATOM      2  O   UNL A   1      32.865  31.144  27.459  1.00  0.00    -0.376 OA
BRANCH   2   3
ATOM      3  C   UNL A   1      32.663  30.450  26.232  1.00  0.00     0.202 C 
BRANCH   3   4
ATOM      4  C   UNL A   1      32.099  29.057  26.487  1.00  0.00     0.261 C 
BRANCH   4   5
ATOM      5  O   UNL A   1      32.201  28.261  25.289  1.00  0.00    -0.463 OA
BRANCH   5   6
ATOM      6  C   UNL A   1      32.586  26.971  25.441  1.00  0.00     0.320 C 
ATOM      7  O   UNL A   1      32.963  26.487  26.500  1.00  0.00    -0.251 OA
BRANCH   6   8
ATOM      8  C   UNL A   1      32.501  26.195  24.142  1.00  0.00     0.142 C 
ATOM      9  C   UNL A   1      31.308  26.555  23.260  1.00  0.00     0.055 C 
ATOM     10  C   UNL A   1      33.623  26.750  23.247  1.00  0.00     0.185 C 
ATOM     11  C   UNL A   1      31.811  26.295  21.860  1.00  0.00     0.161 C 
ATOM     12  O   UNL A   1      33.213  26.575  21.881  1.00  0.00    -0.380 OA
BRANCH   8  13
ATOM     13  C   UNL A   1      32.774  24.676  24.363  1.00  0.00     0.283 C 
BRANCH  13  14
ATOM     14  N   UNL A   1      31.786  23.618  24.141  1.00  0.00    -0.331 N 
ATOM     15  C   UNL A   1      31.076  23.133  25.304  1.00  0.00     0.333 C 
ATOM     16  H   UNL A   1      31.111  24.200  23.644  1.00  0.00     0.348 HD
BRANCH  14  17
ATOM     17  C   UNL A   1      32.062  22.582  23.141  1.00  0.00     0.319 C 
BRANCH  17  18
ATOM     18  C   UNL A   1      32.780  21.343  23.650  1.00  0.00     0.095 A 
ATOM     19  C   UNL A   1      36.049  20.558  25.144  1.00  0.00     0.067 C 
ATOM     20  C   UNL A   1      34.649  20.384  24.641  1.00  0.00     0.038 A 
ATOM     21  C   UNL A   1      34.064  19.123  24.626  1.00  0.00     0.023 A 
ATOM     22  N   UNL A   1      34.033  21.489  24.154  1.00  0.00    -0.252 NA
ATOM     23  C   UNL A   1      32.795  18.984  24.087  1.00  0.00     0.004 A 
ATOM     24  C   UNL A   1      32.152  20.102  23.578  1.00  0.00     0.030 A 
ENDBRANCH  17  18
ENDBRANCH  14  17
ENDBRANCH  13  14
ENDBRANCH   8  13
ENDBRANCH   6   8
ENDBRANCH   5   6
ENDBRANCH   4   5
ENDBRANCH   3   4
ENDBRANCH   2   3
ENDBRANCH   1   2
BRANCH   1  25
ATOM     25  C   UNL A   1      34.122  33.190  28.003  1.00  0.00     0.188 C 
BRANCH  25  26
ATOM     26  O   UNL A   1      33.425  33.562  29.185  1.00  0.00    -0.376 OA
BRANCH  26  27
ATOM     27  C   UNL A   1      34.009  34.570  30.007  1.00  0.00     0.202 C 
BRANCH  27  28
ATOM     28  C   UNL A   1      34.419  34.093  31.398  1.00  0.00     0.261 C 
BRANCH  28  29
ATOM     29  O   UNL A   1      34.492  32.654  31.457  1.00  0.00    -0.460 OA
BRANCH  29  30
ATOM     30  C   UNL A   1      35.408  32.171  32.325  1.00  0.00     0.338 C 
ATOM     31  O   UNL A   1      35.499  32.406  33.517  1.00  0.00    -0.246 OA
BRANCH  30  32
ATOM     32  C   UNL A   1      36.335  31.255  31.641  1.00  0.00     0.060 A 
ATOM     33  C   UNL A   1      37.136  30.399  32.401  1.00  0.00     0.016 A 
ATOM     34  C   UNL A   1      36.568  31.416  30.273  1.00  0.00     0.016 A 
ATOM     35  C   UNL A   1      38.218  29.749  31.800  1.00  0.00     0.010 A 
ATOM     36  C   UNL A   1      37.642  30.749  29.672  1.00  0.00     0.010 A 
ATOM     37  C   UNL A   1      38.502  29.946  30.442  1.00  0.00    -0.014 A 
BRANCH  37  38
ATOM     38  C   UNL A   1      39.788  29.463  29.866  1.00  0.00     0.031 A 
ATOM     39  C   UNL A   1      40.966  30.399  29.816  1.00  0.00     0.074 A 
ATOM     40  C   UNL A   1      39.939  28.196  29.438  1.00  0.00     0.049 A 
ATOM     41  N   UNL A   1      42.130  30.250  29.235  1.00  0.00    -0.248 NA
ATOM     42  C   UNL A   1      40.813  31.676  30.533  1.00  0.00     0.031 C 
ATOM     43  C   UNL A   1      38.930  27.146  29.531  1.00  0.00     0.029 A 
ATOM     44  N   UNL A   1      41.014  27.582  28.840  1.00  0.00    -0.354 N 
ATOM     45  C   UNL A   1      42.835  31.420  29.490  1.00  0.00     0.074 A 
ATOM     46  C   UNL A   1      41.968  32.271  30.279  1.00  0.00     0.031 C 
ATOM     47  C   UNL A   1      39.433  26.014  29.009  1.00  0.00     0.029 A 
ATOM     48  C   UNL A   1      40.773  26.276  28.488  1.00  0.00     0.049 A 
ATOM     49  H   UNL A   1      41.873  28.034  28.680  1.00  0.00     0.167 HD
ATOM     50  C   UNL A   1      44.087  31.757  29.100  1.00  0.00     0.037 A 
ATOM     51  C   UNL A   1      41.531  25.408  27.789  1.00  0.00     0.037 A 
ATOM     52  C   UNL A   1      44.960  30.909  28.331  1.00  0.00     0.049 A 
ATOM     53  C   UNL A   1      42.878  25.842  27.271  1.00  0.00     0.074 A 
ATOM     54  C   UNL A   1      46.231  31.180  27.855  1.00  0.00     0.029 A 
ATOM     55  N   UNL A   1      44.652  29.617  27.935  1.00  0.00    -0.354 N 
ATOM     56  N   UNL A   1      43.511  26.976  27.449  1.00  0.00    -0.248 NA
ATOM     57  C   UNL A   1      43.609  24.877  26.435  1.00  0.00     0.031 C 
ATOM     58  C   UNL A   1      46.677  30.065  27.136  1.00  0.00     0.029 A 
ATOM     59  C   UNL A   1      45.701  29.084  27.203  1.00  0.00     0.049 A 
ATOM     60  H   UNL A   1      43.812  29.148  28.142  1.00  0.00     0.167 HD
ATOM     61  C   UNL A   1      44.717  26.853  26.769  1.00  0.00     0.074 A 
ATOM     62  C   UNL A   1      44.736  25.530  26.185  1.00  0.00     0.031 C 
ATOM     63  C   UNL A   1      45.715  27.760  26.636  1.00  0.00     0.037 A 
BRANCH  50  64
ATOM     64  C   UNL A   1      44.567  33.132  29.453  1.00  0.00     0.064 A 
ATOM     65  C   UNL A   1      45.347  33.376  30.593  1.00  0.00     0.173 A 
ATOM     66  C   UNL A   1      44.247  34.223  28.630  1.00  0.00     0.173 A 
ATOM     67  F   UNL A   1      45.665  32.369  31.421  1.00  0.00    -0.203 F 
ATOM     68  C   UNL A   1      45.765  34.666  30.911  1.00  0.00     0.198 A 
ATOM     69  C   UNL A   1      44.686  35.506  28.937  1.00  0.00     0.198 A 
ATOM     70  F   UNL A   1      43.506  34.041  27.526  1.00  0.00    -0.203 F 
ATOM     71  F   UNL A   1      46.468  34.885  32.030  1.00  0.00    -0.200 F 
ATOM     72  C   UNL A   1      45.438  35.729  30.081  1.00  0.00     0.200 A 
ATOM     73  F   UNL A   1      44.377  36.530  28.130  1.00  0.00    -0.200 F 
ATOM     74  F   UNL A   1      45.839  36.970  30.389  1.00  0.00    -0.200 F 
ENDBRANCH  50  64
BRANCH  51  75
ATOM     75  C   UNL A   1      41.013  24.048  27.483  1.00  0.00     0.064 A 
ATOM     76  C   UNL A   1      41.566  22.910  28.086  1.00  0.00     0.173 A 
ATOM     77  C   UNL A   1      39.981  23.858  26.552  1.00  0.00     0.173 A 
ATOM     78  F   UNL A   1      42.581  23.037  28.953  1.00  0.00    -0.203 F 
ATOM     79  C   UNL A   1      41.114  21.633  27.760  1.00  0.00     0.198 A 
ATOM     80  C   UNL A   1      39.511  22.583  26.249  1.00  0.00     0.198 A 
ATOM     81  F   UNL A   1      39.427  24.913  25.937  1.00  0.00    -0.203 F 
ATOM     82  F   UNL A   1      41.691  20.558  28.314  1.00  0.00    -0.200 F 
ATOM     83  C   UNL A   1      40.082  21.471  26.848  1.00  0.00     0.200 A 
ATOM     84  F   UNL A   1      38.506  22.431  25.376  1.00  0.00    -0.200 F 
ATOM     85  F   UNL A   1      39.643  20.242  26.540  1.00  0.00    -0.200 F 
ENDBRANCH  51  75
BRANCH  63  86
ATOM     86  C   UNL A   1      46.930  27.345  25.858  1.00  0.00     0.064 A 
ATOM     87  C   UNL A   1      47.051  27.616  24.488  1.00  0.00     0.173 A 
ATOM     88  C   UNL A   1      48.004  26.712  26.502  1.00  0.00     0.173 A 
ATOM     89  F   UNL A   1      46.046  28.206  23.825  1.00  0.00    -0.203 F 
ATOM     90  C   UNL A   1      48.198  27.251  23.786  1.00  0.00     0.198 A 
ATOM     91  C   UNL A   1      49.158  26.370  25.802  1.00  0.00     0.198 A 
ATOM     92  F   UNL A   1      47.939  26.436  27.813  1.00  0.00    -0.203 F 
ATOM     93  F   UNL A   1      48.278  27.485  22.469  1.00  0.00    -0.200 F 
ATOM     94  C   UNL A   1      49.252  26.635  24.444  1.00  0.00     0.200 A 
ATOM     95  F   UNL A   1      50.180  25.785  26.442  1.00  0.00    -0.200 F 
ATOM     96  F   UNL A   1      50.357  26.292  23.768  1.00  0.00    -0.200 F 
ENDBRANCH  63  86
ENDBRANCH  37  38
ENDBRANCH  30  32
ENDBRANCH  29  30
ENDBRANCH  28  29
ENDBRANCH  27  28
ENDBRANCH  26  27
ENDBRANCH  25  26
ENDBRANCH   1  25
TORSDOF 21
ENDMDL
