MODEL 1
REMARK VINA RESULT:     -11.4      0.000      0.000
REMARK SMILES C[C@@H]1CN(C(=O)Nc2ccc(O)c(C(=O)OCCOCCOCCOC(=O)c3ccc(-c4c5nc(c(-c6c(F)c(F)c(F)c(F)c6F)c6ccc([nH]6)c(-c6c(F)c(F)c(F)c(F)c6F)c6nc(c(-c7c(F)c(F)c(F)c(F)c7F)c7ccc4[nH]7)C=C6)C=C5)cc3)c2)C[C@@H]1C
REMARK SMILES IDX 20 1 19 2 18 3 17 4 16 5 14 6 15 7 13 8 8 9 9 10 91 11 10 12
REMARK SMILES IDX 11 13 7 14 5 15 6 16 4 18 1 19 2 20 3 21 93 22 92 23 94 24
REMARK SMILES IDX 12 25 21 27 22 28 23 29 24 30 25 31 26 32 27 33 28 34 29 35
REMARK SMILES IDX 90 36 30 37 89 38 31 39 32 40 33 41 83 42 34 43 88 44 82 45
REMARK SMILES IDX 84 46 35 47 87 48 81 49 80 50 36 52 68 53 48 54 67 55 49 56
REMARK SMILES IDX 52 57 66 58 85 59 50 60 51 61 65 63 86 64 53 65 37 66 38 67
REMARK SMILES IDX 46 68 39 69 40 70 44 71 47 72 41 73 42 74 45 75 43 76 69 77
REMARK SMILES IDX 70 78 78 79 71 80 72 81 76 82 79 83 73 84 74 85 77 86 75 87
REMARK SMILES IDX 54 88 55 89 63 90 56 91 57 92 61 93 64 94 58 95 59 96 62 97
REMARK SMILES IDX 60 98
REMARK H PARENT 7 17 12 26 84 51 52 62
REMARK Flexibility Score: inf
ROOT
ATOM      1  C   UNL A   1      40.454  21.943  26.285  1.00  0.00     0.188 C 
ENDROOT
BRANCH   1   2
ATOM      2  O   UNL A   1      39.241  21.355  25.821  1.00  0.00    -0.376 OA
BRANCH   2   3
ATOM      3  C   UNL A   1      38.060  22.155  25.761  1.00  0.00     0.202 C 
BRANCH   3   4
ATOM      4  C   UNL A   1      36.710  21.441  25.611  1.00  0.00     0.261 C 
BRANCH   4   5
ATOM      5  O   UNL A   1      35.625  22.219  26.131  1.00  0.00    -0.460 OA
BRANCH   5   6
ATOM      6  C   UNL A   1      34.427  21.585  26.228  1.00  0.00     0.342 C 
ATOM      7  O   UNL A   1      33.935  21.097  27.220  1.00  0.00    -0.246 OA
BRANCH   6   8
ATOM      8  C   UNL A   1      33.656  21.814  24.983  1.00  0.00     0.103 A 
ATOM      9  C   UNL A   1      33.382  23.182  23.012  1.00  0.00     0.044 A 
ATOM     10  C   UNL A   1      32.374  22.330  22.557  1.00  0.00     0.030 A 
ATOM     11  C   UNL A   1      34.075  22.886  24.182  1.00  0.00     0.045 A 
ATOM     12  C   UNL A   1      31.966  21.248  23.343  1.00  0.00     0.049 A 
ATOM     13  C   UNL A   1      32.583  21.014  24.573  1.00  0.00     0.130 A 
BRANCH   9  14
ATOM     14  N   UNL A   1      33.683  24.368  22.346  1.00  0.00    -0.308 N 
ATOM     15  C   UNL A   1      33.058  25.581  22.373  1.00  0.00     0.321 C 
ATOM     16  O   UNL A   1      33.431  26.418  21.546  1.00  0.00    -0.248 OA
ATOM     17  H   UNL A   1      34.474  24.324  21.761  1.00  0.00     0.171 HD
BRANCH  15  18
ATOM     18  N   UNL A   1      32.173  25.902  23.371  1.00  0.00    -0.324 N 
ATOM     19  C   UNL A   1      31.407  27.446  26.641  1.00  0.00     0.010 C 
ATOM     20  C   UNL A   1      31.122  26.632  25.389  1.00  0.00     0.010 C 
ATOM     21  C   UNL A   1      32.400  26.040  24.803  1.00  0.00     0.125 C 
ATOM     22  C   UNL A   1      30.498  27.368  24.195  1.00  0.00     0.010 C 
ATOM     23  C   UNL A   1      30.858  26.430  23.032  1.00  0.00     0.125 C 
ATOM     24  C   UNL A   1      31.051  28.775  23.966  1.00  0.00     0.010 C 
ENDBRANCH  15  18
ENDBRANCH   9  14
BRANCH  13  25
ATOM     25  O   UNL A   1      32.125  20.010  25.375  1.00  0.00    -0.507 OA
ATOM     26  H   UNL A   1      31.223  19.759  25.343  1.00  0.00     0.293 HD
ENDBRANCH  13  25
ENDBRANCH   6   8
ENDBRANCH   5   6
ENDBRANCH   4   5
ENDBRANCH   3   4
ENDBRANCH   2   3
ENDBRANCH   1   2
BRANCH   1  27
ATOM     27  C   UNL A   1      41.498  21.054  26.992  1.00  0.00     0.188 C 
BRANCH  27  28
ATOM     28  O   UNL A   1      42.818  21.536  26.878  1.00  0.00    -0.376 OA
BRANCH  28  29
ATOM     29  C   UNL A   1      43.542  21.239  25.698  1.00  0.00     0.202 C 
BRANCH  29  30
ATOM     30  C   UNL A   1      44.278  22.352  24.931  1.00  0.00     0.261 C 
BRANCH  30  31
ATOM     31  O   UNL A   1      43.608  23.615  24.799  1.00  0.00    -0.460 OA
BRANCH  31  32
ATOM     32  C   UNL A   1      44.310  24.722  25.125  1.00  0.00     0.338 C 
ATOM     33  O   UNL A   1      45.351  25.107  24.625  1.00  0.00    -0.246 OA
BRANCH  32  34
ATOM     34  C   UNL A   1      43.503  25.512  26.083  1.00  0.00     0.060 A 
ATOM     35  C   UNL A   1      43.942  26.796  26.426  1.00  0.00     0.016 A 
ATOM     36  C   UNL A   1      42.341  24.986  26.656  1.00  0.00     0.016 A 
ATOM     37  C   UNL A   1      43.244  27.540  27.378  1.00  0.00     0.010 A 
ATOM     38  C   UNL A   1      41.649  25.730  27.620  1.00  0.00     0.010 A 
ATOM     39  C   UNL A   1      42.120  26.994  28.014  1.00  0.00    -0.014 A 
BRANCH  39  40
ATOM     40  C   UNL A   1      41.558  27.683  29.203  1.00  0.00     0.031 A 
ATOM     41  C   UNL A   1      42.278  27.564  30.519  1.00  0.00     0.074 A 
ATOM     42  C   UNL A   1      40.466  28.461  29.107  1.00  0.00     0.049 A 
ATOM     43  N   UNL A   1      42.033  28.154  31.662  1.00  0.00    -0.248 NA
ATOM     44  C   UNL A   1      43.436  26.658  30.545  1.00  0.00     0.031 C 
ATOM     45  C   UNL A   1      39.691  28.680  27.888  1.00  0.00     0.029 A 
ATOM     46  N   UNL A   1      39.830  29.223  30.055  1.00  0.00    -0.354 N 
ATOM     47  C   UNL A   1      43.012  27.703  32.537  1.00  0.00     0.074 A 
ATOM     48  C   UNL A   1      43.824  26.751  31.808  1.00  0.00     0.031 C 
ATOM     49  C   UNL A   1      38.692  29.539  28.158  1.00  0.00     0.029 A 
ATOM     50  C   UNL A   1      38.747  29.914  29.570  1.00  0.00     0.049 A 
ATOM     51  H   UNL A   1      40.123  29.270  30.994  1.00  0.00     0.167 HD
ATOM     52  C   UNL A   1      43.231  28.061  33.825  1.00  0.00     0.037 A 
ATOM     53  C   UNL A   1      37.903  30.757  30.197  1.00  0.00     0.037 A 
ATOM     54  C   UNL A   1      42.413  28.990  34.559  1.00  0.00     0.049 A 
ATOM     55  C   UNL A   1      38.116  31.080  31.653  1.00  0.00     0.074 A 
ATOM     56  C   UNL A   1      42.553  29.421  35.867  1.00  0.00     0.029 A 
ATOM     57  N   UNL A   1      41.288  29.625  34.050  1.00  0.00    -0.354 N 
ATOM     58  N   UNL A   1      39.067  30.680  32.463  1.00  0.00    -0.248 NA
ATOM     59  C   UNL A   1      37.139  31.982  32.279  1.00  0.00     0.031 C 
ATOM     60  C   UNL A   1      41.483  30.274  36.166  1.00  0.00     0.029 A 
ATOM     61  C   UNL A   1      40.710  30.422  35.026  1.00  0.00     0.049 A 
ATOM     62  H   UNL A   1      40.951  29.523  33.130  1.00  0.00     0.167 HD
ATOM     63  C   UNL A   1      38.828  31.312  33.677  1.00  0.00     0.074 A 
ATOM     64  C   UNL A   1      37.643  32.125  33.497  1.00  0.00     0.031 C 
ATOM     65  C   UNL A   1      39.533  31.232  34.834  1.00  0.00     0.037 A 
BRANCH  52  66
ATOM     66  C   UNL A   1      44.390  27.412  34.525  1.00  0.00     0.064 A 
ATOM     67  C   UNL A   1      44.248  26.197  35.215  1.00  0.00     0.173 A 
ATOM     68  C   UNL A   1      45.657  28.016  34.516  1.00  0.00     0.173 A 
ATOM     69  F   UNL A   1      43.056  25.587  35.269  1.00  0.00    -0.203 F 
ATOM     70  C   UNL A   1      45.320  25.634  35.904  1.00  0.00     0.198 A 
ATOM     71  C   UNL A   1      46.734  27.433  35.179  1.00  0.00     0.198 A 
ATOM     72  F   UNL A   1      45.849  29.174  33.868  1.00  0.00    -0.203 F 
ATOM     73  F   UNL A   1      45.144  24.509  36.611  1.00  0.00    -0.200 F 
ATOM     74  C   UNL A   1      46.562  26.250  35.882  1.00  0.00     0.200 A 
ATOM     75  F   UNL A   1      47.936  28.023  35.147  1.00  0.00    -0.200 F 
ATOM     76  F   UNL A   1      47.591  25.710  36.550  1.00  0.00    -0.200 F 
ENDBRANCH  52  66
BRANCH  53  77
ATOM     77  C   UNL A   1      36.792  31.389  29.436  1.00  0.00     0.064 A 
ATOM     78  C   UNL A   1      35.675  30.642  29.038  1.00  0.00     0.173 A 
ATOM     79  C   UNL A   1      36.828  32.747  29.090  1.00  0.00     0.173 A 
ATOM     80  F   UNL A   1      35.613  29.331  29.315  1.00  0.00    -0.203 F 
ATOM     81  C   UNL A   1      34.639  31.228  28.315  1.00  0.00     0.198 A 
ATOM     82  C   UNL A   1      35.779  33.337  28.389  1.00  0.00     0.198 A 
ATOM     83  F   UNL A   1      37.878  33.502  29.440  1.00  0.00    -0.203 F 
ATOM     84  F   UNL A   1      33.601  30.482  27.910  1.00  0.00    -0.200 F 
ATOM     85  C   UNL A   1      34.687  32.577  27.998  1.00  0.00     0.200 A 
ATOM     86  F   UNL A   1      35.828  34.643  28.090  1.00  0.00    -0.200 F 
ATOM     87  F   UNL A   1      33.687  33.142  27.307  1.00  0.00    -0.200 F 
ENDBRANCH  53  77
BRANCH  65  88
ATOM     88  C   UNL A   1      39.069  32.081  35.985  1.00  0.00     0.064 A 
ATOM     89  C   UNL A   1      38.221  31.581  36.984  1.00  0.00     0.173 A 
ATOM     90  C   UNL A   1      39.504  33.411  36.103  1.00  0.00     0.173 A 
ATOM     91  F   UNL A   1      37.766  30.320  36.913  1.00  0.00    -0.203 F 
ATOM     92  C   UNL A   1      37.797  32.389  38.036  1.00  0.00     0.198 A 
ATOM     93  C   UNL A   1      39.105  34.206  37.174  1.00  0.00     0.198 A 
ATOM     94  F   UNL A   1      40.325  33.939  35.182  1.00  0.00    -0.203 F 
ATOM     95  F   UNL A   1      36.942  31.904  38.948  1.00  0.00    -0.200 F 
ATOM     96  C   UNL A   1      38.244  33.698  38.134  1.00  0.00     0.200 A 
ATOM     97  F   UNL A   1      39.550  35.466  37.274  1.00  0.00    -0.200 F 
ATOM     98  F   UNL A   1      37.838  34.473  39.149  1.00  0.00    -0.200 F 
ENDBRANCH  65  88
ENDBRANCH  39  40
ENDBRANCH  32  34
ENDBRANCH  31  32
ENDBRANCH  30  31
ENDBRANCH  29  30
ENDBRANCH  28  29
ENDBRANCH  27  28
ENDBRANCH   1  27
TORSDOF 20
ENDMDL
MODEL 2
REMARK VINA RESULT:     -11.4      3.762      9.129
REMARK SMILES C[C@@H]1CN(C(=O)Nc2ccc(O)c(C(=O)OCCOCCOCCOC(=O)c3ccc(-c4c5nc(c(-c6c(F)c(F)c(F)c(F)c6F)c6ccc([nH]6)c(-c6c(F)c(F)c(F)c(F)c6F)c6nc(c(-c7c(F)c(F)c(F)c(F)c7F)c7ccc4[nH]7)C=C6)C=C5)cc3)c2)C[C@@H]1C
REMARK SMILES IDX 20 1 19 2 18 3 17 4 16 5 14 6 15 7 13 8 8 9 9 10 91 11 10 12
REMARK SMILES IDX 11 13 7 14 5 15 6 16 4 18 1 19 2 20 3 21 93 22 92 23 94 24
REMARK SMILES IDX 12 25 21 27 22 28 23 29 24 30 25 31 26 32 27 33 28 34 29 35
REMARK SMILES IDX 90 36 30 37 89 38 31 39 32 40 33 41 83 42 34 43 88 44 82 45
REMARK SMILES IDX 84 46 35 47 87 48 81 49 80 50 36 52 68 53 48 54 67 55 49 56
REMARK SMILES IDX 52 57 66 58 85 59 50 60 51 61 65 63 86 64 53 65 37 66 38 67
REMARK SMILES IDX 46 68 39 69 40 70 44 71 47 72 41 73 42 74 45 75 43 76 69 77
REMARK SMILES IDX 70 78 78 79 71 80 72 81 76 82 79 83 73 84 74 85 77 86 75 87
REMARK SMILES IDX 54 88 55 89 63 90 56 91 57 92 61 93 64 94 58 95 59 96 62 97
REMARK SMILES IDX 60 98
REMARK H PARENT 7 17 12 26 84 51 52 62
REMARK Flexibility Score: inf
ROOT
ATOM      1  C   UNL A   1      36.136  32.578  28.203  1.00  0.00     0.188 C 
ENDROOT
BRANCH   1   2
ATOM      2  O   UNL A   1      35.713  31.305  27.720  1.00  0.00    -0.376 OA
BRANCH   2   3
ATOM      3  C   UNL A   1      34.321  31.065  27.519  1.00  0.00     0.202 C 
BRANCH   3   4
ATOM      4  C   UNL A   1      33.873  29.635  27.195  1.00  0.00     0.261 C 
BRANCH   4   5
ATOM      5  O   UNL A   1      33.367  29.514  25.859  1.00  0.00    -0.460 OA
BRANCH   5   6
ATOM      6  C   UNL A   1      32.036  29.742  25.700  1.00  0.00     0.342 C 
ATOM      7  O   UNL A   1      31.464  30.806  25.759  1.00  0.00    -0.246 OA
BRANCH   6   8
ATOM      8  C   UNL A   1      31.397  28.517  25.161  1.00  0.00     0.103 A 
ATOM      9  C   UNL A   1      30.508  26.329  25.658  1.00  0.00     0.044 A 
ATOM     10  C   UNL A   1      30.106  26.187  24.329  1.00  0.00     0.030 A 
ATOM     11  C   UNL A   1      31.083  27.519  26.094  1.00  0.00     0.045 A 
ATOM     12  C   UNL A   1      30.399  27.188  23.399  1.00  0.00     0.049 A 
ATOM     13  C   UNL A   1      31.078  28.337  23.810  1.00  0.00     0.130 A 
BRANCH   9  14
ATOM     14  N   UNL A   1      30.397  25.277  26.565  1.00  0.00    -0.308 N 
ATOM     15  C   UNL A   1      30.984  24.044  26.565  1.00  0.00     0.321 C 
ATOM     16  O   UNL A   1      30.573  23.233  27.400  1.00  0.00    -0.248 OA
ATOM     17  H   UNL A   1      29.800  25.450  27.328  1.00  0.00     0.171 HD
BRANCH  15  18
ATOM     18  N   UNL A   1      32.079  23.777  25.782  1.00  0.00    -0.324 N 
ATOM     19  C   UNL A   1      33.712  23.561  22.474  1.00  0.00     0.010 C 
ATOM     20  C   UNL A   1      33.598  23.387  23.980  1.00  0.00     0.010 C 
ATOM     21  C   UNL A   1      32.142  23.267  24.420  1.00  0.00     0.125 C 
ATOM     22  C   UNL A   1      34.138  24.519  24.865  1.00  0.00     0.010 C 
ATOM     23  C   UNL A   1      33.393  24.262  26.184  1.00  0.00     0.125 C 
ATOM     24  C   UNL A   1      33.855  25.924  24.331  1.00  0.00     0.010 C 
ENDBRANCH  15  18
ENDBRANCH   9  14
BRANCH  13  25
ATOM     25  O   UNL A   1      31.438  29.272  22.885  1.00  0.00    -0.507 OA
ATOM     26  H   UNL A   1      32.167  29.838  23.049  1.00  0.00     0.293 HD
ENDBRANCH  13  25
ENDBRANCH   6   8
ENDBRANCH   5   6
ENDBRANCH   4   5
ENDBRANCH   3   4
ENDBRANCH   2   3
ENDBRANCH   1   2
BRANCH   1  27
ATOM     27  C   UNL A   1      35.101  33.516  28.858  1.00  0.00     0.188 C 
BRANCH  27  28
ATOM     28  O   UNL A   1      34.694  34.577  28.022  1.00  0.00    -0.376 OA
BRANCH  28  29
ATOM     29  C   UNL A   1      33.955  35.638  28.598  1.00  0.00     0.202 C 
BRANCH  29  30
ATOM     30  C   UNL A   1      32.916  35.362  29.699  1.00  0.00     0.261 C 
BRANCH  30  31
ATOM     31  O   UNL A   1      33.046  36.097  30.926  1.00  0.00    -0.460 OA
BRANCH  31  32
ATOM     32  C   UNL A   1      32.734  35.448  32.069  1.00  0.00     0.338 C 
ATOM     33  O   UNL A   1      31.621  35.244  32.519  1.00  0.00    -0.246 OA
BRANCH  32  34
ATOM     34  C   UNL A   1      33.976  34.851  32.611  1.00  0.00     0.060 A 
ATOM     35  C   UNL A   1      35.176  35.554  32.461  1.00  0.00     0.016 A 
ATOM     36  C   UNL A   1      33.962  33.600  33.238  1.00  0.00     0.016 A 
ATOM     37  C   UNL A   1      36.375  34.987  32.897  1.00  0.00     0.010 A 
ATOM     38  C   UNL A   1      35.168  33.029  33.665  1.00  0.00     0.010 A 
ATOM     39  C   UNL A   1      36.384  33.703  33.461  1.00  0.00    -0.014 A 
BRANCH  39  40
ATOM     40  C   UNL A   1      37.684  33.016  33.668  1.00  0.00     0.031 A 
ATOM     41  C   UNL A   1      38.449  33.279  34.937  1.00  0.00     0.074 A 
ATOM     42  C   UNL A   1      38.148  32.118  32.782  1.00  0.00     0.049 A 
ATOM     43  N   UNL A   1      39.549  32.723  35.379  1.00  0.00    -0.248 NA
ATOM     44  C   UNL A   1      37.893  34.308  35.829  1.00  0.00     0.031 C 
ATOM     45  C   UNL A   1      37.492  31.755  31.528  1.00  0.00     0.029 A 
ATOM     46  N   UNL A   1      39.277  31.338  32.813  1.00  0.00    -0.354 N 
ATOM     47  C   UNL A   1      39.808  33.323  36.605  1.00  0.00     0.074 A 
ATOM     48  C   UNL A   1      38.780  34.322  36.812  1.00  0.00     0.031 C 
ATOM     49  C   UNL A   1      38.222  30.804  30.917  1.00  0.00     0.029 A 
ATOM     50  C   UNL A   1      39.403  30.509  31.726  1.00  0.00     0.049 A 
ATOM     51  H   UNL A   1      39.934  31.371  33.545  1.00  0.00     0.167 HD
ATOM     52  C   UNL A   1      40.799  33.056  37.488  1.00  0.00     0.037 A 
ATOM     53  C   UNL A   1      40.362  29.610  31.426  1.00  0.00     0.037 A 
ATOM     54  C   UNL A   1      41.836  32.080  37.276  1.00  0.00     0.049 A 
ATOM     55  C   UNL A   1      41.500  29.386  32.387  1.00  0.00     0.074 A 
ATOM     56  C   UNL A   1      42.883  31.733  38.112  1.00  0.00     0.029 A 
ATOM     57  N   UNL A   1      41.962  31.300  36.135  1.00  0.00    -0.354 N 
ATOM     58  N   UNL A   1      41.717  29.928  33.561  1.00  0.00    -0.248 NA
ATOM     59  C   UNL A   1      42.525  28.413  31.981  1.00  0.00     0.031 C 
ATOM     60  C   UNL A   1      43.673  30.782  37.454  1.00  0.00     0.029 A 
ATOM     61  C   UNL A   1      43.086  30.493  36.233  1.00  0.00     0.049 A 
ATOM     62  H   UNL A   1      41.345  31.318  35.368  1.00  0.00     0.167 HD
ATOM     63  C   UNL A   1      42.874  29.334  34.050  1.00  0.00     0.074 A 
ATOM     64  C   UNL A   1      43.312  28.388  33.046  1.00  0.00     0.031 C 
ATOM     65  C   UNL A   1      43.511  29.549  35.229  1.00  0.00     0.037 A 
BRANCH  52  66
ATOM     66  C   UNL A   1      40.819  33.863  38.755  1.00  0.00     0.064 A 
ATOM     67  C   UNL A   1      41.638  34.995  38.895  1.00  0.00     0.173 A 
ATOM     68  C   UNL A   1      40.017  33.496  39.847  1.00  0.00     0.173 A 
ATOM     69  F   UNL A   1      42.436  35.379  37.888  1.00  0.00    -0.203 F 
ATOM     70  C   UNL A   1      41.685  35.702  40.094  1.00  0.00     0.198 A 
ATOM     71  C   UNL A   1      40.042  34.226  41.032  1.00  0.00     0.198 A 
ATOM     72  F   UNL A   1      39.212  32.427  39.765  1.00  0.00    -0.203 F 
ATOM     73  F   UNL A   1      42.524  36.739  40.226  1.00  0.00    -0.200 F 
ATOM     74  C   UNL A   1      40.884  35.320  41.159  1.00  0.00     0.200 A 
ATOM     75  F   UNL A   1      39.260  33.862  42.057  1.00  0.00    -0.200 F 
ATOM     76  F   UNL A   1      40.934  35.998  42.314  1.00  0.00    -0.200 F 
ENDBRANCH  52  66
BRANCH  53  77
ATOM     77  C   UNL A   1      40.265  28.822  30.169  1.00  0.00     0.064 A 
ATOM     78  C   UNL A   1      39.603  27.587  30.141  1.00  0.00     0.173 A 
ATOM     79  C   UNL A   1      40.835  29.286  28.974  1.00  0.00     0.173 A 
ATOM     80  F   UNL A   1      39.073  27.086  31.267  1.00  0.00    -0.203 F 
ATOM     81  C   UNL A   1      39.521  26.842  28.967  1.00  0.00     0.198 A 
ATOM     82  C   UNL A   1      40.730  28.551  27.796  1.00  0.00     0.198 A 
ATOM     83  F   UNL A   1      41.486  30.457  28.951  1.00  0.00    -0.203 F 
ATOM     84  F   UNL A   1      38.918  25.644  28.976  1.00  0.00    -0.200 F 
ATOM     85  C   UNL A   1      40.077  27.327  27.793  1.00  0.00     0.200 A 
ATOM     86  F   UNL A   1      41.265  29.027  26.662  1.00  0.00    -0.200 F 
ATOM     87  F   UNL A   1      39.993  26.612  26.663  1.00  0.00    -0.200 F 
ENDBRANCH  53  77
BRANCH  65  88
ATOM     88  C   UNL A   1      44.725  28.712  35.521  1.00  0.00     0.064 A 
ATOM     89  C   UNL A   1      44.638  27.484  36.193  1.00  0.00     0.173 A 
ATOM     90  C   UNL A   1      45.994  29.137  35.097  1.00  0.00     0.173 A 
ATOM     91  F   UNL A   1      43.451  27.037  36.631  1.00  0.00    -0.203 F 
ATOM     92  C   UNL A   1      45.779  26.731  36.460  1.00  0.00     0.198 A 
ATOM     93  C   UNL A   1      47.129  28.366  35.338  1.00  0.00     0.198 A 
ATOM     94  F   UNL A   1      46.135  30.299  34.441  1.00  0.00    -0.203 F 
ATOM     95  F   UNL A   1      45.677  25.588  37.153  1.00  0.00    -0.200 F 
ATOM     96  C   UNL A   1      47.021  27.169  36.028  1.00  0.00     0.200 A 
ATOM     97  F   UNL A   1      48.326  28.784  34.904  1.00  0.00    -0.200 F 
ATOM     98  F   UNL A   1      48.117  26.441  36.283  1.00  0.00    -0.200 F 
ENDBRANCH  65  88
ENDBRANCH  39  40
ENDBRANCH  32  34
ENDBRANCH  31  32
ENDBRANCH  30  31
ENDBRANCH  29  30
ENDBRANCH  28  29
ENDBRANCH  27  28
ENDBRANCH   1  27
TORSDOF 20
ENDMDL
MODEL 3
REMARK VINA RESULT:     -11.2      3.768      9.118
REMARK SMILES C[C@@H]1CN(C(=O)Nc2ccc(O)c(C(=O)OCCOCCOCCOC(=O)c3ccc(-c4c5nc(c(-c6c(F)c(F)c(F)c(F)c6F)c6ccc([nH]6)c(-c6c(F)c(F)c(F)c(F)c6F)c6nc(c(-c7c(F)c(F)c(F)c(F)c7F)c7ccc4[nH]7)C=C6)C=C5)cc3)c2)C[C@@H]1C
REMARK SMILES IDX 20 1 19 2 18 3 17 4 16 5 14 6 15 7 13 8 8 9 9 10 91 11 10 12
REMARK SMILES IDX 11 13 7 14 5 15 6 16 4 18 1 19 2 20 3 21 93 22 92 23 94 24
REMARK SMILES IDX 12 25 21 27 22 28 23 29 24 30 25 31 26 32 27 33 28 34 29 35
REMARK SMILES IDX 90 36 30 37 89 38 31 39 32 40 33 41 83 42 34 43 88 44 82 45
REMARK SMILES IDX 84 46 35 47 87 48 81 49 80 50 36 52 68 53 48 54 67 55 49 56
REMARK SMILES IDX 52 57 66 58 85 59 50 60 51 61 65 63 86 64 53 65 37 66 38 67
REMARK SMILES IDX 46 68 39 69 40 70 44 71 47 72 41 73 42 74 45 75 43 76 69 77
REMARK SMILES IDX 70 78 78 79 71 80 72 81 76 82 79 83 73 84 74 85 77 86 75 87
REMARK SMILES IDX 54 88 55 89 63 90 56 91 57 92 61 93 64 94 58 95 59 96 62 97
REMARK SMILES IDX 60 98
REMARK H PARENT 7 17 12 26 84 51 52 62
REMARK Flexibility Score: inf
ROOT
ATOM      1  C   UNL A   1      35.862  32.087  28.003  1.00  0.00     0.188 C 
ENDROOT
BRANCH   1   2
ATOM      2  O   UNL A   1      35.053  30.949  27.714  1.00  0.00    -0.376 OA
BRANCH   2   3
ATOM      3  C   UNL A   1      33.648  31.123  27.531  1.00  0.00     0.202 C 
BRANCH   3   4
ATOM      4  C   UNL A   1      32.796  29.879  27.250  1.00  0.00     0.261 C 
BRANCH   4   5
ATOM      5  O   UNL A   1      32.048  29.998  26.034  1.00  0.00    -0.460 OA
BRANCH   5   6
ATOM      6  C   UNL A   1      32.520  29.297  24.969  1.00  0.00     0.342 C 
ATOM      7  O   UNL A   1      33.635  29.344  24.499  1.00  0.00    -0.246 OA
BRANCH   6   8
ATOM      8  C   UNL A   1      31.546  28.236  24.617  1.00  0.00     0.103 A 
ATOM      9  C   UNL A   1      30.293  26.322  25.388  1.00  0.00     0.044 A 
ATOM     10  C   UNL A   1      29.653  26.240  24.151  1.00  0.00     0.030 A 
ATOM     11  C   UNL A   1      31.180  27.362  25.650  1.00  0.00     0.045 A 
ATOM     12  C   UNL A   1      30.000  27.122  23.123  1.00  0.00     0.049 A 
ATOM     13  C   UNL A   1      30.974  28.096  23.347  1.00  0.00     0.130 A 
BRANCH   9  14
ATOM     14  N   UNL A   1      30.107  25.349  26.367  1.00  0.00    -0.308 N 
ATOM     15  C   UNL A   1      30.575  24.069  26.441  1.00  0.00     0.321 C 
ATOM     16  O   UNL A   1      30.111  23.358  27.338  1.00  0.00    -0.248 OA
ATOM     17  H   UNL A   1      29.548  25.628  27.127  1.00  0.00     0.171 HD
BRANCH  15  18
ATOM     18  N   UNL A   1      31.620  23.647  25.658  1.00  0.00    -0.324 N 
ATOM     19  C   UNL A   1      33.273  23.330  22.368  1.00  0.00     0.010 C 
ATOM     20  C   UNL A   1      33.086  23.087  23.857  1.00  0.00     0.010 C 
ATOM     21  C   UNL A   1      31.622  23.221  24.266  1.00  0.00     0.125 C 
ATOM     22  C   UNL A   1      33.807  24.038  24.823  1.00  0.00     0.010 C 
ATOM     23  C   UNL A   1      32.991  23.846  26.111  1.00  0.00     0.125 C 
ATOM     24  C   UNL A   1      33.810  25.501  24.379  1.00  0.00     0.010 C 
ENDBRANCH  15  18
ENDBRANCH   9  14
BRANCH  13  25
ATOM     25  O   UNL A   1      31.371  28.899  22.319  1.00  0.00    -0.507 OA
ATOM     26  H   UNL A   1      31.405  29.828  22.436  1.00  0.00     0.293 HD
ENDBRANCH  13  25
ENDBRANCH   6   8
ENDBRANCH   5   6
ENDBRANCH   4   5
ENDBRANCH   3   4
ENDBRANCH   2   3
ENDBRANCH   1   2
BRANCH   1  27
ATOM     27  C   UNL A   1      35.223  33.307  28.699  1.00  0.00     0.188 C 
BRANCH  27  28
ATOM     28  O   UNL A   1      34.753  34.287  27.800  1.00  0.00    -0.376 OA
BRANCH  28  29
ATOM     29  C   UNL A   1      33.974  35.351  28.314  1.00  0.00     0.202 C 
BRANCH  29  30
ATOM     30  C   UNL A   1      32.997  35.113  29.480  1.00  0.00     0.261 C 
BRANCH  30  31
ATOM     31  O   UNL A   1      33.120  35.967  30.627  1.00  0.00    -0.460 OA
BRANCH  31  32
ATOM     32  C   UNL A   1      32.809  35.435  31.829  1.00  0.00     0.338 C 
ATOM     33  O   UNL A   1      31.701  35.328  32.322  1.00  0.00    -0.246 OA
BRANCH  32  34
ATOM     34  C   UNL A   1      34.034  34.822  32.390  1.00  0.00     0.060 A 
ATOM     35  C   UNL A   1      35.248  35.505  32.249  1.00  0.00     0.016 A 
ATOM     36  C   UNL A   1      33.994  33.576  33.026  1.00  0.00     0.016 A 
ATOM     37  C   UNL A   1      36.432  34.922  32.704  1.00  0.00     0.010 A 
ATOM     38  C   UNL A   1      35.185  32.989  33.472  1.00  0.00     0.010 A 
ATOM     39  C   UNL A   1      36.414  33.642  33.277  1.00  0.00    -0.014 A 
BRANCH  39  40
ATOM     40  C   UNL A   1      37.701  32.936  33.505  1.00  0.00     0.031 A 
ATOM     41  C   UNL A   1      38.449  33.188  34.786  1.00  0.00     0.074 A 
ATOM     42  C   UNL A   1      38.165  32.031  32.626  1.00  0.00     0.049 A 
ATOM     43  N   UNL A   1      39.533  32.616  35.246  1.00  0.00    -0.248 NA
ATOM     44  C   UNL A   1      37.894  34.225  35.669  1.00  0.00     0.031 C 
ATOM     45  C   UNL A   1      37.524  31.678  31.362  1.00  0.00     0.029 A 
ATOM     46  N   UNL A   1      39.282  31.235  32.675  1.00  0.00    -0.354 N 
ATOM     47  C   UNL A   1      39.781  33.212  36.475  1.00  0.00     0.074 A 
ATOM     48  C   UNL A   1      38.765  34.225  36.666  1.00  0.00     0.031 C 
ATOM     49  C   UNL A   1      38.250  30.717  30.762  1.00  0.00     0.029 A 
ATOM     50  C   UNL A   1      39.413  30.404  31.590  1.00  0.00     0.049 A 
ATOM     51  H   UNL A   1      39.928  31.258  33.418  1.00  0.00     0.167 HD
ATOM     52  C   UNL A   1      40.754  32.930  37.375  1.00  0.00     0.037 A 
ATOM     53  C   UNL A   1      40.363  29.491  31.305  1.00  0.00     0.037 A 
ATOM     54  C   UNL A   1      41.779  31.939  37.179  1.00  0.00     0.049 A 
ATOM     55  C   UNL A   1      41.483  29.250  32.284  1.00  0.00     0.074 A 
ATOM     56  C   UNL A   1      42.808  31.576  38.031  1.00  0.00     0.029 A 
ATOM     57  N   UNL A   1      41.913  31.157  36.039  1.00  0.00    -0.354 N 
ATOM     58  N   UNL A   1      41.688  29.789  33.462  1.00  0.00    -0.248 NA
ATOM     59  C   UNL A   1      42.499  28.262  31.894  1.00  0.00     0.031 C 
ATOM     60  C   UNL A   1      43.595  30.615  37.385  1.00  0.00     0.029 A 
ATOM     61  C   UNL A   1      43.022  30.334  36.156  1.00  0.00     0.049 A 
ATOM     62  H   UNL A   1      41.308  31.184  35.262  1.00  0.00     0.167 HD
ATOM     63  C   UNL A   1      42.829  29.179  33.969  1.00  0.00     0.074 A 
ATOM     64  C   UNL A   1      43.269  28.226  32.972  1.00  0.00     0.031 C 
ATOM     65  C   UNL A   1      43.449  29.384  35.158  1.00  0.00     0.037 A 
BRANCH  52  66
ATOM     66  C   UNL A   1      40.765  33.737  38.642  1.00  0.00     0.064 A 
ATOM     67  C   UNL A   1      39.956  33.398  39.738  1.00  0.00     0.173 A 
ATOM     68  C   UNL A   1      41.587  34.869  38.759  1.00  0.00     0.173 A 
ATOM     69  F   UNL A   1      39.141  32.335  39.672  1.00  0.00    -0.203 F 
ATOM     70  C   UNL A   1      39.938  34.185  40.887  1.00  0.00     0.198 A 
ATOM     71  C   UNL A   1      41.590  35.634  39.922  1.00  0.00     0.198 A 
ATOM     72  F   UNL A   1      42.383  35.235  37.744  1.00  0.00    -0.203 F 
ATOM     73  F   UNL A   1      39.109  33.879  41.894  1.00  0.00    -0.200 F 
ATOM     74  C   UNL A   1      40.758  35.300  40.979  1.00  0.00     0.200 A 
ATOM     75  F   UNL A   1      42.390  36.705  40.014  1.00  0.00    -0.200 F 
ATOM     76  F   UNL A   1      40.735  36.060  42.083  1.00  0.00    -0.200 F 
ENDBRANCH  52  66
BRANCH  53  77
ATOM     77  C   UNL A   1      40.275  28.705  30.046  1.00  0.00     0.064 A 
ATOM     78  C   UNL A   1      40.863  29.172  28.863  1.00  0.00     0.173 A 
ATOM     79  C   UNL A   1      39.600  27.477  30.001  1.00  0.00     0.173 A 
ATOM     80  F   UNL A   1      41.489  30.359  28.849  1.00  0.00    -0.203 F 
ATOM     81  C   UNL A   1      40.773  28.443  27.679  1.00  0.00     0.198 A 
ATOM     82  C   UNL A   1      39.533  26.737  28.822  1.00  0.00     0.198 A 
ATOM     83  F   UNL A   1      39.014  26.991  31.104  1.00  0.00    -0.203 F 
ATOM     84  F   UNL A   1      41.307  28.932  26.550  1.00  0.00    -0.200 F 
ATOM     85  C   UNL A   1      40.115  27.223  27.661  1.00  0.00     0.200 A 
ATOM     86  F   UNL A   1      38.900  25.556  28.811  1.00  0.00    -0.200 F 
ATOM     87  F   UNL A   1      40.033  26.520  26.523  1.00  0.00    -0.200 F 
ENDBRANCH  53  77
BRANCH  65  88
ATOM     88  C   UNL A   1      44.647  28.529  35.469  1.00  0.00     0.064 A 
ATOM     89  C   UNL A   1      45.937  28.874  35.040  1.00  0.00     0.173 A 
ATOM     90  C   UNL A   1      44.502  27.360  36.233  1.00  0.00     0.173 A 
ATOM     91  F   UNL A   1      46.130  29.975  34.297  1.00  0.00    -0.203 F 
ATOM     92  C   UNL A   1      47.031  28.062  35.333  1.00  0.00     0.198 A 
ATOM     93  C   UNL A   1      45.602  26.568  36.551  1.00  0.00     0.198 A 
ATOM     94  F   UNL A   1      43.292  26.989  36.678  1.00  0.00    -0.203 F 
ATOM     95  F   UNL A   1      48.245  28.382  34.864  1.00  0.00    -0.200 F 
ATOM     96  C   UNL A   1      46.864  26.914  36.092  1.00  0.00     0.200 A 
ATOM     97  F   UNL A   1      45.440  25.468  37.298  1.00  0.00    -0.200 F 
ATOM     98  F   UNL A   1      47.917  26.135  36.376  1.00  0.00    -0.200 F 
ENDBRANCH  65  88
ENDBRANCH  39  40
ENDBRANCH  32  34
ENDBRANCH  31  32
ENDBRANCH  30  31
ENDBRANCH  29  30
ENDBRANCH  28  29
ENDBRANCH  27  28
ENDBRANCH   1  27
TORSDOF 20
ENDMDL
