MODEL 1
REMARK VINA RESULT:     -11.3      0.000      0.000
REMARK SMILES CC(C)CCn1nc(C(=O)OCCOCCOCCOC(=O)c2ccc(-c3c4nc(c(-c5c(F)c(F)c(F)c(F)c5F)c5ccc([nH]5)c(-c5c(F)c(F)c(F)c(F)c5F)c5nc(c(-c6c(F)c(F)c(F)c(F)c6F)c6ccc3[nH]6)C=C5)C=C4)cc2)c2c1CCN(C(=O)[C@@H]1CCc3nn(C)c(=O)n3C1)C2
REMARK SMILES IDX 15 1 14 2 13 3 12 4 11 5 9 6 10 7 8 8 6 9 7 10 87 11 86 12
REMARK SMILES IDX 88 13 104 14 89 15 90 16 5 17 4 18 2 19 1 20 3 21 91 22
REMARK SMILES IDX 92 23 93 24 94 25 103 26 95 27 102 28 96 29 100 30 97 31
REMARK SMILES IDX 98 32 101 33 99 34 16 35 17 36 18 37 19 38 20 39 21 40 22 41
REMARK SMILES IDX 23 42 24 43 85 44 25 45 84 46 26 47 27 48 28 49 78 50 29 51
REMARK SMILES IDX 83 52 77 53 79 54 30 55 82 56 76 57 75 58 31 60 63 61 43 62
REMARK SMILES IDX 62 63 44 64 47 65 61 66 80 67 45 68 46 69 60 71 81 72 48 73
REMARK SMILES IDX 32 74 33 75 41 76 34 77 35 78 39 79 42 80 36 81 37 82 40 83
REMARK SMILES IDX 38 84 64 85 65 86 73 87 66 88 67 89 71 90 74 91 68 92 69 93
REMARK SMILES IDX 72 94 70 95 49 96 50 97 58 98 51 99 52 100 56 101 59 102
REMARK SMILES IDX 53 103 54 104 57 105 55 106
REMARK H PARENT 79 59 47 70
REMARK Flexibility Score: inf
ROOT
ATOM      1  C   UNL A   1      35.529  32.368  28.018  1.00  0.00     0.188 C 
ENDROOT
BRANCH   1   2
ATOM      2  O   UNL A   1      35.874  31.083  27.514  1.00  0.00    -0.376 OA
BRANCH   2   3
ATOM      3  C   UNL A   1      35.250  29.908  28.019  1.00  0.00     0.202 C 
BRANCH   3   4
ATOM      4  C   UNL A   1      34.480  28.926  27.111  1.00  0.00     0.261 C 
BRANCH   4   5
ATOM      5  O   UNL A   1      33.673  29.525  26.096  1.00  0.00    -0.458 OA
BRANCH   5   6
ATOM      6  C   UNL A   1      32.344  29.675  26.374  1.00  0.00     0.359 C 
ATOM      7  O   UNL A   1      31.903  30.382  27.267  1.00  0.00    -0.244 OA
BRANCH   6   8
ATOM      8  C   UNL A   1      31.517  28.946  25.396  1.00  0.00     0.175 A 
ATOM      9  N   UNL A   1      30.338  28.567  23.643  1.00  0.00    -0.268 N 
ATOM     10  N   UNL A   1      31.045  29.529  24.267  1.00  0.00    -0.165 NA
ATOM     11  C   UNL A   1      30.238  27.453  24.412  1.00  0.00     0.046 A 
ATOM     12  C   UNL A   1      31.148  27.573  25.438  1.00  0.00     0.028 A 
ATOM     13  C   UNL A   1      29.309  26.317  24.278  1.00  0.00     0.078 C 
ATOM     14  C   UNL A   1      31.475  26.467  26.406  1.00  0.00     0.159 C 
ATOM     15  C   UNL A   1      29.268  25.684  25.683  1.00  0.00     0.126 C 
ATOM     16  N   UNL A   1      30.600  25.298  26.142  1.00  0.00    -0.338 N 
BRANCH   9  17
ATOM     17  C   UNL A   1      29.829  28.707  22.288  1.00  0.00     0.145 C 
BRANCH  17  18
ATOM     18  C   UNL A   1      28.533  29.497  22.093  1.00  0.00     0.027 C 
BRANCH  18  19
ATOM     19  C   UNL A   1      28.620  31.004  22.404  1.00  0.00    -0.016 C 
ATOM     20  C   UNL A   1      28.144  31.876  21.239  1.00  0.00     0.007 C 
ATOM     21  C   UNL A   1      27.783  31.312  23.648  1.00  0.00     0.007 C 
ENDBRANCH  18  19
ENDBRANCH  17  18
ENDBRANCH   9  17
BRANCH  16  22
ATOM     22  C   UNL A   1      31.103  24.030  26.370  1.00  0.00     0.227 C 
ATOM     23  O   UNL A   1      30.696  23.382  27.347  1.00  0.00    -0.274 OA
BRANCH  22  24
ATOM     24  C   UNL A   1      32.168  23.321  25.488  1.00  0.00     0.099 C 
ATOM     25  C   UNL A   1      33.617  23.328  25.990  1.00  0.00     0.023 C 
ATOM     26  C   UNL A   1      32.083  23.536  23.982  1.00  0.00     0.142 C 
ATOM     27  C   UNL A   1      34.471  24.492  25.509  1.00  0.00     0.078 C 
ATOM     28  N   UNL A   1      33.006  24.543  23.505  1.00  0.00    -0.278 N 
ATOM     29  C   UNL A   1      34.049  25.061  24.185  1.00  0.00     0.133 A 
ATOM     30  C   UNL A   1      32.701  25.451  22.517  1.00  0.00     0.345 A 
ATOM     31  N   UNL A   1      34.487  26.200  23.730  1.00  0.00    -0.155 NA
ATOM     32  N   UNL A   1      33.641  26.478  22.673  1.00  0.00    -0.216 N 
ATOM     33  O   UNL A   1      31.713  25.452  21.801  1.00  0.00    -0.246 OA
ATOM     34  C   UNL A   1      33.439  27.820  22.191  1.00  0.00     0.179 C 
ENDBRANCH  22  24
ENDBRANCH  16  22
ENDBRANCH   6   8
ENDBRANCH   5   6
ENDBRANCH   4   5
ENDBRANCH   3   4
ENDBRANCH   2   3
ENDBRANCH   1   2
BRANCH   1  35
ATOM     35  C   UNL A   1      34.061  32.849  28.006  1.00  0.00     0.188 C 
BRANCH  35  36
ATOM     36  O   UNL A   1      33.614  33.339  29.251  1.00  0.00    -0.376 OA
BRANCH  36  37
ATOM     37  C   UNL A   1      33.573  34.725  29.558  1.00  0.00     0.202 C 
BRANCH  37  38
ATOM     38  C   UNL A   1      33.751  35.268  30.976  1.00  0.00     0.261 C 
BRANCH  38  39
ATOM     39  O   UNL A   1      34.377  34.378  31.870  1.00  0.00    -0.460 OA
BRANCH  39  40
ATOM     40  C   UNL A   1      34.982  34.979  32.915  1.00  0.00     0.338 C 
ATOM     41  O   UNL A   1      34.942  36.153  33.222  1.00  0.00    -0.246 OA
BRANCH  40  42
ATOM     42  C   UNL A   1      35.743  33.956  33.640  1.00  0.00     0.060 A 
ATOM     43  C   UNL A   1      36.908  34.408  34.258  1.00  0.00     0.016 A 
ATOM     44  C   UNL A   1      35.549  32.625  33.253  1.00  0.00     0.016 A 
ATOM     45  C   UNL A   1      38.026  33.636  34.100  1.00  0.00     0.010 A 
ATOM     46  C   UNL A   1      36.666  31.866  33.074  1.00  0.00     0.010 A 
ATOM     47  C   UNL A   1      37.893  32.454  33.369  1.00  0.00    -0.014 A 
BRANCH  47  48
ATOM     48  C   UNL A   1      39.089  31.820  32.879  1.00  0.00     0.031 A 
ATOM     49  C   UNL A   1      40.020  31.495  33.971  1.00  0.00     0.074 A 
ATOM     50  C   UNL A   1      39.219  31.497  31.578  1.00  0.00     0.049 A 
ATOM     51  N   UNL A   1      41.161  32.042  34.222  1.00  0.00    -0.248 NA
ATOM     52  C   UNL A   1      39.514  30.620  35.042  1.00  0.00     0.031 C 
ATOM     53  C   UNL A   1      38.219  31.559  30.506  1.00  0.00     0.029 A 
ATOM     54  N   UNL A   1      40.290  30.936  30.961  1.00  0.00    -0.354 N 
ATOM     55  C   UNL A   1      41.607  31.419  35.379  1.00  0.00     0.074 A 
ATOM     56  C   UNL A   1      40.470  30.760  35.958  1.00  0.00     0.031 C 
ATOM     57  C   UNL A   1      38.657  30.843  29.444  1.00  0.00     0.029 A 
ATOM     58  C   UNL A   1      40.009  30.391  29.712  1.00  0.00     0.049 A 
ATOM     59  H   UNL A   1      41.189  30.917  31.362  1.00  0.00     0.167 HD
ATOM     60  C   UNL A   1      42.934  31.232  35.600  1.00  0.00     0.037 A 
ATOM     61  C   UNL A   1      40.829  29.539  29.045  1.00  0.00     0.037 A 
ATOM     62  C   UNL A   1      43.725  32.120  34.787  1.00  0.00     0.049 A 
ATOM     63  C   UNL A   1      42.188  29.690  29.642  1.00  0.00     0.074 A 
ATOM     64  C   UNL A   1      43.846  33.493  34.701  1.00  0.00     0.029 A 
ATOM     65  N   UNL A   1      44.249  31.624  33.618  1.00  0.00    -0.354 N 
ATOM     66  N   UNL A   1      42.902  30.778  29.536  1.00  0.00    -0.248 NA
ATOM     67  C   UNL A   1      42.514  28.837  30.779  1.00  0.00     0.031 C 
ATOM     68  C   UNL A   1      43.991  33.767  33.308  1.00  0.00     0.029 A 
ATOM     69  C   UNL A   1      44.021  32.549  32.630  1.00  0.00     0.049 A 
ATOM     70  H   UNL A   1      44.706  30.759  33.508  1.00  0.00     0.167 HD
ATOM     71  C   UNL A   1      43.467  30.958  30.793  1.00  0.00     0.074 A 
ATOM     72  C   UNL A   1      43.228  29.704  31.504  1.00  0.00     0.031 C 
ATOM     73  C   UNL A   1      43.809  32.202  31.243  1.00  0.00     0.037 A 
BRANCH  60  74
ATOM     74  C   UNL A   1      43.492  29.991  36.245  1.00  0.00     0.064 A 
ATOM     75  C   UNL A   1      44.349  30.130  37.349  1.00  0.00     0.173 A 
ATOM     76  C   UNL A   1      43.452  28.701  35.663  1.00  0.00     0.173 A 
ATOM     77  F   UNL A   1      44.481  31.314  37.965  1.00  0.00    -0.203 F 
ATOM     78  C   UNL A   1      45.156  29.078  37.790  1.00  0.00     0.198 A 
ATOM     79  C   UNL A   1      44.211  27.640  36.144  1.00  0.00     0.198 A 
ATOM     80  F   UNL A   1      42.772  28.432  34.544  1.00  0.00    -0.203 F 
ATOM     81  F   UNL A   1      46.049  29.293  38.764  1.00  0.00    -0.200 F 
ATOM     82  C   UNL A   1      45.090  27.837  37.185  1.00  0.00     0.200 A 
ATOM     83  F   UNL A   1      44.142  26.450  35.529  1.00  0.00    -0.200 F 
ATOM     84  F   UNL A   1      45.905  26.847  37.568  1.00  0.00    -0.200 F 
ENDBRANCH  60  74
BRANCH  61  85
ATOM     85  C   UNL A   1      40.437  28.349  28.253  1.00  0.00     0.064 A 
ATOM     86  C   UNL A   1      40.982  28.102  26.983  1.00  0.00     0.173 A 
ATOM     87  C   UNL A   1      39.722  27.287  28.842  1.00  0.00     0.173 A 
ATOM     88  F   UNL A   1      41.726  29.039  26.376  1.00  0.00    -0.203 F 
ATOM     89  C   UNL A   1      40.826  26.865  26.344  1.00  0.00     0.198 A 
ATOM     90  C   UNL A   1      39.564  26.056  28.205  1.00  0.00     0.198 A 
ATOM     91  F   UNL A   1      39.243  27.391  30.090  1.00  0.00    -0.203 F 
ATOM     92  F   UNL A   1      41.404  26.647  25.155  1.00  0.00    -0.200 F 
ATOM     93  C   UNL A   1      40.124  25.841  26.960  1.00  0.00     0.200 A 
ATOM     94  F   UNL A   1      38.920  25.060  28.832  1.00  0.00    -0.200 F 
ATOM     95  F   UNL A   1      40.023  24.638  26.376  1.00  0.00    -0.200 F 
ENDBRANCH  61  85
BRANCH  73  96
ATOM     96  C   UNL A   1      43.748  33.341  30.262  1.00  0.00     0.064 A 
ATOM     97  C   UNL A   1      42.588  34.096  30.005  1.00  0.00     0.173 A 
ATOM     98  C   UNL A   1      44.942  33.782  29.679  1.00  0.00     0.173 A 
ATOM     99  F   UNL A   1      41.428  33.799  30.605  1.00  0.00    -0.203 F 
ATOM    100  C   UNL A   1      42.619  35.212  29.170  1.00  0.00     0.198 A 
ATOM    101  C   UNL A   1      44.978  34.918  28.875  1.00  0.00     0.198 A 
ATOM    102  F   UNL A   1      46.090  33.138  29.934  1.00  0.00    -0.203 F 
ATOM    103  F   UNL A   1      41.497  35.909  28.935  1.00  0.00    -0.200 F 
ATOM    104  C   UNL A   1      43.816  35.627  28.612  1.00  0.00     0.200 A 
ATOM    105  F   UNL A   1      46.148  35.345  28.381  1.00  0.00    -0.200 F 
ATOM    106  F   UNL A   1      43.858  36.725  27.844  1.00  0.00    -0.200 F 
ENDBRANCH  73  96
ENDBRANCH  47  48
ENDBRANCH  40  42
ENDBRANCH  39  40
ENDBRANCH  38  39
ENDBRANCH  37  38
ENDBRANCH  36  37
ENDBRANCH  35  36
ENDBRANCH   1  35
TORSDOF 22
ENDMDL
MODEL 2
REMARK VINA RESULT:     -11.2      2.472      3.839
REMARK SMILES CC(C)CCn1nc(C(=O)OCCOCCOCCOC(=O)c2ccc(-c3c4nc(c(-c5c(F)c(F)c(F)c(F)c5F)c5ccc([nH]5)c(-c5c(F)c(F)c(F)c(F)c5F)c5nc(c(-c6c(F)c(F)c(F)c(F)c6F)c6ccc3[nH]6)C=C5)C=C4)cc2)c2c1CCN(C(=O)[C@@H]1CCc3nn(C)c(=O)n3C1)C2
REMARK SMILES IDX 15 1 14 2 13 3 12 4 11 5 9 6 10 7 8 8 6 9 7 10 87 11 86 12
REMARK SMILES IDX 88 13 104 14 89 15 90 16 5 17 4 18 2 19 1 20 3 21 91 22
REMARK SMILES IDX 92 23 93 24 94 25 103 26 95 27 102 28 96 29 100 30 97 31
REMARK SMILES IDX 98 32 101 33 99 34 16 35 17 36 18 37 19 38 20 39 21 40 22 41
REMARK SMILES IDX 23 42 24 43 85 44 25 45 84 46 26 47 27 48 28 49 78 50 29 51
REMARK SMILES IDX 83 52 77 53 79 54 30 55 82 56 76 57 75 58 31 60 63 61 43 62
REMARK SMILES IDX 62 63 44 64 47 65 61 66 80 67 45 68 46 69 60 71 81 72 48 73
REMARK SMILES IDX 32 74 33 75 41 76 34 77 35 78 39 79 42 80 36 81 37 82 40 83
REMARK SMILES IDX 38 84 64 85 65 86 73 87 66 88 67 89 71 90 74 91 68 92 69 93
REMARK SMILES IDX 72 94 70 95 49 96 50 97 58 98 51 99 52 100 56 101 59 102
REMARK SMILES IDX 53 103 54 104 57 105 55 106
REMARK H PARENT 79 59 47 70
REMARK Flexibility Score: inf
ROOT
ATOM      1  C   UNL A   1      33.278  34.571  28.694  1.00  0.00     0.188 C 
ENDROOT
BRANCH   1   2
ATOM      2  O   UNL A   1      34.638  34.330  28.353  1.00  0.00    -0.376 OA
BRANCH   2   3
ATOM      3  C   UNL A   1      35.093  33.016  28.049  1.00  0.00     0.202 C 
BRANCH   3   4
ATOM      4  C   UNL A   1      34.148  31.797  28.038  1.00  0.00     0.261 C 
BRANCH   4   5
ATOM      5  O   UNL A   1      34.165  31.011  26.846  1.00  0.00    -0.458 OA
BRANCH   5   6
ATOM      6  C   UNL A   1      33.746  29.715  26.955  1.00  0.00     0.359 C 
ATOM      7  O   UNL A   1      34.074  28.959  27.856  1.00  0.00    -0.244 OA
BRANCH   6   8
ATOM      8  C   UNL A   1      32.775  29.386  25.896  1.00  0.00     0.175 A 
ATOM      9  N   UNL A   1      31.122  29.601  24.543  1.00  0.00    -0.268 N 
ATOM     10  N   UNL A   1      31.804  30.249  25.508  1.00  0.00    -0.165 NA
ATOM     11  C   UNL A   1      31.546  28.318  24.418  1.00  0.00     0.046 A 
ATOM     12  C   UNL A   1      32.733  28.204  25.107  1.00  0.00     0.028 A 
ATOM     13  C   UNL A   1      30.884  27.187  23.745  1.00  0.00     0.078 C 
ATOM     14  C   UNL A   1      33.616  26.985  25.063  1.00  0.00     0.159 C 
ATOM     15  C   UNL A   1      31.506  25.935  24.394  1.00  0.00     0.126 C 
ATOM     16  N   UNL A   1      32.960  25.922  24.263  1.00  0.00    -0.338 N 
BRANCH   9  17
ATOM     17  C   UNL A   1      30.122  30.246  23.709  1.00  0.00     0.145 C 
BRANCH  17  18
ATOM     18  C   UNL A   1      28.867  29.445  23.355  1.00  0.00     0.027 C 
BRANCH  18  19
ATOM     19  C   UNL A   1      27.700  30.264  22.768  1.00  0.00    -0.016 C 
ATOM     20  C   UNL A   1      27.461  31.575  23.521  1.00  0.00     0.007 C 
ATOM     21  C   UNL A   1      27.987  30.567  21.295  1.00  0.00     0.007 C 
ENDBRANCH  18  19
ENDBRANCH  17  18
ENDBRANCH   9  17
BRANCH  16  22
ATOM     22  C   UNL A   1      33.756  25.058  23.532  1.00  0.00     0.227 C 
ATOM     23  O   UNL A   1      34.261  25.451  22.468  1.00  0.00    -0.274 OA
BRANCH  22  24
ATOM     24  C   UNL A   1      34.081  23.592  23.930  1.00  0.00     0.099 C 
ATOM     25  C   UNL A   1      33.553  22.479  23.018  1.00  0.00     0.023 C 
ATOM     26  C   UNL A   1      33.962  23.227  25.405  1.00  0.00     0.142 C 
ATOM     27  C   UNL A   1      32.182  21.927  23.383  1.00  0.00     0.078 C 
ATOM     28  N   UNL A   1      32.716  22.566  25.723  1.00  0.00    -0.278 N 
ATOM     29  C   UNL A   1      31.843  22.035  24.842  1.00  0.00     0.133 A 
ATOM     30  C   UNL A   1      32.006  22.790  26.880  1.00  0.00     0.345 A 
ATOM     31  N   UNL A   1      30.640  21.852  25.306  1.00  0.00    -0.155 NA
ATOM     32  N   UNL A   1      30.711  22.334  26.599  1.00  0.00    -0.216 N 
ATOM     33  O   UNL A   1      32.373  23.425  27.855  1.00  0.00    -0.246 OA
ATOM     34  C   UNL A   1      29.541  22.775  27.314  1.00  0.00     0.179 C 
ENDBRANCH  22  24
ENDBRANCH  16  22
ENDBRANCH   6   8
ENDBRANCH   5   6
ENDBRANCH   4   5
ENDBRANCH   3   4
ENDBRANCH   2   3
ENDBRANCH   1   2
BRANCH   1  35
ATOM     35  C   UNL A   1      32.916  35.372  29.965  1.00  0.00     0.188 C 
BRANCH  35  36
ATOM     36  O   UNL A   1      33.156  34.670  31.165  1.00  0.00    -0.376 OA
BRANCH  36  37
ATOM     37  C   UNL A   1      34.333  34.856  31.937  1.00  0.00     0.202 C 
BRANCH  37  38
ATOM     38  C   UNL A   1      35.266  33.706  32.320  1.00  0.00     0.261 C 
BRANCH  38  39
ATOM     39  O   UNL A   1      35.299  32.645  31.395  1.00  0.00    -0.460 OA
BRANCH  39  40
ATOM     40  C   UNL A   1      36.063  31.602  31.777  1.00  0.00     0.338 C 
ATOM     41  O   UNL A   1      36.205  31.156  32.897  1.00  0.00    -0.246 OA
BRANCH  40  42
ATOM     42  C   UNL A   1      36.741  31.084  30.585  1.00  0.00     0.060 A 
ATOM     43  C   UNL A   1      36.603  29.713  30.370  1.00  0.00     0.016 A 
ATOM     44  C   UNL A   1      37.814  31.831  30.087  1.00  0.00     0.016 A 
ATOM     45  C   UNL A   1      37.737  29.027  30.034  1.00  0.00     0.010 A 
ATOM     46  C   UNL A   1      38.951  31.147  29.776  1.00  0.00     0.010 A 
ATOM     47  C   UNL A   1      38.917  29.761  29.901  1.00  0.00    -0.014 A 
BRANCH  47  48
ATOM     48  C   UNL A   1      40.167  29.047  29.913  1.00  0.00     0.031 A 
ATOM     49  C   UNL A   1      40.722  28.942  31.272  1.00  0.00     0.074 A 
ATOM     50  C   UNL A   1      40.651  28.478  28.793  1.00  0.00     0.049 A 
ATOM     51  N   UNL A   1      41.770  29.530  31.742  1.00  0.00    -0.248 NA
ATOM     52  C   UNL A   1      39.880  28.291  32.290  1.00  0.00     0.031 C 
ATOM     53  C   UNL A   1      40.009  28.328  27.482  1.00  0.00     0.029 A 
ATOM     54  N   UNL A   1      41.822  27.810  28.635  1.00  0.00    -0.354 N 
ATOM     55  C   UNL A   1      41.826  29.143  33.074  1.00  0.00     0.074 A 
ATOM     56  C   UNL A   1      40.535  28.608  33.404  1.00  0.00     0.031 C 
ATOM     57  C   UNL A   1      40.696  27.421  26.748  1.00  0.00     0.029 A 
ATOM     58  C   UNL A   1      41.886  27.033  27.483  1.00  0.00     0.049 A 
ATOM     59  H   UNL A   1      42.564  27.871  29.280  1.00  0.00     0.167 HD
ATOM     60  C   UNL A   1      43.019  29.006  33.707  1.00  0.00     0.037 A 
ATOM     61  C   UNL A   1      42.815  26.069  27.258  1.00  0.00     0.037 A 
ATOM     62  C   UNL A   1      44.060  29.721  33.014  1.00  0.00     0.049 A 
ATOM     63  C   UNL A   1      43.949  26.335  28.191  1.00  0.00     0.074 A 
ATOM     64  C   UNL A   1      44.277  31.052  32.713  1.00  0.00     0.029 A 
ATOM     65  N   UNL A   1      44.873  29.008  32.165  1.00  0.00    -0.354 N 
ATOM     66  N   UNL A   1      44.722  27.384  28.100  1.00  0.00    -0.248 NA
ATOM     67  C   UNL A   1      43.883  25.720  29.511  1.00  0.00     0.031 C 
ATOM     68  C   UNL A   1      44.834  31.050  31.400  1.00  0.00     0.029 A 
ATOM     69  C   UNL A   1      44.992  29.724  31.000  1.00  0.00     0.049 A 
ATOM     70  H   UNL A   1      45.293  28.139  32.358  1.00  0.00     0.167 HD
ATOM     71  C   UNL A   1      44.907  27.806  29.411  1.00  0.00     0.074 A 
ATOM     72  C   UNL A   1      44.403  26.713  30.240  1.00  0.00     0.031 C 
ATOM     73  C   UNL A   1      45.172  29.114  29.703  1.00  0.00     0.037 A 
BRANCH  60  74
ATOM     74  C   UNL A   1      43.296  27.914  34.707  1.00  0.00     0.064 A 
ATOM     75  C   UNL A   1      43.603  28.273  36.031  1.00  0.00     0.173 A 
ATOM     76  C   UNL A   1      43.550  26.564  34.367  1.00  0.00     0.173 A 
ATOM     77  F   UNL A   1      43.423  29.532  36.456  1.00  0.00    -0.203 F 
ATOM     78  C   UNL A   1      44.185  27.367  36.921  1.00  0.00     0.198 A 
ATOM     79  C   UNL A   1      44.073  25.649  35.275  1.00  0.00     0.198 A 
ATOM     80  F   UNL A   1      43.415  26.094  33.123  1.00  0.00    -0.203 F 
ATOM     81  F   UNL A   1      44.577  27.787  38.131  1.00  0.00    -0.200 F 
ATOM     82  C   UNL A   1      44.424  26.059  36.541  1.00  0.00     0.200 A 
ATOM     83  F   UNL A   1      44.311  24.391  34.878  1.00  0.00    -0.200 F 
ATOM     84  F   UNL A   1      45.036  25.207  37.373  1.00  0.00    -0.200 F 
ENDBRANCH  60  74
BRANCH  61  85
ATOM     85  C   UNL A   1      42.604  24.747  26.621  1.00  0.00     0.064 A 
ATOM     86  C   UNL A   1      43.438  24.289  25.589  1.00  0.00     0.173 A 
ATOM     87  C   UNL A   1      41.744  23.791  27.199  1.00  0.00     0.173 A 
ATOM     88  F   UNL A   1      44.327  25.120  25.024  1.00  0.00    -0.203 F 
ATOM     89  C   UNL A   1      43.418  22.954  25.165  1.00  0.00     0.198 A 
ATOM     90  C   UNL A   1      41.722  22.462  26.775  1.00  0.00     0.198 A 
ATOM     91  F   UNL A   1      40.977  24.105  28.253  1.00  0.00    -0.203 F 
ATOM     92  F   UNL A   1      44.264  22.541  24.212  1.00  0.00    -0.200 F 
ATOM     93  C   UNL A   1      42.565  22.040  25.764  1.00  0.00     0.200 A 
ATOM     94  F   UNL A   1      40.924  21.579  27.393  1.00  0.00    -0.200 F 
ATOM     95  F   UNL A   1      42.585  20.751  25.399  1.00  0.00    -0.200 F 
ENDBRANCH  61  85
BRANCH  73  96
ATOM     96  C   UNL A   1      45.461  30.041  28.553  1.00  0.00     0.064 A 
ATOM     97  C   UNL A   1      44.472  30.748  27.846  1.00  0.00     0.173 A 
ATOM     98  C   UNL A   1      46.797  30.341  28.260  1.00  0.00     0.173 A 
ATOM     99  F   UNL A   1      43.174  30.592  28.138  1.00  0.00    -0.203 F 
ATOM    100  C   UNL A   1      44.808  31.680  26.864  1.00  0.00     0.198 A 
ATOM    101  C   UNL A   1      47.131  31.298  27.306  1.00  0.00     0.198 A 
ATOM    102  F   UNL A   1      47.784  29.742  28.943  1.00  0.00    -0.203 F 
ATOM    103  F   UNL A   1      43.844  32.335  26.199  1.00  0.00    -0.200 F 
ATOM    104  C   UNL A   1      46.137  31.959  26.601  1.00  0.00     0.200 A 
ATOM    105  F   UNL A   1      48.418  31.602  27.092  1.00  0.00    -0.200 F 
ATOM    106  F   UNL A   1      46.464  32.886  25.688  1.00  0.00    -0.200 F 
ENDBRANCH  73  96
ENDBRANCH  47  48
ENDBRANCH  40  42
ENDBRANCH  39  40
ENDBRANCH  38  39
ENDBRANCH  37  38
ENDBRANCH  36  37
ENDBRANCH  35  36
ENDBRANCH   1  35
TORSDOF 22
ENDMDL
MODEL 3
REMARK VINA RESULT:     -10.4      1.480      2.736
REMARK SMILES CC(C)CCn1nc(C(=O)OCCOCCOCCOC(=O)c2ccc(-c3c4nc(c(-c5c(F)c(F)c(F)c(F)c5F)c5ccc([nH]5)c(-c5c(F)c(F)c(F)c(F)c5F)c5nc(c(-c6c(F)c(F)c(F)c(F)c6F)c6ccc3[nH]6)C=C5)C=C4)cc2)c2c1CCN(C(=O)[C@@H]1CCc3nn(C)c(=O)n3C1)C2
REMARK SMILES IDX 15 1 14 2 13 3 12 4 11 5 9 6 10 7 8 8 6 9 7 10 87 11 86 12
REMARK SMILES IDX 88 13 104 14 89 15 90 16 5 17 4 18 2 19 1 20 3 21 91 22
REMARK SMILES IDX 92 23 93 24 94 25 103 26 95 27 102 28 96 29 100 30 97 31
REMARK SMILES IDX 98 32 101 33 99 34 16 35 17 36 18 37 19 38 20 39 21 40 22 41
REMARK SMILES IDX 23 42 24 43 85 44 25 45 84 46 26 47 27 48 28 49 78 50 29 51
REMARK SMILES IDX 83 52 77 53 79 54 30 55 82 56 76 57 75 58 31 60 63 61 43 62
REMARK SMILES IDX 62 63 44 64 47 65 61 66 80 67 45 68 46 69 60 71 81 72 48 73
REMARK SMILES IDX 32 74 33 75 41 76 34 77 35 78 39 79 42 80 36 81 37 82 40 83
REMARK SMILES IDX 38 84 64 85 65 86 73 87 66 88 67 89 71 90 74 91 68 92 69 93
REMARK SMILES IDX 72 94 70 95 49 96 50 97 58 98 51 99 52 100 56 101 59 102
REMARK SMILES IDX 53 103 54 104 57 105 55 106
REMARK H PARENT 79 59 47 70
REMARK Flexibility Score: inf
ROOT
ATOM      1  C   UNL A   1      35.517  33.608  28.429  1.00  0.00     0.188 C 
ENDROOT
BRANCH   1   2
ATOM      2  O   UNL A   1      35.202  32.374  29.065  1.00  0.00    -0.376 OA
BRANCH   2   3
ATOM      3  C   UNL A   1      35.005  31.189  28.303  1.00  0.00     0.202 C 
BRANCH   3   4
ATOM      4  C   UNL A   1      33.680  30.888  27.573  1.00  0.00     0.261 C 
BRANCH   4   5
ATOM      5  O   UNL A   1      33.807  30.345  26.258  1.00  0.00    -0.458 OA
BRANCH   5   6
ATOM      6  C   UNL A   1      33.510  29.020  26.106  1.00  0.00     0.359 C 
ATOM      7  O   UNL A   1      34.035  28.120  26.744  1.00  0.00    -0.244 OA
BRANCH   6   8
ATOM      8  C   UNL A   1      32.412  28.835  25.141  1.00  0.00     0.175 A 
ATOM      9  N   UNL A   1      30.592  29.211  24.066  1.00  0.00    -0.268 N 
ATOM     10  N   UNL A   1      31.389  29.717  25.029  1.00  0.00    -0.165 NA
ATOM     11  C   UNL A   1      31.011  27.979  23.679  1.00  0.00     0.046 A 
ATOM     12  C   UNL A   1      32.279  27.794  24.181  1.00  0.00     0.028 A 
ATOM     13  C   UNL A   1      30.278  26.951  22.921  1.00  0.00     0.078 C 
ATOM     14  C   UNL A   1      33.162  26.628  23.824  1.00  0.00     0.159 C 
ATOM     15  C   UNL A   1      30.994  25.631  23.270  1.00  0.00     0.126 C 
ATOM     16  N   UNL A   1      32.418  25.687  22.952  1.00  0.00    -0.338 N 
BRANCH   9  17
ATOM     17  C   UNL A   1      29.483  29.949  23.485  1.00  0.00     0.145 C 
BRANCH  17  18
ATOM     18  C   UNL A   1      29.620  30.413  22.033  1.00  0.00     0.027 C 
BRANCH  18  19
ATOM     19  C   UNL A   1      28.960  31.767  21.704  1.00  0.00    -0.016 C 
ATOM     20  C   UNL A   1      27.763  31.626  20.761  1.00  0.00     0.007 C 
ATOM     21  C   UNL A   1      28.511  32.438  23.004  1.00  0.00     0.007 C 
ENDBRANCH  18  19
ENDBRANCH  17  18
ENDBRANCH   9  17
BRANCH  16  22
ATOM     22  C   UNL A   1      33.119  24.978  21.993  1.00  0.00     0.227 C 
ATOM     23  O   UNL A   1      33.355  25.510  20.897  1.00  0.00    -0.274 OA
BRANCH  22  24
ATOM     24  C   UNL A   1      33.651  23.529  22.166  1.00  0.00     0.099 C 
ATOM     25  C   UNL A   1      32.691  22.380  21.832  1.00  0.00     0.023 C 
ATOM     26  C   UNL A   1      34.484  23.235  23.408  1.00  0.00     0.142 C 
ATOM     27  C   UNL A   1      31.858  21.862  22.995  1.00  0.00     0.078 C 
ATOM     28  N   UNL A   1      33.720  22.604  24.462  1.00  0.00    -0.278 N 
ATOM     29  C   UNL A   1      32.500  22.042  24.341  1.00  0.00     0.133 A 
ATOM     30  C   UNL A   1      33.881  22.891  25.798  1.00  0.00     0.345 A 
ATOM     31  N   UNL A   1      31.851  21.896  25.461  1.00  0.00    -0.155 NA
ATOM     32  N   UNL A   1      32.703  22.437  26.406  1.00  0.00    -0.216 N 
ATOM     33  O   UNL A   1      34.763  23.566  26.302  1.00  0.00    -0.246 OA
ATOM     34  C   UNL A   1      32.224  22.925  27.673  1.00  0.00     0.179 C 
ENDBRANCH  22  24
ENDBRANCH  16  22
ENDBRANCH   6   8
ENDBRANCH   5   6
ENDBRANCH   4   5
ENDBRANCH   3   4
ENDBRANCH   2   3
ENDBRANCH   1   2
BRANCH   1  35
ATOM     35  C   UNL A   1      34.551  34.809  28.523  1.00  0.00     0.188 C 
BRANCH  35  36
ATOM     36  O   UNL A   1      33.400  34.553  29.297  1.00  0.00    -0.376 OA
BRANCH  36  37
ATOM     37  C   UNL A   1      32.952  35.433  30.317  1.00  0.00     0.202 C 
BRANCH  37  38
ATOM     38  C   UNL A   1      33.804  35.797  31.534  1.00  0.00     0.261 C 
BRANCH  38  39
ATOM     39  O   UNL A   1      33.636  34.945  32.642  1.00  0.00    -0.460 OA
BRANCH  39  40
ATOM     40  C   UNL A   1      34.292  33.772  32.540  1.00  0.00     0.338 C 
ATOM     41  O   UNL A   1      33.919  32.757  31.987  1.00  0.00    -0.246 OA
BRANCH  40  42
ATOM     42  C   UNL A   1      35.569  33.910  33.249  1.00  0.00     0.060 A 
ATOM     43  C   UNL A   1      36.456  34.836  32.702  1.00  0.00     0.016 A 
ATOM     44  C   UNL A   1      35.981  32.827  34.034  1.00  0.00     0.016 A 
ATOM     45  C   UNL A   1      37.760  34.441  32.582  1.00  0.00     0.010 A 
ATOM     46  C   UNL A   1      37.274  32.422  33.894  1.00  0.00     0.010 A 
ATOM     47  C   UNL A   1      38.091  33.167  33.049  1.00  0.00    -0.014 A 
BRANCH  47  48
ATOM     48  C   UNL A   1      39.336  32.587  32.616  1.00  0.00     0.031 A 
ATOM     49  C   UNL A   1      40.341  32.592  33.691  1.00  0.00     0.074 A 
ATOM     50  C   UNL A   1      39.455  32.030  31.396  1.00  0.00     0.049 A 
ATOM     51  N   UNL A   1      41.416  33.302  33.761  1.00  0.00    -0.248 NA
ATOM     52  C   UNL A   1      39.988  31.894  34.939  1.00  0.00     0.031 C 
ATOM     53  C   UNL A   1      38.413  31.766  30.396  1.00  0.00     0.029 A 
ATOM     54  N   UNL A   1      40.561  31.483  30.833  1.00  0.00    -0.354 N 
ATOM     55  C   UNL A   1      41.978  32.974  34.986  1.00  0.00     0.074 A 
ATOM     56  C   UNL A   1      40.954  32.319  35.750  1.00  0.00     0.031 C 
ATOM     57  C   UNL A   1      38.895  30.908  29.466  1.00  0.00     0.029 A 
ATOM     58  C   UNL A   1      40.301  30.674  29.731  1.00  0.00     0.049 A 
ATOM     59  H   UNL A   1      41.471  31.644  31.174  1.00  0.00     0.167 HD
ATOM     60  C   UNL A   1      43.326  32.985  35.156  1.00  0.00     0.037 A 
ATOM     61  C   UNL A   1      41.193  29.805  29.190  1.00  0.00     0.037 A 
ATOM     62  C   UNL A   1      43.970  33.778  34.142  1.00  0.00     0.049 A 
ATOM     63  C   UNL A   1      42.546  30.222  29.663  1.00  0.00     0.074 A 
ATOM     64  C   UNL A   1      43.919  35.112  33.786  1.00  0.00     0.029 A 
ATOM     65  N   UNL A   1      44.506  33.123  33.059  1.00  0.00    -0.354 N 
ATOM     66  N   UNL A   1      43.116  31.342  29.306  1.00  0.00    -0.248 NA
ATOM     67  C   UNL A   1      43.017  29.653  30.919  1.00  0.00     0.031 C 
ATOM     68  C   UNL A   1      43.975  35.120  32.361  1.00  0.00     0.029 A 
ATOM     69  C   UNL A   1      44.128  33.803  31.928  1.00  0.00     0.049 A 
ATOM     70  H   UNL A   1      45.061  32.310  33.089  1.00  0.00     0.167 HD
ATOM     71  C   UNL A   1      43.703  31.829  30.468  1.00  0.00     0.074 A 
ATOM     72  C   UNL A   1      43.646  30.721  31.419  1.00  0.00     0.031 C 
ATOM     73  C   UNL A   1      43.907  33.168  30.649  1.00  0.00     0.037 A 
BRANCH  60  74
ATOM     74  C   UNL A   1      44.056  31.967  35.992  1.00  0.00     0.064 A 
ATOM     75  C   UNL A   1      44.933  32.417  36.993  1.00  0.00     0.173 A 
ATOM     76  C   UNL A   1      44.150  30.591  35.673  1.00  0.00     0.173 A 
ATOM     77  F   UNL A   1      44.945  33.708  37.359  1.00  0.00    -0.203 F 
ATOM     78  C   UNL A   1      45.879  31.571  37.576  1.00  0.00     0.198 A 
ATOM     79  C   UNL A   1      45.052  29.738  36.300  1.00  0.00     0.198 A 
ATOM     80  F   UNL A   1      43.464  30.032  34.671  1.00  0.00    -0.203 F 
ATOM     81  F   UNL A   1      46.778  32.073  38.432  1.00  0.00    -0.200 F 
ATOM     82  C   UNL A   1      45.941  30.234  37.226  1.00  0.00     0.200 A 
ATOM     83  F   UNL A   1      45.104  28.450  35.931  1.00  0.00    -0.200 F 
ATOM     84  F   UNL A   1      46.885  29.437  37.740  1.00  0.00    -0.200 F 
ENDBRANCH  60  74
BRANCH  61  85
ATOM     85  C   UNL A   1      40.919  28.445  28.667  1.00  0.00     0.064 A 
ATOM     86  C   UNL A   1      40.124  27.532  29.379  1.00  0.00     0.173 A 
ATOM     87  C   UNL A   1      41.208  28.109  27.329  1.00  0.00     0.173 A 
ATOM     88  F   UNL A   1      39.754  27.803  30.639  1.00  0.00    -0.203 F 
ATOM     89  C   UNL A   1      39.642  26.358  28.785  1.00  0.00     0.198 A 
ATOM     90  C   UNL A   1      40.730  26.939  26.739  1.00  0.00     0.198 A 
ATOM     91  F   UNL A   1      41.879  28.958  26.538  1.00  0.00    -0.203 F 
ATOM     92  F   UNL A   1      38.844  25.536  29.479  1.00  0.00    -0.200 F 
ATOM     93  C   UNL A   1      39.940  26.067  27.464  1.00  0.00     0.200 A 
ATOM     94  F   UNL A   1      40.990  26.691  25.446  1.00  0.00    -0.200 F 
ATOM     95  F   UNL A   1      39.433  24.973  26.878  1.00  0.00    -0.200 F 
ENDBRANCH  61  85
BRANCH  73  96
ATOM     96  C   UNL A   1      43.669  34.076  29.474  1.00  0.00     0.064 A 
ATOM     97  C   UNL A   1      44.617  34.318  28.463  1.00  0.00     0.173 A 
ATOM     98  C   UNL A   1      42.383  34.596  29.283  1.00  0.00     0.173 A 
ATOM     99  F   UNL A   1      45.838  33.771  28.521  1.00  0.00    -0.203 F 
ATOM    100  C   UNL A   1      44.301  35.079  27.337  1.00  0.00     0.198 A 
ATOM    101  C   UNL A   1      42.058  35.324  28.143  1.00  0.00     0.198 A 
ATOM    102  F   UNL A   1      41.420  34.349  30.185  1.00  0.00    -0.203 F 
ATOM    103  F   UNL A   1      45.226  35.301  26.392  1.00  0.00    -0.200 F 
ATOM    104  C   UNL A   1      43.019  35.575  27.175  1.00  0.00     0.200 A 
ATOM    105  F   UNL A   1      40.802  35.757  27.966  1.00  0.00    -0.200 F 
ATOM    106  F   UNL A   1      42.699  36.270  26.074  1.00  0.00    -0.200 F 
ENDBRANCH  73  96
ENDBRANCH  47  48
ENDBRANCH  40  42
ENDBRANCH  39  40
ENDBRANCH  38  39
ENDBRANCH  37  38
ENDBRANCH  36  37
ENDBRANCH  35  36
ENDBRANCH   1  35
TORSDOF 22
ENDMDL
