MODEL 1
REMARK VINA RESULT:     -10.9      0.000      0.000
REMARK SMILES CC[NH2+][C@]1(C(=O)OCCOCCOCCOC(=O)c2ccc(-c3c4nc(c(-c5c(F)c(F)c(F)c(F)c5F)c5ccc([nH]5)c(-c5c(F)c(F)c(F)c(F)c5F)c5nc(c(-c6c(F)c(F)c(F)c(F)c6F)c6ccc3[nH]6)C=C5)C=C4)cc2)CCC[C@@H]1CCSc1ccccc1F
REMARK SMILES IDX 11 1 10 2 9 3 8 4 7 5 5 6 6 7 4 8 82 9 85 10 83 11 84 12
REMARK SMILES IDX 3 13 2 16 1 17 86 18 87 19 88 20 89 21 90 22 94 23 91 24
REMARK SMILES IDX 93 25 95 26 92 27 12 28 13 29 14 30 15 31 16 32 17 33 18 34
REMARK SMILES IDX 19 35 20 36 81 37 21 38 80 39 22 40 23 41 24 42 74 43 25 44
REMARK SMILES IDX 79 45 73 46 75 47 26 48 78 49 72 50 71 51 27 53 59 54 39 55
REMARK SMILES IDX 58 56 40 57 43 58 57 59 76 60 41 61 42 62 56 64 77 65 44 66
REMARK SMILES IDX 28 67 29 68 37 69 30 70 31 71 35 72 38 73 32 74 33 75 36 76
REMARK SMILES IDX 34 77 60 78 61 79 69 80 62 81 63 82 67 83 70 84 64 85 65 86
REMARK SMILES IDX 68 87 66 88 45 89 46 90 54 91 47 92 48 93 52 94 55 95 49 96
REMARK SMILES IDX 50 97 53 98 51 99
REMARK H PARENT 3 14 3 15 75 52 43 63
REMARK Flexibility Score: inf
ROOT
ATOM      1  C   UNL A   1      40.605  20.999  26.911  1.00  0.00     0.188 C 
ENDROOT
BRANCH   1   2
ATOM      2  O   UNL A   1      39.374  21.203  26.226  1.00  0.00    -0.376 OA
BRANCH   2   3
ATOM      3  C   UNL A   1      38.910  22.546  26.128  1.00  0.00     0.202 C 
BRANCH   3   4
ATOM      4  C   UNL A   1      37.589  22.732  25.383  1.00  0.00     0.261 C 
BRANCH   4   5
ATOM      5  O   UNL A   1      36.434  22.248  26.090  1.00  0.00    -0.459 OA
BRANCH   5   6
ATOM      6  C   UNL A   1      35.844  21.116  25.603  1.00  0.00     0.368 C 
ATOM      7  O   UNL A   1      36.463  20.259  24.976  1.00  0.00    -0.245 OA
BRANCH   6   8
ATOM      8  C   UNL A   1      34.262  21.051  25.922  1.00  0.00     0.197 C 
ATOM      9  C   UNL A   1      34.344  21.586  27.411  1.00  0.00     0.081 C 
ATOM     10  C   UNL A   1      33.571  22.352  25.258  1.00  0.00     0.063 C 
ATOM     11  C   UNL A   1      33.087  22.375  27.700  1.00  0.00     0.008 C 
ATOM     12  C   UNL A   1      32.692  22.991  26.371  1.00  0.00     0.011 C 
BRANCH   8  13
ATOM     13  N   UNL A   1      33.753  19.623  25.391  1.00  0.00    -0.332 N 
ATOM     14  H   UNL A   1      34.636  19.239  25.055  1.00  0.00     0.347 HD
ATOM     15  H   UNL A   1      33.067  19.583  26.146  1.00  0.00     0.347 HD
BRANCH  13  16
ATOM     16  C   UNL A   1      32.431  18.621  24.131  1.00  0.00     0.257 C 
ATOM     17  C   UNL A   1      32.491  18.083  22.518  1.00  0.00     0.071 C 
ENDBRANCH  13  16
ENDBRANCH   8  13
BRANCH  10  18
ATOM     18  C   UNL A   1      32.871  22.583  23.884  1.00  0.00     0.022 C 
BRANCH  18  19
ATOM     19  C   UNL A   1      33.098  23.775  22.969  1.00  0.00     0.075 C 
BRANCH  19  20
ATOM     20  S   UNL A   1      33.477  25.292  23.885  1.00  0.00    -0.123 SA
BRANCH  20  21
ATOM     21  C   UNL A   1      32.017  26.122  23.339  1.00  0.00     0.043 A 
ATOM     22  C   UNL A   1      32.158  27.718  22.488  1.00  0.00     0.018 A 
ATOM     23  C   UNL A   1      30.411  25.586  24.007  1.00  0.00     0.136 A 
ATOM     24  C   UNL A   1      30.683  28.811  22.377  1.00  0.00     0.001 A 
ATOM     25  C   UNL A   1      28.950  26.652  23.889  1.00  0.00     0.040 A 
ATOM     26  F   UNL A   1      30.332  24.419  24.658  1.00  0.00    -0.206 F 
ATOM     27  C   UNL A   1      29.108  28.296  23.121  1.00  0.00     0.003 A 
ENDBRANCH  20  21
ENDBRANCH  19  20
ENDBRANCH  18  19
ENDBRANCH  10  18
ENDBRANCH   6   8
ENDBRANCH   5   6
ENDBRANCH   4   5
ENDBRANCH   3   4
ENDBRANCH   2   3
ENDBRANCH   1   2
BRANCH   1  28
ATOM     28  C   UNL A   1      41.779  21.786  26.360  1.00  0.00     0.188 C 
BRANCH  28  29
ATOM     29  O   UNL A   1      43.055  21.208  26.564  1.00  0.00    -0.376 OA
BRANCH  29  30
ATOM     30  C   UNL A   1      44.102  21.701  25.726  1.00  0.00     0.202 C 
BRANCH  30  31
ATOM     31  C   UNL A   1      43.784  22.495  24.435  1.00  0.00     0.261 C 
BRANCH  31  32
ATOM     32  O   UNL A   1      43.512  23.911  24.540  1.00  0.00    -0.460 OA
BRANCH  32  33
ATOM     33  C   UNL A   1      44.458  24.728  25.062  1.00  0.00     0.338 C 
ATOM     34  O   UNL A   1      45.567  24.929  24.602  1.00  0.00    -0.246 OA
BRANCH  33  35
ATOM     35  C   UNL A   1      43.818  25.567  26.127  1.00  0.00     0.060 A 
ATOM     36  C   UNL A   1      44.093  26.945  26.148  1.00  0.00     0.016 A 
ATOM     37  C   UNL A   1      42.894  25.046  27.035  1.00  0.00     0.016 A 
ATOM     38  C   UNL A   1      43.460  27.792  27.066  1.00  0.00     0.010 A 
ATOM     39  C   UNL A   1      42.281  25.890  27.977  1.00  0.00     0.010 A 
ATOM     40  C   UNL A   1      42.570  27.267  28.012  1.00  0.00    -0.014 A 
BRANCH  40  41
ATOM     41  C   UNL A   1      42.061  28.114  29.128  1.00  0.00     0.031 A 
ATOM     42  C   UNL A   1      42.800  28.100  30.441  1.00  0.00     0.074 A 
ATOM     43  C   UNL A   1      40.969  28.891  28.997  1.00  0.00     0.049 A 
ATOM     44  N   UNL A   1      42.491  28.656  31.585  1.00  0.00    -0.248 NA
ATOM     45  C   UNL A   1      44.067  27.351  30.460  1.00  0.00     0.031 C 
ATOM     46  C   UNL A   1      40.192  29.058  27.771  1.00  0.00     0.029 A 
ATOM     47  N   UNL A   1      40.315  29.678  29.918  1.00  0.00    -0.354 N 
ATOM     48  C   UNL A   1      43.510  28.310  32.464  1.00  0.00     0.074 A 
ATOM     49  C   UNL A   1      44.439  27.480  31.725  1.00  0.00     0.031 C 
ATOM     50  C   UNL A   1      39.154  29.876  28.020  1.00  0.00     0.029 A 
ATOM     51  C   UNL A   1      39.163  30.253  29.435  1.00  0.00     0.049 A 
ATOM     52  H   UNL A   1      40.641  29.815  30.837  1.00  0.00     0.167 HD
ATOM     53  C   UNL A   1      43.661  28.654  33.765  1.00  0.00     0.037 A 
ATOM     54  C   UNL A   1      38.207  30.965  30.067  1.00  0.00     0.037 A 
ATOM     55  C   UNL A   1      42.737  29.480  34.500  1.00  0.00     0.049 A 
ATOM     56  C   UNL A   1      38.345  31.251  31.544  1.00  0.00     0.074 A 
ATOM     57  C   UNL A   1      42.815  29.896  35.819  1.00  0.00     0.029 A 
ATOM     58  N   UNL A   1      41.561  30.006  33.985  1.00  0.00    -0.354 N 
ATOM     59  N   UNL A   1      39.316  30.932  32.366  1.00  0.00    -0.248 NA
ATOM     60  C   UNL A   1      37.248  31.994  32.184  1.00  0.00     0.031 C 
ATOM     61  C   UNL A   1      41.650  30.609  36.123  1.00  0.00     0.029 A 
ATOM     62  C   UNL A   1      40.885  30.706  34.972  1.00  0.00     0.049 A 
ATOM     63  H   UNL A   1      41.253  29.898  33.057  1.00  0.00     0.167 HD
ATOM     64  C   UNL A   1      38.962  31.457  33.604  1.00  0.00     0.074 A 
ATOM     65  C   UNL A   1      37.697  32.136  33.422  1.00  0.00     0.031 C 
ATOM     66  C   UNL A   1      39.625  31.383  34.784  1.00  0.00     0.037 A 
BRANCH  53  67
ATOM     67  C   UNL A   1      44.849  28.099  34.502  1.00  0.00     0.064 A 
ATOM     68  C   UNL A   1      44.807  26.858  35.155  1.00  0.00     0.173 A 
ATOM     69  C   UNL A   1      46.062  28.805  34.516  1.00  0.00     0.173 A 
ATOM     70  F   UNL A   1      43.670  26.146  35.182  1.00  0.00    -0.203 F 
ATOM     71  C   UNL A   1      45.927  26.359  35.818  1.00  0.00     0.198 A 
ATOM     72  C   UNL A   1      47.189  28.287  35.148  1.00  0.00     0.198 A 
ATOM     73  F   UNL A   1      46.160  29.993  33.902  1.00  0.00    -0.203 F 
ATOM     74  F   UNL A   1      45.849  25.195  36.478  1.00  0.00    -0.200 F 
ATOM     75  C   UNL A   1      47.118  27.070  35.806  1.00  0.00     0.200 A 
ATOM     76  F   UNL A   1      48.343  28.967  35.120  1.00  0.00    -0.200 F 
ATOM     77  F   UNL A   1      48.197  26.582  36.434  1.00  0.00    -0.200 F 
ENDBRANCH  53  67
BRANCH  54  78
ATOM     78  C   UNL A   1      37.000  31.428  29.324  1.00  0.00     0.064 A 
ATOM     79  C   UNL A   1      36.823  32.778  28.989  1.00  0.00     0.173 A 
ATOM     80  C   UNL A   1      35.974  30.536  28.976  1.00  0.00     0.173 A 
ATOM     81  F   UNL A   1      37.755  33.681  29.331  1.00  0.00    -0.203 F 
ATOM     82  C   UNL A   1      35.661  33.221  28.358  1.00  0.00     0.198 A 
ATOM     83  C   UNL A   1      34.829  30.972  28.312  1.00  0.00     0.198 A 
ATOM     84  F   UNL A   1      36.080  29.235  29.286  1.00  0.00    -0.203 F 
ATOM     85  F   UNL A   1      35.491  34.526  28.109  1.00  0.00    -0.200 F 
ATOM     86  C   UNL A   1      34.668  32.316  28.012  1.00  0.00     0.200 A 
ATOM     87  F   UNL A   1      33.876  30.093  27.973  1.00  0.00    -0.200 F 
ATOM     88  F   UNL A   1      33.551  32.741  27.405  1.00  0.00    -0.200 F 
ENDBRANCH  54  78
BRANCH  66  89
ATOM     89  C   UNL A   1      39.019  32.081  35.972  1.00  0.00     0.064 A 
ATOM     90  C   UNL A   1      38.191  31.409  36.885  1.00  0.00     0.173 A 
ATOM     91  C   UNL A   1      39.304  33.433  36.224  1.00  0.00     0.173 A 
ATOM     92  F   UNL A   1      37.877  30.121  36.689  1.00  0.00    -0.203 F 
ATOM     93  C   UNL A   1      37.647  32.072  37.983  1.00  0.00     0.198 A 
ATOM     94  C   UNL A   1      38.790  34.082  37.344  1.00  0.00     0.198 A 
ATOM     95  F   UNL A   1      40.098  34.124  35.391  1.00  0.00    -0.203 F 
ATOM     96  F   UNL A   1      36.814  31.423  38.809  1.00  0.00    -0.200 F 
ATOM     97  C   UNL A   1      37.953  33.404  38.217  1.00  0.00     0.200 A 
ATOM     98  F   UNL A   1      39.105  35.364  37.577  1.00  0.00    -0.200 F 
ATOM     99  F   UNL A   1      37.436  34.036  39.279  1.00  0.00    -0.200 F 
ENDBRANCH  66  89
ENDBRANCH  40  41
ENDBRANCH  33  35
ENDBRANCH  32  33
ENDBRANCH  31  32
ENDBRANCH  30  31
ENDBRANCH  29  30
ENDBRANCH  28  29
ENDBRANCH   1  28
TORSDOF 23
ENDMDL
MODEL 2
REMARK VINA RESULT:     -10.9      0.738      1.737
REMARK SMILES CC[NH2+][C@]1(C(=O)OCCOCCOCCOC(=O)c2ccc(-c3c4nc(c(-c5c(F)c(F)c(F)c(F)c5F)c5ccc([nH]5)c(-c5c(F)c(F)c(F)c(F)c5F)c5nc(c(-c6c(F)c(F)c(F)c(F)c6F)c6ccc3[nH]6)C=C5)C=C4)cc2)CCC[C@@H]1CCSc1ccccc1F
REMARK SMILES IDX 11 1 10 2 9 3 8 4 7 5 5 6 6 7 4 8 82 9 85 10 83 11 84 12
REMARK SMILES IDX 3 13 2 16 1 17 86 18 87 19 88 20 89 21 90 22 94 23 91 24
REMARK SMILES IDX 93 25 95 26 92 27 12 28 13 29 14 30 15 31 16 32 17 33 18 34
REMARK SMILES IDX 19 35 20 36 81 37 21 38 80 39 22 40 23 41 24 42 74 43 25 44
REMARK SMILES IDX 79 45 73 46 75 47 26 48 78 49 72 50 71 51 27 53 59 54 39 55
REMARK SMILES IDX 58 56 40 57 43 58 57 59 76 60 41 61 42 62 56 64 77 65 44 66
REMARK SMILES IDX 28 67 29 68 37 69 30 70 31 71 35 72 38 73 32 74 33 75 36 76
REMARK SMILES IDX 34 77 60 78 61 79 69 80 62 81 63 82 67 83 70 84 64 85 65 86
REMARK SMILES IDX 68 87 66 88 45 89 46 90 54 91 47 92 48 93 52 94 55 95 49 96
REMARK SMILES IDX 50 97 53 98 51 99
REMARK H PARENT 3 14 3 15 75 52 43 63
REMARK Flexibility Score: inf
ROOT
ATOM      1  C   UNL A   1      40.750  20.857  26.429  1.00  0.00     0.188 C 
ENDROOT
BRANCH   1   2
ATOM      2  O   UNL A   1      39.705  21.634  27.006  1.00  0.00    -0.376 OA
BRANCH   2   3
ATOM      3  C   UNL A   1      38.698  22.112  26.119  1.00  0.00     0.202 C 
BRANCH   3   4
ATOM      4  C   UNL A   1      38.147  21.080  25.135  1.00  0.00     0.261 C 
BRANCH   4   5
ATOM      5  O   UNL A   1      36.798  20.662  25.405  1.00  0.00    -0.459 OA
BRANCH   5   6
ATOM      6  C   UNL A   1      35.799  21.481  24.959  1.00  0.00     0.368 C 
ATOM      7  O   UNL A   1      35.979  22.347  24.106  1.00  0.00    -0.245 OA
BRANCH   6   8
ATOM      8  C   UNL A   1      34.387  21.196  25.690  1.00  0.00     0.197 C 
ATOM      9  C   UNL A   1      34.750  21.870  27.077  1.00  0.00     0.081 C 
ATOM     10  C   UNL A   1      33.332  22.306  25.174  1.00  0.00     0.063 C 
ATOM     11  C   UNL A   1      33.488  22.473  27.654  1.00  0.00     0.008 C 
ATOM     12  C   UNL A   1      32.666  22.897  26.450  1.00  0.00     0.011 C 
BRANCH   8  13
ATOM     13  N   UNL A   1      34.019  19.664  25.379  1.00  0.00    -0.332 N 
ATOM     14  H   UNL A   1      34.893  19.217  25.658  1.00  0.00     0.347 HD
ATOM     15  H   UNL A   1      33.053  19.836  25.659  1.00  0.00     0.347 HD
BRANCH  13  16
ATOM     16  C   UNL A   1      33.368  18.300  23.946  1.00  0.00     0.257 C 
ATOM     17  C   UNL A   1      33.286  16.603  23.859  1.00  0.00     0.071 C 
ENDBRANCH  13  16
ENDBRANCH   8  13
BRANCH  10  18
ATOM     18  C   UNL A   1      32.276  22.297  24.027  1.00  0.00     0.022 C 
BRANCH  18  19
ATOM     19  C   UNL A   1      32.281  23.218  22.818  1.00  0.00     0.075 C 
BRANCH  19  20
ATOM     20  S   UNL A   1      33.524  24.531  22.949  1.00  0.00    -0.123 SA
BRANCH  20  21
ATOM     21  C   UNL A   1      32.337  25.771  23.364  1.00  0.00     0.043 A 
ATOM     22  C   UNL A   1      31.345  26.536  22.052  1.00  0.00     0.018 A 
ATOM     23  C   UNL A   1      32.431  26.550  25.006  1.00  0.00     0.136 A 
ATOM     24  C   UNL A   1      30.503  28.138  22.380  1.00  0.00     0.001 A 
ATOM     25  C   UNL A   1      31.594  28.122  25.341  1.00  0.00     0.040 A 
ATOM     26  F   UNL A   1      33.192  25.988  25.953  1.00  0.00    -0.206 F 
ATOM     27  C   UNL A   1      30.676  28.944  23.999  1.00  0.00     0.003 A 
ENDBRANCH  20  21
ENDBRANCH  19  20
ENDBRANCH  18  19
ENDBRANCH  10  18
ENDBRANCH   6   8
ENDBRANCH   5   6
ENDBRANCH   4   5
ENDBRANCH   3   4
ENDBRANCH   2   3
ENDBRANCH   1   2
BRANCH   1  28
ATOM     28  C   UNL A   1      41.923  21.661  25.901  1.00  0.00     0.188 C 
BRANCH  28  29
ATOM     29  O   UNL A   1      43.205  21.182  26.261  1.00  0.00    -0.376 OA
BRANCH  29  30
ATOM     30  C   UNL A   1      44.272  21.539  25.379  1.00  0.00     0.202 C 
BRANCH  30  31
ATOM     31  C   UNL A   1      44.065  22.590  24.260  1.00  0.00     0.261 C 
BRANCH  31  32
ATOM     32  O   UNL A   1      43.678  23.933  24.632  1.00  0.00    -0.460 OA
BRANCH  32  33
ATOM     33  C   UNL A   1      44.608  24.766  25.158  1.00  0.00     0.338 C 
ATOM     34  O   UNL A   1      45.714  24.987  24.701  1.00  0.00    -0.246 OA
BRANCH  33  35
ATOM     35  C   UNL A   1      43.950  25.592  26.222  1.00  0.00     0.060 A 
ATOM     36  C   UNL A   1      44.187  26.977  26.235  1.00  0.00     0.016 A 
ATOM     37  C   UNL A   1      43.046  25.049  27.138  1.00  0.00     0.016 A 
ATOM     38  C   UNL A   1      43.534  27.811  27.153  1.00  0.00     0.010 A 
ATOM     39  C   UNL A   1      42.414  25.881  28.079  1.00  0.00     0.010 A 
ATOM     40  C   UNL A   1      42.665  27.266  28.106  1.00  0.00    -0.014 A 
BRANCH  40  41
ATOM     41  C   UNL A   1      42.138  28.104  29.221  1.00  0.00     0.031 A 
ATOM     42  C   UNL A   1      42.885  28.118  30.528  1.00  0.00     0.074 A 
ATOM     43  C   UNL A   1      41.023  28.849  29.091  1.00  0.00     0.049 A 
ATOM     44  N   UNL A   1      42.566  28.671  31.672  1.00  0.00    -0.248 NA
ATOM     45  C   UNL A   1      44.173  27.406  30.545  1.00  0.00     0.031 C 
ATOM     46  C   UNL A   1      40.234  28.986  27.870  1.00  0.00     0.029 A 
ATOM     47  N   UNL A   1      40.352  29.621  30.013  1.00  0.00    -0.354 N 
ATOM     48  C   UNL A   1      43.600  28.360  32.546  1.00  0.00     0.074 A 
ATOM     49  C   UNL A   1      44.548  27.553  31.807  1.00  0.00     0.031 C 
ATOM     50  C   UNL A   1      39.175  29.775  28.120  1.00  0.00     0.029 A 
ATOM     51  C   UNL A   1      39.181  30.160  29.533  1.00  0.00     0.049 A 
ATOM     52  H   UNL A   1      40.679  29.773  30.928  1.00  0.00     0.167 HD
ATOM     53  C   UNL A   1      43.748  28.714  33.845  1.00  0.00     0.037 A 
ATOM     54  C   UNL A   1      38.209  30.848  30.167  1.00  0.00     0.037 A 
ATOM     55  C   UNL A   1      42.805  29.518  34.581  1.00  0.00     0.049 A 
ATOM     56  C   UNL A   1      38.347  31.145  31.642  1.00  0.00     0.074 A 
ATOM     57  C   UNL A   1      42.878  29.943  35.897  1.00  0.00     0.029 A 
ATOM     58  N   UNL A   1      41.612  30.006  34.071  1.00  0.00    -0.354 N 
ATOM     59  N   UNL A   1      39.332  30.859  32.459  1.00  0.00    -0.248 NA
ATOM     60  C   UNL A   1      37.232  31.860  32.284  1.00  0.00     0.031 C 
ATOM     61  C   UNL A   1      41.695  30.623  36.204  1.00  0.00     0.029 A 
ATOM     62  C   UNL A   1      40.921  30.693  35.057  1.00  0.00     0.049 A 
ATOM     63  H   UNL A   1      41.302  29.885  33.144  1.00  0.00     0.167 HD
ATOM     64  C   UNL A   1      38.970  31.380  33.697  1.00  0.00     0.074 A 
ATOM     65  C   UNL A   1      37.685  32.021  33.519  1.00  0.00     0.031 C 
ATOM     66  C   UNL A   1      39.642  31.332  34.874  1.00  0.00     0.037 A 
BRANCH  53  67
ATOM     67  C   UNL A   1      44.955  28.198  34.578  1.00  0.00     0.064 A 
ATOM     68  C   UNL A   1      46.091  28.992  34.795  1.00  0.00     0.173 A 
ATOM     69  C   UNL A   1      44.955  26.897  35.107  1.00  0.00     0.173 A 
ATOM     70  F   UNL A   1      46.150  30.238  34.302  1.00  0.00    -0.203 F 
ATOM     71  C   UNL A   1      47.192  28.494  35.490  1.00  0.00     0.198 A 
ATOM     72  C   UNL A   1      46.041  26.415  35.832  1.00  0.00     0.198 A 
ATOM     73  F   UNL A   1      43.893  26.097  34.935  1.00  0.00    -0.203 F 
ATOM     74  F   UNL A   1      48.286  29.253  35.642  1.00  0.00    -0.200 F 
ATOM     75  C   UNL A   1      47.162  27.210  36.015  1.00  0.00     0.200 A 
ATOM     76  F   UNL A   1      46.003  25.182  36.354  1.00  0.00    -0.200 F 
ATOM     77  F   UNL A   1      48.216  26.737  36.694  1.00  0.00    -0.200 F 
ENDBRANCH  53  67
BRANCH  54  78
ATOM     78  C   UNL A   1      36.985  31.272  29.429  1.00  0.00     0.064 A 
ATOM     79  C   UNL A   1      35.983  30.352  29.089  1.00  0.00     0.173 A 
ATOM     80  C   UNL A   1      36.814  32.599  29.006  1.00  0.00     0.173 A 
ATOM     81  F   UNL A   1      36.112  29.062  29.435  1.00  0.00    -0.203 F 
ATOM     82  C   UNL A   1      34.873  30.736  28.336  1.00  0.00     0.198 A 
ATOM     83  C   UNL A   1      35.687  32.991  28.287  1.00  0.00     0.198 A 
ATOM     84  F   UNL A   1      37.748  33.520  29.288  1.00  0.00    -0.203 F 
ATOM     85  F   UNL A   1      33.965  29.822  27.970  1.00  0.00    -0.200 F 
ATOM     86  C   UNL A   1      34.722  32.058  27.943  1.00  0.00     0.200 A 
ATOM     87  F   UNL A   1      35.541  34.271  27.916  1.00  0.00    -0.200 F 
ATOM     88  F   UNL A   1      33.655  32.427  27.221  1.00  0.00    -0.200 F 
ENDBRANCH  54  78
BRANCH  66  89
ATOM     89  C   UNL A   1      39.022  32.018  36.061  1.00  0.00     0.064 A 
ATOM     90  C   UNL A   1      38.153  31.348  36.936  1.00  0.00     0.173 A 
ATOM     91  C   UNL A   1      39.335  33.356  36.352  1.00  0.00     0.173 A 
ATOM     92  F   UNL A   1      37.811  30.073  36.703  1.00  0.00    -0.203 F 
ATOM     93  C   UNL A   1      37.597  32.000  38.035  1.00  0.00     0.198 A 
ATOM     94  C   UNL A   1      38.808  33.993  37.473  1.00  0.00     0.198 A 
ATOM     95  F   UNL A   1      40.168  34.044  35.557  1.00  0.00    -0.203 F 
ATOM     96  F   UNL A   1      36.726  31.355  38.823  1.00  0.00    -0.200 F 
ATOM     97  C   UNL A   1      37.932  33.318  38.308  1.00  0.00     0.200 A 
ATOM     98  F   UNL A   1      39.150  35.261  37.745  1.00  0.00    -0.200 F 
ATOM     99  F   UNL A   1      37.403  33.939  39.371  1.00  0.00    -0.200 F 
ENDBRANCH  66  89
ENDBRANCH  40  41
ENDBRANCH  33  35
ENDBRANCH  32  33
ENDBRANCH  31  32
ENDBRANCH  30  31
ENDBRANCH  29  30
ENDBRANCH  28  29
ENDBRANCH   1  28
TORSDOF 23
ENDMDL
MODEL 3
REMARK VINA RESULT:     -10.8      1.039      7.168
REMARK SMILES CC[NH2+][C@]1(C(=O)OCCOCCOCCOC(=O)c2ccc(-c3c4nc(c(-c5c(F)c(F)c(F)c(F)c5F)c5ccc([nH]5)c(-c5c(F)c(F)c(F)c(F)c5F)c5nc(c(-c6c(F)c(F)c(F)c(F)c6F)c6ccc3[nH]6)C=C5)C=C4)cc2)CCC[C@@H]1CCSc1ccccc1F
REMARK SMILES IDX 11 1 10 2 9 3 8 4 7 5 5 6 6 7 4 8 82 9 85 10 83 11 84 12
REMARK SMILES IDX 3 13 2 16 1 17 86 18 87 19 88 20 89 21 90 22 94 23 91 24
REMARK SMILES IDX 93 25 95 26 92 27 12 28 13 29 14 30 15 31 16 32 17 33 18 34
REMARK SMILES IDX 19 35 20 36 81 37 21 38 80 39 22 40 23 41 24 42 74 43 25 44
REMARK SMILES IDX 79 45 73 46 75 47 26 48 78 49 72 50 71 51 27 53 59 54 39 55
REMARK SMILES IDX 58 56 40 57 43 58 57 59 76 60 41 61 42 62 56 64 77 65 44 66
REMARK SMILES IDX 28 67 29 68 37 69 30 70 31 71 35 72 38 73 32 74 33 75 36 76
REMARK SMILES IDX 34 77 60 78 61 79 69 80 62 81 63 82 67 83 70 84 64 85 65 86
REMARK SMILES IDX 68 87 66 88 45 89 46 90 54 91 47 92 48 93 52 94 55 95 49 96
REMARK SMILES IDX 50 97 53 98 51 99
REMARK H PARENT 3 14 3 15 75 52 43 63
REMARK Flexibility Score: inf
ROOT
ATOM      1  C   UNL A   1      40.358  21.747  26.809  1.00  0.00     0.188 C 
ENDROOT
BRANCH   1   2
ATOM      2  O   UNL A   1      39.198  21.675  25.987  1.00  0.00    -0.376 OA
BRANCH   2   3
ATOM      3  C   UNL A   1      38.278  22.759  26.082  1.00  0.00     0.202 C 
BRANCH   3   4
ATOM      4  C   UNL A   1      37.118  22.725  25.088  1.00  0.00     0.261 C 
BRANCH   4   5
ATOM      5  O   UNL A   1      35.833  22.476  25.681  1.00  0.00    -0.459 OA
BRANCH   5   6
ATOM      6  C   UNL A   1      35.317  21.220  25.530  1.00  0.00     0.368 C 
ATOM      7  O   UNL A   1      35.941  20.303  25.002  1.00  0.00    -0.245 OA
BRANCH   6   8
ATOM      8  C   UNL A   1      33.808  21.094  26.093  1.00  0.00     0.197 C 
ATOM      9  C   UNL A   1      34.056  21.832  27.474  1.00  0.00     0.081 C 
ATOM     10  C   UNL A   1      32.920  22.244  25.385  1.00  0.00     0.063 C 
ATOM     11  C   UNL A   1      32.789  22.567  27.851  1.00  0.00     0.008 C 
ATOM     12  C   UNL A   1      32.157  22.969  26.531  1.00  0.00     0.011 C 
BRANCH   8  13
ATOM     13  N   UNL A   1      33.353  19.577  25.829  1.00  0.00    -0.332 N 
ATOM     14  H   UNL A   1      33.566  19.172  26.740  1.00  0.00     0.347 HD
ATOM     15  H   UNL A   1      32.597  19.906  25.226  1.00  0.00     0.347 HD
BRANCH  13  16
ATOM     16  C   UNL A   1      33.582  17.889  24.630  1.00  0.00     0.257 C 
ATOM     17  C   UNL A   1      34.063  16.281  24.908  1.00  0.00     0.071 C 
ENDBRANCH  13  16
ENDBRANCH   8  13
BRANCH  10  18
ATOM     18  C   UNL A   1      32.013  22.237  24.117  1.00  0.00     0.022 C 
BRANCH  18  19
ATOM     19  C   UNL A   1      31.842  23.398  23.150  1.00  0.00     0.075 C 
BRANCH  19  20
ATOM     20  S   UNL A   1      33.415  24.205  22.748  1.00  0.00    -0.123 SA
BRANCH  20  21
ATOM     21  C   UNL A   1      32.935  25.749  23.459  1.00  0.00     0.043 A 
ATOM     22  C   UNL A   1      32.036  26.959  22.450  1.00  0.00     0.018 A 
ATOM     23  C   UNL A   1      33.710  26.264  25.023  1.00  0.00     0.136 A 
ATOM     24  C   UNL A   1      31.984  28.717  22.988  1.00  0.00     0.001 A 
ATOM     25  C   UNL A   1      33.651  27.992  25.567  1.00  0.00     0.040 A 
ATOM     26  F   UNL A   1      34.395  25.365  25.740  1.00  0.00    -0.206 F 
ATOM     27  C   UNL A   1      32.833  29.229  24.510  1.00  0.00     0.003 A 
ENDBRANCH  20  21
ENDBRANCH  19  20
ENDBRANCH  18  19
ENDBRANCH  10  18
ENDBRANCH   6   8
ENDBRANCH   5   6
ENDBRANCH   4   5
ENDBRANCH   3   4
ENDBRANCH   2   3
ENDBRANCH   1   2
BRANCH   1  28
ATOM     28  C   UNL A   1      41.582  22.334  26.132  1.00  0.00     0.188 C 
BRANCH  28  29
ATOM     29  O   UNL A   1      42.680  21.453  25.980  1.00  0.00    -0.376 OA
BRANCH  29  30
ATOM     30  C   UNL A   1      43.855  22.020  25.396  1.00  0.00     0.202 C 
BRANCH  30  31
ATOM     31  C   UNL A   1      43.757  23.071  24.263  1.00  0.00     0.261 C 
BRANCH  31  32
ATOM     32  O   UNL A   1      43.513  24.452  24.616  1.00  0.00    -0.460 OA
BRANCH  32  33
ATOM     33  C   UNL A   1      44.462  25.134  25.301  1.00  0.00     0.338 C 
ATOM     34  O   UNL A   1      45.586  25.388  24.910  1.00  0.00    -0.246 OA
BRANCH  33  35
ATOM     35  C   UNL A   1      43.811  25.780  26.487  1.00  0.00     0.060 A 
ATOM     36  C   UNL A   1      44.031  27.150  26.708  1.00  0.00     0.016 A 
ATOM     37  C   UNL A   1      42.927  25.091  27.322  1.00  0.00     0.016 A 
ATOM     38  C   UNL A   1      43.383  27.825  27.750  1.00  0.00     0.010 A 
ATOM     39  C   UNL A   1      42.301  25.761  28.387  1.00  0.00     0.010 A 
ATOM     40  C   UNL A   1      42.535  27.129  28.621  1.00  0.00    -0.014 A 
BRANCH  40  41
ATOM     41  C   UNL A   1      42.016  27.780  29.858  1.00  0.00     0.031 A 
ATOM     42  C   UNL A   1      40.758  28.603  29.766  1.00  0.00     0.074 A 
ATOM     43  C   UNL A   1      42.633  27.651  31.048  1.00  0.00     0.049 A 
ATOM     44  N   UNL A   1      40.178  29.354  30.669  1.00  0.00    -0.248 NA
ATOM     45  C   UNL A   1      40.057  28.571  28.472  1.00  0.00     0.031 C 
ATOM     46  C   UNL A   1      43.818  26.836  31.302  1.00  0.00     0.029 A 
ATOM     47  N   UNL A   1      42.349  28.222  32.268  1.00  0.00    -0.354 N 
ATOM     48  C   UNL A   1      39.059  29.898  30.050  1.00  0.00     0.074 A 
ATOM     49  C   UNL A   1      39.052  29.406  28.688  1.00  0.00     0.031 C 
ATOM     50  C   UNL A   1      44.175  26.975  32.592  1.00  0.00     0.029 A 
ATOM     51  C   UNL A   1      43.274  27.927  33.244  1.00  0.00     0.049 A 
ATOM     52  H   UNL A   1      41.561  28.788  32.428  1.00  0.00     0.167 HD
ATOM     53  C   UNL A   1      38.124  30.729  30.567  1.00  0.00     0.037 A 
ATOM     54  C   UNL A   1      43.403  28.401  34.500  1.00  0.00     0.037 A 
ATOM     55  C   UNL A   1      38.131  31.219  31.922  1.00  0.00     0.049 A 
ATOM     56  C   UNL A   1      42.404  29.407  35.023  1.00  0.00     0.074 A 
ATOM     57  C   UNL A   1      37.215  32.052  32.542  1.00  0.00     0.029 A 
ATOM     58  N   UNL A   1      39.108  30.932  32.863  1.00  0.00    -0.354 N 
ATOM     59  N   UNL A   1      41.343  29.907  34.438  1.00  0.00    -0.248 NA
ATOM     60  C   UNL A   1      42.625  29.917  36.386  1.00  0.00     0.031 C 
ATOM     61  C   UNL A   1      37.678  32.330  33.832  1.00  0.00     0.029 A 
ATOM     62  C   UNL A   1      38.840  31.605  34.045  1.00  0.00     0.049 A 
ATOM     63  H   UNL A   1      39.878  30.336  32.715  1.00  0.00     0.167 HD
ATOM     64  C   UNL A   1      40.758  30.763  35.365  1.00  0.00     0.074 A 
ATOM     65  C   UNL A   1      41.569  30.699  36.561  1.00  0.00     0.031 C 
ATOM     66  C   UNL A   1      39.650  31.534  35.235  1.00  0.00     0.037 A 
BRANCH  53  67
ATOM     67  C   UNL A   1      37.029  31.206  29.652  1.00  0.00     0.064 A 
ATOM     68  C   UNL A   1      35.968  30.375  29.263  1.00  0.00     0.173 A 
ATOM     69  C   UNL A   1      37.024  32.533  29.192  1.00  0.00     0.173 A 
ATOM     70  F   UNL A   1      35.929  29.096  29.665  1.00  0.00    -0.203 F 
ATOM     71  C   UNL A   1      34.959  30.847  28.426  1.00  0.00     0.198 A 
ATOM     72  C   UNL A   1      35.995  33.011  28.386  1.00  0.00     0.198 A 
ATOM     73  F   UNL A   1      38.011  33.373  29.538  1.00  0.00    -0.203 F 
ATOM     74  F   UNL A   1      33.982  30.020  28.026  1.00  0.00    -0.200 F 
ATOM     75  C   UNL A   1      34.969  32.166  27.996  1.00  0.00     0.200 A 
ATOM     76  F   UNL A   1      35.997  34.290  27.986  1.00  0.00    -0.200 F 
ATOM     77  F   UNL A   1      33.990  32.620  27.201  1.00  0.00    -0.200 F 
ENDBRANCH  53  67
BRANCH  54  78
ATOM     78  C   UNL A   1      44.548  27.971  35.351  1.00  0.00     0.064 A 
ATOM     79  C   UNL A   1      45.787  28.626  35.294  1.00  0.00     0.173 A 
ATOM     80  C   UNL A   1      44.443  26.862  36.207  1.00  0.00     0.173 A 
ATOM     81  F   UNL A   1      45.956  29.668  34.466  1.00  0.00    -0.203 F 
ATOM     82  C   UNL A   1      46.878  28.178  36.038  1.00  0.00     0.198 A 
ATOM     83  C   UNL A   1      45.523  26.438  36.979  1.00  0.00     0.198 A 
ATOM     84  F   UNL A   1      43.288  26.186  36.291  1.00  0.00    -0.203 F 
ATOM     85  F   UNL A   1      48.067  28.784  35.913  1.00  0.00    -0.200 F 
ATOM     86  C   UNL A   1      46.742  27.089  36.886  1.00  0.00     0.200 A 
ATOM     87  F   UNL A   1      45.385  25.390  37.803  1.00  0.00    -0.200 F 
ATOM     88  F   UNL A   1      47.791  26.658  37.601  1.00  0.00    -0.200 F 
ENDBRANCH  54  78
BRANCH  66  89
ATOM     89  C   UNL A   1      39.221  32.348  36.427  1.00  0.00     0.064 A 
ATOM     90  C   UNL A   1      39.721  33.638  36.663  1.00  0.00     0.173 A 
ATOM     91  C   UNL A   1      38.264  31.846  37.323  1.00  0.00     0.173 A 
ATOM     92  F   UNL A   1      40.645  34.164  35.846  1.00  0.00    -0.203 F 
ATOM     93  C   UNL A   1      39.305  34.378  37.767  1.00  0.00     0.198 A 
ATOM     94  C   UNL A   1      37.821  32.604  38.404  1.00  0.00     0.198 A 
ATOM     95  F   UNL A   1      37.743  30.623  37.142  1.00  0.00    -0.203 F 
ATOM     96  F   UNL A   1      39.839  35.584  38.003  1.00  0.00    -0.200 F 
ATOM     97  C   UNL A   1      38.349  33.865  38.632  1.00  0.00     0.200 A 
ATOM     98  F   UNL A   1      36.882  32.113  39.226  1.00  0.00    -0.200 F 
ATOM     99  F   UNL A   1      37.943  34.583  39.688  1.00  0.00    -0.200 F 
ENDBRANCH  66  89
ENDBRANCH  40  41
ENDBRANCH  33  35
ENDBRANCH  32  33
ENDBRANCH  31  32
ENDBRANCH  30  31
ENDBRANCH  29  30
ENDBRANCH  28  29
ENDBRANCH   1  28
TORSDOF 23
ENDMDL
