MODEL 1
REMARK VINA RESULT:      -9.7      0.000      0.000
REMARK SMILES COc1cccc(N2CCN(c3ccc(NC(=O)c4ccc(F)cc4)c(C(=O)OCCOCCOCCOC(=O)c4ccc(-c5c6nc(c(-c7c(F)c(F)c(F)c(F)c7F)c7ccc([nH]7)c(-c7c(F)c(F)c(F)c(F)c7F)c7nc(c(-c8c(F)c(F)c(F)c(F)c8F)c8ccc5[nH]8)C=C7)C=C6)cc4)c3)CC2)c1
REMARK SMILES IDX 33 1 32 2 31 3 30 4 29 5 27 6 28 7 26 8 12 9 13 10 104 11
REMARK SMILES IDX 14 12 15 13 11 14 8 15 9 16 106 17 10 18 105 19 7 20 3 21
REMARK SMILES IDX 4 22 107 23 5 24 6 25 2 26 1 27 16 28 17 29 18 31 19 32
REMARK SMILES IDX 20 33 25 34 21 35 24 36 22 37 23 38 34 39 35 40 36 41 37 42
REMARK SMILES IDX 38 43 39 44 40 45 41 46 42 47 103 48 43 49 102 50 44 51
REMARK SMILES IDX 45 52 46 53 96 54 47 55 101 56 95 57 97 58 48 59 100 60
REMARK SMILES IDX 94 61 93 62 49 64 81 65 61 66 80 67 62 68 65 69 79 70 98 71
REMARK SMILES IDX 63 72 64 73 78 75 99 76 66 77 50 78 51 79 59 80 52 81 53 82
REMARK SMILES IDX 57 83 60 84 54 85 55 86 58 87 56 88 82 89 83 90 91 91 84 92
REMARK SMILES IDX 85 93 89 94 92 95 86 96 87 97 90 98 88 99 67 100 68 101
REMARK SMILES IDX 76 102 69 103 70 104 74 105 77 106 71 107 72 108 75 109
REMARK SMILES IDX 73 110
REMARK H PARENT 16 30 97 63 65 74
REMARK Flexibility Score: inf
ROOT
ATOM      1  C   UNL A   1      42.032  24.456  27.690  1.00  0.00     0.188 C 
ENDROOT
BRANCH   1   2
ATOM      2  O   UNL A   1      40.959  25.053  28.394  1.00  0.00    -0.376 OA
BRANCH   2   3
ATOM      3  C   UNL A   1      40.419  26.286  27.947  1.00  0.00     0.202 C 
BRANCH   3   4
ATOM      4  C   UNL A   1      39.490  27.121  28.844  1.00  0.00     0.261 C 
BRANCH   4   5
ATOM      5  O   UNL A   1      38.924  28.287  28.223  1.00  0.00    -0.460 OA
BRANCH   5   6
ATOM      6  C   UNL A   1      39.018  29.448  28.923  1.00  0.00     0.340 C 
ATOM      7  O   UNL A   1      40.017  29.900  29.460  1.00  0.00    -0.246 OA
BRANCH   6   8
ATOM      8  C   UNL A   1      37.782  30.240  28.716  1.00  0.00     0.085 A 
ATOM      9  C   UNL A   1      35.530  30.371  27.756  1.00  0.00     0.038 A 
ATOM     10  C   UNL A   1      35.576  31.745  27.994  1.00  0.00     0.028 A 
ATOM     11  C   UNL A   1      36.678  29.638  28.087  1.00  0.00     0.043 A 
ATOM     12  C   UNL A   1      36.676  32.354  28.598  1.00  0.00     0.029 A 
ATOM     13  C   UNL A   1      37.751  31.603  29.065  1.00  0.00     0.056 A 
BRANCH   9  14
ATOM     14  N   UNL A   1      34.424  29.786  27.194  1.00  0.00    -0.368 N 
ATOM     15  N   UNL A   1      32.538  29.217  25.161  1.00  0.00    -0.368 N 
ATOM     16  C   UNL A   1      32.462  30.509  25.849  1.00  0.00     0.138 C 
ATOM     17  C   UNL A   1      33.857  28.574  25.111  1.00  0.00     0.138 C 
ATOM     18  C   UNL A   1      33.075  30.391  27.265  1.00  0.00     0.138 C 
ATOM     19  C   UNL A   1      34.463  28.472  26.524  1.00  0.00     0.138 C 
BRANCH  15  20
ATOM     20  C   UNL A   1      31.420  28.626  24.624  1.00  0.00     0.040 A 
ATOM     21  C   UNL A   1      29.502  28.702  23.120  1.00  0.00     0.120 A 
ATOM     22  C   UNL A   1      29.098  27.447  23.572  1.00  0.00     0.046 A 
ATOM     23  C   UNL A   1      30.646  29.292  23.662  1.00  0.00     0.072 A 
ATOM     24  C   UNL A   1      29.861  26.763  24.516  1.00  0.00     0.006 A 
ATOM     25  C   UNL A   1      31.021  27.346  25.024  1.00  0.00     0.026 A 
BRANCH  21  26
ATOM     26  O   UNL A   1      28.685  29.288  22.191  1.00  0.00    -0.497 OA
ATOM     27  C   UNL A   1      27.919  30.392  22.664  1.00  0.00     0.278 C 
ENDBRANCH  21  26
ENDBRANCH  15  20
ENDBRANCH   9  14
BRANCH  13  28
ATOM     28  N   UNL A   1      38.797  32.179  29.827  1.00  0.00    -0.321 N 
ATOM     29  C   UNL A   1      38.777  32.953  30.970  1.00  0.00     0.255 C 
ATOM     30  H   UNL A   1      39.699  31.995  29.479  1.00  0.00     0.170 HD
ATOM     31  O   UNL A   1      39.802  33.496  31.372  1.00  0.00    -0.269 OA
BRANCH  29  32
ATOM     32  C   UNL A   1      37.544  33.085  31.776  1.00  0.00     0.040 A 
ATOM     33  C   UNL A   1      37.235  32.104  32.728  1.00  0.00     0.017 A 
ATOM     34  C   UNL A   1      36.732  34.219  31.630  1.00  0.00     0.017 A 
ATOM     35  C   UNL A   1      36.163  32.311  33.599  1.00  0.00     0.040 A 
ATOM     36  C   UNL A   1      35.668  34.423  32.509  1.00  0.00     0.040 A 
ATOM     37  C   UNL A   1      35.403  33.475  33.493  1.00  0.00     0.123 A 
ATOM     38  F   UNL A   1      34.408  33.693  34.361  1.00  0.00    -0.207 F 
ENDBRANCH  29  32
ENDBRANCH  13  28
ENDBRANCH   6   8
ENDBRANCH   5   6
ENDBRANCH   4   5
ENDBRANCH   3   4
ENDBRANCH   2   3
ENDBRANCH   1   2
BRANCH   1  39
ATOM     39  C   UNL A   1      41.762  23.507  26.503  1.00  0.00     0.188 C 
BRANCH  39  40
ATOM     40  O   UNL A   1      42.867  22.896  25.890  1.00  0.00    -0.376 OA
BRANCH  40  41
ATOM     41  C   UNL A   1      44.181  23.367  26.123  1.00  0.00     0.202 C 
BRANCH  41  42
ATOM     42  C   UNL A   1      45.144  23.952  25.070  1.00  0.00     0.261 C 
BRANCH  42  43
ATOM     43  O   UNL A   1      44.957  25.304  24.642  1.00  0.00    -0.460 OA
BRANCH  43  44
ATOM     44  C   UNL A   1      45.965  26.160  24.928  1.00  0.00     0.338 C 
ATOM     45  O   UNL A   1      46.957  26.394  24.251  1.00  0.00    -0.246 OA
BRANCH  44  46
ATOM     46  C   UNL A   1      45.611  26.926  26.134  1.00  0.00     0.060 A 
ATOM     47  C   UNL A   1      44.266  27.243  26.364  1.00  0.00     0.016 A 
ATOM     48  C   UNL A   1      46.603  27.356  27.017  1.00  0.00     0.016 A 
ATOM     49  C   UNL A   1      43.910  28.003  27.478  1.00  0.00     0.010 A 
ATOM     50  C   UNL A   1      46.245  28.134  28.121  1.00  0.00     0.010 A 
ATOM     51  C   UNL A   1      44.900  28.479  28.346  1.00  0.00    -0.014 A 
BRANCH  51  52
ATOM     52  C   UNL A   1      44.547  29.440  29.420  1.00  0.00     0.031 A 
ATOM     53  C   UNL A   1      44.214  28.922  30.787  1.00  0.00     0.074 A 
ATOM     54  C   UNL A   1      44.516  30.762  29.183  1.00  0.00     0.049 A 
ATOM     55  N   UNL A   1      43.831  29.575  31.854  1.00  0.00    -0.248 NA
ATOM     56  C   UNL A   1      44.322  27.468  30.973  1.00  0.00     0.031 C 
ATOM     57  C   UNL A   1      44.838  31.388  27.907  1.00  0.00     0.029 A 
ATOM     58  N   UNL A   1      44.194  31.813  30.005  1.00  0.00    -0.354 N 
ATOM     59  C   UNL A   1      43.625  28.612  32.831  1.00  0.00     0.074 A 
ATOM     60  C   UNL A   1      43.914  27.328  32.226  1.00  0.00     0.031 C 
ATOM     61  C   UNL A   1      44.696  32.718  28.026  1.00  0.00     0.029 A 
ATOM     62  C   UNL A   1      44.227  33.032  29.374  1.00  0.00     0.049 A 
ATOM     63  H   UNL A   1      43.962  31.703  30.956  1.00  0.00     0.167 HD
ATOM     64  C   UNL A   1      43.224  28.783  34.114  1.00  0.00     0.037 A 
ATOM     65  C   UNL A   1      43.889  34.257  29.820  1.00  0.00     0.037 A 
ATOM     66  C   UNL A   1      42.932  30.063  34.708  1.00  0.00     0.049 A 
ATOM     67  C   UNL A   1      43.408  34.422  31.237  1.00  0.00     0.074 A 
ATOM     68  C   UNL A   1      42.565  30.341  36.014  1.00  0.00     0.029 A 
ATOM     69  N   UNL A   1      42.950  31.274  34.032  1.00  0.00    -0.354 N 
ATOM     70  N   UNL A   1      43.258  33.513  32.171  1.00  0.00    -0.248 NA
ATOM     71  C   UNL A   1      43.044  35.781  31.661  1.00  0.00     0.031 C 
ATOM     72  C   UNL A   1      42.292  31.711  36.109  1.00  0.00     0.029 A 
ATOM     73  C   UNL A   1      42.558  32.299  34.882  1.00  0.00     0.049 A 
ATOM     74  H   UNL A   1      43.204  31.390  33.088  1.00  0.00     0.167 HD
ATOM     75  C   UNL A   1      42.792  34.187  33.292  1.00  0.00     0.074 A 
ATOM     76  C   UNL A   1      42.709  35.588  32.930  1.00  0.00     0.031 C 
ATOM     77  C   UNL A   1      42.461  33.689  34.510  1.00  0.00     0.037 A 
BRANCH  64  78
ATOM     78  C   UNL A   1      43.023  27.547  34.941  1.00  0.00     0.064 A 
ATOM     79  C   UNL A   1      44.029  27.033  35.774  1.00  0.00     0.173 A 
ATOM     80  C   UNL A   1      41.797  26.864  34.899  1.00  0.00     0.173 A 
ATOM     81  F   UNL A   1      45.225  27.638  35.841  1.00  0.00    -0.203 F 
ATOM     82  C   UNL A   1      43.829  25.860  36.499  1.00  0.00     0.198 A 
ATOM     83  C   UNL A   1      41.589  25.713  35.652  1.00  0.00     0.198 A 
ATOM     84  F   UNL A   1      40.799  27.314  34.124  1.00  0.00    -0.203 F 
ATOM     85  F   UNL A   1      44.827  25.353  37.236  1.00  0.00    -0.200 F 
ATOM     86  C   UNL A   1      42.608  25.205  36.441  1.00  0.00     0.200 A 
ATOM     87  F   UNL A   1      40.403  25.089  35.606  1.00  0.00    -0.200 F 
ATOM     88  F   UNL A   1      42.419  24.076  37.139  1.00  0.00    -0.200 F 
ENDBRANCH  64  78
BRANCH  65  89
ATOM     89  C   UNL A   1      43.973  35.419  28.897  1.00  0.00     0.064 A 
ATOM     90  C   UNL A   1      42.846  35.880  28.203  1.00  0.00     0.173 A 
ATOM     91  C   UNL A   1      45.184  36.102  28.700  1.00  0.00     0.173 A 
ATOM     92  F   UNL A   1      41.674  35.240  28.327  1.00  0.00    -0.203 F 
ATOM     93  C   UNL A   1      42.928  36.977  27.344  1.00  0.00     0.198 A 
ATOM     94  C   UNL A   1      45.257  37.215  27.867  1.00  0.00     0.198 A 
ATOM     95  F   UNL A   1      46.295  35.692  29.328  1.00  0.00    -0.203 F 
ATOM     96  F   UNL A   1      41.846  37.369  26.657  1.00  0.00    -0.200 F 
ATOM     97  C   UNL A   1      44.130  37.649  27.186  1.00  0.00     0.200 A 
ATOM     98  F   UNL A   1      46.420  37.865  27.719  1.00  0.00    -0.200 F 
ATOM     99  F   UNL A   1      44.205  38.706  26.366  1.00  0.00    -0.200 F 
ENDBRANCH  65  89
BRANCH  77 100
ATOM    100  C   UNL A   1      41.987  34.664  35.551  1.00  0.00     0.064 A 
ATOM    101  C   UNL A   1      40.621  34.903  35.771  1.00  0.00     0.173 A 
ATOM    102  C   UNL A   1      42.907  35.337  36.370  1.00  0.00     0.173 A 
ATOM    103  F   UNL A   1      39.698  34.297  35.010  1.00  0.00    -0.203 F 
ATOM    104  C   UNL A   1      40.198  35.796  36.753  1.00  0.00     0.198 A 
ATOM    105  C   UNL A   1      42.479  36.203  37.373  1.00  0.00     0.198 A 
ATOM    106  F   UNL A   1      44.224  35.141  36.210  1.00  0.00    -0.203 F 
ATOM    107  F   UNL A   1      38.890  36.045  36.911  1.00  0.00    -0.200 F 
ATOM    108  C   UNL A   1      41.126  36.439  37.558  1.00  0.00     0.200 A 
ATOM    109  F   UNL A   1      43.378  36.809  38.161  1.00  0.00    -0.200 F 
ATOM    110  F   UNL A   1      40.716  37.291  38.508  1.00  0.00    -0.200 F 
ENDBRANCH  77 100
ENDBRANCH  51  52
ENDBRANCH  44  46
ENDBRANCH  43  44
ENDBRANCH  42  43
ENDBRANCH  41  42
ENDBRANCH  40  41
ENDBRANCH  39  40
ENDBRANCH   1  39
TORSDOF 22
ENDMDL
MODEL 2
REMARK VINA RESULT:      -9.6      3.825      8.721
REMARK SMILES COc1cccc(N2CCN(c3ccc(NC(=O)c4ccc(F)cc4)c(C(=O)OCCOCCOCCOC(=O)c4ccc(-c5c6nc(c(-c7c(F)c(F)c(F)c(F)c7F)c7ccc([nH]7)c(-c7c(F)c(F)c(F)c(F)c7F)c7nc(c(-c8c(F)c(F)c(F)c(F)c8F)c8ccc5[nH]8)C=C7)C=C6)cc4)c3)CC2)c1
REMARK SMILES IDX 33 1 32 2 31 3 30 4 29 5 27 6 28 7 26 8 12 9 13 10 104 11
REMARK SMILES IDX 14 12 15 13 11 14 8 15 9 16 106 17 10 18 105 19 7 20 3 21
REMARK SMILES IDX 4 22 107 23 5 24 6 25 2 26 1 27 16 28 17 29 18 31 19 32
REMARK SMILES IDX 20 33 25 34 21 35 24 36 22 37 23 38 34 39 35 40 36 41 37 42
REMARK SMILES IDX 38 43 39 44 40 45 41 46 42 47 103 48 43 49 102 50 44 51
REMARK SMILES IDX 45 52 46 53 96 54 47 55 101 56 95 57 97 58 48 59 100 60
REMARK SMILES IDX 94 61 93 62 49 64 81 65 61 66 80 67 62 68 65 69 79 70 98 71
REMARK SMILES IDX 63 72 64 73 78 75 99 76 66 77 50 78 51 79 59 80 52 81 53 82
REMARK SMILES IDX 57 83 60 84 54 85 55 86 58 87 56 88 82 89 83 90 91 91 84 92
REMARK SMILES IDX 85 93 89 94 92 95 86 96 87 97 90 98 88 99 67 100 68 101
REMARK SMILES IDX 76 102 69 103 70 104 74 105 77 106 71 107 72 108 75 109
REMARK SMILES IDX 73 110
REMARK H PARENT 16 30 97 63 65 74
REMARK Flexibility Score: inf
ROOT
ATOM      1  C   UNL A   1      46.459  26.809  24.759  1.00  0.00     0.188 C 
ENDROOT
BRANCH   1   2
ATOM      2  O   UNL A   1      46.190  25.421  24.677  1.00  0.00    -0.376 OA
BRANCH   2   3
ATOM      3  C   UNL A   1      45.182  24.846  25.493  1.00  0.00     0.202 C 
BRANCH   3   4
ATOM      4  C   UNL A   1      43.699  24.913  25.092  1.00  0.00     0.261 C 
BRANCH   4   5
ATOM      5  O   UNL A   1      43.021  23.647  25.040  1.00  0.00    -0.460 OA
BRANCH   5   6
ATOM      6  C   UNL A   1      42.758  23.054  26.234  1.00  0.00     0.340 C 
ATOM      7  O   UNL A   1      43.529  22.385  26.904  1.00  0.00    -0.246 OA
BRANCH   6   8
ATOM      8  C   UNL A   1      41.465  23.560  26.752  1.00  0.00     0.085 A 
ATOM      9  C   UNL A   1      39.020  23.593  26.572  1.00  0.00     0.038 A 
ATOM     10  C   UNL A   1      39.035  24.697  27.425  1.00  0.00     0.028 A 
ATOM     11  C   UNL A   1      40.266  23.065  26.208  1.00  0.00     0.043 A 
ATOM     12  C   UNL A   1      40.221  25.209  27.952  1.00  0.00     0.029 A 
ATOM     13  C   UNL A   1      41.444  24.588  27.712  1.00  0.00     0.056 A 
BRANCH   9  14
ATOM     14  N   UNL A   1      37.840  23.083  26.094  1.00  0.00    -0.368 N 
ATOM     15  N   UNL A   1      35.672  22.802  24.295  1.00  0.00    -0.368 N 
ATOM     16  C   UNL A   1      35.706  23.971  25.179  1.00  0.00     0.138 C 
ATOM     17  C   UNL A   1      36.966  22.199  23.953  1.00  0.00     0.138 C 
ATOM     18  C   UNL A   1      36.520  23.646  26.455  1.00  0.00     0.138 C 
ATOM     19  C   UNL A   1      37.773  21.890  25.229  1.00  0.00     0.138 C 
BRANCH  15  20
ATOM     20  C   UNL A   1      34.484  22.282  23.842  1.00  0.00     0.040 A 
ATOM     21  C   UNL A   1      32.794  20.525  23.872  1.00  0.00     0.120 A 
ATOM     22  C   UNL A   1      32.089  21.185  22.868  1.00  0.00     0.046 A 
ATOM     23  C   UNL A   1      33.995  21.065  24.337  1.00  0.00     0.072 A 
ATOM     24  C   UNL A   1      32.551  22.402  22.372  1.00  0.00     0.006 A 
ATOM     25  C   UNL A   1      33.733  22.950  22.870  1.00  0.00     0.026 A 
BRANCH  21  26
ATOM     26  O   UNL A   1      32.255  19.339  24.291  1.00  0.00    -0.497 OA
ATOM     27  C   UNL A   1      32.142  18.334  23.289  1.00  0.00     0.278 C 
ENDBRANCH  21  26
ENDBRANCH  15  20
ENDBRANCH   9  14
BRANCH  13  28
ATOM     28  N   UNL A   1      42.633  24.990  28.369  1.00  0.00    -0.321 N 
ATOM     29  C   UNL A   1      43.058  26.225  28.815  1.00  0.00     0.255 C 
ATOM     30  H   UNL A   1      43.269  24.259  28.537  1.00  0.00     0.170 HD
ATOM     31  O   UNL A   1      44.211  26.381  29.210  1.00  0.00    -0.269 OA
BRANCH  29  32
ATOM     32  C   UNL A   1      42.122  27.366  28.901  1.00  0.00     0.040 A 
ATOM     33  C   UNL A   1      41.365  27.550  30.065  1.00  0.00     0.017 A 
ATOM     34  C   UNL A   1      42.047  28.290  27.848  1.00  0.00     0.017 A 
ATOM     35  C   UNL A   1      40.605  28.713  30.210  1.00  0.00     0.040 A 
ATOM     36  C   UNL A   1      41.294  29.453  28.003  1.00  0.00     0.040 A 
ATOM     37  C   UNL A   1      40.593  29.660  29.188  1.00  0.00     0.123 A 
ATOM     38  F   UNL A   1      39.904  30.797  29.350  1.00  0.00    -0.207 F 
ENDBRANCH  29  32
ENDBRANCH  13  28
ENDBRANCH   6   8
ENDBRANCH   5   6
ENDBRANCH   4   5
ENDBRANCH   3   4
ENDBRANCH   2   3
ENDBRANCH   1   2
BRANCH   1  39
ATOM     39  C   UNL A   1      47.575  27.445  23.903  1.00  0.00     0.188 C 
BRANCH  39  40
ATOM     40  O   UNL A   1      48.819  27.669  24.513  1.00  0.00    -0.376 OA
BRANCH  40  41
ATOM     41  C   UNL A   1      50.025  27.359  23.842  1.00  0.00     0.202 C 
BRANCH  41  42
ATOM     42  C   UNL A   1      51.355  26.933  24.499  1.00  0.00     0.261 C 
BRANCH  42  43
ATOM     43  O   UNL A   1      51.445  25.634  25.089  1.00  0.00    -0.460 OA
BRANCH  43  44
ATOM     44  C   UNL A   1      51.879  25.596  26.370  1.00  0.00     0.338 C 
ATOM     45  O   UNL A   1      53.018  25.380  26.764  1.00  0.00    -0.246 OA
BRANCH  44  46
ATOM     46  C   UNL A   1      50.787  26.030  27.258  1.00  0.00     0.060 A 
ATOM     47  C   UNL A   1      49.521  25.451  27.103  1.00  0.00     0.016 A 
ATOM     48  C   UNL A   1      51.004  27.021  28.215  1.00  0.00     0.016 A 
ATOM     49  C   UNL A   1      48.460  25.875  27.904  1.00  0.00     0.010 A 
ATOM     50  C   UNL A   1      49.934  27.458  29.002  1.00  0.00     0.010 A 
ATOM     51  C   UNL A   1      48.652  26.902  28.836  1.00  0.00    -0.014 A 
BRANCH  51  52
ATOM     52  C   UNL A   1      47.490  27.482  29.553  1.00  0.00     0.031 A 
ATOM     53  C   UNL A   1      46.839  28.719  29.011  1.00  0.00     0.074 A 
ATOM     54  C   UNL A   1      47.020  26.918  30.678  1.00  0.00     0.049 A 
ATOM     55  N   UNL A   1      45.848  29.420  29.501  1.00  0.00    -0.248 NA
ATOM     56  C   UNL A   1      47.384  29.240  27.750  1.00  0.00     0.031 C 
ATOM     57  C   UNL A   1      47.552  25.708  31.289  1.00  0.00     0.029 A 
ATOM     58  N   UNL A   1      45.992  27.295  31.506  1.00  0.00    -0.354 N 
ATOM     59  C   UNL A   1      45.668  30.479  28.624  1.00  0.00     0.074 A 
ATOM     60  C   UNL A   1      46.660  30.337  27.578  1.00  0.00     0.031 C 
ATOM     61  C   UNL A   1      46.849  25.438  32.402  1.00  0.00     0.029 A 
ATOM     62  C   UNL A   1      45.849  26.483  32.604  1.00  0.00     0.049 A 
ATOM     63  H   UNL A   1      45.413  28.072  31.330  1.00  0.00     0.167 HD
ATOM     64  C   UNL A   1      44.761  31.485  28.690  1.00  0.00     0.037 A 
ATOM     65  C   UNL A   1      45.027  26.585  33.667  1.00  0.00     0.037 A 
ATOM     66  C   UNL A   1      43.781  31.626  29.737  1.00  0.00     0.049 A 
ATOM     67  C   UNL A   1      44.055  27.732  33.742  1.00  0.00     0.074 A 
ATOM     68  C   UNL A   1      42.790  32.583  29.864  1.00  0.00     0.029 A 
ATOM     69  N   UNL A   1      43.682  30.800  30.847  1.00  0.00    -0.354 N 
ATOM     70  N   UNL A   1      43.857  28.707  32.887  1.00  0.00    -0.248 NA
ATOM     71  C   UNL A   1      43.193  27.796  34.931  1.00  0.00     0.031 C 
ATOM     72  C   UNL A   1      42.139  32.380  31.086  1.00  0.00     0.029 A 
ATOM     73  C   UNL A   1      42.674  31.252  31.688  1.00  0.00     0.049 A 
ATOM     74  H   UNL A   1      44.243  30.009  31.015  1.00  0.00     0.167 HD
ATOM     75  C   UNL A   1      42.848  29.494  33.427  1.00  0.00     0.074 A 
ATOM     76  C   UNL A   1      42.455  28.866  34.673  1.00  0.00     0.031 C 
ATOM     77  C   UNL A   1      42.299  30.632  32.936  1.00  0.00     0.037 A 
BRANCH  64  78
ATOM     78  C   UNL A   1      44.831  32.542  27.627  1.00  0.00     0.064 A 
ATOM     79  C   UNL A   1      45.569  33.723  27.796  1.00  0.00     0.173 A 
ATOM     80  C   UNL A   1      44.144  32.368  26.415  1.00  0.00     0.173 A 
ATOM     81  F   UNL A   1      46.233  33.948  28.940  1.00  0.00    -0.203 F 
ATOM     82  C   UNL A   1      45.584  34.707  26.808  1.00  0.00     0.198 A 
ATOM     83  C   UNL A   1      44.190  33.336  25.417  1.00  0.00     0.198 A 
ATOM     84  F   UNL A   1      43.426  31.255  26.198  1.00  0.00    -0.203 F 
ATOM     85  F   UNL A   1      46.242  35.855  27.020  1.00  0.00    -0.200 F 
ATOM     86  C   UNL A   1      44.898  34.510  25.619  1.00  0.00     0.200 A 
ATOM     87  F   UNL A   1      43.539  33.138  24.262  1.00  0.00    -0.200 F 
ATOM     88  F   UNL A   1      44.912  35.458  24.672  1.00  0.00    -0.200 F 
ENDBRANCH  64  78
BRANCH  65  89
ATOM     89  C   UNL A   1      45.116  25.580  34.759  1.00  0.00     0.064 A 
ATOM     90  C   UNL A   1      44.510  24.322  34.642  1.00  0.00     0.173 A 
ATOM     91  C   UNL A   1      45.824  25.855  35.940  1.00  0.00     0.173 A 
ATOM     92  F   UNL A   1      43.791  24.024  33.549  1.00  0.00    -0.203 F 
ATOM     93  C   UNL A   1      44.604  23.379  35.665  1.00  0.00     0.198 A 
ATOM     94  C   UNL A   1      45.943  24.902  36.948  1.00  0.00     0.198 A 
ATOM     95  F   UNL A   1      46.409  27.050  36.109  1.00  0.00    -0.203 F 
ATOM     96  F   UNL A   1      43.977  22.201  35.548  1.00  0.00    -0.200 F 
ATOM     97  C   UNL A   1      45.330  23.666  36.812  1.00  0.00     0.200 A 
ATOM     98  F   UNL A   1      46.648  25.182  38.053  1.00  0.00    -0.200 F 
ATOM     99  F   UNL A   1      45.425  22.757  37.791  1.00  0.00    -0.200 F 
ENDBRANCH  65  89
BRANCH  77 100
ATOM    100  C   UNL A   1      41.204  31.277  33.739  1.00  0.00     0.064 A 
ATOM    101  C   UNL A   1      41.472  32.279  34.684  1.00  0.00     0.173 A 
ATOM    102  C   UNL A   1      39.862  30.919  33.531  1.00  0.00     0.173 A 
ATOM    103  F   UNL A   1      42.737  32.652  34.932  1.00  0.00    -0.203 F 
ATOM    104  C   UNL A   1      40.443  32.879  35.406  1.00  0.00     0.198 A 
ATOM    105  C   UNL A   1      38.834  31.544  34.231  1.00  0.00     0.198 A 
ATOM    106  F   UNL A   1      39.547  29.972  32.634  1.00  0.00    -0.203 F 
ATOM    107  F   UNL A   1      40.729  33.799  36.339  1.00  0.00    -0.200 F 
ATOM    108  C   UNL A   1      39.125  32.517  35.174  1.00  0.00     0.200 A 
ATOM    109  F   UNL A   1      37.560  31.204  33.991  1.00  0.00    -0.200 F 
ATOM    110  F   UNL A   1      38.136  33.101  35.863  1.00  0.00    -0.200 F 
ENDBRANCH  77 100
ENDBRANCH  51  52
ENDBRANCH  44  46
ENDBRANCH  43  44
ENDBRANCH  42  43
ENDBRANCH  41  42
ENDBRANCH  40  41
ENDBRANCH  39  40
ENDBRANCH   1  39
TORSDOF 22
ENDMDL
MODEL 3
REMARK VINA RESULT:      -9.4      4.121      8.923
REMARK SMILES COc1cccc(N2CCN(c3ccc(NC(=O)c4ccc(F)cc4)c(C(=O)OCCOCCOCCOC(=O)c4ccc(-c5c6nc(c(-c7c(F)c(F)c(F)c(F)c7F)c7ccc([nH]7)c(-c7c(F)c(F)c(F)c(F)c7F)c7nc(c(-c8c(F)c(F)c(F)c(F)c8F)c8ccc5[nH]8)C=C7)C=C6)cc4)c3)CC2)c1
REMARK SMILES IDX 33 1 32 2 31 3 30 4 29 5 27 6 28 7 26 8 12 9 13 10 104 11
REMARK SMILES IDX 14 12 15 13 11 14 8 15 9 16 106 17 10 18 105 19 7 20 3 21
REMARK SMILES IDX 4 22 107 23 5 24 6 25 2 26 1 27 16 28 17 29 18 31 19 32
REMARK SMILES IDX 20 33 25 34 21 35 24 36 22 37 23 38 34 39 35 40 36 41 37 42
REMARK SMILES IDX 38 43 39 44 40 45 41 46 42 47 103 48 43 49 102 50 44 51
REMARK SMILES IDX 45 52 46 53 96 54 47 55 101 56 95 57 97 58 48 59 100 60
REMARK SMILES IDX 94 61 93 62 49 64 81 65 61 66 80 67 62 68 65 69 79 70 98 71
REMARK SMILES IDX 63 72 64 73 78 75 99 76 66 77 50 78 51 79 59 80 52 81 53 82
REMARK SMILES IDX 57 83 60 84 54 85 55 86 58 87 56 88 82 89 83 90 91 91 84 92
REMARK SMILES IDX 85 93 89 94 92 95 86 96 87 97 90 98 88 99 67 100 68 101
REMARK SMILES IDX 76 102 69 103 70 104 74 105 77 106 71 107 72 108 75 109
REMARK SMILES IDX 73 110
REMARK H PARENT 16 30 97 63 65 74
REMARK Flexibility Score: inf
ROOT
ATOM      1  C   UNL A   1      43.392  26.898  33.898  1.00  0.00     0.188 C 
ENDROOT
BRANCH   1   2
ATOM      2  O   UNL A   1      42.068  27.209  34.292  1.00  0.00    -0.376 OA
BRANCH   2   3
ATOM      3  C   UNL A   1      41.599  28.545  34.207  1.00  0.00     0.202 C 
BRANCH   3   4
ATOM      4  C   UNL A   1      40.347  28.900  33.387  1.00  0.00     0.261 C 
BRANCH   4   5
ATOM      5  O   UNL A   1      39.613  27.776  32.873  1.00  0.00    -0.460 OA
BRANCH   5   6
ATOM      6  C   UNL A   1      38.344  28.025  32.455  1.00  0.00     0.340 C 
ATOM      7  O   UNL A   1      37.398  28.362  33.150  1.00  0.00    -0.246 OA
BRANCH   6   8
ATOM      8  C   UNL A   1      38.325  28.091  30.975  1.00  0.00     0.085 A 
ATOM      9  C   UNL A   1      39.239  27.294  28.844  1.00  0.00     0.038 A 
ATOM     10  C   UNL A   1      38.601  28.376  28.238  1.00  0.00     0.028 A 
ATOM     11  C   UNL A   1      39.123  27.198  30.238  1.00  0.00     0.043 A 
ATOM     12  C   UNL A   1      37.826  29.280  28.964  1.00  0.00     0.029 A 
ATOM     13  C   UNL A   1      37.587  29.095  30.323  1.00  0.00     0.056 A 
BRANCH   9  14
ATOM     14  N   UNL A   1      39.968  26.396  28.106  1.00  0.00    -0.368 N 
ATOM     15  N   UNL A   1      41.343  23.980  27.576  1.00  0.00    -0.368 N 
ATOM     16  C   UNL A   1      41.990  24.986  28.424  1.00  0.00     0.138 C 
ATOM     17  C   UNL A   1      39.875  23.985  27.551  1.00  0.00     0.138 C 
ATOM     18  C   UNL A   1      41.447  26.394  28.080  1.00  0.00     0.138 C 
ATOM     19  C   UNL A   1      39.345  25.394  27.220  1.00  0.00     0.138 C 
BRANCH  15  20
ATOM     20  C   UNL A   1      42.080  23.102  26.819  1.00  0.00     0.040 A 
ATOM     21  C   UNL A   1      42.690  20.817  26.222  1.00  0.00     0.120 A 
ATOM     22  C   UNL A   1      43.634  21.305  25.320  1.00  0.00     0.046 A 
ATOM     23  C   UNL A   1      41.936  21.716  26.980  1.00  0.00     0.072 A 
ATOM     24  C   UNL A   1      43.783  22.678  25.136  1.00  0.00     0.006 A 
ATOM     25  C   UNL A   1      42.998  23.565  25.871  1.00  0.00     0.026 A 
BRANCH  21  26
ATOM     26  O   UNL A   1      42.622  19.454  26.327  1.00  0.00    -0.497 OA
ATOM     27  C   UNL A   1      43.509  18.733  25.478  1.00  0.00     0.278 C 
ENDBRANCH  21  26
ENDBRANCH  15  20
ENDBRANCH   9  14
BRANCH  13  28
ATOM     28  N   UNL A   1      36.670  29.902  31.042  1.00  0.00    -0.321 N 
ATOM     29  C   UNL A   1      36.690  31.245  31.362  1.00  0.00     0.255 C 
ATOM     30  H   UNL A   1      35.880  29.419  31.373  1.00  0.00     0.170 HD
ATOM     31  O   UNL A   1      35.869  31.709  32.148  1.00  0.00    -0.269 OA
BRANCH  29  32
ATOM     32  C   UNL A   1      37.646  32.166  30.712  1.00  0.00     0.040 A 
ATOM     33  C   UNL A   1      37.231  32.924  29.609  1.00  0.00     0.017 A 
ATOM     34  C   UNL A   1      38.934  32.326  31.243  1.00  0.00     0.017 A 
ATOM     35  C   UNL A   1      38.078  33.910  29.099  1.00  0.00     0.040 A 
ATOM     36  C   UNL A   1      39.772  33.318  30.734  1.00  0.00     0.040 A 
ATOM     37  C   UNL A   1      39.330  34.109  29.677  1.00  0.00     0.123 A 
ATOM     38  F   UNL A   1      40.120  35.089  29.218  1.00  0.00    -0.207 F 
ENDBRANCH  29  32
ENDBRANCH  13  28
ENDBRANCH   6   8
ENDBRANCH   5   6
ENDBRANCH   4   5
ENDBRANCH   3   4
ENDBRANCH   2   3
ENDBRANCH   1   2
BRANCH   1  39
ATOM     39  C   UNL A   1      43.907  27.289  32.497  1.00  0.00     0.188 C 
BRANCH  39  40
ATOM     40  O   UNL A   1      43.760  26.351  31.462  1.00  0.00    -0.376 OA
BRANCH  40  41
ATOM     41  C   UNL A   1      44.753  25.373  31.220  1.00  0.00     0.202 C 
BRANCH  41  42
ATOM     42  C   UNL A   1      45.492  25.129  29.888  1.00  0.00     0.261 C 
BRANCH  42  43
ATOM     43  O   UNL A   1      45.155  25.936  28.757  1.00  0.00    -0.460 OA
BRANCH  43  44
ATOM     44  C   UNL A   1      46.080  26.852  28.388  1.00  0.00     0.338 C 
ATOM     45  O   UNL A   1      46.988  26.709  27.580  1.00  0.00    -0.246 OA
BRANCH  44  46
ATOM     46  C   UNL A   1      45.732  28.150  28.990  1.00  0.00     0.060 A 
ATOM     47  C   UNL A   1      44.658  28.876  28.458  1.00  0.00     0.016 A 
ATOM     48  C   UNL A   1      46.478  28.661  30.052  1.00  0.00     0.016 A 
ATOM     49  C   UNL A   1      44.334  30.126  28.985  1.00  0.00     0.010 A 
ATOM     50  C   UNL A   1      46.164  29.924  30.564  1.00  0.00     0.010 A 
ATOM     51  C   UNL A   1      45.104  30.671  30.019  1.00  0.00    -0.014 A 
BRANCH  51  52
ATOM     52  C   UNL A   1      44.882  32.073  30.452  1.00  0.00     0.031 A 
ATOM     53  C   UNL A   1      45.644  33.176  29.781  1.00  0.00     0.074 A 
ATOM     54  C   UNL A   1      44.014  32.364  31.435  1.00  0.00     0.049 A 
ATOM     55  N   UNL A   1      45.644  34.460  30.032  1.00  0.00    -0.248 NA
ATOM     56  C   UNL A   1      46.533  32.775  28.682  1.00  0.00     0.031 C 
ATOM     57  C   UNL A   1      43.202  31.386  32.147  1.00  0.00     0.029 A 
ATOM     58  N   UNL A   1      43.679  33.566  32.007  1.00  0.00    -0.354 N 
ATOM     59  C   UNL A   1      46.550  35.018  29.143  1.00  0.00     0.074 A 
ATOM     60  C   UNL A   1      47.091  33.931  28.353  1.00  0.00     0.031 C 
ATOM     61  C   UNL A   1      42.459  32.024  33.066  1.00  0.00     0.029 A 
ATOM     62  C   UNL A   1      42.780  33.449  33.039  1.00  0.00     0.049 A 
ATOM     63  H   UNL A   1      44.045  34.429  31.706  1.00  0.00     0.167 HD
ATOM     64  C   UNL A   1      46.903  36.319  29.003  1.00  0.00     0.037 A 
ATOM     65  C   UNL A   1      42.292  34.378  33.884  1.00  0.00     0.037 A 
ATOM     66  C   UNL A   1      46.367  37.395  29.796  1.00  0.00     0.049 A 
ATOM     67  C   UNL A   1      42.728  35.812  33.738  1.00  0.00     0.074 A 
ATOM     68  C   UNL A   1      46.628  38.751  29.697  1.00  0.00     0.029 A 
ATOM     69  N   UNL A   1      45.478  37.238  30.850  1.00  0.00    -0.354 N 
ATOM     70  N   UNL A   1      43.552  36.342  32.866  1.00  0.00    -0.248 NA
ATOM     71  C   UNL A   1      42.172  36.776  34.697  1.00  0.00     0.031 C 
ATOM     72  C   UNL A   1      45.954  39.405  30.735  1.00  0.00     0.029 A 
ATOM     73  C   UNL A   1      45.214  38.467  31.438  1.00  0.00     0.049 A 
ATOM     74  H   UNL A   1      45.091  36.380  31.139  1.00  0.00     0.167 HD
ATOM     75  C   UNL A   1      43.607  37.698  33.162  1.00  0.00     0.074 A 
ATOM     76  C   UNL A   1      42.711  37.914  34.281  1.00  0.00     0.031 C 
ATOM     77  C   UNL A   1      44.335  38.673  32.563  1.00  0.00     0.037 A 
BRANCH  64  78
ATOM     78  C   UNL A   1      47.965  36.636  27.990  1.00  0.00     0.064 A 
ATOM     79  C   UNL A   1      47.658  37.166  26.728  1.00  0.00     0.173 A 
ATOM     80  C   UNL A   1      49.316  36.406  28.291  1.00  0.00     0.173 A 
ATOM     81  F   UNL A   1      46.381  37.393  26.382  1.00  0.00    -0.203 F 
ATOM     82  C   UNL A   1      48.660  37.413  25.791  1.00  0.00     0.198 A 
ATOM     83  C   UNL A   1      50.317  36.687  27.367  1.00  0.00     0.198 A 
ATOM     84  F   UNL A   1      49.667  35.905  29.486  1.00  0.00    -0.203 F 
ATOM     85  F   UNL A   1      48.336  37.857  24.569  1.00  0.00    -0.200 F 
ATOM     86  C   UNL A   1      49.988  37.178  26.113  1.00  0.00     0.200 A 
ATOM     87  F   UNL A   1      51.601  36.472  27.686  1.00  0.00    -0.200 F 
ATOM     88  F   UNL A   1      50.950  37.415  25.211  1.00  0.00    -0.200 F 
ENDBRANCH  64  78
BRANCH  65  89
ATOM     89  C   UNL A   1      41.356  33.965  34.962  1.00  0.00     0.064 A 
ATOM     90  C   UNL A   1      39.969  34.100  34.812  1.00  0.00     0.173 A 
ATOM     91  C   UNL A   1      41.831  33.414  36.162  1.00  0.00     0.173 A 
ATOM     92  F   UNL A   1      39.465  34.655  33.700  1.00  0.00    -0.203 F 
ATOM     93  C   UNL A   1      39.094  33.702  35.823  1.00  0.00     0.198 A 
ATOM     94  C   UNL A   1      40.955  32.990  37.158  1.00  0.00     0.198 A 
ATOM     95  F   UNL A   1      43.150  33.279  36.362  1.00  0.00    -0.203 F 
ATOM     96  F   UNL A   1      37.775  33.884  35.674  1.00  0.00    -0.200 F 
ATOM     97  C   UNL A   1      39.588  33.137  36.989  1.00  0.00     0.200 A 
ATOM     98  F   UNL A   1      41.436  32.441  38.282  1.00  0.00    -0.200 F 
ATOM     99  F   UNL A   1      38.745  32.751  37.957  1.00  0.00    -0.200 F 
ENDBRANCH  65  89
BRANCH  77 100
ATOM    100  C   UNL A   1      44.190  40.071  33.095  1.00  0.00     0.064 A 
ATOM    101  C   UNL A   1      43.212  40.950  32.606  1.00  0.00     0.173 A 
ATOM    102  C   UNL A   1      45.012  40.526  34.138  1.00  0.00     0.173 A 
ATOM    103  F   UNL A   1      42.407  40.573  31.601  1.00  0.00    -0.203 F 
ATOM    104  C   UNL A   1      43.079  42.237  33.122  1.00  0.00     0.198 A 
ATOM    105  C   UNL A   1      44.855  41.801  34.675  1.00  0.00     0.198 A 
ATOM    106  F   UNL A   1      45.959  39.726  34.650  1.00  0.00    -0.203 F 
ATOM    107  F   UNL A   1      42.170  43.076  32.604  1.00  0.00    -0.200 F 
ATOM    108  C   UNL A   1      43.895  42.658  34.161  1.00  0.00     0.200 A 
ATOM    109  F   UNL A   1      45.633  42.199  35.691  1.00  0.00    -0.200 F 
ATOM    110  F   UNL A   1      43.760  43.893  34.664  1.00  0.00    -0.200 F 
ENDBRANCH  77 100
ENDBRANCH  51  52
ENDBRANCH  44  46
ENDBRANCH  43  44
ENDBRANCH  42  43
ENDBRANCH  41  42
ENDBRANCH  40  41
ENDBRANCH  39  40
ENDBRANCH   1  39
TORSDOF 22
ENDMDL
