MODEL 1
REMARK VINA RESULT:     -13.1      0.000      0.000
REMARK SMILES Cc1ccc(/[NH+]=C2/S[C@@H](CC(=O)Nc3ccc(C(=O)OCCOCCOCCOC(=O)c4ccc(-c5c6nc(c(-c7c(F)c(F)c(F)c(F)c7F)c7ccc([nH]7)c(-c7c(F)c(F)c(F)c(F)c7F)c7nc(c(-c8c(F)c(F)c(F)c(F)c8F)c8ccc5[nH]8)C=C7)C=C6)cc4)cc3)C(=O)N2C)cc1
REMARK SMILES IDX 24 1 23 2 22 3 21 4 20 5 18 6 19 7 17 8 14 9 15 10 96 11
REMARK SMILES IDX 16 12 95 13 13 14 11 15 12 16 10 18 9 19 6 20 7 21 8 23
REMARK SMILES IDX 99 24 97 25 100 26 98 27 5 28 1 29 2 30 3 31 102 32 4 33
REMARK SMILES IDX 101 34 25 35 26 36 27 37 28 38 29 39 30 40 31 41 32 42 33 43
REMARK SMILES IDX 94 44 34 45 93 46 35 47 36 48 37 49 87 50 38 51 92 52 86 53
REMARK SMILES IDX 88 54 39 55 91 56 85 57 84 58 40 60 72 61 52 62 71 63 53 64
REMARK SMILES IDX 56 65 70 66 89 67 54 68 55 69 69 71 90 72 57 73 41 74 42 75
REMARK SMILES IDX 50 76 43 77 44 78 48 79 51 80 45 81 46 82 49 83 47 84 73 85
REMARK SMILES IDX 74 86 82 87 75 88 76 89 80 90 83 91 77 92 78 93 81 94 79 95
REMARK SMILES IDX 58 96 59 97 67 98 60 99 61 100 65 101 68 102 62 103 63 104
REMARK SMILES IDX 66 105 64 106
REMARK H PARENT 13 17 6 22 88 59 56 70
REMARK Flexibility Score: inf
ROOT
ATOM      1  C   UNL A   1      34.228  34.695  28.118  1.00  0.00     0.188 C 
ENDROOT
BRANCH   1   2
ATOM      2  O   UNL A   1      34.784  33.466  27.639  1.00  0.00    -0.376 OA
BRANCH   2   3
ATOM      3  C   UNL A   1      34.178  32.217  28.002  1.00  0.00     0.202 C 
BRANCH   3   4
ATOM      4  C   UNL A   1      34.294  30.774  27.247  1.00  0.00     0.261 C 
BRANCH   4   5
ATOM      5  O   UNL A   1      33.450  30.132  26.165  1.00  0.00    -0.460 OA
BRANCH   5   6
ATOM      6  C   UNL A   1      32.618  29.188  26.681  1.00  0.00     0.338 C 
ATOM      7  O   UNL A   1      31.624  29.739  27.124  1.00  0.00    -0.246 OA
BRANCH   6   8
ATOM      8  C   UNL A   1      32.800  27.434  26.568  1.00  0.00     0.060 A 
ATOM      9  C   UNL A   1      33.171  24.586  25.954  1.00  0.00     0.041 A 
ATOM     10  C   UNL A   1      34.087  25.630  25.852  1.00  0.00     0.027 A 
ATOM     11  C   UNL A   1      31.991  24.920  26.498  1.00  0.00     0.027 A 
ATOM     12  C   UNL A   1      33.975  26.999  26.124  1.00  0.00     0.018 A 
ATOM     13  C   UNL A   1      31.859  26.279  26.827  1.00  0.00     0.018 A 
BRANCH   9  14
ATOM     14  N   UNL A   1      33.429  23.287  25.496  1.00  0.00    -0.326 N 
ATOM     15  C   UNL A   1      33.512  22.837  24.198  1.00  0.00     0.226 C 
ATOM     16  O   UNL A   1      33.490  21.624  23.979  1.00  0.00    -0.275 OA
ATOM     17  H   UNL A   1      33.570  22.608  26.195  1.00  0.00     0.169 HD
BRANCH  15  18
ATOM     18  C   UNL A   1      33.803  23.828  23.068  1.00  0.00     0.128 C 
BRANCH  18  19
ATOM     19  C   UNL A   1      32.628  24.281  22.148  1.00  0.00     0.183 C 
ATOM     20  N   UNL A   1      31.475  28.002  22.120  1.00  0.00    -0.235 N 
ATOM     21  C   UNL A   1      31.526  26.715  22.242  1.00  0.00     0.319 C 
ATOM     22  H   UNL A   1      32.243  28.359  21.617  1.00  0.00     0.313 HD
ATOM     23  S   UNL A   1      32.937  25.956  21.462  1.00  0.00    -0.022 SA
ATOM     24  N   UNL A   1      30.787  25.741  22.885  1.00  0.00    -0.193 N 
ATOM     25  C   UNL A   1      31.223  24.406  22.758  1.00  0.00     0.324 C 
ATOM     26  C   UNL A   1      29.757  25.952  23.900  1.00  0.00     0.301 C 
ATOM     27  O   UNL A   1      30.606  23.443  23.201  1.00  0.00    -0.245 OA
BRANCH  20  28
ATOM     28  C   UNL A   1      30.592  29.013  22.530  1.00  0.00     0.125 A 
ATOM     29  C   UNL A   1      27.656  32.069  23.567  1.00  0.00     0.044 C 
ATOM     30  C   UNL A   1      28.662  31.028  23.172  1.00  0.00    -0.051 A 
ATOM     31  C   UNL A   1      28.588  30.338  21.963  1.00  0.00     0.008 A 
ATOM     32  C   UNL A   1      29.659  30.664  24.073  1.00  0.00     0.008 A 
ATOM     33  C   UNL A   1      29.561  29.369  21.640  1.00  0.00     0.052 A 
ATOM     34  C   UNL A   1      30.554  29.626  23.775  1.00  0.00     0.052 A 
ENDBRANCH  20  28
ENDBRANCH  18  19
ENDBRANCH  15  18
ENDBRANCH   9  14
ENDBRANCH   6   8
ENDBRANCH   5   6
ENDBRANCH   4   5
ENDBRANCH   3   4
ENDBRANCH   2   3
ENDBRANCH   1   2
BRANCH   1  35
ATOM     35  C   UNL A   1      32.849  34.709  28.755  1.00  0.00     0.188 C 
BRANCH  35  36
ATOM     36  O   UNL A   1      32.547  36.034  29.177  1.00  0.00    -0.376 OA
BRANCH  36  37
ATOM     37  C   UNL A   1      33.289  36.463  30.309  1.00  0.00     0.202 C 
BRANCH  37  38
ATOM     38  C   UNL A   1      32.539  36.201  31.622  1.00  0.00     0.261 C 
BRANCH  38  39
ATOM     39  O   UNL A   1      32.983  34.953  32.205  1.00  0.00    -0.460 OA
BRANCH  39  40
ATOM     40  C   UNL A   1      34.239  34.957  32.794  1.00  0.00     0.338 C 
ATOM     41  O   UNL A   1      34.771  35.909  33.268  1.00  0.00    -0.246 OA
BRANCH  40  42
ATOM     42  C   UNL A   1      34.926  33.648  32.488  1.00  0.00     0.060 A 
ATOM     43  C   UNL A   1      35.447  32.743  33.424  1.00  0.00     0.016 A 
ATOM     44  C   UNL A   1      35.350  33.463  31.226  1.00  0.00     0.016 A 
ATOM     45  C   UNL A   1      36.635  31.927  33.155  1.00  0.00     0.010 A 
ATOM     46  C   UNL A   1      36.537  32.750  31.058  1.00  0.00     0.010 A 
ATOM     47  C   UNL A   1      37.390  32.021  31.991  1.00  0.00    -0.014 A 
BRANCH  47  48
ATOM     48  C   UNL A   1      39.078  31.376  31.825  1.00  0.00     0.031 A 
ATOM     49  C   UNL A   1      39.793  30.002  30.892  1.00  0.00     0.074 A 
ATOM     50  C   UNL A   1      40.056  32.217  32.180  1.00  0.00     0.049 A 
ATOM     51  N   UNL A   1      39.995  28.726  31.224  1.00  0.00    -0.248 NA
ATOM     52  C   UNL A   1      40.115  30.085  29.402  1.00  0.00     0.031 C 
ATOM     53  C   UNL A   1      41.457  32.133  31.807  1.00  0.00     0.029 A 
ATOM     54  N   UNL A   1      39.995  33.235  33.122  1.00  0.00    -0.354 N 
ATOM     55  C   UNL A   1      40.285  28.011  29.993  1.00  0.00     0.074 A 
ATOM     56  C   UNL A   1      39.768  28.868  28.969  1.00  0.00     0.031 C 
ATOM     57  C   UNL A   1      42.165  32.772  32.751  1.00  0.00     0.029 A 
ATOM     58  C   UNL A   1      41.231  33.141  33.802  1.00  0.00     0.049 A 
ATOM     59  H   UNL A   1      39.263  33.874  33.279  1.00  0.00     0.167 HD
ATOM     60  C   UNL A   1      41.508  27.507  29.554  1.00  0.00     0.037 A 
ATOM     61  C   UNL A   1      41.197  32.637  35.073  1.00  0.00     0.037 A 
ATOM     62  C   UNL A   1      42.562  28.152  30.283  1.00  0.00     0.049 A 
ATOM     63  C   UNL A   1      41.827  31.250  35.176  1.00  0.00     0.074 A 
ATOM     64  C   UNL A   1      43.394  29.243  30.125  1.00  0.00     0.029 A 
ATOM     65  N   UNL A   1      42.555  27.864  31.597  1.00  0.00    -0.354 N 
ATOM     66  N   UNL A   1      42.354  30.594  34.172  1.00  0.00    -0.248 NA
ATOM     67  C   UNL A   1      41.885  30.470  36.414  1.00  0.00     0.031 C 
ATOM     68  C   UNL A   1      43.860  29.601  31.439  1.00  0.00     0.029 A 
ATOM     69  C   UNL A   1      43.328  28.693  32.341  1.00  0.00     0.049 A 
ATOM     70  H   UNL A   1      42.035  27.122  31.984  1.00  0.00     0.167 HD
ATOM     71  C   UNL A   1      42.754  29.351  34.584  1.00  0.00     0.074 A 
ATOM     72  C   UNL A   1      42.452  29.323  35.998  1.00  0.00     0.031 C 
ATOM     73  C   UNL A   1      43.259  28.398  33.752  1.00  0.00     0.037 A 
BRANCH  60  74
ATOM     74  C   UNL A   1      41.737  26.867  28.164  1.00  0.00     0.064 A 
ATOM     75  C   UNL A   1      41.597  25.476  27.951  1.00  0.00     0.173 A 
ATOM     76  C   UNL A   1      42.098  27.604  27.012  1.00  0.00     0.173 A 
ATOM     77  F   UNL A   1      41.167  24.665  28.927  1.00  0.00    -0.203 F 
ATOM     78  C   UNL A   1      41.890  24.864  26.724  1.00  0.00     0.198 A 
ATOM     79  C   UNL A   1      42.420  26.985  25.789  1.00  0.00     0.198 A 
ATOM     80  F   UNL A   1      42.171  28.943  27.054  1.00  0.00    -0.203 F 
ATOM     81  F   UNL A   1      41.756  23.536  26.592  1.00  0.00    -0.200 F 
ATOM     82  C   UNL A   1      42.328  25.614  25.651  1.00  0.00     0.200 A 
ATOM     83  F   UNL A   1      42.841  27.723  24.750  1.00  0.00    -0.200 F 
ATOM     84  F   UNL A   1      42.646  25.018  24.491  1.00  0.00    -0.200 F 
ENDBRANCH  60  74
BRANCH  61  85
ATOM     85  C   UNL A   1      40.019  33.210  35.826  1.00  0.00     0.064 A 
ATOM     86  C   UNL A   1      38.977  32.297  36.147  1.00  0.00     0.173 A 
ATOM     87  C   UNL A   1      40.067  34.388  36.580  1.00  0.00     0.173 A 
ATOM     88  F   UNL A   1      38.857  31.150  35.455  1.00  0.00    -0.203 F 
ATOM     89  C   UNL A   1      38.189  32.444  37.287  1.00  0.00     0.198 A 
ATOM     90  C   UNL A   1      39.198  34.579  37.671  1.00  0.00     0.198 A 
ATOM     91  F   UNL A   1      41.052  35.277  36.396  1.00  0.00    -0.203 F 
ATOM     92  F   UNL A   1      37.412  31.431  37.698  1.00  0.00    -0.200 F 
ATOM     93  C   UNL A   1      38.309  33.581  38.057  1.00  0.00     0.200 A 
ATOM     94  F   UNL A   1      39.371  35.638  38.479  1.00  0.00    -0.200 F 
ATOM     95  F   UNL A   1      37.655  33.669  39.226  1.00  0.00    -0.200 F 
ENDBRANCH  61  85
BRANCH  73  96
ATOM     96  C   UNL A   1      43.625  26.995  34.195  1.00  0.00     0.064 A 
ATOM     97  C   UNL A   1      44.935  26.538  34.061  1.00  0.00     0.173 A 
ATOM     98  C   UNL A   1      42.672  26.020  34.602  1.00  0.00     0.173 A 
ATOM     99  F   UNL A   1      45.904  27.376  33.666  1.00  0.00    -0.203 F 
ATOM    100  C   UNL A   1      45.269  25.207  34.322  1.00  0.00     0.198 A 
ATOM    101  C   UNL A   1      42.987  24.677  34.762  1.00  0.00     0.198 A 
ATOM    102  F   UNL A   1      41.403  26.336  34.902  1.00  0.00    -0.203 F 
ATOM    103  F   UNL A   1      46.551  24.827  34.257  1.00  0.00    -0.200 F 
ATOM    104  C   UNL A   1      44.295  24.274  34.641  1.00  0.00     0.200 A 
ATOM    105  F   UNL A   1      42.019  23.794  35.046  1.00  0.00    -0.200 F 
ATOM    106  F   UNL A   1      44.619  22.992  34.858  1.00  0.00    -0.200 F 
ENDBRANCH  73  96
ENDBRANCH  47  48
ENDBRANCH  40  42
ENDBRANCH  39  40
ENDBRANCH  38  39
ENDBRANCH  37  38
ENDBRANCH  36  37
ENDBRANCH  35  36
ENDBRANCH   1  35
TORSDOF 21
ENDMDL
MODEL 2
REMARK VINA RESULT:     -11.4      4.871     11.252
REMARK SMILES Cc1ccc(/[NH+]=C2/S[C@@H](CC(=O)Nc3ccc(C(=O)OCCOCCOCCOC(=O)c4ccc(-c5c6nc(c(-c7c(F)c(F)c(F)c(F)c7F)c7ccc([nH]7)c(-c7c(F)c(F)c(F)c(F)c7F)c7nc(c(-c8c(F)c(F)c(F)c(F)c8F)c8ccc5[nH]8)C=C7)C=C6)cc4)cc3)C(=O)N2C)cc1
REMARK SMILES IDX 24 1 23 2 22 3 21 4 20 5 18 6 19 7 17 8 14 9 15 10 96 11
REMARK SMILES IDX 16 12 95 13 13 14 11 15 12 16 10 18 9 19 6 20 7 21 8 23
REMARK SMILES IDX 99 24 97 25 100 26 98 27 5 28 1 29 2 30 3 31 102 32 4 33
REMARK SMILES IDX 101 34 25 35 26 36 27 37 28 38 29 39 30 40 31 41 32 42 33 43
REMARK SMILES IDX 94 44 34 45 93 46 35 47 36 48 37 49 87 50 38 51 92 52 86 53
REMARK SMILES IDX 88 54 39 55 91 56 85 57 84 58 40 60 72 61 52 62 71 63 53 64
REMARK SMILES IDX 56 65 70 66 89 67 54 68 55 69 69 71 90 72 57 73 41 74 42 75
REMARK SMILES IDX 50 76 43 77 44 78 48 79 51 80 45 81 46 82 49 83 47 84 73 85
REMARK SMILES IDX 74 86 82 87 75 88 76 89 80 90 83 91 77 92 78 93 81 94 79 95
REMARK SMILES IDX 58 96 59 97 67 98 60 99 61 100 65 101 68 102 62 103 63 104
REMARK SMILES IDX 66 105 64 106
REMARK H PARENT 13 17 6 22 88 59 56 70
REMARK Flexibility Score: inf
ROOT
ATOM      1  C   UNL A   1      41.153  20.026  27.387  1.00  0.00     0.188 C 
ENDROOT
BRANCH   1   2
ATOM      2  O   UNL A   1      41.711  21.334  27.231  1.00  0.00    -0.376 OA
BRANCH   2   3
ATOM      3  C   UNL A   1      41.033  22.311  26.428  1.00  0.00     0.202 C 
BRANCH   3   4
ATOM      4  C   UNL A   1      39.541  22.228  25.770  1.00  0.00     0.261 C 
BRANCH   4   5
ATOM      5  O   UNL A   1      38.302  21.459  26.177  1.00  0.00    -0.460 OA
BRANCH   5   6
ATOM      6  C   UNL A   1      37.566  21.094  25.093  1.00  0.00     0.338 C 
ATOM      7  O   UNL A   1      38.028  20.065  24.631  1.00  0.00    -0.246 OA
BRANCH   6   8
ATOM      8  C   UNL A   1      36.063  21.835  24.531  1.00  0.00     0.060 A 
ATOM      9  C   UNL A   1      33.462  22.665  23.451  1.00  0.00     0.041 A 
ATOM     10  C   UNL A   1      33.735  21.778  24.488  1.00  0.00     0.027 A 
ATOM     11  C   UNL A   1      34.534  23.294  22.946  1.00  0.00     0.027 A 
ATOM     12  C   UNL A   1      34.943  21.340  25.046  1.00  0.00     0.018 A 
ATOM     13  C   UNL A   1      35.761  22.913  23.515  1.00  0.00     0.018 A 
BRANCH   9  14
ATOM     14  N   UNL A   1      32.176  22.873  22.934  1.00  0.00    -0.326 N 
ATOM     15  C   UNL A   1      31.293  23.891  23.215  1.00  0.00     0.226 C 
ATOM     16  O   UNL A   1      30.115  23.779  22.869  1.00  0.00    -0.275 OA
ATOM     17  H   UNL A   1      31.864  22.204  22.283  1.00  0.00     0.169 HD
BRANCH  15  18
ATOM     18  C   UNL A   1      31.815  25.210  23.791  1.00  0.00     0.128 C 
BRANCH  18  19
ATOM     19  C   UNL A   1      30.818  26.145  24.543  1.00  0.00     0.183 C 
ATOM     20  N   UNL A   1      31.744  29.869  25.216  1.00  0.00    -0.235 N 
ATOM     21  C   UNL A   1      31.429  28.621  25.346  1.00  0.00     0.319 C 
ATOM     22  H   UNL A   1      31.626  30.188  24.292  1.00  0.00     0.313 HD
ATOM     23  S   UNL A   1      30.859  27.844  23.848  1.00  0.00    -0.022 SA
ATOM     24  N   UNL A   1      31.471  27.679  26.355  1.00  0.00    -0.193 N 
ATOM     25  C   UNL A   1      31.021  26.378  26.048  1.00  0.00     0.324 C 
ATOM     26  C   UNL A   1      32.170  27.796  27.634  1.00  0.00     0.301 C 
ATOM     27  O   UNL A   1      30.920  25.479  26.876  1.00  0.00    -0.245 OA
BRANCH  20  28
ATOM     28  C   UNL A   1      32.214  30.878  26.071  1.00  0.00     0.125 A 
ATOM     29  C   UNL A   1      33.384  34.141  28.720  1.00  0.00     0.044 C 
ATOM     30  C   UNL A   1      32.963  33.045  27.785  1.00  0.00    -0.051 A 
ATOM     31  C   UNL A   1      31.754  33.078  27.092  1.00  0.00     0.008 A 
ATOM     32  C   UNL A   1      33.756  31.907  27.665  1.00  0.00     0.008 A 
ATOM     33  C   UNL A   1      31.407  32.022  26.224  1.00  0.00     0.052 A 
ATOM     34  C   UNL A   1      33.342  30.823  26.877  1.00  0.00     0.052 A 
ENDBRANCH  20  28
ENDBRANCH  18  19
ENDBRANCH  15  18
ENDBRANCH   9  14
ENDBRANCH   6   8
ENDBRANCH   5   6
ENDBRANCH   4   5
ENDBRANCH   3   4
ENDBRANCH   2   3
ENDBRANCH   1   2
BRANCH   1  35
ATOM     35  C   UNL A   1      41.976  18.800  27.031  1.00  0.00     0.188 C 
BRANCH  35  36
ATOM     36  O   UNL A   1      43.104  19.207  26.264  1.00  0.00    -0.376 OA
BRANCH  36  37
ATOM     37  C   UNL A   1      44.090  18.198  26.107  1.00  0.00     0.202 C 
BRANCH  37  38
ATOM     38  C   UNL A   1      45.355  18.730  25.420  1.00  0.00     0.261 C 
BRANCH  38  39
ATOM     39  O   UNL A   1      45.297  20.174  25.327  1.00  0.00    -0.460 OA
BRANCH  39  40
ATOM     40  C   UNL A   1      44.889  20.699  24.110  1.00  0.00     0.338 C 
ATOM     41  O   UNL A   1      44.711  20.071  23.116  1.00  0.00    -0.246 OA
BRANCH  40  42
ATOM     42  C   UNL A   1      44.981  22.205  24.173  1.00  0.00     0.060 A 
ATOM     43  C   UNL A   1      46.096  22.955  24.572  1.00  0.00     0.016 A 
ATOM     44  C   UNL A   1      43.823  22.887  24.140  1.00  0.00     0.016 A 
ATOM     45  C   UNL A   1      45.975  24.240  25.268  1.00  0.00     0.010 A 
ATOM     46  C   UNL A   1      43.758  24.055  24.901  1.00  0.00     0.010 A 
ATOM     47  C   UNL A   1      44.761  24.796  25.657  1.00  0.00    -0.014 A 
BRANCH  47  48
ATOM     48  C   UNL A   1      44.603  26.120  26.889  1.00  0.00     0.031 A 
ATOM     49  C   UNL A   1      43.201  27.085  27.499  1.00  0.00     0.074 A 
ATOM     50  C   UNL A   1      45.614  26.223  27.759  1.00  0.00     0.049 A 
ATOM     51  N   UNL A   1      42.689  28.245  27.087  1.00  0.00    -0.248 NA
ATOM     52  C   UNL A   1      42.217  26.557  28.539  1.00  0.00     0.031 C 
ATOM     53  C   UNL A   1      45.594  26.899  29.044  1.00  0.00     0.029 A 
ATOM     54  N   UNL A   1      46.944  25.878  27.556  1.00  0.00    -0.354 N 
ATOM     55  C   UNL A   1      41.385  28.377  27.716  1.00  0.00     0.074 A 
ATOM     56  C   UNL A   1      41.050  27.037  28.094  1.00  0.00     0.031 C 
ATOM     57  C   UNL A   1      46.855  27.252  29.335  1.00  0.00     0.029 A 
ATOM     58  C   UNL A   1      47.663  26.928  28.171  1.00  0.00     0.049 A 
ATOM     59  H   UNL A   1      47.302  25.086  27.092  1.00  0.00     0.167 HD
ATOM     60  C   UNL A   1      41.011  29.223  28.759  1.00  0.00     0.037 A 
ATOM     61  C   UNL A   1      48.284  27.818  27.339  1.00  0.00     0.037 A 
ATOM     62  C   UNL A   1      42.194  29.670  29.437  1.00  0.00     0.049 A 
ATOM     63  C   UNL A   1      47.625  29.196  27.350  1.00  0.00     0.074 A 
ATOM     64  C   UNL A   1      42.949  29.291  30.530  1.00  0.00     0.029 A 
ATOM     65  N   UNL A   1      42.988  30.441  28.673  1.00  0.00    -0.354 N 
ATOM     66  N   UNL A   1      46.580  29.517  28.074  1.00  0.00    -0.248 NA
ATOM     67  C   UNL A   1      48.066  30.318  26.521  1.00  0.00     0.031 C 
ATOM     68  C   UNL A   1      44.255  29.869  30.351  1.00  0.00     0.029 A 
ATOM     69  C   UNL A   1      44.235  30.608  29.179  1.00  0.00     0.049 A 
ATOM     70  H   UNL A   1      42.693  30.846  27.825  1.00  0.00     0.167 HD
ATOM     71  C   UNL A   1      46.192  30.799  27.790  1.00  0.00     0.074 A 
ATOM     72  C   UNL A   1      47.159  31.265  26.821  1.00  0.00     0.031 C 
ATOM     73  C   UNL A   1      45.084  31.392  28.314  1.00  0.00     0.037 A 
BRANCH  60  74
ATOM     74  C   UNL A   1      39.625  29.199  29.443  1.00  0.00     0.064 A 
ATOM     75  C   UNL A   1      38.490  29.802  28.852  1.00  0.00     0.173 A 
ATOM     76  C   UNL A   1      39.378  28.584  30.693  1.00  0.00     0.173 A 
ATOM     77  F   UNL A   1      38.550  30.338  27.626  1.00  0.00    -0.203 F 
ATOM     78  C   UNL A   1      37.247  29.874  29.498  1.00  0.00     0.198 A 
ATOM     79  C   UNL A   1      38.138  28.682  31.353  1.00  0.00     0.198 A 
ATOM     80  F   UNL A   1      40.346  27.895  31.317  1.00  0.00    -0.203 F 
ATOM     81  F   UNL A   1      36.215  30.477  28.891  1.00  0.00    -0.200 F 
ATOM     82  C   UNL A   1      37.078  29.339  30.759  1.00  0.00     0.200 A 
ATOM     83  F   UNL A   1      37.982  28.155  32.577  1.00  0.00    -0.200 F 
ATOM     84  F   UNL A   1      35.897  29.445  31.390  1.00  0.00    -0.200 F 
ENDBRANCH  60  74
BRANCH  61  85
ATOM     85  C   UNL A   1      48.945  27.085  26.195  1.00  0.00     0.064 A 
ATOM     86  C   UNL A   1      48.304  27.190  24.930  1.00  0.00     0.173 A 
ATOM     87  C   UNL A   1      50.292  26.706  26.180  1.00  0.00     0.173 A 
ATOM     88  F   UNL A   1      47.005  27.534  24.866  1.00  0.00    -0.203 F 
ATOM     89  C   UNL A   1      49.017  27.147  23.733  1.00  0.00     0.198 A 
ATOM     90  C   UNL A   1      50.985  26.563  24.962  1.00  0.00     0.198 A 
ATOM     91  F   UNL A   1      50.998  26.646  27.317  1.00  0.00    -0.203 F 
ATOM     92  F   UNL A   1      48.425  27.519  22.589  1.00  0.00    -0.200 F 
ATOM     93  C   UNL A   1      50.362  26.846  23.751  1.00  0.00     0.200 A 
ATOM     94  F   UNL A   1      52.313  26.363  24.975  1.00  0.00    -0.200 F 
ATOM     95  F   UNL A   1      51.082  26.936  22.622  1.00  0.00    -0.200 F 
ENDBRANCH  61  85
BRANCH  73  96
ATOM     96  C   UNL A   1      44.609  32.782  27.936  1.00  0.00     0.064 A 
ATOM     97  C   UNL A   1      44.432  33.752  28.921  1.00  0.00     0.173 A 
ATOM     98  C   UNL A   1      44.162  33.139  26.634  1.00  0.00     0.173 A 
ATOM     99  F   UNL A   1      44.805  33.507  30.185  1.00  0.00    -0.203 F 
ATOM    100  C   UNL A   1      43.858  34.991  28.624  1.00  0.00     0.198 A 
ATOM    101  C   UNL A   1      43.500  34.329  26.363  1.00  0.00     0.198 A 
ATOM    102  F   UNL A   1      44.385  32.366  25.560  1.00  0.00    -0.203 F 
ATOM    103  F   UNL A   1      43.777  35.924  29.581  1.00  0.00    -0.200 F 
ATOM    104  C   UNL A   1      43.366  35.267  27.357  1.00  0.00     0.200 A 
ATOM    105  F   UNL A   1      43.014  34.556  25.133  1.00  0.00    -0.200 F 
ATOM    106  F   UNL A   1      42.787  36.444  27.089  1.00  0.00    -0.200 F 
ENDBRANCH  73  96
ENDBRANCH  47  48
ENDBRANCH  40  42
ENDBRANCH  39  40
ENDBRANCH  38  39
ENDBRANCH  37  38
ENDBRANCH  36  37
ENDBRANCH  35  36
ENDBRANCH   1  35
TORSDOF 21
ENDMDL
MODEL 3
REMARK VINA RESULT:     -11.2      3.572      7.885
REMARK SMILES Cc1ccc(/[NH+]=C2/S[C@@H](CC(=O)Nc3ccc(C(=O)OCCOCCOCCOC(=O)c4ccc(-c5c6nc(c(-c7c(F)c(F)c(F)c(F)c7F)c7ccc([nH]7)c(-c7c(F)c(F)c(F)c(F)c7F)c7nc(c(-c8c(F)c(F)c(F)c(F)c8F)c8ccc5[nH]8)C=C7)C=C6)cc4)cc3)C(=O)N2C)cc1
REMARK SMILES IDX 24 1 23 2 22 3 21 4 20 5 18 6 19 7 17 8 14 9 15 10 96 11
REMARK SMILES IDX 16 12 95 13 13 14 11 15 12 16 10 18 9 19 6 20 7 21 8 23
REMARK SMILES IDX 99 24 97 25 100 26 98 27 5 28 1 29 2 30 3 31 102 32 4 33
REMARK SMILES IDX 101 34 25 35 26 36 27 37 28 38 29 39 30 40 31 41 32 42 33 43
REMARK SMILES IDX 94 44 34 45 93 46 35 47 36 48 37 49 87 50 38 51 92 52 86 53
REMARK SMILES IDX 88 54 39 55 91 56 85 57 84 58 40 60 72 61 52 62 71 63 53 64
REMARK SMILES IDX 56 65 70 66 89 67 54 68 55 69 69 71 90 72 57 73 41 74 42 75
REMARK SMILES IDX 50 76 43 77 44 78 48 79 51 80 45 81 46 82 49 83 47 84 73 85
REMARK SMILES IDX 74 86 82 87 75 88 76 89 80 90 83 91 77 92 78 93 81 94 79 95
REMARK SMILES IDX 58 96 59 97 67 98 60 99 61 100 65 101 68 102 62 103 63 104
REMARK SMILES IDX 66 105 64 106
REMARK H PARENT 13 17 6 22 88 59 56 70
REMARK Flexibility Score: inf
ROOT
ATOM      1  C   UNL A   1      32.296  26.065  25.053  1.00  0.00     0.188 C 
ENDROOT
BRANCH   1   2
ATOM      2  O   UNL A   1      31.487  24.910  24.808  1.00  0.00    -0.376 OA
BRANCH   2   3
ATOM      3  C   UNL A   1      31.407  23.870  25.793  1.00  0.00     0.202 C 
BRANCH   3   4
ATOM      4  C   UNL A   1      31.441  22.253  25.569  1.00  0.00     0.261 C 
BRANCH   4   5
ATOM      5  O   UNL A   1      32.452  21.201  25.976  1.00  0.00    -0.460 OA
BRANCH   5   6
ATOM      6  C   UNL A   1      33.525  21.195  25.141  1.00  0.00     0.338 C 
ATOM      7  O   UNL A   1      33.180  20.751  24.059  1.00  0.00    -0.246 OA
BRANCH   6   8
ATOM      8  C   UNL A   1      35.119  21.890  25.453  1.00  0.00     0.060 A 
ATOM      9  C   UNL A   1      37.644  23.369  25.705  1.00  0.00     0.041 A 
ATOM     10  C   UNL A   1      36.364  23.749  26.101  1.00  0.00     0.027 A 
ATOM     11  C   UNL A   1      37.743  22.117  25.232  1.00  0.00     0.027 A 
ATOM     12  C   UNL A   1      35.128  23.097  26.009  1.00  0.00     0.018 A 
ATOM     13  C   UNL A   1      36.526  21.416  25.169  1.00  0.00     0.018 A 
BRANCH   9  14
ATOM     14  N   UNL A   1      38.751  24.226  25.753  1.00  0.00    -0.326 N 
ATOM     15  C   UNL A   1      39.730  24.310  26.718  1.00  0.00     0.226 C 
ATOM     16  O   UNL A   1      40.480  25.288  26.732  1.00  0.00    -0.275 OA
ATOM     17  H   UNL A   1      38.842  24.849  24.997  1.00  0.00     0.169 HD
BRANCH  15  18
ATOM     18  C   UNL A   1      39.983  23.119  27.646  1.00  0.00     0.128 C 
BRANCH  18  19
ATOM     19  C   UNL A   1      41.394  22.452  27.639  1.00  0.00     0.183 C 
ATOM     20  N   UNL A   1      44.598  24.640  27.294  1.00  0.00    -0.235 N 
ATOM     21  C   UNL A   1      43.655  23.776  27.105  1.00  0.00     0.319 C 
ATOM     22  H   UNL A   1      44.583  25.016  28.204  1.00  0.00     0.313 HD
ATOM     23  S   UNL A   1      42.618  23.495  28.527  1.00  0.00    -0.022 SA
ATOM     24  N   UNL A   1      43.180  23.028  26.045  1.00  0.00    -0.193 N 
ATOM     25  C   UNL A   1      42.075  22.186  26.289  1.00  0.00     0.324 C 
ATOM     26  C   UNL A   1      43.518  23.198  24.634  1.00  0.00     0.301 C 
ATOM     27  O   UNL A   1      41.619  21.405  25.460  1.00  0.00    -0.245 OA
BRANCH  20  28
ATOM     28  C   UNL A   1      45.639  25.172  26.517  1.00  0.00     0.125 A 
ATOM     29  C   UNL A   1      49.024  26.549  24.132  1.00  0.00     0.044 C 
ATOM     30  C   UNL A   1      47.885  26.060  24.978  1.00  0.00    -0.051 A 
ATOM     31  C   UNL A   1      47.955  24.878  25.714  1.00  0.00     0.008 A 
ATOM     32  C   UNL A   1      46.678  26.753  24.968  1.00  0.00     0.008 A 
ATOM     33  C   UNL A   1      46.856  24.464  26.495  1.00  0.00     0.052 A 
ATOM     34  C   UNL A   1      45.564  26.269  25.670  1.00  0.00     0.052 A 
ENDBRANCH  20  28
ENDBRANCH  18  19
ENDBRANCH  15  18
ENDBRANCH   9  14
ENDBRANCH   6   8
ENDBRANCH   5   6
ENDBRANCH   4   5
ENDBRANCH   3   4
ENDBRANCH   2   3
ENDBRANCH   1   2
BRANCH   1  35
ATOM     35  C   UNL A   1      31.689  27.293  25.711  1.00  0.00     0.188 C 
BRANCH  35  36
ATOM     36  O   UNL A   1      32.485  28.429  25.394  1.00  0.00    -0.376 OA
BRANCH  36  37
ATOM     37  C   UNL A   1      32.124  29.604  26.103  1.00  0.00     0.202 C 
BRANCH  37  38
ATOM     38  C   UNL A   1      33.155  29.966  27.182  1.00  0.00     0.261 C 
BRANCH  38  39
ATOM     39  O   UNL A   1      33.544  31.354  27.047  1.00  0.00    -0.460 OA
BRANCH  39  40
ATOM     40  C   UNL A   1      34.129  31.943  28.158  1.00  0.00     0.338 C 
ATOM     41  O   UNL A   1      33.560  32.608  28.963  1.00  0.00    -0.246 OA
BRANCH  40  42
ATOM     42  C   UNL A   1      35.631  31.842  28.030  1.00  0.00     0.060 A 
ATOM     43  C   UNL A   1      36.395  30.669  28.106  1.00  0.00     0.016 A 
ATOM     44  C   UNL A   1      36.330  32.983  28.156  1.00  0.00     0.016 A 
ATOM     45  C   UNL A   1      37.752  30.647  28.661  1.00  0.00     0.010 A 
ATOM     46  C   UNL A   1      37.576  32.892  28.776  1.00  0.00     0.010 A 
ATOM     47  C   UNL A   1      38.374  31.756  29.223  1.00  0.00    -0.014 A 
BRANCH  47  48
ATOM     48  C   UNL A   1      39.831  31.660  30.303  1.00  0.00     0.031 A 
ATOM     49  C   UNL A   1      41.394  30.759  30.198  1.00  0.00     0.074 A 
ATOM     50  C   UNL A   1      39.960  32.655  31.188  1.00  0.00     0.049 A 
ATOM     51  N   UNL A   1      41.744  29.553  30.647  1.00  0.00    -0.248 NA
ATOM     52  C   UNL A   1      42.568  31.225  29.340  1.00  0.00     0.031 C 
ATOM     53  C   UNL A   1      41.169  33.046  31.890  1.00  0.00     0.029 A 
ATOM     54  N   UNL A   1      38.948  33.406  31.771  1.00  0.00    -0.354 N 
ATOM     55  C   UNL A   1      42.997  29.209  29.997  1.00  0.00     0.074 A 
ATOM     56  C   UNL A   1      43.039  30.070  28.855  1.00  0.00     0.031 C 
ATOM     57  C   UNL A   1      40.797  33.658  33.025  1.00  0.00     0.029 A 
ATOM     58  C   UNL A   1      39.353  33.531  33.119  1.00  0.00     0.049 A 
ATOM     59  H   UNL A   1      38.137  33.767  31.344  1.00  0.00     0.167 HD
ATOM     60  C   UNL A   1      44.276  29.169  30.551  1.00  0.00     0.037 A 
ATOM     61  C   UNL A   1      38.660  32.797  34.041  1.00  0.00     0.037 A 
ATOM     62  C   UNL A   1      44.274  29.927  31.769  1.00  0.00     0.049 A 
ATOM     63  C   UNL A   1      39.485  31.652  34.626  1.00  0.00     0.074 A 
ATOM     64  C   UNL A   1      44.561  31.217  32.170  1.00  0.00     0.029 A 
ATOM     65  N   UNL A   1      43.497  29.393  32.729  1.00  0.00    -0.354 N 
ATOM     66  N   UNL A   1      40.725  31.385  34.300  1.00  0.00    -0.248 NA
ATOM     67  C   UNL A   1      38.969  30.690  35.601  1.00  0.00     0.031 C 
ATOM     68  C   UNL A   1      43.879  31.423  33.420  1.00  0.00     0.029 A 
ATOM     69  C   UNL A   1      43.237  30.241  33.754  1.00  0.00     0.049 A 
ATOM     70  H   UNL A   1      43.148  28.472  32.690  1.00  0.00     0.167 HD
ATOM     71  C   UNL A   1      41.143  30.250  34.941  1.00  0.00     0.074 A 
ATOM     72  C   UNL A   1      40.013  29.856  35.755  1.00  0.00     0.031 C 
ATOM     73  C   UNL A   1      42.356  29.664  34.741  1.00  0.00     0.037 A 
BRANCH  60  74
ATOM     74  C   UNL A   1      45.567  28.909  29.741  1.00  0.00     0.064 A 
ATOM     75  C   UNL A   1      46.091  27.607  29.569  1.00  0.00     0.173 A 
ATOM     76  C   UNL A   1      46.319  29.931  29.115  1.00  0.00     0.173 A 
ATOM     77  F   UNL A   1      45.436  26.531  30.023  1.00  0.00    -0.203 F 
ATOM     78  C   UNL A   1      47.309  27.360  28.919  1.00  0.00     0.198 A 
ATOM     79  C   UNL A   1      47.555  29.686  28.489  1.00  0.00     0.198 A 
ATOM     80  F   UNL A   1      45.881  31.200  29.121  1.00  0.00    -0.203 F 
ATOM     81  F   UNL A   1      47.762  26.103  28.807  1.00  0.00    -0.200 F 
ATOM     82  C   UNL A   1      48.055  28.401  28.403  1.00  0.00     0.200 A 
ATOM     83  F   UNL A   1      48.271  30.703  27.986  1.00  0.00    -0.200 F 
ATOM     84  F   UNL A   1      49.239  28.163  27.818  1.00  0.00    -0.200 F 
ENDBRANCH  60  74
BRANCH  61  85
ATOM     85  C   UNL A   1      37.180  32.851  33.741  1.00  0.00     0.064 A 
ATOM     86  C   UNL A   1      36.531  34.087  34.014  1.00  0.00     0.173 A 
ATOM     87  C   UNL A   1      36.527  31.989  32.853  1.00  0.00     0.173 A 
ATOM     88  F   UNL A   1      37.089  34.960  34.870  1.00  0.00    -0.203 F 
ATOM     89  C   UNL A   1      35.432  34.524  33.276  1.00  0.00     0.198 A 
ATOM     90  C   UNL A   1      35.356  32.397  32.184  1.00  0.00     0.198 A 
ATOM     91  F   UNL A   1      37.093  30.833  32.483  1.00  0.00    -0.203 F 
ATOM     92  F   UNL A   1      35.022  35.798  33.379  1.00  0.00    -0.200 F 
ATOM     93  C   UNL A   1      34.852  33.683  32.351  1.00  0.00     0.200 A 
ATOM     94  F   UNL A   1      34.842  31.622  31.216  1.00  0.00    -0.200 F 
ATOM     95  F   UNL A   1      33.884  34.143  31.544  1.00  0.00    -0.200 F 
ENDBRANCH  61  85
BRANCH  73  96
ATOM     96  C   UNL A   1      42.785  28.362  35.390  1.00  0.00     0.064 A 
ATOM     97  C   UNL A   1      42.127  27.174  35.077  1.00  0.00     0.173 A 
ATOM     98  C   UNL A   1      43.731  28.280  36.449  1.00  0.00     0.173 A 
ATOM     99  F   UNL A   1      41.203  27.150  34.105  1.00  0.00    -0.203 F 
ATOM    100  C   UNL A   1      42.401  25.990  35.766  1.00  0.00     0.198 A 
ATOM    101  C   UNL A   1      43.928  27.128  37.198  1.00  0.00     0.198 A 
ATOM    102  F   UNL A   1      44.536  29.303  36.774  1.00  0.00    -0.203 F 
ATOM    103  F   UNL A   1      41.804  24.854  35.382  1.00  0.00    -0.200 F 
ATOM    104  C   UNL A   1      43.275  25.973  36.842  1.00  0.00     0.200 A 
ATOM    105  F   UNL A   1      44.761  27.151  38.249  1.00  0.00    -0.200 F 
ATOM    106  F   UNL A   1      43.507  24.841  37.518  1.00  0.00    -0.200 F 
ENDBRANCH  73  96
ENDBRANCH  47  48
ENDBRANCH  40  42
ENDBRANCH  39  40
ENDBRANCH  38  39
ENDBRANCH  37  38
ENDBRANCH  36  37
ENDBRANCH  35  36
ENDBRANCH   1  35
TORSDOF 21
ENDMDL
