MODEL 1
REMARK VINA RESULT:     -10.2      0.000      0.000
REMARK SMILES CCOC(=O)NC(=O)C[N@H+]1CC[C@@H](C(=O)OCCOCCOCCOC(=O)c2ccc(-c3c4nc(c(-c5c(F)c(F)c(F)c(F)c5F)c5ccc([nH]5)c(-c5c(F)c(F)c(F)c(F)c5F)c5nc(c(-c6c(F)c(F)c(F)c(F)c6F)c6ccc3[nH]6)C=C5)C=C4)cc2)[C@@H]1C
REMARK SMILES IDX 20 1 19 2 18 3 17 4 16 5 14 6 15 7 13 8 10 9 11 10 91 11
REMARK SMILES IDX 12 13 92 14 9 15 7 16 4 17 5 18 6 19 8 21 3 22 2 23 1 24
REMARK SMILES IDX 21 25 22 26 23 27 24 28 25 29 26 30 27 31 28 32 29 33 90 34
REMARK SMILES IDX 30 35 89 36 31 37 32 38 33 39 83 40 34 41 88 42 82 43 84 44
REMARK SMILES IDX 35 45 87 46 81 47 80 48 36 50 68 51 48 52 67 53 49 54 52 55
REMARK SMILES IDX 66 56 85 57 50 58 51 59 65 61 86 62 53 63 37 64 38 65 46 66
REMARK SMILES IDX 39 67 40 68 44 69 47 70 41 71 42 72 45 73 43 74 69 75 70 76
REMARK SMILES IDX 78 77 71 78 72 79 76 80 79 81 73 82 74 83 77 84 75 85 54 86
REMARK SMILES IDX 55 87 63 88 56 89 57 90 61 91 64 92 58 93 59 94 62 95 60 96
REMARK H PARENT 10 12 6 20 84 49 52 60
REMARK Flexibility Score: inf
ROOT
ATOM      1  C   UNL A   1      31.776  29.286  25.070  1.00  0.00     0.188 C 
ENDROOT
BRANCH   1   2
ATOM      2  O   UNL A   1      32.624  28.941  23.982  1.00  0.00    -0.376 OA
BRANCH   2   3
ATOM      3  C   UNL A   1      33.559  27.881  24.138  1.00  0.00     0.202 C 
BRANCH   3   4
ATOM      4  C   UNL A   1      33.652  26.798  23.048  1.00  0.00     0.261 C 
BRANCH   4   5
ATOM      5  O   UNL A   1      33.445  25.439  23.495  1.00  0.00    -0.463 OA
BRANCH   5   6
ATOM      6  C   UNL A   1      33.425  24.477  22.540  1.00  0.00     0.315 C 
ATOM      7  O   UNL A   1      33.277  24.701  21.342  1.00  0.00    -0.252 OA
BRANCH   6   8
ATOM      8  C   UNL A   1      33.664  23.058  23.045  1.00  0.00     0.162 C 
ATOM      9  N   UNL A   1      32.904  21.763  24.970  1.00  0.00    -0.324 N 
ATOM     10  C   UNL A   1      32.478  21.093  23.733  1.00  0.00     0.264 C 
ATOM     11  C   UNL A   1      33.863  22.797  24.545  1.00  0.00     0.195 C 
ATOM     12  H   UNL A   1      33.371  21.142  25.631  1.00  0.00     0.348 HD
ATOM     13  C   UNL A   1      32.477  22.180  22.675  1.00  0.00     0.083 C 
ATOM     14  C   UNL A   1      35.256  22.190  24.821  1.00  0.00     0.076 C 
BRANCH   9  15
ATOM     15  C   UNL A   1      31.740  22.238  25.745  1.00  0.00     0.364 C 
BRANCH  15  16
ATOM     16  C   UNL A   1      32.053  22.956  27.056  1.00  0.00     0.284 C 
ATOM     17  C   UNL A   1      31.335  25.342  26.487  1.00  0.00     0.414 C 
ATOM     18  O   UNL A   1      31.457  26.499  26.874  1.00  0.00    -0.224 OA
ATOM     19  N   UNL A   1      31.854  24.305  27.231  1.00  0.00    -0.256 N 
ATOM     20  H   UNL A   1      32.162  24.608  28.115  1.00  0.00     0.176 HD
ATOM     21  O   UNL A   1      32.553  22.330  28.000  1.00  0.00    -0.268 OA
BRANCH  17  22
ATOM     22  O   UNL A   1      30.698  24.972  25.356  1.00  0.00    -0.450 OA
BRANCH  22  23
ATOM     23  C   UNL A   1      29.849  25.963  24.755  1.00  0.00     0.231 C 
ATOM     24  C   UNL A   1      30.102  26.117  23.261  1.00  0.00     0.049 C 
ENDBRANCH  22  23
ENDBRANCH  17  22
ENDBRANCH  15  16
ENDBRANCH   9  15
ENDBRANCH   6   8
ENDBRANCH   5   6
ENDBRANCH   4   5
ENDBRANCH   3   4
ENDBRANCH   2   3
ENDBRANCH   1   2
BRANCH   1  25
ATOM     25  C   UNL A   1      32.357  30.056  26.268  1.00  0.00     0.188 C 
BRANCH  25  26
ATOM     26  O   UNL A   1      31.477  30.962  26.878  1.00  0.00    -0.376 OA
BRANCH  26  27
ATOM     27  C   UNL A   1      31.363  32.261  26.336  1.00  0.00     0.202 C 
BRANCH  27  28
ATOM     28  C   UNL A   1      32.024  33.455  27.047  1.00  0.00     0.261 C 
BRANCH  28  29
ATOM     29  O   UNL A   1      33.077  33.167  27.985  1.00  0.00    -0.460 OA
BRANCH  29  30
ATOM     30  C   UNL A   1      34.229  33.860  27.859  1.00  0.00     0.338 C 
ATOM     31  O   UNL A   1      34.348  35.049  27.598  1.00  0.00    -0.246 OA
BRANCH  30  32
ATOM     32  C   UNL A   1      35.342  32.994  28.308  1.00  0.00     0.060 A 
ATOM     33  C   UNL A   1      35.080  31.657  28.643  1.00  0.00     0.016 A 
ATOM     34  C   UNL A   1      36.639  33.502  28.407  1.00  0.00     0.016 A 
ATOM     35  C   UNL A   1      36.108  30.830  29.101  1.00  0.00     0.010 A 
ATOM     36  C   UNL A   1      37.663  32.680  28.890  1.00  0.00     0.010 A 
ATOM     37  C   UNL A   1      37.399  31.350  29.268  1.00  0.00    -0.014 A 
BRANCH  37  38
ATOM     38  C   UNL A   1      38.427  30.577  30.012  1.00  0.00     0.031 A 
ATOM     39  C   UNL A   1      38.636  30.886  31.470  1.00  0.00     0.074 A 
ATOM     40  C   UNL A   1      39.162  29.621  29.420  1.00  0.00     0.049 A 
ATOM     41  N   UNL A   1      39.535  30.425  32.303  1.00  0.00    -0.248 NA
ATOM     42  C   UNL A   1      37.703  31.853  32.065  1.00  0.00     0.031 C 
ATOM     43  C   UNL A   1      39.021  29.183  28.033  1.00  0.00     0.029 A 
ATOM     44  N   UNL A   1      40.189  28.853  29.914  1.00  0.00    -0.354 N 
ATOM     45  C   UNL A   1      39.286  31.059  33.513  1.00  0.00     0.074 A 
ATOM     46  C   UNL A   1      38.174  31.959  33.298  1.00  0.00     0.031 C 
ATOM     47  C   UNL A   1      39.938  28.232  27.783  1.00  0.00     0.029 A 
ATOM     48  C   UNL A   1      40.757  28.026  28.977  1.00  0.00     0.049 A 
ATOM     49  H   UNL A   1      40.489  28.893  30.851  1.00  0.00     0.167 HD
ATOM     50  C   UNL A   1      39.923  30.903  34.698  1.00  0.00     0.037 A 
ATOM     51  C   UNL A   1      41.833  27.220  29.067  1.00  0.00     0.037 A 
ATOM     52  C   UNL A   1      41.035  30.012  34.907  1.00  0.00     0.049 A 
ATOM     53  C   UNL A   1      42.590  27.132  30.371  1.00  0.00     0.074 A 
ATOM     54  C   UNL A   1      41.744  29.773  36.073  1.00  0.00     0.029 A 
ATOM     55  N   UNL A   1      41.609  29.221  33.923  1.00  0.00    -0.354 N 
ATOM     56  N   UNL A   1      42.346  27.724  31.515  1.00  0.00    -0.248 NA
ATOM     57  C   UNL A   1      43.775  26.262  30.392  1.00  0.00     0.031 C 
ATOM     58  C   UNL A   1      42.786  28.890  35.777  1.00  0.00     0.029 A 
ATOM     59  C   UNL A   1      42.683  28.517  34.445  1.00  0.00     0.049 A 
ATOM     60  H   UNL A   1      41.299  29.166  32.990  1.00  0.00     0.167 HD
ATOM     61  C   UNL A   1      43.320  27.272  32.398  1.00  0.00     0.074 A 
ATOM     62  C   UNL A   1      44.153  26.348  31.659  1.00  0.00     0.031 C 
ATOM     63  C   UNL A   1      43.503  27.591  33.705  1.00  0.00     0.037 A 
BRANCH  50  64
ATOM     64  C   UNL A   1      39.456  31.750  35.849  1.00  0.00     0.064 A 
ATOM     65  C   UNL A   1      38.426  31.335  36.707  1.00  0.00     0.173 A 
ATOM     66  C   UNL A   1      40.049  32.998  36.095  1.00  0.00     0.173 A 
ATOM     67  F   UNL A   1      37.814  30.158  36.509  1.00  0.00    -0.203 F 
ATOM     68  C   UNL A   1      37.980  32.156  37.741  1.00  0.00     0.198 A 
ATOM     69  C   UNL A   1      39.627  33.798  37.153  1.00  0.00     0.198 A 
ATOM     70  F   UNL A   1      41.042  33.443  35.311  1.00  0.00    -0.203 F 
ATOM     71  F   UNL A   1      36.948  31.767  38.505  1.00  0.00    -0.200 F 
ATOM     72  C   UNL A   1      38.584  33.383  37.967  1.00  0.00     0.200 A 
ATOM     73  F   UNL A   1      40.223  34.977  37.380  1.00  0.00    -0.200 F 
ATOM     74  F   UNL A   1      38.153  34.171  38.962  1.00  0.00    -0.200 F 
ENDBRANCH  50  64
BRANCH  51  75
ATOM     75  C   UNL A   1      42.272  26.431  27.885  1.00  0.00     0.064 A 
ATOM     76  C   UNL A   1      41.771  25.142  27.651  1.00  0.00     0.173 A 
ATOM     77  C   UNL A   1      43.210  26.939  26.974  1.00  0.00     0.173 A 
ATOM     78  F   UNL A   1      40.895  24.599  28.509  1.00  0.00    -0.203 F 
ATOM     79  C   UNL A   1      42.201  24.389  26.560  1.00  0.00     0.198 A 
ATOM     80  C   UNL A   1      43.615  26.197  25.867  1.00  0.00     0.198 A 
ATOM     81  F   UNL A   1      43.728  28.162  27.156  1.00  0.00    -0.203 F 
ATOM     82  F   UNL A   1      41.739  23.142  26.387  1.00  0.00    -0.200 F 
ATOM     83  C   UNL A   1      43.115  24.920  25.664  1.00  0.00     0.200 A 
ATOM     84  F   UNL A   1      44.493  26.718  24.998  1.00  0.00    -0.200 F 
ATOM     85  F   UNL A   1      43.523  24.197  24.611  1.00  0.00    -0.200 F 
ENDBRANCH  51  75
BRANCH  63  86
ATOM     86  C   UNL A   1      44.617  26.898  34.442  1.00  0.00     0.064 A 
ATOM     87  C   UNL A   1      44.436  25.653  35.063  1.00  0.00     0.173 A 
ATOM     88  C   UNL A   1      45.898  27.471  34.486  1.00  0.00     0.173 A 
ATOM     89  F   UNL A   1      43.230  25.066  35.063  1.00  0.00    -0.203 F 
ATOM     90  C   UNL A   1      45.488  25.024  35.727  1.00  0.00     0.198 A 
ATOM     91  C   UNL A   1      46.955  26.822  35.118  1.00  0.00     0.198 A 
ATOM     92  F   UNL A   1      46.131  28.655  33.901  1.00  0.00    -0.203 F 
ATOM     93  F   UNL A   1      45.278  23.861  36.358  1.00  0.00    -0.200 F 
ATOM     94  C   UNL A   1      46.748  25.604  35.745  1.00  0.00     0.200 A 
ATOM     95  F   UNL A   1      48.176  27.376  35.118  1.00  0.00    -0.200 F 
ATOM     96  F   UNL A   1      47.760  24.992  36.374  1.00  0.00    -0.200 F 
ENDBRANCH  63  86
ENDBRANCH  37  38
ENDBRANCH  30  32
ENDBRANCH  29  30
ENDBRANCH  28  29
ENDBRANCH  27  28
ENDBRANCH  26  27
ENDBRANCH  25  26
ENDBRANCH   1  25
TORSDOF 21
ENDMDL
MODEL 2
REMARK VINA RESULT:     -10.1      4.454     10.388
REMARK SMILES CCOC(=O)NC(=O)C[N@H+]1CC[C@@H](C(=O)OCCOCCOCCOC(=O)c2ccc(-c3c4nc(c(-c5c(F)c(F)c(F)c(F)c5F)c5ccc([nH]5)c(-c5c(F)c(F)c(F)c(F)c5F)c5nc(c(-c6c(F)c(F)c(F)c(F)c6F)c6ccc3[nH]6)C=C5)C=C4)cc2)[C@@H]1C
REMARK SMILES IDX 20 1 19 2 18 3 17 4 16 5 14 6 15 7 13 8 10 9 11 10 91 11
REMARK SMILES IDX 12 13 92 14 9 15 7 16 4 17 5 18 6 19 8 21 3 22 2 23 1 24
REMARK SMILES IDX 21 25 22 26 23 27 24 28 25 29 26 30 27 31 28 32 29 33 90 34
REMARK SMILES IDX 30 35 89 36 31 37 32 38 33 39 83 40 34 41 88 42 82 43 84 44
REMARK SMILES IDX 35 45 87 46 81 47 80 48 36 50 68 51 48 52 67 53 49 54 52 55
REMARK SMILES IDX 66 56 85 57 50 58 51 59 65 61 86 62 53 63 37 64 38 65 46 66
REMARK SMILES IDX 39 67 40 68 44 69 47 70 41 71 42 72 45 73 43 74 69 75 70 76
REMARK SMILES IDX 78 77 71 78 72 79 76 80 79 81 73 82 74 83 77 84 75 85 54 86
REMARK SMILES IDX 55 87 63 88 56 89 57 90 61 91 64 92 58 93 59 94 62 95 60 96
REMARK H PARENT 10 12 6 20 84 49 52 60
REMARK Flexibility Score: inf
ROOT
ATOM      1  C   UNL A   1      35.600  21.080  25.237  1.00  0.00     0.188 C 
ENDROOT
BRANCH   1   2
ATOM      2  O   UNL A   1      35.114  21.575  26.478  1.00  0.00    -0.376 OA
BRANCH   2   3
ATOM      3  C   UNL A   1      33.813  21.202  26.915  1.00  0.00     0.202 C 
BRANCH   3   4
ATOM      4  C   UNL A   1      32.594  21.981  26.389  1.00  0.00     0.261 C 
BRANCH   4   5
ATOM      5  O   UNL A   1      32.121  23.052  27.237  1.00  0.00    -0.463 OA
BRANCH   5   6
ATOM      6  C   UNL A   1      31.304  23.970  26.665  1.00  0.00     0.315 C 
ATOM      7  O   UNL A   1      30.237  24.338  27.150  1.00  0.00    -0.252 OA
BRANCH   6   8
ATOM      8  C   UNL A   1      31.828  24.587  25.373  1.00  0.00     0.162 C 
ATOM      9  N   UNL A   1      31.741  26.809  24.364  1.00  0.00    -0.324 N 
ATOM     10  C   UNL A   1      33.144  26.424  24.577  1.00  0.00     0.264 C 
ATOM     11  C   UNL A   1      30.960  25.579  24.585  1.00  0.00     0.195 C 
ATOM     12  H   UNL A   1      31.548  27.148  23.422  1.00  0.00     0.348 HD
ATOM     13  C   UNL A   1      33.104  25.365  25.661  1.00  0.00     0.083 C 
ATOM     14  C   UNL A   1      30.650  25.042  23.171  1.00  0.00     0.076 C 
BRANCH   9  15
ATOM     15  C   UNL A   1      31.375  27.968  25.203  1.00  0.00     0.364 C 
BRANCH  15  16
ATOM     16  C   UNL A   1      31.064  29.264  24.459  1.00  0.00     0.284 C 
ATOM     17  C   UNL A   1      31.574  30.998  26.265  1.00  0.00     0.414 C 
ATOM     18  O   UNL A   1      31.381  32.176  26.547  1.00  0.00    -0.224 OA
ATOM     19  N   UNL A   1      31.167  30.502  25.046  1.00  0.00    -0.256 N 
ATOM     20  H   UNL A   1      30.875  31.221  24.439  1.00  0.00     0.176 HD
ATOM     21  O   UNL A   1      30.653  29.223  23.291  1.00  0.00    -0.268 OA
BRANCH  17  22
ATOM     22  O   UNL A   1      32.189  30.106  27.069  1.00  0.00    -0.450 OA
BRANCH  22  23
ATOM     23  C   UNL A   1      33.601  30.293  27.259  1.00  0.00     0.231 C 
ATOM     24  C   UNL A   1      34.382  28.991  27.140  1.00  0.00     0.049 C 
ENDBRANCH  22  23
ENDBRANCH  17  22
ENDBRANCH  15  16
ENDBRANCH   9  15
ENDBRANCH   6   8
ENDBRANCH   5   6
ENDBRANCH   4   5
ENDBRANCH   3   4
ENDBRANCH   2   3
ENDBRANCH   1   2
BRANCH   1  25
ATOM     25  C   UNL A   1      36.925  21.618  24.673  1.00  0.00     0.188 C 
BRANCH  25  26
ATOM     26  O   UNL A   1      38.080  21.160  25.325  1.00  0.00    -0.376 OA
BRANCH  26  27
ATOM     27  C   UNL A   1      38.594  19.891  24.977  1.00  0.00     0.202 C 
BRANCH  27  28
ATOM     28  C   UNL A   1      39.635  19.206  25.879  1.00  0.00     0.261 C 
BRANCH  28  29
ATOM     29  O   UNL A   1      41.005  19.622  25.743  1.00  0.00    -0.460 OA
BRANCH  29  30
ATOM     30  C   UNL A   1      41.707  19.833  26.878  1.00  0.00     0.338 C 
ATOM     31  O   UNL A   1      42.360  19.009  27.503  1.00  0.00    -0.246 OA
BRANCH  30  32
ATOM     32  C   UNL A   1      41.744  21.289  27.135  1.00  0.00     0.060 A 
ATOM     33  C   UNL A   1      41.334  22.176  26.129  1.00  0.00     0.016 A 
ATOM     34  C   UNL A   1      42.194  21.780  28.363  1.00  0.00     0.016 A 
ATOM     35  C   UNL A   1      41.393  23.556  26.337  1.00  0.00     0.010 A 
ATOM     36  C   UNL A   1      42.276  23.162  28.561  1.00  0.00     0.010 A 
ATOM     37  C   UNL A   1      41.905  24.058  27.541  1.00  0.00    -0.014 A 
BRANCH  37  38
ATOM     38  C   UNL A   1      42.237  25.501  27.670  1.00  0.00     0.031 A 
ATOM     39  C   UNL A   1      43.564  25.978  27.145  1.00  0.00     0.074 A 
ATOM     40  C   UNL A   1      41.388  26.376  28.235  1.00  0.00     0.049 A 
ATOM     41  N   UNL A   1      44.122  27.159  27.231  1.00  0.00    -0.248 NA
ATOM     42  C   UNL A   1      44.372  24.980  26.429  1.00  0.00     0.031 C 
ATOM     43  C   UNL A   1      40.051  26.058  28.730  1.00  0.00     0.029 A 
ATOM     44  N   UNL A   1      41.537  27.716  28.499  1.00  0.00    -0.354 N 
ATOM     45  C   UNL A   1      45.352  27.040  26.597  1.00  0.00     0.074 A 
ATOM     46  C   UNL A   1      45.472  25.666  26.159  1.00  0.00     0.031 C 
ATOM     47  C   UNL A   1      39.505  27.171  29.252  1.00  0.00     0.029 A 
ATOM     48  C   UNL A   1      40.470  28.266  29.166  1.00  0.00     0.049 A 
ATOM     49  H   UNL A   1      42.333  28.232  28.236  1.00  0.00     0.167 HD
ATOM     50  C   UNL A   1      46.296  27.990  26.393  1.00  0.00     0.037 A 
ATOM     51  C   UNL A   1      40.308  29.503  29.675  1.00  0.00     0.037 A 
ATOM     52  C   UNL A   1      46.178  29.355  26.836  1.00  0.00     0.049 A 
ATOM     53  C   UNL A   1      41.412  30.522  29.523  1.00  0.00     0.074 A 
ATOM     54  C   UNL A   1      47.073  30.398  26.671  1.00  0.00     0.029 A 
ATOM     55  N   UNL A   1      45.100  29.865  27.546  1.00  0.00    -0.354 N 
ATOM     56  N   UNL A   1      42.568  30.410  28.915  1.00  0.00    -0.248 NA
ATOM     57  C   UNL A   1      41.185  31.841  30.131  1.00  0.00     0.031 C 
ATOM     58  C   UNL A   1      46.568  31.519  27.337  1.00  0.00     0.029 A 
ATOM     59  C   UNL A   1      45.321  31.199  27.853  1.00  0.00     0.049 A 
ATOM     60  H   UNL A   1      44.295  29.355  27.794  1.00  0.00     0.167 HD
ATOM     61  C   UNL A   1      43.188  31.648  29.034  1.00  0.00     0.074 A 
ATOM     62  C   UNL A   1      42.275  32.500  29.765  1.00  0.00     0.031 C 
ATOM     63  C   UNL A   1      44.403  32.043  28.575  1.00  0.00     0.037 A 
BRANCH  50  64
ATOM     64  C   UNL A   1      47.559  27.569  25.695  1.00  0.00     0.064 A 
ATOM     65  C   UNL A   1      47.666  27.557  24.296  1.00  0.00     0.173 A 
ATOM     66  C   UNL A   1      48.680  27.171  26.440  1.00  0.00     0.173 A 
ATOM     67  F   UNL A   1      46.620  27.913  23.534  1.00  0.00    -0.203 F 
ATOM     68  C   UNL A   1      48.832  27.121  23.670  1.00  0.00     0.198 A 
ATOM     69  C   UNL A   1      49.857  26.773  25.811  1.00  0.00     0.198 A 
ATOM     70  F   UNL A   1      48.637  27.169  27.781  1.00  0.00    -0.203 F 
ATOM     71  F   UNL A   1      48.886  27.053  22.331  1.00  0.00    -0.200 F 
ATOM     72  C   UNL A   1      49.928  26.736  24.427  1.00  0.00     0.200 A 
ATOM     73  F   UNL A   1      50.919  26.417  26.544  1.00  0.00    -0.200 F 
ATOM     74  F   UNL A   1      51.048  26.317  23.822  1.00  0.00    -0.200 F 
ENDBRANCH  50  64
BRANCH  51  75
ATOM     75  C   UNL A   1      39.050  29.854  30.388  1.00  0.00     0.064 A 
ATOM     76  C   UNL A   1      38.899  29.591  31.757  1.00  0.00     0.173 A 
ATOM     77  C   UNL A   1      37.968  30.443  29.716  1.00  0.00     0.173 A 
ATOM     78  F   UNL A   1      39.892  28.999  32.438  1.00  0.00    -0.203 F 
ATOM     79  C   UNL A   1      37.712  29.891  32.423  1.00  0.00     0.198 A 
ATOM     80  C   UNL A   1      36.794  30.773  30.390  1.00  0.00     0.198 A 
ATOM     81  F   UNL A   1      38.057  30.709  28.405  1.00  0.00    -0.203 F 
ATOM     82  F   UNL A   1      37.579  29.586  33.721  1.00  0.00    -0.200 F 
ATOM     83  C   UNL A   1      36.664  30.490  31.740  1.00  0.00     0.200 A 
ATOM     84  F   UNL A   1      35.787  31.360  29.728  1.00  0.00    -0.200 F 
ATOM     85  F   UNL A   1      35.525  30.785  32.383  1.00  0.00    -0.200 F 
ENDBRANCH  51  75
BRANCH  63  86
ATOM     86  C   UNL A   1      44.800  33.477  28.800  1.00  0.00     0.064 A 
ATOM     87  C   UNL A   1      44.392  34.507  27.939  1.00  0.00     0.173 A 
ATOM     88  C   UNL A   1      45.564  33.830  29.924  1.00  0.00     0.173 A 
ATOM     89  F   UNL A   1      43.671  34.225  26.842  1.00  0.00    -0.203 F 
ATOM     90  C   UNL A   1      44.760  35.829  28.177  1.00  0.00     0.198 A 
ATOM     91  C   UNL A   1      45.898  35.157  30.179  1.00  0.00     0.198 A 
ATOM     92  F   UNL A   1      45.973  32.888  30.787  1.00  0.00    -0.203 F 
ATOM     93  F   UNL A   1      44.404  36.788  27.312  1.00  0.00    -0.200 F 
ATOM     94  C   UNL A   1      45.505  36.154  29.302  1.00  0.00     0.200 A 
ATOM     95  F   UNL A   1      46.602  35.470  31.277  1.00  0.00    -0.200 F 
ATOM     96  F   UNL A   1      45.848  37.428  29.535  1.00  0.00    -0.200 F 
ENDBRANCH  63  86
ENDBRANCH  37  38
ENDBRANCH  30  32
ENDBRANCH  29  30
ENDBRANCH  28  29
ENDBRANCH  27  28
ENDBRANCH  26  27
ENDBRANCH  25  26
ENDBRANCH   1  25
TORSDOF 21
ENDMDL
MODEL 3
REMARK VINA RESULT:     -10.0      1.697      3.370
REMARK SMILES CCOC(=O)NC(=O)C[N@H+]1CC[C@@H](C(=O)OCCOCCOCCOC(=O)c2ccc(-c3c4nc(c(-c5c(F)c(F)c(F)c(F)c5F)c5ccc([nH]5)c(-c5c(F)c(F)c(F)c(F)c5F)c5nc(c(-c6c(F)c(F)c(F)c(F)c6F)c6ccc3[nH]6)C=C5)C=C4)cc2)[C@@H]1C
REMARK SMILES IDX 20 1 19 2 18 3 17 4 16 5 14 6 15 7 13 8 10 9 11 10 91 11
REMARK SMILES IDX 12 13 92 14 9 15 7 16 4 17 5 18 6 19 8 21 3 22 2 23 1 24
REMARK SMILES IDX 21 25 22 26 23 27 24 28 25 29 26 30 27 31 28 32 29 33 90 34
REMARK SMILES IDX 30 35 89 36 31 37 32 38 33 39 83 40 34 41 88 42 82 43 84 44
REMARK SMILES IDX 35 45 87 46 81 47 80 48 36 50 68 51 48 52 67 53 49 54 52 55
REMARK SMILES IDX 66 56 85 57 50 58 51 59 65 61 86 62 53 63 37 64 38 65 46 66
REMARK SMILES IDX 39 67 40 68 44 69 47 70 41 71 42 72 45 73 43 74 69 75 70 76
REMARK SMILES IDX 78 77 71 78 72 79 76 80 79 81 73 82 74 83 77 84 75 85 54 86
REMARK SMILES IDX 55 87 63 88 56 89 57 90 61 91 64 92 58 93 59 94 62 95 60 96
REMARK H PARENT 10 12 6 20 84 49 52 60
REMARK Flexibility Score: inf
ROOT
ATOM      1  C   UNL A   1      32.439  29.439  25.042  1.00  0.00     0.188 C 
ENDROOT
BRANCH   1   2
ATOM      2  O   UNL A   1      33.450  28.464  24.825  1.00  0.00    -0.376 OA
BRANCH   2   3
ATOM      3  C   UNL A   1      33.523  27.806  23.566  1.00  0.00     0.202 C 
BRANCH   3   4
ATOM      4  C   UNL A   1      32.790  26.465  23.378  1.00  0.00     0.261 C 
BRANCH   4   5
ATOM      5  O   UNL A   1      32.784  25.588  24.527  1.00  0.00    -0.463 OA
BRANCH   5   6
ATOM      6  C   UNL A   1      31.607  25.452  25.186  1.00  0.00     0.315 C 
ATOM      7  O   UNL A   1      30.599  26.107  24.936  1.00  0.00    -0.252 OA
BRANCH   6   8
ATOM      8  C   UNL A   1      31.585  24.362  26.253  1.00  0.00     0.162 C 
ATOM      9  N   UNL A   1      31.846  21.935  26.242  1.00  0.00    -0.324 N 
ATOM     10  C   UNL A   1      32.891  22.534  27.086  1.00  0.00     0.264 C 
ATOM     11  C   UNL A   1      30.890  23.022  25.971  1.00  0.00     0.195 C 
ATOM     12  H   UNL A   1      31.344  21.170  26.694  1.00  0.00     0.348 HD
ATOM     13  C   UNL A   1      33.012  23.967  26.606  1.00  0.00     0.083 C 
ATOM     14  C   UNL A   1      29.724  22.786  26.956  1.00  0.00     0.076 C 
BRANCH   9  15
ATOM     15  C   UNL A   1      32.432  21.277  25.057  1.00  0.00     0.364 C 
BRANCH  15  16
ATOM     16  C   UNL A   1      33.026  19.889  25.284  1.00  0.00     0.284 C 
ATOM     17  C   UNL A   1      35.523  20.386  25.065  1.00  0.00     0.414 C 
ATOM     18  O   UNL A   1      36.602  19.828  24.894  1.00  0.00    -0.224 OA
ATOM     19  N   UNL A   1      34.377  19.641  25.234  1.00  0.00    -0.256 N 
ATOM     20  H   UNL A   1      34.577  18.683  25.347  1.00  0.00     0.176 HD
ATOM     21  O   UNL A   1      32.278  18.921  25.475  1.00  0.00    -0.268 OA
BRANCH  17  22
ATOM     22  O   UNL A   1      35.350  21.723  25.120  1.00  0.00    -0.450 OA
BRANCH  22  23
ATOM     23  C   UNL A   1      36.374  22.467  25.800  1.00  0.00     0.231 C 
ATOM     24  C   UNL A   1      36.921  23.610  24.957  1.00  0.00     0.049 C 
ENDBRANCH  22  23
ENDBRANCH  17  22
ENDBRANCH  15  16
ENDBRANCH   9  15
ENDBRANCH   6   8
ENDBRANCH   5   6
ENDBRANCH   4   5
ENDBRANCH   3   4
ENDBRANCH   2   3
ENDBRANCH   1   2
BRANCH   1  25
ATOM     25  C   UNL A   1      31.845  29.614  26.450  1.00  0.00     0.188 C 
BRANCH  25  26
ATOM     26  O   UNL A   1      32.720  30.156  27.403  1.00  0.00    -0.376 OA
BRANCH  26  27
ATOM     27  C   UNL A   1      33.251  31.445  27.177  1.00  0.00     0.202 C 
BRANCH  27  28
ATOM     28  C   UNL A   1      32.420  32.693  27.522  1.00  0.00     0.261 C 
BRANCH  28  29
ATOM     29  O   UNL A   1      33.080  33.969  27.451  1.00  0.00    -0.460 OA
BRANCH  29  30
ATOM     30  C   UNL A   1      33.231  34.658  28.604  1.00  0.00     0.338 C 
ATOM     31  O   UNL A   1      32.470  35.498  29.063  1.00  0.00    -0.246 OA
BRANCH  30  32
ATOM     32  C   UNL A   1      34.368  34.073  29.347  1.00  0.00     0.060 A 
ATOM     33  C   UNL A   1      35.674  34.271  28.874  1.00  0.00     0.016 A 
ATOM     34  C   UNL A   1      34.147  33.321  30.503  1.00  0.00     0.016 A 
ATOM     35  C   UNL A   1      36.760  33.700  29.540  1.00  0.00     0.010 A 
ATOM     36  C   UNL A   1      35.234  32.729  31.155  1.00  0.00     0.010 A 
ATOM     37  C   UNL A   1      36.542  32.889  30.662  1.00  0.00    -0.014 A 
BRANCH  37  38
ATOM     38  C   UNL A   1      37.643  32.053  31.208  1.00  0.00     0.031 A 
ATOM     39  C   UNL A   1      38.139  32.345  32.598  1.00  0.00     0.074 A 
ATOM     40  C   UNL A   1      38.195  31.055  30.497  1.00  0.00     0.049 A 
ATOM     41  N   UNL A   1      39.149  31.828  33.252  1.00  0.00    -0.248 NA
ATOM     42  C   UNL A   1      37.394  33.366  33.349  1.00  0.00     0.031 C 
ATOM     43  C   UNL A   1      37.771  30.630  29.165  1.00  0.00     0.029 A 
ATOM     44  N   UNL A   1      39.247  30.225  30.798  1.00  0.00    -0.354 N 
ATOM     45  C   UNL A   1      39.169  32.473  34.482  1.00  0.00     0.074 A 
ATOM     46  C   UNL A   1      38.092  33.440  34.470  1.00  0.00     0.031 C 
ATOM     47  C   UNL A   1      38.565  29.625  28.757  1.00  0.00     0.029 A 
ATOM     48  C   UNL A   1      39.579  29.366  29.779  1.00  0.00     0.049 A 
ATOM     49  H   UNL A   1      39.719  30.244  31.662  1.00  0.00     0.167 HD
ATOM     50  C   UNL A   1      40.005  32.275  35.529  1.00  0.00     0.037 A 
ATOM     51  C   UNL A   1      40.602  28.496  29.674  1.00  0.00     0.037 A 
ATOM     52  C   UNL A   1      41.081  31.317  35.534  1.00  0.00     0.049 A 
ATOM     53  C   UNL A   1      41.583  28.359  30.814  1.00  0.00     0.074 A 
ATOM     54  C   UNL A   1      41.979  31.033  36.549  1.00  0.00     0.029 A 
ATOM     55  N   UNL A   1      41.412  30.495  34.467  1.00  0.00    -0.354 N 
ATOM     56  N   UNL A   1      41.594  28.962  31.977  1.00  0.00    -0.248 NA
ATOM     57  C   UNL A   1      42.696  27.418  30.621  1.00  0.00     0.031 C 
ATOM     58  C   UNL A   1      42.893  30.088  36.072  1.00  0.00     0.029 A 
ATOM     59  C   UNL A   1      42.520  29.725  34.786  1.00  0.00     0.049 A 
ATOM     60  H   UNL A   1      40.930  30.462  33.609  1.00  0.00     0.167 HD
ATOM     61  C   UNL A   1      42.687  28.449  32.667  1.00  0.00     0.074 A 
ATOM     62  C   UNL A   1      43.309  27.478  31.794  1.00  0.00     0.031 C 
ATOM     63  C   UNL A   1      43.129  28.753  33.914  1.00  0.00     0.037 A 
BRANCH  50  64
ATOM     64  C   UNL A   1      39.814  33.147  36.738  1.00  0.00     0.064 A 
ATOM     65  C   UNL A   1      40.535  34.337  36.918  1.00  0.00     0.173 A 
ATOM     66  C   UNL A   1      38.895  32.783  37.735  1.00  0.00     0.173 A 
ATOM     67  F   UNL A   1      41.438  34.725  36.004  1.00  0.00    -0.203 F 
ATOM     68  C   UNL A   1      40.374  35.108  38.067  1.00  0.00     0.198 A 
ATOM     69  C   UNL A   1      38.708  33.576  38.864  1.00  0.00     0.198 A 
ATOM     70  F   UNL A   1      38.174  31.658  37.614  1.00  0.00    -0.203 F 
ATOM     71  F   UNL A   1      41.124  36.205  38.248  1.00  0.00    -0.200 F 
ATOM     72  C   UNL A   1      39.457  34.730  39.036  1.00  0.00     0.200 A 
ATOM     73  F   UNL A   1      37.810  33.217  39.791  1.00  0.00    -0.200 F 
ATOM     74  F   UNL A   1      39.303  35.472  40.142  1.00  0.00    -0.200 F 
ENDBRANCH  50  64
BRANCH  51  75
ATOM     75  C   UNL A   1      40.764  27.685  28.437  1.00  0.00     0.064 A 
ATOM     76  C   UNL A   1      41.541  28.148  27.366  1.00  0.00     0.173 A 
ATOM     77  C   UNL A   1      40.133  26.439  28.292  1.00  0.00     0.173 A 
ATOM     78  F   UNL A   1      42.138  29.346  27.443  1.00  0.00    -0.203 F 
ATOM     79  C   UNL A   1      41.671  27.404  26.195  1.00  0.00     0.198 A 
ATOM     80  C   UNL A   1      40.290  25.682  27.133  1.00  0.00     0.198 A 
ATOM     81  F   UNL A   1      39.371  25.953  29.283  1.00  0.00    -0.203 F 
ATOM     82  F   UNL A   1      42.382  27.893  25.170  1.00  0.00    -0.200 F 
ATOM     83  C   UNL A   1      41.054  26.168  26.083  1.00  0.00     0.200 A 
ATOM     84  F   UNL A   1      39.699  24.484  27.033  1.00  0.00    -0.200 F 
ATOM     85  F   UNL A   1      41.185  25.450  24.959  1.00  0.00    -0.200 F 
ENDBRANCH  51  75
BRANCH  63  86
ATOM     86  C   UNL A   1      44.317  27.992  34.436  1.00  0.00     0.064 A 
ATOM     87  C   UNL A   1      45.628  28.474  34.303  1.00  0.00     0.173 A 
ATOM     88  C   UNL A   1      44.133  26.780  35.122  1.00  0.00     0.173 A 
ATOM     89  F   UNL A   1      45.863  29.620  33.646  1.00  0.00    -0.203 F 
ATOM     90  C   UNL A   1      46.711  27.757  34.809  1.00  0.00     0.198 A 
ATOM     91  C   UNL A   1      45.214  26.085  35.659  1.00  0.00     0.198 A 
ATOM     92  F   UNL A   1      42.902  26.276  35.287  1.00  0.00    -0.203 F 
ATOM     93  F   UNL A   1      47.957  28.211  34.624  1.00  0.00    -0.200 F 
ATOM     94  C   UNL A   1      46.502  26.569  35.494  1.00  0.00     0.200 A 
ATOM     95  F   UNL A   1      45.007  24.947  36.336  1.00  0.00    -0.200 F 
ATOM     96  F   UNL A   1      47.544  25.887  35.990  1.00  0.00    -0.200 F 
ENDBRANCH  63  86
ENDBRANCH  37  38
ENDBRANCH  30  32
ENDBRANCH  29  30
ENDBRANCH  28  29
ENDBRANCH  27  28
ENDBRANCH  26  27
ENDBRANCH  25  26
ENDBRANCH   1  25
TORSDOF 21
ENDMDL
