MODEL 1
REMARK VINA RESULT:     -10.9      0.000      0.000
REMARK SMILES Cn1ccnc(N[C@H]2C=C[C@H](C(=O)OCCOCCOCCOC(=O)c3ccc(-c4c5nc(c(-c6c(F)c(F)c(F)c(F)c6F)c6ccc([nH]6)c(-c6c(F)c(F)c(F)c(F)c6F)c6nc(c(-c7c(F)c(F)c(F)c(F)c7F)c7ccc4[nH]7)C=C6)C=C5)cc3)C2)c1=O
REMARK SMILES IDX 18 1 17 2 16 3 15 4 14 5 12 6 13 7 11 8 8 9 9 10 89 11 10 12
REMARK SMILES IDX 7 13 6 15 1 16 2 17 3 18 90 19 4 20 91 21 5 22 19 23 20 24
REMARK SMILES IDX 21 25 22 26 23 27 24 28 25 29 26 30 27 31 88 32 28 33 87 34
REMARK SMILES IDX 29 35 30 36 31 37 81 38 32 39 86 40 80 41 82 42 33 43 85 44
REMARK SMILES IDX 79 45 78 46 34 48 66 49 46 50 65 51 47 52 50 53 64 54 83 55
REMARK SMILES IDX 48 56 49 57 63 59 84 60 51 61 35 62 36 63 44 64 37 65 38 66
REMARK SMILES IDX 42 67 45 68 39 69 40 70 43 71 41 72 67 73 68 74 76 75 69 76
REMARK SMILES IDX 70 77 74 78 77 79 71 80 72 81 75 82 73 83 52 84 53 85 61 86
REMARK SMILES IDX 54 87 55 88 59 89 62 90 56 91 57 92 60 93 58 94
REMARK H PARENT 7 14 82 47 50 58
REMARK Flexibility Score: inf
ROOT
ATOM      1  C   UNL A   1      34.382  33.062  28.051  1.00  0.00     0.188 C 
ENDROOT
BRANCH   1   2
ATOM      2  O   UNL A   1      34.045  31.708  28.277  1.00  0.00    -0.376 OA
BRANCH   2   3
ATOM      3  C   UNL A   1      33.442  30.935  27.248  1.00  0.00     0.202 C 
BRANCH   3   4
ATOM      4  C   UNL A   1      33.407  29.396  27.245  1.00  0.00     0.261 C 
BRANCH   4   5
ATOM      5  O   UNL A   1      32.496  28.808  26.311  1.00  0.00    -0.463 OA
BRANCH   5   6
ATOM      6  C   UNL A   1      31.651  27.859  26.806  1.00  0.00     0.312 C 
ATOM      7  O   UNL A   1      31.283  27.780  27.971  1.00  0.00    -0.252 OA
BRANCH   6   8
ATOM      8  C   UNL A   1      31.116  26.991  25.678  1.00  0.00     0.124 C 
ATOM      9  C   UNL A   1      32.486  25.080  25.021  1.00  0.00     0.105 C 
ATOM     10  C   UNL A   1      32.571  26.178  24.021  1.00  0.00    -0.006 C 
ATOM     11  C   UNL A   1      31.386  25.503  25.991  1.00  0.00     0.048 C 
ATOM     12  C   UNL A   1      31.848  27.238  24.395  1.00  0.00    -0.014 C 
BRANCH   9  13
ATOM     13  N   UNL A   1      32.283  23.799  24.409  1.00  0.00    -0.359 N 
ATOM     14  H   UNL A   1      31.625  23.814  23.678  1.00  0.00     0.162 HD
BRANCH  13  15
ATOM     15  C   UNL A   1      32.821  22.553  24.638  1.00  0.00     0.193 A 
ATOM     16  C   UNL A   1      36.055  20.512  24.992  1.00  0.00     0.153 C 
ATOM     17  N   UNL A   1      34.661  20.900  24.948  1.00  0.00    -0.314 N 
ATOM     18  C   UNL A   1      33.664  19.980  25.154  1.00  0.00     0.109 A 
ATOM     19  C   UNL A   1      34.353  22.229  24.661  1.00  0.00     0.293 A 
ATOM     20  C   UNL A   1      32.379  20.342  25.089  1.00  0.00     0.131 A 
ATOM     21  O   UNL A   1      35.201  23.074  24.415  1.00  0.00    -0.265 OA
ATOM     22  N   UNL A   1      31.929  21.608  24.835  1.00  0.00    -0.233 NA
ENDBRANCH  13  15
ENDBRANCH   9  13
ENDBRANCH   6   8
ENDBRANCH   5   6
ENDBRANCH   4   5
ENDBRANCH   3   4
ENDBRANCH   2   3
ENDBRANCH   1   2
BRANCH   1  23
ATOM     23  C   UNL A   1      33.320  34.163  28.246  1.00  0.00     0.188 C 
BRANCH  23  24
ATOM     24  O   UNL A   1      32.889  34.450  29.552  1.00  0.00    -0.376 OA
BRANCH  24  25
ATOM     25  C   UNL A   1      33.777  35.045  30.484  1.00  0.00     0.202 C 
BRANCH  25  26
ATOM     26  C   UNL A   1      34.502  34.320  31.638  1.00  0.00     0.261 C 
BRANCH  26  27
ATOM     27  O   UNL A   1      34.836  32.940  31.468  1.00  0.00    -0.460 OA
BRANCH  27  28
ATOM     28  C   UNL A   1      35.641  32.413  32.421  1.00  0.00     0.338 C 
ATOM     29  O   UNL A   1      35.501  32.478  33.636  1.00  0.00    -0.246 OA
BRANCH  28  30
ATOM     30  C   UNL A   1      36.659  31.570  31.777  1.00  0.00     0.060 A 
ATOM     31  C   UNL A   1      37.478  30.757  32.575  1.00  0.00     0.016 A 
ATOM     32  C   UNL A   1      36.844  31.629  30.397  1.00  0.00     0.016 A 
ATOM     33  C   UNL A   1      38.504  30.012  31.995  1.00  0.00     0.010 A 
ATOM     34  C   UNL A   1      37.889  30.904  29.820  1.00  0.00     0.010 A 
ATOM     35  C   UNL A   1      38.742  30.119  30.620  1.00  0.00    -0.014 A 
BRANCH  35  36
ATOM     36  C   UNL A   1      40.001  29.601  30.032  1.00  0.00     0.031 A 
ATOM     37  C   UNL A   1      41.155  30.554  29.886  1.00  0.00     0.074 A 
ATOM     38  C   UNL A   1      40.114  28.331  29.608  1.00  0.00     0.049 A 
ATOM     39  N   UNL A   1      42.294  30.397  29.263  1.00  0.00    -0.248 NA
ATOM     40  C   UNL A   1      40.993  31.870  30.526  1.00  0.00     0.031 C 
ATOM     41  C   UNL A   1      39.092  27.298  29.746  1.00  0.00     0.029 A 
ATOM     42  N   UNL A   1      41.142  27.704  28.946  1.00  0.00    -0.354 N 
ATOM     43  C   UNL A   1      42.972  31.599  29.416  1.00  0.00     0.074 A 
ATOM     44  C   UNL A   1      42.110  32.483  30.170  1.00  0.00     0.031 C 
ATOM     45  C   UNL A   1      39.533  26.170  29.161  1.00  0.00     0.029 A 
ATOM     46  C   UNL A   1      40.847  26.418  28.569  1.00  0.00     0.049 A 
ATOM     47  H   UNL A   1      42.007  28.137  28.762  1.00  0.00     0.167 HD
ATOM     48  C   UNL A   1      44.204  31.935  28.966  1.00  0.00     0.037 A 
ATOM     49  C   UNL A   1      41.544  25.558  27.799  1.00  0.00     0.037 A 
ATOM     50  C   UNL A   1      45.054  31.051  28.214  1.00  0.00     0.049 A 
ATOM     51  C   UNL A   1      42.879  25.983  27.236  1.00  0.00     0.074 A 
ATOM     52  C   UNL A   1      46.324  31.291  27.719  1.00  0.00     0.029 A 
ATOM     53  N   UNL A   1      44.716  29.759  27.842  1.00  0.00    -0.354 N 
ATOM     54  N   UNL A   1      43.522  27.117  27.386  1.00  0.00    -0.248 NA
ATOM     55  C   UNL A   1      43.587  25.008  26.392  1.00  0.00     0.031 C 
ATOM     56  C   UNL A   1      46.728  30.166  26.995  1.00  0.00     0.029 A 
ATOM     57  C   UNL A   1      45.743  29.197  27.103  1.00  0.00     0.049 A 
ATOM     58  H   UNL A   1      43.870  29.308  28.069  1.00  0.00     0.167 HD
ATOM     59  C   UNL A   1      44.723  26.973  26.702  1.00  0.00     0.074 A 
ATOM     60  C   UNL A   1      44.720  25.644  26.130  1.00  0.00     0.031 C 
ATOM     61  C   UNL A   1      45.740  27.859  26.568  1.00  0.00     0.037 A 
BRANCH  48  62
ATOM     62  C   UNL A   1      44.690  33.328  29.243  1.00  0.00     0.064 A 
ATOM     63  C   UNL A   1      44.369  34.406  28.406  1.00  0.00     0.173 A 
ATOM     64  C   UNL A   1      45.467  33.591  30.383  1.00  0.00     0.173 A 
ATOM     65  F   UNL A   1      43.642  34.206  27.296  1.00  0.00    -0.203 F 
ATOM     66  C   UNL A   1      44.830  35.690  28.683  1.00  0.00     0.198 A 
ATOM     67  C   UNL A   1      45.897  34.882  30.675  1.00  0.00     0.198 A 
ATOM     68  F   UNL A   1      45.801  32.597  31.219  1.00  0.00    -0.203 F 
ATOM     69  F   UNL A   1      44.554  36.696  27.841  1.00  0.00    -0.200 F 
ATOM     70  C   UNL A   1      45.585  35.929  29.822  1.00  0.00     0.200 A 
ATOM     71  F   UNL A   1      46.612  35.112  31.784  1.00  0.00    -0.200 F 
ATOM     72  F   UNL A   1      46.020  37.167  30.092  1.00  0.00    -0.200 F 
ENDBRANCH  48  62
BRANCH  49  73
ATOM     73  C   UNL A   1      40.991  24.212  27.493  1.00  0.00     0.064 A 
ATOM     74  C   UNL A   1      41.541  23.057  28.066  1.00  0.00     0.173 A 
ATOM     75  C   UNL A   1      39.922  24.047  26.599  1.00  0.00     0.173 A 
ATOM     76  F   UNL A   1      42.583  23.158  28.906  1.00  0.00    -0.203 F 
ATOM     77  C   UNL A   1      41.061  21.790  27.741  1.00  0.00     0.198 A 
ATOM     78  C   UNL A   1      39.422  22.782  26.298  1.00  0.00     0.198 A 
ATOM     79  F   UNL A   1      39.361  25.117  26.017  1.00  0.00    -0.203 F 
ATOM     80  F   UNL A   1      41.643  20.701  28.260  1.00  0.00    -0.200 F 
ATOM     81  C   UNL A   1      39.997  21.654  26.861  1.00  0.00     0.200 A 
ATOM     82  F   UNL A   1      38.387  22.656  25.455  1.00  0.00    -0.200 F 
ATOM     83  F   UNL A   1      39.536  20.435  26.548  1.00  0.00    -0.200 F 
ENDBRANCH  49  73
BRANCH  61  84
ATOM     84  C   UNL A   1      46.979  27.408  25.845  1.00  0.00     0.064 A 
ATOM     85  C   UNL A   1      47.177  27.653  24.480  1.00  0.00     0.173 A 
ATOM     86  C   UNL A   1      48.020  26.793  26.560  1.00  0.00     0.173 A 
ATOM     87  F   UNL A   1      46.210  28.228  23.749  1.00  0.00    -0.203 F 
ATOM     88  C   UNL A   1      48.366  27.287  23.853  1.00  0.00     0.198 A 
ATOM     89  C   UNL A   1      49.219  26.458  25.938  1.00  0.00     0.198 A 
ATOM     90  F   UNL A   1      47.885  26.544  27.871  1.00  0.00    -0.203 F 
ATOM     91  F   UNL A   1      48.521  27.499  22.538  1.00  0.00    -0.200 F 
ATOM     92  C   UNL A   1      49.388  26.701  24.584  1.00  0.00     0.200 A 
ATOM     93  F   UNL A   1      50.212  25.911  26.650  1.00  0.00    -0.200 F 
ATOM     94  F   UNL A   1      50.540  26.369  23.982  1.00  0.00    -0.200 F 
ENDBRANCH  61  84
ENDBRANCH  35  36
ENDBRANCH  28  30
ENDBRANCH  27  28
ENDBRANCH  26  27
ENDBRANCH  25  26
ENDBRANCH  24  25
ENDBRANCH  23  24
ENDBRANCH   1  23
TORSDOF 19
ENDMDL
MODEL 2
REMARK VINA RESULT:     -10.4      4.629      9.117
REMARK SMILES Cn1ccnc(N[C@H]2C=C[C@H](C(=O)OCCOCCOCCOC(=O)c3ccc(-c4c5nc(c(-c6c(F)c(F)c(F)c(F)c6F)c6ccc([nH]6)c(-c6c(F)c(F)c(F)c(F)c6F)c6nc(c(-c7c(F)c(F)c(F)c(F)c7F)c7ccc4[nH]7)C=C6)C=C5)cc3)C2)c1=O
REMARK SMILES IDX 18 1 17 2 16 3 15 4 14 5 12 6 13 7 11 8 8 9 9 10 89 11 10 12
REMARK SMILES IDX 7 13 6 15 1 16 2 17 3 18 90 19 4 20 91 21 5 22 19 23 20 24
REMARK SMILES IDX 21 25 22 26 23 27 24 28 25 29 26 30 27 31 88 32 28 33 87 34
REMARK SMILES IDX 29 35 30 36 31 37 81 38 32 39 86 40 80 41 82 42 33 43 85 44
REMARK SMILES IDX 79 45 78 46 34 48 66 49 46 50 65 51 47 52 50 53 64 54 83 55
REMARK SMILES IDX 48 56 49 57 63 59 84 60 51 61 35 62 36 63 44 64 37 65 38 66
REMARK SMILES IDX 42 67 45 68 39 69 40 70 43 71 41 72 67 73 68 74 76 75 69 76
REMARK SMILES IDX 70 77 74 78 77 79 71 80 72 81 75 82 73 83 52 84 53 85 61 86
REMARK SMILES IDX 54 87 55 88 59 89 62 90 56 91 57 92 60 93 58 94
REMARK H PARENT 7 14 82 47 50 58
REMARK Flexibility Score: inf
ROOT
ATOM      1  C   UNL A   1      33.124  28.907  27.262  1.00  0.00     0.188 C 
ENDROOT
BRANCH   1   2
ATOM      2  O   UNL A   1      32.039  28.008  27.365  1.00  0.00    -0.376 OA
BRANCH   2   3
ATOM      3  C   UNL A   1      31.466  27.433  26.198  1.00  0.00     0.202 C 
BRANCH   3   4
ATOM      4  C   UNL A   1      30.925  25.994  26.132  1.00  0.00     0.261 C 
BRANCH   4   5
ATOM      5  O   UNL A   1      31.906  24.983  25.879  1.00  0.00    -0.463 OA
BRANCH   5   6
ATOM      6  C   UNL A   1      31.608  23.727  26.319  1.00  0.00     0.312 C 
ATOM      7  O   UNL A   1      31.475  23.403  27.493  1.00  0.00    -0.252 OA
BRANCH   6   8
ATOM      8  C   UNL A   1      31.325  22.810  25.140  1.00  0.00     0.124 C 
ATOM      9  C   UNL A   1      33.009  21.117  24.639  1.00  0.00     0.105 C 
ATOM     10  C   UNL A   1      33.050  22.230  23.654  1.00  0.00    -0.006 C 
ATOM     11  C   UNL A   1      31.762  21.369  25.482  1.00  0.00     0.048 C 
ATOM     12  C   UNL A   1      32.151  23.175  23.945  1.00  0.00    -0.014 C 
BRANCH   9  13
ATOM     13  N   UNL A   1      33.054  19.829  24.009  1.00  0.00    -0.359 N 
ATOM     14  H   UNL A   1      32.957  19.868  23.031  1.00  0.00     0.162 HD
BRANCH  13  15
ATOM     15  C   UNL A   1      33.203  18.550  24.495  1.00  0.00     0.193 A 
ATOM     16  C   UNL A   1      35.696  15.782  25.427  1.00  0.00     0.153 C 
ATOM     17  N   UNL A   1      34.477  16.534  25.222  1.00  0.00    -0.314 N 
ATOM     18  C   UNL A   1      33.252  15.994  25.525  1.00  0.00     0.109 A 
ATOM     19  C   UNL A   1      34.573  17.814  24.679  1.00  0.00     0.293 A 
ATOM     20  C   UNL A   1      32.130  16.686  25.311  1.00  0.00     0.131 A 
ATOM     21  O   UNL A   1      35.633  18.319  24.339  1.00  0.00    -0.265 OA
ATOM     22  N   UNL A   1      32.071  17.955  24.802  1.00  0.00    -0.233 NA
ENDBRANCH  13  15
ENDBRANCH   9  13
ENDBRANCH   6   8
ENDBRANCH   5   6
ENDBRANCH   4   5
ENDBRANCH   3   4
ENDBRANCH   2   3
ENDBRANCH   1   2
BRANCH   1  23
ATOM     23  C   UNL A   1      32.935  30.264  26.552  1.00  0.00     0.188 C 
BRANCH  23  24
ATOM     24  O   UNL A   1      31.837  31.060  26.918  1.00  0.00    -0.376 OA
BRANCH  24  25
ATOM     25  C   UNL A   1      31.921  32.474  26.839  1.00  0.00     0.202 C 
BRANCH  25  26
ATOM     26  C   UNL A   1      32.810  33.381  27.715  1.00  0.00     0.261 C 
BRANCH  26  27
ATOM     27  O   UNL A   1      32.340  34.695  28.029  1.00  0.00    -0.460 OA
BRANCH  27  28
ATOM     28  C   UNL A   1      33.028  35.346  28.995  1.00  0.00     0.338 C 
ATOM     29  O   UNL A   1      32.718  36.388  29.559  1.00  0.00    -0.246 OA
BRANCH  28  30
ATOM     30  C   UNL A   1      34.165  34.515  29.419  1.00  0.00     0.060 A 
ATOM     31  C   UNL A   1      33.997  33.619  30.485  1.00  0.00     0.016 A 
ATOM     32  C   UNL A   1      35.406  34.664  28.804  1.00  0.00     0.016 A 
ATOM     33  C   UNL A   1      35.082  32.880  30.956  1.00  0.00     0.010 A 
ATOM     34  C   UNL A   1      36.499  33.945  29.295  1.00  0.00     0.010 A 
ATOM     35  C   UNL A   1      36.347  33.076  30.392  1.00  0.00    -0.014 A 
BRANCH  35  36
ATOM     36  C   UNL A   1      37.561  32.556  31.068  1.00  0.00     0.031 A 
ATOM     37  C   UNL A   1      38.322  31.448  30.394  1.00  0.00     0.074 A 
ATOM     38  C   UNL A   1      37.964  33.027  32.260  1.00  0.00     0.049 A 
ATOM     39  N   UNL A   1      39.307  30.717  30.847  1.00  0.00    -0.248 NA
ATOM     40  C   UNL A   1      37.901  31.114  29.023  1.00  0.00     0.031 C 
ATOM     41  C   UNL A   1      37.349  34.135  32.985  1.00  0.00     0.029 A 
ATOM     42  N   UNL A   1      38.980  32.606  33.083  1.00  0.00    -0.354 N 
ATOM     43  C   UNL A   1      39.608  29.824  29.826  1.00  0.00     0.074 A 
ATOM     44  C   UNL A   1      38.688  30.088  28.742  1.00  0.00     0.031 C 
ATOM     45  C   UNL A   1      37.983  34.290  34.160  1.00  0.00     0.029 A 
ATOM     46  C   UNL A   1      39.017  33.263  34.288  1.00  0.00     0.049 A 
ATOM     47  H   UNL A   1      39.620  31.901  32.831  1.00  0.00     0.167 HD
ATOM     48  C   UNL A   1      40.567  28.868  29.799  1.00  0.00     0.037 A 
ATOM     49  C   UNL A   1      39.772  33.030  35.380  1.00  0.00     0.037 A 
ATOM     50  C   UNL A   1      41.477  28.610  30.883  1.00  0.00     0.049 A 
ATOM     51  C   UNL A   1      40.778  31.904  35.358  1.00  0.00     0.074 A 
ATOM     52  C   UNL A   1      42.490  27.670  30.952  1.00  0.00     0.029 A 
ATOM     53  N   UNL A   1      41.476  29.289  32.091  1.00  0.00    -0.354 N 
ATOM     54  N   UNL A   1      41.066  31.065  34.392  1.00  0.00    -0.248 NA
ATOM     55  C   UNL A   1      41.565  31.690  36.584  1.00  0.00     0.031 C 
ATOM     56  C   UNL A   1      43.062  27.740  32.225  1.00  0.00     0.029 A 
ATOM     57  C   UNL A   1      42.456  28.774  32.923  1.00  0.00     0.049 A 
ATOM     58  H   UNL A   1      40.867  30.028  32.325  1.00  0.00     0.167 HD
ATOM     59  C   UNL A   1      42.095  30.262  34.872  1.00  0.00     0.074 A 
ATOM     60  C   UNL A   1      42.378  30.709  36.219  1.00  0.00     0.031 C 
ATOM     61  C   UNL A   1      42.750  29.252  34.249  1.00  0.00     0.037 A 
BRANCH  48  62
ATOM     62  C   UNL A   1      40.656  28.008  28.572  1.00  0.00     0.064 A 
ATOM     63  C   UNL A   1      39.975  26.786  28.471  1.00  0.00     0.173 A 
ATOM     64  C   UNL A   1      41.414  28.429  27.468  1.00  0.00     0.173 A 
ATOM     65  F   UNL A   1      39.248  26.331  29.504  1.00  0.00    -0.203 F 
ATOM     66  C   UNL A   1      40.071  26.005  27.323  1.00  0.00     0.198 A 
ATOM     67  C   UNL A   1      41.480  27.662  26.308  1.00  0.00     0.198 A 
ATOM     68  F   UNL A   1      42.083  29.591  27.509  1.00  0.00    -0.203 F 
ATOM     69  F   UNL A   1      39.454  24.816  27.270  1.00  0.00    -0.200 F 
ATOM     70  C   UNL A   1      40.816  26.447  26.239  1.00  0.00     0.200 A 
ATOM     71  F   UNL A   1      42.187  28.099  25.258  1.00  0.00    -0.200 F 
ATOM     72  F   UNL A   1      40.899  25.698  25.132  1.00  0.00    -0.200 F 
ENDBRANCH  48  62
BRANCH  49  73
ATOM     73  C   UNL A   1      39.601  33.865  36.598  1.00  0.00     0.064 A 
ATOM     74  C   UNL A   1      38.784  33.442  37.656  1.00  0.00     0.173 A 
ATOM     75  C   UNL A   1      40.225  35.116  36.721  1.00  0.00     0.173 A 
ATOM     76  F   UNL A   1      38.142  32.266  37.576  1.00  0.00    -0.203 F 
ATOM     77  C   UNL A   1      38.578  34.245  38.776  1.00  0.00     0.198 A 
ATOM     78  C   UNL A   1      40.044  35.904  37.856  1.00  0.00     0.198 A 
ATOM     79  F   UNL A   1      41.014  35.573  35.737  1.00  0.00    -0.203 F 
ATOM     80  F   UNL A   1      37.746  33.840  39.745  1.00  0.00    -0.200 F 
ATOM     81  C   UNL A   1      39.213  35.473  38.878  1.00  0.00     0.200 A 
ATOM     82  F   UNL A   1      40.668  37.086  37.954  1.00  0.00    -0.200 F 
ATOM     83  F   UNL A   1      39.015  36.246  39.955  1.00  0.00    -0.200 F 
ENDBRANCH  49  73
BRANCH  61  84
ATOM     84  C   UNL A   1      43.897  28.603  34.972  1.00  0.00     0.064 A 
ATOM     85  C   UNL A   1      43.717  27.505  35.824  1.00  0.00     0.173 A 
ATOM     86  C   UNL A   1      45.210  29.044  34.737  1.00  0.00     0.173 A 
ATOM     87  F   UNL A   1      42.484  27.052  36.092  1.00  0.00    -0.203 F 
ATOM     88  C   UNL A   1      44.808  26.880  36.424  1.00  0.00     0.198 A 
ATOM     89  C   UNL A   1      46.300  28.396  35.312  1.00  0.00     0.198 A 
ATOM     90  F   UNL A   1      45.438  30.085  33.922  1.00  0.00    -0.203 F 
ATOM     91  F   UNL A   1      44.611  25.853  37.264  1.00  0.00    -0.200 F 
ATOM     92  C   UNL A   1      46.097  27.318  36.159  1.00  0.00     0.200 A 
ATOM     93  F   UNL A   1      47.544  28.809  35.038  1.00  0.00    -0.200 F 
ATOM     94  F   UNL A   1      47.146  26.701  36.721  1.00  0.00    -0.200 F 
ENDBRANCH  61  84
ENDBRANCH  35  36
ENDBRANCH  28  30
ENDBRANCH  27  28
ENDBRANCH  26  27
ENDBRANCH  25  26
ENDBRANCH  24  25
ENDBRANCH  23  24
ENDBRANCH   1  23
TORSDOF 19
ENDMDL
MODEL 3
REMARK VINA RESULT:     -10.3      1.017      2.080
REMARK SMILES Cn1ccnc(N[C@H]2C=C[C@H](C(=O)OCCOCCOCCOC(=O)c3ccc(-c4c5nc(c(-c6c(F)c(F)c(F)c(F)c6F)c6ccc([nH]6)c(-c6c(F)c(F)c(F)c(F)c6F)c6nc(c(-c7c(F)c(F)c(F)c(F)c7F)c7ccc4[nH]7)C=C6)C=C5)cc3)C2)c1=O
REMARK SMILES IDX 18 1 17 2 16 3 15 4 14 5 12 6 13 7 11 8 8 9 9 10 89 11 10 12
REMARK SMILES IDX 7 13 6 15 1 16 2 17 3 18 90 19 4 20 91 21 5 22 19 23 20 24
REMARK SMILES IDX 21 25 22 26 23 27 24 28 25 29 26 30 27 31 88 32 28 33 87 34
REMARK SMILES IDX 29 35 30 36 31 37 81 38 32 39 86 40 80 41 82 42 33 43 85 44
REMARK SMILES IDX 79 45 78 46 34 48 66 49 46 50 65 51 47 52 50 53 64 54 83 55
REMARK SMILES IDX 48 56 49 57 63 59 84 60 51 61 35 62 36 63 44 64 37 65 38 66
REMARK SMILES IDX 42 67 45 68 39 69 40 70 43 71 41 72 67 73 68 74 76 75 69 76
REMARK SMILES IDX 70 77 74 78 77 79 71 80 72 81 75 82 73 83 52 84 53 85 61 86
REMARK SMILES IDX 54 87 55 88 59 89 62 90 56 91 57 92 60 93 58 94
REMARK H PARENT 7 14 82 47 50 58
REMARK Flexibility Score: inf
ROOT
ATOM      1  C   UNL A   1      33.660  31.770  27.911  1.00  0.00     0.188 C 
ENDROOT
BRANCH   1   2
ATOM      2  O   UNL A   1      33.131  31.433  26.645  1.00  0.00    -0.376 OA
BRANCH   2   3
ATOM      3  C   UNL A   1      31.870  30.785  26.541  1.00  0.00     0.202 C 
BRANCH   3   4
ATOM      4  C   UNL A   1      31.304  30.224  25.224  1.00  0.00     0.261 C 
BRANCH   4   5
ATOM      5  O   UNL A   1      31.415  28.806  25.067  1.00  0.00    -0.463 OA
BRANCH   5   6
ATOM      6  C   UNL A   1      32.679  28.306  24.956  1.00  0.00     0.312 C 
ATOM      7  O   UNL A   1      33.484  28.609  24.084  1.00  0.00    -0.252 OA
BRANCH   6   8
ATOM      8  C   UNL A   1      33.002  27.422  26.151  1.00  0.00     0.124 C 
ATOM      9  C   UNL A   1      33.108  25.019  25.738  1.00  0.00     0.105 C 
ATOM     10  C   UNL A   1      31.862  25.391  26.459  1.00  0.00    -0.006 C 
ATOM     11  C   UNL A   1      33.956  26.288  25.718  1.00  0.00     0.048 C 
ATOM     12  C   UNL A   1      31.785  26.710  26.657  1.00  0.00    -0.014 C 
BRANCH   9  13
ATOM     13  N   UNL A   1      33.754  23.878  26.319  1.00  0.00    -0.359 N 
ATOM     14  H   UNL A   1      34.059  24.028  27.243  1.00  0.00     0.162 HD
BRANCH  13  15
ATOM     15  C   UNL A   1      34.036  22.616  25.846  1.00  0.00     0.193 A 
ATOM     16  C   UNL A   1      32.585  19.401  24.328  1.00  0.00     0.153 C 
ATOM     17  N   UNL A   1      33.499  20.396  24.847  1.00  0.00    -0.314 N 
ATOM     18  C   UNL A   1      34.848  20.152  24.916  1.00  0.00     0.109 A 
ATOM     19  C   UNL A   1      32.972  21.603  25.306  1.00  0.00     0.293 A 
ATOM     20  C   UNL A   1      35.681  21.068  25.417  1.00  0.00     0.131 A 
ATOM     21  O   UNL A   1      31.775  21.848  25.319  1.00  0.00    -0.265 OA
ATOM     22  N   UNL A   1      35.312  22.298  25.887  1.00  0.00    -0.233 NA
ENDBRANCH  13  15
ENDBRANCH   9  13
ENDBRANCH   6   8
ENDBRANCH   5   6
ENDBRANCH   4   5
ENDBRANCH   3   4
ENDBRANCH   2   3
ENDBRANCH   1   2
BRANCH   1  23
ATOM     23  C   UNL A   1      34.909  32.671  28.009  1.00  0.00     0.188 C 
BRANCH  23  24
ATOM     24  O   UNL A   1      34.725  34.038  28.277  1.00  0.00    -0.376 OA
BRANCH  24  25
ATOM     25  C   UNL A   1      34.044  34.452  29.450  1.00  0.00     0.202 C 
BRANCH  25  26
ATOM     26  C   UNL A   1      34.383  34.027  30.894  1.00  0.00     0.261 C 
BRANCH  26  27
ATOM     27  O   UNL A   1      35.753  33.785  31.227  1.00  0.00    -0.460 OA
BRANCH  27  28
ATOM     28  C   UNL A   1      35.974  32.755  32.076  1.00  0.00     0.338 C 
ATOM     29  O   UNL A   1      35.344  32.472  33.087  1.00  0.00    -0.246 OA
BRANCH  28  30
ATOM     30  C   UNL A   1      37.013  31.881  31.511  1.00  0.00     0.060 A 
ATOM     31  C   UNL A   1      37.931  31.263  32.374  1.00  0.00     0.016 A 
ATOM     32  C   UNL A   1      37.117  31.721  30.131  1.00  0.00     0.016 A 
ATOM     33  C   UNL A   1      38.973  30.496  31.855  1.00  0.00     0.010 A 
ATOM     34  C   UNL A   1      38.177  30.975  29.610  1.00  0.00     0.010 A 
ATOM     35  C   UNL A   1      39.127  30.388  30.468  1.00  0.00    -0.014 A 
BRANCH  35  36
ATOM     36  C   UNL A   1      40.385  29.858  29.889  1.00  0.00     0.031 A 
ATOM     37  C   UNL A   1      41.527  30.815  29.690  1.00  0.00     0.074 A 
ATOM     38  C   UNL A   1      40.506  28.572  29.519  1.00  0.00     0.049 A 
ATOM     39  N   UNL A   1      42.661  30.642  29.061  1.00  0.00    -0.248 NA
ATOM     40  C   UNL A   1      41.358  32.156  30.274  1.00  0.00     0.031 C 
ATOM     41  C   UNL A   1      39.497  27.535  29.713  1.00  0.00     0.029 A 
ATOM     42  N   UNL A   1      41.534  27.927  28.874  1.00  0.00    -0.354 N 
ATOM     43  C   UNL A   1      43.328  31.857  29.155  1.00  0.00     0.074 A 
ATOM     44  C   UNL A   1      42.465  32.764  29.879  1.00  0.00     0.031 C 
ATOM     45  C   UNL A   1      39.943  26.388  29.173  1.00  0.00     0.029 A 
ATOM     46  C   UNL A   1      41.249  26.622  28.556  1.00  0.00     0.049 A 
ATOM     47  H   UNL A   1      42.393  28.360  28.662  1.00  0.00     0.167 HD
ATOM     48  C   UNL A   1      44.551  32.185  28.677  1.00  0.00     0.037 A 
ATOM     49  C   UNL A   1      41.946  25.737  27.817  1.00  0.00     0.037 A 
ATOM     50  C   UNL A   1      45.403  31.278  27.955  1.00  0.00     0.049 A 
ATOM     51  C   UNL A   1      43.271  26.151  27.221  1.00  0.00     0.074 A 
ATOM     52  C   UNL A   1      46.665  31.509  27.435  1.00  0.00     0.029 A 
ATOM     53  N   UNL A   1      45.074  29.968  27.643  1.00  0.00    -0.354 N 
ATOM     54  N   UNL A   1      43.903  27.297  27.315  1.00  0.00    -0.248 NA
ATOM     55  C   UNL A   1      43.980  25.147  26.413  1.00  0.00     0.031 C 
ATOM     56  C   UNL A   1      47.073  30.358  26.757  1.00  0.00     0.029 A 
ATOM     57  C   UNL A   1      46.099  29.384  26.917  1.00  0.00     0.049 A 
ATOM     58  H   UNL A   1      44.236  29.519  27.898  1.00  0.00     0.167 HD
ATOM     59  C   UNL A   1      45.099  27.135  26.625  1.00  0.00     0.074 A 
ATOM     60  C   UNL A   1      45.104  25.782  26.111  1.00  0.00     0.031 C 
ATOM     61  C   UNL A   1      46.105  28.025  26.441  1.00  0.00     0.037 A 
BRANCH  48  62
ATOM     62  C   UNL A   1      45.026  33.593  28.888  1.00  0.00     0.064 A 
ATOM     63  C   UNL A   1      45.796  33.957  30.001  1.00  0.00     0.173 A 
ATOM     64  C   UNL A   1      44.728  34.589  27.943  1.00  0.00     0.173 A 
ATOM     65  F   UNL A   1      46.097  33.048  30.942  1.00  0.00    -0.203 F 
ATOM     66  C   UNL A   1      46.227  35.270  30.177  1.00  0.00     0.198 A 
ATOM     67  C   UNL A   1      45.190  35.892  28.104  1.00  0.00     0.198 A 
ATOM     68  F   UNL A   1      43.997  34.294  26.858  1.00  0.00    -0.203 F 
ATOM     69  F   UNL A   1      46.918  35.606  31.275  1.00  0.00    -0.200 F 
ATOM     70  C   UNL A   1      45.932  36.234  29.224  1.00  0.00     0.200 A 
ATOM     71  F   UNL A   1      44.916  36.816  27.174  1.00  0.00    -0.200 F 
ATOM     72  F   UNL A   1      46.356  37.494  29.389  1.00  0.00    -0.200 F 
ENDBRANCH  48  62
BRANCH  49  73
ATOM     73  C   UNL A   1      41.404  24.374  27.576  1.00  0.00     0.064 A 
ATOM     74  C   UNL A   1      42.003  23.245  28.154  1.00  0.00     0.173 A 
ATOM     75  C   UNL A   1      40.297  24.164  26.739  1.00  0.00     0.173 A 
ATOM     76  F   UNL A   1      43.081  23.388  28.940  1.00  0.00    -0.203 F 
ATOM     77  C   UNL A   1      41.531  21.961  27.887  1.00  0.00     0.198 A 
ATOM     78  C   UNL A   1      39.807  22.883  26.498  1.00  0.00     0.198 A 
ATOM     79  F   UNL A   1      39.689  25.208  26.155  1.00  0.00    -0.203 F 
ATOM     80  F   UNL A   1      42.157  20.898  28.408  1.00  0.00    -0.200 F 
ATOM     81  C   UNL A   1      40.429  21.782  27.064  1.00  0.00     0.200 A 
ATOM     82  F   UNL A   1      38.736  22.715  25.710  1.00  0.00    -0.200 F 
ATOM     83  F   UNL A   1      39.976  20.547  26.807  1.00  0.00    -0.200 F 
ENDBRANCH  49  73
BRANCH  61  84
ATOM     84  C   UNL A   1      47.340  27.555  25.725  1.00  0.00     0.064 A 
ATOM     85  C   UNL A   1      48.405  26.941  26.398  1.00  0.00     0.173 A 
ATOM     86  C   UNL A   1      47.416  27.651  24.325  1.00  0.00     0.173 A 
ATOM     87  F   UNL A   1      48.388  26.834  27.735  1.00  0.00    -0.203 F 
ATOM     88  C   UNL A   1      49.505  26.451  25.698  1.00  0.00     0.198 A 
ATOM     89  C   UNL A   1      48.502  27.132  23.627  1.00  0.00     0.198 A 
ATOM     90  F   UNL A   1      46.419  28.223  23.632  1.00  0.00    -0.203 F 
ATOM     91  F   UNL A   1      50.529  25.898  26.364  1.00  0.00    -0.200 F 
ATOM     92  C   UNL A   1      49.547  26.537  24.314  1.00  0.00     0.200 A 
ATOM     93  F   UNL A   1      48.530  27.198  22.289  1.00  0.00    -0.200 F 
ATOM     94  F   UNL A   1      50.598  26.045  23.641  1.00  0.00    -0.200 F 
ENDBRANCH  61  84
ENDBRANCH  35  36
ENDBRANCH  28  30
ENDBRANCH  27  28
ENDBRANCH  26  27
ENDBRANCH  25  26
ENDBRANCH  24  25
ENDBRANCH  23  24
ENDBRANCH   1  23
TORSDOF 19
ENDMDL
