MODEL 1
REMARK VINA RESULT:     -11.5      0.000      0.000
REMARK SMILES Cc1cc2c(c(C)c1Cl)C=C(C(=O)OCCOCCOCCOC(=O)c1ccc(-c3c4nc(c(-c5c(F)c(F)c(F)c(F)c5F)c5ccc([nH]5)c(-c5c(F)c(F)c(F)c(F)c5F)c5nc(c(-c6c(F)c(F)c(F)c(F)c6F)c6ccc3[nH]6)C=C5)C=C4)cc1)[C@H](C(F)(F)F)O2
REMARK SMILES IDX 19 1 18 2 17 3 16 4 15 5 14 6 12 7 13 8 11 9 1 10 2 11 3 12
REMARK SMILES IDX 8 13 4 14 6 15 9 16 5 17 94 18 7 19 10 20 89 21 90 22 91 23
REMARK SMILES IDX 92 24 93 25 20 26 21 27 22 28 23 29 24 30 25 31 26 32 27 33
REMARK SMILES IDX 88 34 28 35 87 36 29 37 30 38 31 39 81 40 32 41 86 42 80 43
REMARK SMILES IDX 82 44 33 45 85 46 79 47 78 48 34 50 66 51 46 52 65 53 47 54
REMARK SMILES IDX 50 55 64 56 83 57 48 58 49 59 63 61 84 62 51 63 35 64 36 65
REMARK SMILES IDX 44 66 37 67 38 68 42 69 45 70 39 71 40 72 43 73 41 74 67 75
REMARK SMILES IDX 68 76 76 77 69 78 70 79 74 80 77 81 71 82 72 83 75 84 73 85
REMARK SMILES IDX 52 86 53 87 61 88 54 89 55 90 59 91 62 92 56 93 57 94 60 95
REMARK SMILES IDX 58 96
REMARK H PARENT 82 49 50 60
REMARK Flexibility Score: inf
ROOT
ATOM      1  C   UNL A   1      32.417  36.059  32.290  1.00  0.00     0.188 C 
ENDROOT
BRANCH   1   2
ATOM      2  C   UNL A   1      32.690  36.416  30.817  1.00  0.00     0.188 C 
BRANCH   2   3
ATOM      3  O   UNL A   1      32.598  35.414  29.812  1.00  0.00    -0.376 OA
BRANCH   3   4
ATOM      4  C   UNL A   1      33.772  34.735  29.378  1.00  0.00     0.202 C 
BRANCH   4   5
ATOM      5  C   UNL A   1      33.765  34.044  28.005  1.00  0.00     0.261 C 
BRANCH   5   6
ATOM      6  O   UNL A   1      33.480  32.629  28.029  1.00  0.00    -0.460 OA
BRANCH   6   7
ATOM      7  C   UNL A   1      32.443  32.222  27.266  1.00  0.00     0.338 C 
ATOM      8  O   UNL A   1      31.566  32.935  26.803  1.00  0.00    -0.246 OA
BRANCH   7   9
ATOM      9  C   UNL A   1      32.563  30.792  26.911  1.00  0.00     0.087 C 
ATOM     10  C   UNL A   1      30.885  24.701  25.426  1.00  0.00     0.046 C 
ATOM     11  C   UNL A   1      31.158  26.183  25.448  1.00  0.00    -0.028 A 
ATOM     12  C   UNL A   1      31.955  26.704  26.474  1.00  0.00     0.052 A 
ATOM     13  C   UNL A   1      30.619  27.061  24.487  1.00  0.00     0.047 A 
ATOM     14  C   UNL A   1      32.173  28.075  26.580  1.00  0.00     0.128 A 
ATOM     15  C   UNL A   1      30.841  28.457  24.569  1.00  0.00    -0.021 A 
ATOM     16  Cl  UNL A   1      29.643  26.392  23.212  1.00  0.00    -0.084 Cl
ATOM     17  C   UNL A   1      31.614  28.959  25.648  1.00  0.00     0.022 A 
ATOM     18  O   UNL A   1      32.868  28.473  27.691  1.00  0.00    -0.475 OA
ATOM     19  C   UNL A   1      30.232  29.416  23.570  1.00  0.00     0.047 C 
ATOM     20  C   UNL A   1      31.755  30.389  25.918  1.00  0.00     0.027 C 
ATOM     21  C   UNL A   1      33.376  29.838  27.740  1.00  0.00     0.316 C 
BRANCH  21  22
ATOM     22  C   UNL A   1      34.888  29.799  27.451  1.00  0.00     0.430 C 
ATOM     23  F   UNL A   1      35.406  31.035  27.286  1.00  0.00    -0.167 F 
ATOM     24  F   UNL A   1      35.566  29.239  28.487  1.00  0.00    -0.167 F 
ATOM     25  F   UNL A   1      35.183  29.070  26.349  1.00  0.00    -0.167 F 
ENDBRANCH  21  22
ENDBRANCH   7   9
ENDBRANCH   6   7
ENDBRANCH   5   6
ENDBRANCH   4   5
ENDBRANCH   3   4
ENDBRANCH   2   3
ENDBRANCH   1   2
BRANCH   1  26
ATOM     26  O   UNL A   1      33.393  36.540  33.188  1.00  0.00    -0.376 OA
BRANCH  26  27
ATOM     27  C   UNL A   1      34.695  35.991  33.091  1.00  0.00     0.202 C 
BRANCH  27  28
ATOM     28  C   UNL A   1      34.904  34.536  33.544  1.00  0.00     0.261 C 
BRANCH  28  29
ATOM     29  O   UNL A   1      35.810  33.741  32.756  1.00  0.00    -0.460 OA
BRANCH  29  30
ATOM     30  C   UNL A   1      35.318  32.629  32.169  1.00  0.00     0.338 C 
ATOM     31  O   UNL A   1      34.143  32.337  32.006  1.00  0.00    -0.246 OA
BRANCH  30  32
ATOM     32  C   UNL A   1      36.455  31.906  31.559  1.00  0.00     0.060 A 
ATOM     33  C   UNL A   1      37.278  31.112  32.371  1.00  0.00     0.016 A 
ATOM     34  C   UNL A   1      36.697  31.994  30.186  1.00  0.00     0.016 A 
ATOM     35  C   UNL A   1      38.349  30.410  31.812  1.00  0.00     0.010 A 
ATOM     36  C   UNL A   1      37.786  31.312  29.632  1.00  0.00     0.010 A 
ATOM     37  C   UNL A   1      38.629  30.534  30.444  1.00  0.00    -0.014 A 
BRANCH  37  38
ATOM     38  C   UNL A   1      39.910  30.012  29.903  1.00  0.00     0.031 A 
ATOM     39  C   UNL A   1      41.094  30.938  29.865  1.00  0.00     0.074 A 
ATOM     40  C   UNL A   1      40.034  28.741  29.482  1.00  0.00     0.049 A 
ATOM     41  N   UNL A   1      42.295  30.735  29.388  1.00  0.00    -0.248 NA
ATOM     42  C   UNL A   1      40.895  32.275  30.449  1.00  0.00     0.031 C 
ATOM     43  C   UNL A   1      38.984  27.728  29.526  1.00  0.00     0.029 A 
ATOM     44  N   UNL A   1      41.111  28.088  28.930  1.00  0.00    -0.354 N 
ATOM     45  C   UNL A   1      42.994  31.912  29.620  1.00  0.00     0.074 A 
ATOM     46  C   UNL A   1      42.076  32.839  30.246  1.00  0.00     0.031 C 
ATOM     47  C   UNL A   1      39.466  26.579  29.016  1.00  0.00     0.029 A 
ATOM     48  C   UNL A   1      40.846  26.788  28.575  1.00  0.00     0.049 A 
ATOM     49  H   UNL A   1      41.989  28.512  28.801  1.00  0.00     0.167 HD
ATOM     50  C   UNL A   1      44.290  32.191  29.349  1.00  0.00     0.037 A 
ATOM     51  C   UNL A   1      41.622  25.881  27.946  1.00  0.00     0.037 A 
ATOM     52  C   UNL A   1      45.202  31.274  28.721  1.00  0.00     0.049 A 
ATOM     53  C   UNL A   1      43.029  26.257  27.548  1.00  0.00     0.074 A 
ATOM     54  C   UNL A   1      46.531  31.470  28.396  1.00  0.00     0.029 A 
ATOM     55  N   UNL A   1      44.877  29.987  28.320  1.00  0.00    -0.354 N 
ATOM     56  N   UNL A   1      43.686  27.370  27.772  1.00  0.00    -0.248 NA
ATOM     57  C   UNL A   1      43.804  25.250  26.806  1.00  0.00     0.031 C 
ATOM     58  C   UNL A   1      46.997  30.324  27.747  1.00  0.00     0.029 A 
ATOM     59  C   UNL A   1      45.975  29.389  27.725  1.00  0.00     0.049 A 
ATOM     60  H   UNL A   1      43.997  29.562  28.440  1.00  0.00     0.167 HD
ATOM     61  C   UNL A   1      44.952  27.186  27.229  1.00  0.00     0.074 A 
ATOM     62  C   UNL A   1      44.979  25.850  26.677  1.00  0.00     0.031 C 
ATOM     63  C   UNL A   1      45.997  28.051  27.191  1.00  0.00     0.037 A 
BRANCH  50  64
ATOM     64  C   UNL A   1      44.805  33.551  29.720  1.00  0.00     0.064 A 
ATOM     65  C   UNL A   1      44.750  34.625  28.821  1.00  0.00     0.173 A 
ATOM     66  C   UNL A   1      45.291  33.798  31.012  1.00  0.00     0.173 A 
ATOM     67  F   UNL A   1      44.310  34.435  27.567  1.00  0.00    -0.203 F 
ATOM     68  C   UNL A   1      45.172  35.896  29.198  1.00  0.00     0.198 A 
ATOM     69  C   UNL A   1      45.684  35.077  31.396  1.00  0.00     0.198 A 
ATOM     70  F   UNL A   1      45.362  32.805  31.911  1.00  0.00    -0.203 F 
ATOM     71  F   UNL A   1      45.142  36.901  28.313  1.00  0.00    -0.200 F 
ATOM     72  C   UNL A   1      45.626  36.124  30.489  1.00  0.00     0.200 A 
ATOM     73  F   UNL A   1      46.108  35.298  32.648  1.00  0.00    -0.200 F 
ATOM     74  F   UNL A   1      46.012  37.353  30.858  1.00  0.00    -0.200 F 
ENDBRANCH  50  64
BRANCH  51  75
ATOM     75  C   UNL A   1      41.091  24.524  27.645  1.00  0.00     0.064 A 
ATOM     76  C   UNL A   1      41.618  23.386  28.272  1.00  0.00     0.173 A 
ATOM     77  C   UNL A   1      40.062  24.330  26.710  1.00  0.00     0.173 A 
ATOM     78  F   UNL A   1      42.624  23.513  29.151  1.00  0.00    -0.203 F 
ATOM     79  C   UNL A   1      41.148  22.110  27.969  1.00  0.00     0.198 A 
ATOM     80  C   UNL A   1      39.571  23.056  26.429  1.00  0.00     0.198 A 
ATOM     81  F   UNL A   1      39.530  25.382  26.070  1.00  0.00    -0.203 F 
ATOM     82  F   UNL A   1      41.703  21.037  28.549  1.00  0.00    -0.200 F 
ATOM     83  C   UNL A   1      40.119  21.946  27.054  1.00  0.00     0.200 A 
ATOM     84  F   UNL A   1      38.571  22.905  25.551  1.00  0.00    -0.200 F 
ATOM     85  F   UNL A   1      39.662  20.720  26.767  1.00  0.00    -0.200 F 
ENDBRANCH  51  75
BRANCH  63  86
ATOM     86  C   UNL A   1      47.278  27.583  26.559  1.00  0.00     0.064 A 
ATOM     87  C   UNL A   1      48.235  26.858  27.286  1.00  0.00     0.173 A 
ATOM     88  C   UNL A   1      47.509  27.780  25.189  1.00  0.00     0.173 A 
ATOM     89  F   UNL A   1      48.068  26.649  28.600  1.00  0.00    -0.203 F 
ATOM     90  C   UNL A   1      49.379  26.361  26.667  1.00  0.00     0.198 A 
ATOM     91  C   UNL A   1      48.636  27.253  24.566  1.00  0.00     0.198 A 
ATOM     92  F   UNL A   1      46.620  28.456  24.444  1.00  0.00    -0.203 F 
ATOM     93  F   UNL A   1      50.294  25.700  27.389  1.00  0.00    -0.200 F 
ATOM     94  C   UNL A   1      49.573  26.548  25.306  1.00  0.00     0.200 A 
ATOM     95  F   UNL A   1      48.811  27.416  23.247  1.00  0.00    -0.200 F 
ATOM     96  F   UNL A   1      50.663  26.047  24.708  1.00  0.00    -0.200 F 
ENDBRANCH  63  86
ENDBRANCH  37  38
ENDBRANCH  30  32
ENDBRANCH  29  30
ENDBRANCH  28  29
ENDBRANCH  27  28
ENDBRANCH  26  27
ENDBRANCH   1  26
TORSDOF 18
ENDMDL
MODEL 2
REMARK VINA RESULT:     -11.5      3.423      9.169
REMARK SMILES Cc1cc2c(c(C)c1Cl)C=C(C(=O)OCCOCCOCCOC(=O)c1ccc(-c3c4nc(c(-c5c(F)c(F)c(F)c(F)c5F)c5ccc([nH]5)c(-c5c(F)c(F)c(F)c(F)c5F)c5nc(c(-c6c(F)c(F)c(F)c(F)c6F)c6ccc3[nH]6)C=C5)C=C4)cc1)[C@H](C(F)(F)F)O2
REMARK SMILES IDX 19 1 18 2 17 3 16 4 15 5 14 6 12 7 13 8 11 9 1 10 2 11 3 12
REMARK SMILES IDX 8 13 4 14 6 15 9 16 5 17 94 18 7 19 10 20 89 21 90 22 91 23
REMARK SMILES IDX 92 24 93 25 20 26 21 27 22 28 23 29 24 30 25 31 26 32 27 33
REMARK SMILES IDX 88 34 28 35 87 36 29 37 30 38 31 39 81 40 32 41 86 42 80 43
REMARK SMILES IDX 82 44 33 45 85 46 79 47 78 48 34 50 66 51 46 52 65 53 47 54
REMARK SMILES IDX 50 55 64 56 83 57 48 58 49 59 63 61 84 62 51 63 35 64 36 65
REMARK SMILES IDX 44 66 37 67 38 68 42 69 45 70 39 71 40 72 43 73 41 74 67 75
REMARK SMILES IDX 68 76 76 77 69 78 70 79 74 80 77 81 71 82 72 83 75 84 73 85
REMARK SMILES IDX 52 86 53 87 61 88 54 89 55 90 59 91 62 92 56 93 57 94 60 95
REMARK SMILES IDX 58 96
REMARK H PARENT 82 49 50 60
REMARK Flexibility Score: inf
ROOT
ATOM      1  C   UNL A   1      33.606  19.824  24.882  1.00  0.00     0.188 C 
ENDROOT
BRANCH   1   2
ATOM      2  C   UNL A   1      33.135  21.275  24.672  1.00  0.00     0.188 C 
BRANCH   2   3
ATOM      3  O   UNL A   1      33.133  21.842  23.367  1.00  0.00    -0.376 OA
BRANCH   3   4
ATOM      4  C   UNL A   1      33.893  23.017  23.104  1.00  0.00     0.202 C 
BRANCH   4   5
ATOM      5  C   UNL A   1      35.130  23.311  23.969  1.00  0.00     0.261 C 
BRANCH   5   6
ATOM      6  O   UNL A   1      35.108  24.576  24.664  1.00  0.00    -0.460 OA
BRANCH   6   7
ATOM      7  C   UNL A   1      34.021  24.812  25.429  1.00  0.00     0.338 C 
ATOM      8  O   UNL A   1      33.570  24.069  26.289  1.00  0.00    -0.246 OA
BRANCH   7   9
ATOM      9  C   UNL A   1      33.496  26.177  25.216  1.00  0.00     0.087 C 
ATOM     10  C   UNL A   1      31.061  32.057  26.488  1.00  0.00     0.046 C 
ATOM     11  C   UNL A   1      31.918  30.828  26.329  1.00  0.00    -0.028 A 
ATOM     12  C   UNL A   1      31.448  29.780  25.528  1.00  0.00     0.052 A 
ATOM     13  C   UNL A   1      33.162  30.691  26.975  1.00  0.00     0.047 A 
ATOM     14  C   UNL A   1      32.169  28.594  25.412  1.00  0.00     0.128 A 
ATOM     15  C   UNL A   1      33.917  29.498  26.858  1.00  0.00    -0.021 A 
ATOM     16  Cl  UNL A   1      33.734  32.009  27.954  1.00  0.00    -0.084 Cl
ATOM     17  C   UNL A   1      33.391  28.436  26.078  1.00  0.00     0.022 A 
ATOM     18  O   UNL A   1      31.551  27.601  24.699  1.00  0.00    -0.475 OA
ATOM     19  C   UNL A   1      35.233  29.319  27.583  1.00  0.00     0.047 C 
ATOM     20  C   UNL A   1      34.006  27.111  26.035  1.00  0.00     0.027 C 
ATOM     21  C   UNL A   1      32.338  26.443  24.296  1.00  0.00     0.316 C 
BRANCH  21  22
ATOM     22  C   UNL A   1      32.673  26.587  22.800  1.00  0.00     0.430 C 
ATOM     23  F   UNL A   1      31.910  25.783  22.028  1.00  0.00    -0.167 F 
ATOM     24  F   UNL A   1      32.442  27.855  22.370  1.00  0.00    -0.167 F 
ATOM     25  F   UNL A   1      33.972  26.313  22.534  1.00  0.00    -0.167 F 
ENDBRANCH  21  22
ENDBRANCH   7   9
ENDBRANCH   6   7
ENDBRANCH   5   6
ENDBRANCH   4   5
ENDBRANCH   3   4
ENDBRANCH   2   3
ENDBRANCH   1   2
BRANCH   1  26
ATOM     26  O   UNL A   1      34.979  19.624  24.631  1.00  0.00    -0.376 OA
BRANCH  26  27
ATOM     27  C   UNL A   1      35.898  20.414  25.364  1.00  0.00     0.202 C 
BRANCH  27  28
ATOM     28  C   UNL A   1      37.390  20.315  25.002  1.00  0.00     0.261 C 
BRANCH  28  29
ATOM     29  O   UNL A   1      38.208  21.453  25.329  1.00  0.00    -0.460 OA
BRANCH  29  30
ATOM     30  C   UNL A   1      39.297  21.242  26.101  1.00  0.00     0.338 C 
ATOM     31  O   UNL A   1      39.918  20.198  26.232  1.00  0.00    -0.246 OA
BRANCH  30  32
ATOM     32  C   UNL A   1      39.745  22.557  26.609  1.00  0.00     0.060 A 
ATOM     33  C   UNL A   1      39.150  23.725  26.110  1.00  0.00     0.016 A 
ATOM     34  C   UNL A   1      40.732  22.637  27.594  1.00  0.00     0.016 A 
ATOM     35  C   UNL A   1      39.549  24.975  26.588  1.00  0.00     0.010 A 
ATOM     36  C   UNL A   1      41.149  23.891  28.053  1.00  0.00     0.010 A 
ATOM     37  C   UNL A   1      40.575  25.067  27.538  1.00  0.00    -0.014 A 
BRANCH  37  38
ATOM     38  C   UNL A   1      41.180  26.387  27.846  1.00  0.00     0.031 A 
ATOM     39  C   UNL A   1      42.606  26.627  27.435  1.00  0.00     0.074 A 
ATOM     40  C   UNL A   1      40.478  27.364  28.448  1.00  0.00     0.049 A 
ATOM     41  N   UNL A   1      43.369  27.670  27.642  1.00  0.00    -0.248 NA
ATOM     42  C   UNL A   1      43.259  25.543  26.682  1.00  0.00     0.031 C 
ATOM     43  C   UNL A   1      39.074  27.280  28.839  1.00  0.00     0.029 A 
ATOM     44  N   UNL A   1      40.864  28.624  28.839  1.00  0.00    -0.354 N 
ATOM     45  C   UNL A   1      44.585  27.370  27.043  1.00  0.00     0.074 A 
ATOM     46  C   UNL A   1      44.474  26.036  26.495  1.00  0.00     0.031 C 
ATOM     47  C   UNL A   1      38.715  28.440  29.419  1.00  0.00     0.029 A 
ATOM     48  C   UNL A   1      39.873  29.332  29.476  1.00  0.00     0.049 A 
ATOM     49  H   UNL A   1      41.764  28.987  28.677  1.00  0.00     0.167 HD
ATOM     50  C   UNL A   1      45.690  28.144  26.944  1.00  0.00     0.037 A 
ATOM     51  C   UNL A   1      39.908  30.549  30.057  1.00  0.00     0.037 A 
ATOM     52  C   UNL A   1      45.804  29.468  27.493  1.00  0.00     0.049 A 
ATOM     53  C   UNL A   1      41.191  31.345  30.035  1.00  0.00     0.074 A 
ATOM     54  C   UNL A   1      46.888  30.325  27.453  1.00  0.00     0.029 A 
ATOM     55  N   UNL A   1      44.798  30.125  28.186  1.00  0.00    -0.354 N 
ATOM     56  N   UNL A   1      42.336  31.059  29.465  1.00  0.00    -0.248 NA
ATOM     57  C   UNL A   1      41.187  32.635  30.743  1.00  0.00     0.031 C 
ATOM     58  C   UNL A   1      46.560  31.479  28.170  1.00  0.00     0.029 A 
ATOM     59  C   UNL A   1      45.249  31.367  28.602  1.00  0.00     0.049 A 
ATOM     60  H   UNL A   1      43.899  29.763  28.356  1.00  0.00     0.167 HD
ATOM     61  C   UNL A   1      43.173  32.139  29.716  1.00  0.00     0.074 A 
ATOM     62  C   UNL A   1      42.402  33.096  30.479  1.00  0.00     0.031 C 
ATOM     63  C   UNL A   1      44.467  32.319  29.349  1.00  0.00     0.037 A 
BRANCH  50  64
ATOM     64  C   UNL A   1      46.877  27.579  26.222  1.00  0.00     0.064 A 
ATOM     65  C   UNL A   1      47.008  27.688  24.830  1.00  0.00     0.173 A 
ATOM     66  C   UNL A   1      47.928  26.986  26.937  1.00  0.00     0.173 A 
ATOM     67  F   UNL A   1      46.023  28.232  24.098  1.00  0.00    -0.203 F 
ATOM     68  C   UNL A   1      48.145  27.216  24.179  1.00  0.00     0.198 A 
ATOM     69  C   UNL A   1      49.076  26.542  26.286  1.00  0.00     0.198 A 
ATOM     70  F   UNL A   1      47.852  26.858  28.271  1.00  0.00    -0.203 F 
ATOM     71  F   UNL A   1      48.235  27.301  22.845  1.00  0.00    -0.200 F 
ATOM     72  C   UNL A   1      49.182  26.656  24.909  1.00  0.00     0.200 A 
ATOM     73  F   UNL A   1      50.083  26.015  26.995  1.00  0.00    -0.200 F 
ATOM     74  F   UNL A   1      50.285  26.221  24.284  1.00  0.00    -0.200 F 
ENDBRANCH  50  64
BRANCH  51  75
ATOM     75  C   UNL A   1      38.692  31.098  30.716  1.00  0.00     0.064 A 
ATOM     76  C   UNL A   1      37.754  31.847  29.992  1.00  0.00     0.173 A 
ATOM     77  C   UNL A   1      38.450  30.905  32.085  1.00  0.00     0.173 A 
ATOM     78  F   UNL A   1      37.954  32.088  28.687  1.00  0.00    -0.203 F 
ATOM     79  C   UNL A   1      36.630  32.392  30.611  1.00  0.00     0.198 A 
ATOM     80  C   UNL A   1      37.310  31.424  32.697  1.00  0.00     0.198 A 
ATOM     81  F   UNL A   1      39.320  30.206  32.828  1.00  0.00    -0.203 F 
ATOM     82  F   UNL A   1      35.776  33.144  29.904  1.00  0.00    -0.200 F 
ATOM     83  C   UNL A   1      36.405  32.173  31.961  1.00  0.00     0.200 A 
ATOM     84  F   UNL A   1      37.092  31.201  34.000  1.00  0.00    -0.200 F 
ATOM     85  F   UNL A   1      35.322  32.691  32.555  1.00  0.00    -0.200 F 
ENDBRANCH  51  75
BRANCH  63  86
ATOM     86  C   UNL A   1      45.138  33.609  29.733  1.00  0.00     0.064 A 
ATOM     87  C   UNL A   1      45.866  33.733  30.926  1.00  0.00     0.173 A 
ATOM     88  C   UNL A   1      45.130  34.704  28.855  1.00  0.00     0.173 A 
ATOM     89  F   UNL A   1      45.898  32.720  31.805  1.00  0.00    -0.203 F 
ATOM     90  C   UNL A   1      46.549  34.907  31.229  1.00  0.00     0.198 A 
ATOM     91  C   UNL A   1      45.842  35.864  29.145  1.00  0.00     0.198 A 
ATOM     92  F   UNL A   1      44.459  34.635  27.694  1.00  0.00    -0.203 F 
ATOM     93  F   UNL A   1      47.211  35.013  32.390  1.00  0.00    -0.200 F 
ATOM     94  C   UNL A   1      46.547  35.967  30.334  1.00  0.00     0.200 A 
ATOM     95  F   UNL A   1      45.856  36.878  28.268  1.00  0.00    -0.200 F 
ATOM     96  F   UNL A   1      47.226  37.087  30.617  1.00  0.00    -0.200 F 
ENDBRANCH  63  86
ENDBRANCH  37  38
ENDBRANCH  30  32
ENDBRANCH  29  30
ENDBRANCH  28  29
ENDBRANCH  27  28
ENDBRANCH  26  27
ENDBRANCH   1  26
TORSDOF 18
ENDMDL
MODEL 3
REMARK VINA RESULT:     -11.5      3.640      8.899
REMARK SMILES Cc1cc2c(c(C)c1Cl)C=C(C(=O)OCCOCCOCCOC(=O)c1ccc(-c3c4nc(c(-c5c(F)c(F)c(F)c(F)c5F)c5ccc([nH]5)c(-c5c(F)c(F)c(F)c(F)c5F)c5nc(c(-c6c(F)c(F)c(F)c(F)c6F)c6ccc3[nH]6)C=C5)C=C4)cc1)[C@H](C(F)(F)F)O2
REMARK SMILES IDX 19 1 18 2 17 3 16 4 15 5 14 6 12 7 13 8 11 9 1 10 2 11 3 12
REMARK SMILES IDX 8 13 4 14 6 15 9 16 5 17 94 18 7 19 10 20 89 21 90 22 91 23
REMARK SMILES IDX 92 24 93 25 20 26 21 27 22 28 23 29 24 30 25 31 26 32 27 33
REMARK SMILES IDX 88 34 28 35 87 36 29 37 30 38 31 39 81 40 32 41 86 42 80 43
REMARK SMILES IDX 82 44 33 45 85 46 79 47 78 48 34 50 66 51 46 52 65 53 47 54
REMARK SMILES IDX 50 55 64 56 83 57 48 58 49 59 63 61 84 62 51 63 35 64 36 65
REMARK SMILES IDX 44 66 37 67 38 68 42 69 45 70 39 71 40 72 43 73 41 74 67 75
REMARK SMILES IDX 68 76 76 77 69 78 70 79 74 80 77 81 71 82 72 83 75 84 73 85
REMARK SMILES IDX 52 86 53 87 61 88 54 89 55 90 59 91 62 92 56 93 57 94 60 95
REMARK SMILES IDX 58 96
REMARK H PARENT 82 49 50 60
REMARK Flexibility Score: inf
ROOT
ATOM      1  C   UNL A   1      34.204  20.894  24.791  1.00  0.00     0.188 C 
ENDROOT
BRANCH   1   2
ATOM      2  C   UNL A   1      32.711  20.815  24.420  1.00  0.00     0.188 C 
BRANCH   2   3
ATOM      3  O   UNL A   1      31.717  21.002  25.420  1.00  0.00    -0.376 OA
BRANCH   3   4
ATOM      4  C   UNL A   1      31.264  22.315  25.733  1.00  0.00     0.202 C 
BRANCH   4   5
ATOM      5  C   UNL A   1      31.914  23.064  26.908  1.00  0.00     0.261 C 
BRANCH   5   6
ATOM      6  O   UNL A   1      32.005  24.496  26.750  1.00  0.00    -0.460 OA
BRANCH   6   7
ATOM      7  C   UNL A   1      32.981  24.939  25.928  1.00  0.00     0.338 C 
ATOM      8  O   UNL A   1      34.151  24.585  25.943  1.00  0.00    -0.246 OA
BRANCH   7   9
ATOM      9  C   UNL A   1      32.440  25.820  24.872  1.00  0.00     0.087 C 
ATOM     10  C   UNL A   1      28.598  30.088  21.848  1.00  0.00     0.046 C 
ATOM     11  C   UNL A   1      29.595  29.380  22.729  1.00  0.00    -0.028 A 
ATOM     12  C   UNL A   1      29.964  28.068  22.405  1.00  0.00     0.052 A 
ATOM     13  C   UNL A   1      30.147  29.983  23.876  1.00  0.00     0.047 A 
ATOM     14  C   UNL A   1      30.823  27.346  23.230  1.00  0.00     0.128 A 
ATOM     15  C   UNL A   1      31.033  29.270  24.720  1.00  0.00    -0.021 A 
ATOM     16  Cl  UNL A   1      29.686  31.616  24.253  1.00  0.00    -0.084 Cl
ATOM     17  C   UNL A   1      31.350  27.926  24.390  1.00  0.00     0.022 A 
ATOM     18  O   UNL A   1      31.014  26.037  22.873  1.00  0.00    -0.475 OA
ATOM     19  C   UNL A   1      31.598  29.889  25.979  1.00  0.00     0.047 C 
ATOM     20  C   UNL A   1      32.112  27.056  25.284  1.00  0.00     0.027 C 
ATOM     21  C   UNL A   1      32.097  25.297  23.506  1.00  0.00     0.316 C 
BRANCH  21  22
ATOM     22  C   UNL A   1      33.261  25.195  22.502  1.00  0.00     0.430 C 
ATOM     23  F   UNL A   1      34.095  24.173  22.793  1.00  0.00    -0.167 F 
ATOM     24  F   UNL A   1      32.800  24.962  21.246  1.00  0.00    -0.167 F 
ATOM     25  F   UNL A   1      33.995  26.331  22.447  1.00  0.00    -0.167 F 
ENDBRANCH  21  22
ENDBRANCH   7   9
ENDBRANCH   6   7
ENDBRANCH   5   6
ENDBRANCH   4   5
ENDBRANCH   3   4
ENDBRANCH   2   3
ENDBRANCH   1   2
BRANCH   1  26
ATOM     26  O   UNL A   1      34.897  19.675  24.642  1.00  0.00    -0.376 OA
BRANCH  26  27
ATOM     27  C   UNL A   1      36.274  19.663  24.974  1.00  0.00     0.202 C 
BRANCH  27  28
ATOM     28  C   UNL A   1      37.106  20.919  24.665  1.00  0.00     0.261 C 
BRANCH  28  29
ATOM     29  O   UNL A   1      37.654  21.622  25.795  1.00  0.00    -0.460 OA
BRANCH  29  30
ATOM     30  C   UNL A   1      38.941  21.374  26.123  1.00  0.00     0.338 C 
ATOM     31  O   UNL A   1      39.570  20.347  25.921  1.00  0.00    -0.246 OA
BRANCH  30  32
ATOM     32  C   UNL A   1      39.534  22.646  26.590  1.00  0.00     0.060 A 
ATOM     33  C   UNL A   1      39.043  23.859  26.085  1.00  0.00     0.016 A 
ATOM     34  C   UNL A   1      40.557  22.644  27.542  1.00  0.00     0.016 A 
ATOM     35  C   UNL A   1      39.580  25.071  26.525  1.00  0.00     0.010 A 
ATOM     36  C   UNL A   1      41.112  23.858  27.961  1.00  0.00     0.010 A 
ATOM     37  C   UNL A   1      40.641  25.076  27.440  1.00  0.00    -0.014 A 
BRANCH  37  38
ATOM     38  C   UNL A   1      41.385  26.334  27.701  1.00  0.00     0.031 A 
ATOM     39  C   UNL A   1      40.685  27.429  28.458  1.00  0.00     0.074 A 
ATOM     40  C   UNL A   1      42.661  26.497  27.306  1.00  0.00     0.049 A 
ATOM     41  N   UNL A   1      41.101  28.633  28.757  1.00  0.00    -0.248 NA
ATOM     42  C   UNL A   1      39.331  27.120  28.947  1.00  0.00     0.031 C 
ATOM     43  C   UNL A   1      43.470  25.492  26.624  1.00  0.00     0.029 A 
ATOM     44  N   UNL A   1      43.498  27.581  27.426  1.00  0.00    -0.354 N 
ATOM     45  C   UNL A   1      40.066  29.221  29.471  1.00  0.00     0.074 A 
ATOM     46  C   UNL A   1      38.988  28.258  29.532  1.00  0.00     0.031 C 
ATOM     47  C   UNL A   1      44.689  26.008  26.379  1.00  0.00     0.029 A 
ATOM     48  C   UNL A   1      44.731  27.391  26.853  1.00  0.00     0.049 A 
ATOM     49  H   UNL A   1      43.238  28.414  27.879  1.00  0.00     0.167 HD
ATOM     50  C   UNL A   1      40.024  30.447  30.041  1.00  0.00     0.037 A 
ATOM     51  C   UNL A   1      45.765  28.247  26.709  1.00  0.00     0.037 A 
ATOM     52  C   UNL A   1      41.093  31.407  29.976  1.00  0.00     0.049 A 
ATOM     53  C   UNL A   1      45.649  29.651  27.251  1.00  0.00     0.074 A 
ATOM     54  C   UNL A   1      41.138  32.681  30.513  1.00  0.00     0.029 A 
ATOM     55  N   UNL A   1      42.303  31.200  29.332  1.00  0.00    -0.354 N 
ATOM     56  N   UNL A   1      44.669  30.200  27.928  1.00  0.00    -0.248 NA
ATOM     57  C   UNL A   1      46.781  30.557  27.005  1.00  0.00     0.031 C 
ATOM     58  C   UNL A   1      42.352  33.266  30.146  1.00  0.00     0.029 A 
ATOM     59  C   UNL A   1      43.091  32.335  29.436  1.00  0.00     0.049 A 
ATOM     60  H   UNL A   1      42.564  30.370  28.871  1.00  0.00     0.167 HD
ATOM     61  C   UNL A   1      45.078  31.497  28.214  1.00  0.00     0.074 A 
ATOM     62  C   UNL A   1      46.401  31.652  27.650  1.00  0.00     0.031 C 
ATOM     63  C   UNL A   1      44.414  32.473  28.883  1.00  0.00     0.037 A 
BRANCH  50  64
ATOM     64  C   UNL A   1      38.777  30.833  30.779  1.00  0.00     0.064 A 
ATOM     65  C   UNL A   1      38.663  30.660  32.165  1.00  0.00     0.173 A 
ATOM     66  C   UNL A   1      37.713  31.449  30.103  1.00  0.00     0.173 A 
ATOM     67  F   UNL A   1      39.646  30.059  32.855  1.00  0.00    -0.203 F 
ATOM     68  C   UNL A   1      37.525  31.081  32.848  1.00  0.00     0.198 A 
ATOM     69  C   UNL A   1      36.590  31.896  30.793  1.00  0.00     0.198 A 
ATOM     70  F   UNL A   1      37.773  31.640  28.776  1.00  0.00    -0.203 F 
ATOM     71  F   UNL A   1      37.423  30.875  34.168  1.00  0.00    -0.200 F 
ATOM     72  C   UNL A   1      36.495  31.710  32.164  1.00  0.00     0.200 A 
ATOM     73  F   UNL A   1      35.603  32.517  30.132  1.00  0.00    -0.200 F 
ATOM     74  F   UNL A   1      35.410  32.134  32.825  1.00  0.00    -0.200 F 
ENDBRANCH  50  64
BRANCH  51  75
ATOM     75  C   UNL A   1      47.008  27.807  26.018  1.00  0.00     0.064 A 
ATOM     76  C   UNL A   1      47.088  27.788  24.618  1.00  0.00     0.173 A 
ATOM     77  C   UNL A   1      48.134  27.377  26.738  1.00  0.00     0.173 A 
ATOM     78  F   UNL A   1      46.029  28.159  23.883  1.00  0.00    -0.203 F 
ATOM     79  C   UNL A   1      48.238  27.345  23.966  1.00  0.00     0.198 A 
ATOM     80  C   UNL A   1      49.294  26.963  26.085  1.00  0.00     0.198 A 
ATOM     81  F   UNL A   1      48.108  27.363  28.079  1.00  0.00    -0.203 F 
ATOM     82  F   UNL A   1      48.268  27.292  22.627  1.00  0.00    -0.200 F 
ATOM     83  C   UNL A   1      49.342  26.940  24.700  1.00  0.00     0.200 A 
ATOM     84  F   UNL A   1      50.362  26.582  26.799  1.00  0.00    -0.200 F 
ATOM     85  F   UNL A   1      50.450  26.521  24.073  1.00  0.00    -0.200 F 
ENDBRANCH  51  75
BRANCH  63  86
ATOM     86  C   UNL A   1      45.106  33.794  29.077  1.00  0.00     0.064 A 
ATOM     87  C   UNL A   1      45.960  34.023  30.166  1.00  0.00     0.173 A 
ATOM     88  C   UNL A   1      44.987  34.807  28.113  1.00  0.00     0.173 A 
ATOM     89  F   UNL A   1      46.102  33.091  31.121  1.00  0.00    -0.203 F 
ATOM     90  C   UNL A   1      46.657  35.222  30.289  1.00  0.00     0.198 A 
ATOM     91  C   UNL A   1      45.712  35.990  28.221  1.00  0.00     0.198 A 
ATOM     92  F   UNL A   1      44.194  34.635  27.045  1.00  0.00    -0.203 F 
ATOM     93  F   UNL A   1      47.442  35.431  31.355  1.00  0.00    -0.200 F 
ATOM     94  C   UNL A   1      46.543  36.199  29.311  1.00  0.00     0.200 A 
ATOM     95  F   UNL A   1      45.617  36.924  27.264  1.00  0.00    -0.200 F 
ATOM     96  F   UNL A   1      47.234  37.342  29.419  1.00  0.00    -0.200 F 
ENDBRANCH  63  86
ENDBRANCH  37  38
ENDBRANCH  30  32
ENDBRANCH  29  30
ENDBRANCH  28  29
ENDBRANCH  27  28
ENDBRANCH  26  27
ENDBRANCH   1  26
TORSDOF 18
ENDMDL
