MODEL 1
REMARK VINA RESULT:     -12.8      0.000      0.000
REMARK SMILES Cc1ccc(NC(=O)[C@H]2CC=CC[C@H]2C(=O)OCCOCCOCCOC(=O)c2ccc(-c3c4nc(c(-c5c(F)c(F)c(F)c(F)c5F)c5ccc([nH]5)c(-c5c(F)c(F)c(F)c(F)c5F)c5nc(c(-c6c(F)c(F)c(F)c(F)c6F)c6ccc3[nH]6)C=C5)C=C4)cc2)cc1F
REMARK SMILES IDX 21 1 20 2 19 3 18 4 17 5 15 6 16 7 14 8 9 9 10 10 11 11
REMARK SMILES IDX 13 12 12 13 7 14 6 15 8 17 5 18 1 19 2 20 3 21 93 22 4 23
REMARK SMILES IDX 92 24 94 25 22 26 23 27 24 28 25 29 26 30 27 31 28 32 29 33
REMARK SMILES IDX 30 34 91 35 31 36 90 37 32 38 33 39 34 40 84 41 35 42 89 43
REMARK SMILES IDX 83 44 85 45 36 46 88 47 82 48 81 49 37 51 69 52 49 53 68 54
REMARK SMILES IDX 50 55 53 56 67 57 86 58 51 59 52 60 66 62 87 63 54 64 38 65
REMARK SMILES IDX 39 66 47 67 40 68 41 69 45 70 48 71 42 72 43 73 46 74 44 75
REMARK SMILES IDX 70 76 71 77 79 78 72 79 73 80 77 81 80 82 74 83 75 84 78 85
REMARK SMILES IDX 76 86 55 87 56 88 64 89 57 90 58 91 62 92 65 93 59 94 60 95
REMARK SMILES IDX 63 96 61 97
REMARK H PARENT 6 16 85 50 53 61
REMARK Flexibility Score: inf
ROOT
ATOM      1  C   UNL A   1      40.016  21.439  26.413  1.00  0.00     0.188 C 
ENDROOT
BRANCH   1   2
ATOM      2  O   UNL A   1      38.653  21.890  25.780  1.00  0.00    -0.376 OA
BRANCH   2   3
ATOM      3  C   UNL A   1      38.176  23.250  25.863  1.00  0.00     0.202 C 
BRANCH   3   4
ATOM      4  C   UNL A   1      36.695  23.597  26.122  1.00  0.00     0.261 C 
BRANCH   4   5
ATOM      5  O   UNL A   1      35.910  24.001  24.974  1.00  0.00    -0.463 OA
BRANCH   5   6
ATOM      6  C   UNL A   1      35.489  23.033  24.125  1.00  0.00     0.310 C 
ATOM      7  O   UNL A   1      35.882  22.940  22.966  1.00  0.00    -0.252 OA
BRANCH   6   8
ATOM      8  C   UNL A   1      34.421  22.072  24.676  1.00  0.00     0.116 C 
ATOM      9  C   UNL A   1      32.901  22.211  24.387  1.00  0.00     0.097 C 
ATOM     10  C   UNL A   1      32.060  21.057  24.987  1.00  0.00     0.041 C 
ATOM     11  C   UNL A   1      32.785  19.777  25.252  1.00  0.00    -0.030 C 
ATOM     12  C   UNL A   1      34.936  20.663  24.375  1.00  0.00     0.043 C 
ATOM     13  C   UNL A   1      34.077  19.592  24.965  1.00  0.00    -0.030 C 
BRANCH   9  14
ATOM     14  C   UNL A   1      32.575  22.649  22.975  1.00  0.00     0.228 C 
ATOM     15  N   UNL A   1      32.283  23.973  22.737  1.00  0.00    -0.326 N 
ATOM     16  H   UNL A   1      32.203  24.204  21.784  1.00  0.00     0.169 HD
ATOM     17  O   UNL A   1      32.572  21.853  22.036  1.00  0.00    -0.274 OA
BRANCH  15  18
ATOM     18  C   UNL A   1      32.075  25.069  23.624  1.00  0.00     0.044 A 
ATOM     19  C   UNL A   1      31.734  28.328  27.542  1.00  0.00     0.047 C 
ATOM     20  C   UNL A   1      31.700  27.386  26.376  1.00  0.00    -0.015 A 
ATOM     21  C   UNL A   1      30.316  26.321  25.947  1.00  0.00     0.008 A 
ATOM     22  C   UNL A   1      33.184  27.359  25.421  1.00  0.00     0.128 A 
ATOM     23  C   UNL A   1      30.506  25.108  24.599  1.00  0.00     0.026 A 
ATOM     24  C   UNL A   1      33.403  26.211  24.097  1.00  0.00     0.065 A 
ATOM     25  F   UNL A   1      34.211  28.151  25.761  1.00  0.00    -0.207 F 
ENDBRANCH  15  18
ENDBRANCH   9  14
ENDBRANCH   6   8
ENDBRANCH   5   6
ENDBRANCH   4   5
ENDBRANCH   3   4
ENDBRANCH   2   3
ENDBRANCH   1   2
BRANCH   1  26
ATOM     26  C   UNL A   1      41.163  19.599  26.183  1.00  0.00     0.188 C 
BRANCH  26  27
ATOM     27  O   UNL A   1      42.741  19.397  26.360  1.00  0.00    -0.376 OA
BRANCH  27  28
ATOM     28  C   UNL A   1      43.682  19.001  25.340  1.00  0.00     0.202 C 
BRANCH  28  29
ATOM     29  C   UNL A   1      44.895  19.893  25.069  1.00  0.00     0.261 C 
BRANCH  29  30
ATOM     30  O   UNL A   1      44.598  21.233  24.730  1.00  0.00    -0.460 OA
BRANCH  30  31
ATOM     31  C   UNL A   1      44.932  22.118  25.688  1.00  0.00     0.338 C 
ATOM     32  O   UNL A   1      46.050  22.262  26.138  1.00  0.00    -0.246 OA
BRANCH  31  33
ATOM     33  C   UNL A   1      43.711  22.908  25.972  1.00  0.00     0.060 A 
ATOM     34  C   UNL A   1      43.185  23.776  25.001  1.00  0.00     0.016 A 
ATOM     35  C   UNL A   1      43.212  22.879  27.274  1.00  0.00     0.016 A 
ATOM     36  C   UNL A   1      42.665  24.959  25.438  1.00  0.00     0.010 A 
ATOM     37  C   UNL A   1      42.639  24.016  27.715  1.00  0.00     0.010 A 
ATOM     38  C   UNL A   1      42.632  25.082  26.809  1.00  0.00    -0.014 A 
BRANCH  38  39
ATOM     39  C   UNL A   1      42.960  26.323  27.449  1.00  0.00     0.031 A 
ATOM     40  C   UNL A   1      41.792  27.187  27.589  1.00  0.00     0.074 A 
ATOM     41  C   UNL A   1      44.173  26.262  28.067  1.00  0.00     0.049 A 
ATOM     42  N   UNL A   1      41.839  28.457  27.730  1.00  0.00    -0.248 NA
ATOM     43  C   UNL A   1      40.413  26.704  27.368  1.00  0.00     0.031 C 
ATOM     44  C   UNL A   1      44.608  26.812  29.342  1.00  0.00     0.029 A 
ATOM     45  N   UNL A   1      45.334  25.600  27.584  1.00  0.00    -0.354 N 
ATOM     46  C   UNL A   1      40.580  28.796  28.175  1.00  0.00     0.074 A 
ATOM     47  C   UNL A   1      39.706  27.806  27.621  1.00  0.00     0.031 C 
ATOM     48  C   UNL A   1      45.950  26.703  29.439  1.00  0.00     0.029 A 
ATOM     49  C   UNL A   1      46.465  26.205  28.168  1.00  0.00     0.049 A 
ATOM     50  H   UNL A   1      45.347  24.847  26.949  1.00  0.00     0.167 HD
ATOM     51  C   UNL A   1      40.502  29.645  29.238  1.00  0.00     0.037 A 
ATOM     52  C   UNL A   1      47.358  26.912  27.402  1.00  0.00     0.037 A 
ATOM     53  C   UNL A   1      41.866  30.014  29.642  1.00  0.00     0.049 A 
ATOM     54  C   UNL A   1      47.111  28.379  27.501  1.00  0.00     0.074 A 
ATOM     55  C   UNL A   1      42.690  29.554  30.656  1.00  0.00     0.029 A 
ATOM     56  N   UNL A   1      42.693  30.643  28.718  1.00  0.00    -0.354 N 
ATOM     57  N   UNL A   1      46.000  28.899  27.932  1.00  0.00    -0.248 NA
ATOM     58  C   UNL A   1      48.105  29.361  27.100  1.00  0.00     0.031 C 
ATOM     59  C   UNL A   1      44.032  29.865  30.294  1.00  0.00     0.029 A 
ATOM     60  C   UNL A   1      44.024  30.506  29.064  1.00  0.00     0.049 A 
ATOM     61  H   UNL A   1      42.373  31.122  27.921  1.00  0.00     0.167 HD
ATOM     62  C   UNL A   1      46.100  30.251  27.874  1.00  0.00     0.074 A 
ATOM     63  C   UNL A   1      47.444  30.493  27.378  1.00  0.00     0.031 C 
ATOM     64  C   UNL A   1      45.060  31.064  28.205  1.00  0.00     0.037 A 
BRANCH  51  65
ATOM     65  C   UNL A   1      39.298  29.932  30.105  1.00  0.00     0.064 A 
ATOM     66  C   UNL A   1      38.976  29.023  31.137  1.00  0.00     0.173 A 
ATOM     67  C   UNL A   1      38.420  31.031  30.002  1.00  0.00     0.173 A 
ATOM     68  F   UNL A   1      39.737  27.947  31.380  1.00  0.00    -0.203 F 
ATOM     69  C   UNL A   1      37.871  29.187  31.974  1.00  0.00     0.198 A 
ATOM     70  C   UNL A   1      37.320  31.202  30.848  1.00  0.00     0.198 A 
ATOM     71  F   UNL A   1      38.572  31.994  29.092  1.00  0.00    -0.203 F 
ATOM     72  F   UNL A   1      37.618  28.277  32.923  1.00  0.00    -0.200 F 
ATOM     73  C   UNL A   1      37.044  30.279  31.832  1.00  0.00     0.200 A 
ATOM     74  F   UNL A   1      36.531  32.276  30.699  1.00  0.00    -0.200 F 
ATOM     75  F   UNL A   1      35.992  30.448  32.645  1.00  0.00    -0.200 F 
ENDBRANCH  51  65
BRANCH  52  76
ATOM     76  C   UNL A   1      47.773  26.283  26.120  1.00  0.00     0.064 A 
ATOM     77  C   UNL A   1      47.124  26.786  24.980  1.00  0.00     0.173 A 
ATOM     78  C   UNL A   1      49.070  25.754  26.001  1.00  0.00     0.173 A 
ATOM     79  F   UNL A   1      45.849  27.195  25.046  1.00  0.00    -0.203 F 
ATOM     80  C   UNL A   1      47.889  27.182  23.916  1.00  0.00     0.198 A 
ATOM     81  C   UNL A   1      49.818  26.079  24.900  1.00  0.00     0.198 A 
ATOM     82  F   UNL A   1      49.694  25.189  27.042  1.00  0.00    -0.203 F 
ATOM     83  F   UNL A   1      47.397  28.085  23.051  1.00  0.00    -0.200 F 
ATOM     84  C   UNL A   1      49.252  26.995  24.044  1.00  0.00     0.200 A 
ATOM     85  F   UNL A   1      51.155  25.959  24.929  1.00  0.00    -0.200 F 
ATOM     86  F   UNL A   1      49.957  28.107  24.033  1.00  0.00    -0.200 F 
ENDBRANCH  52  76
BRANCH  64  87
ATOM     87  C   UNL A   1      45.005  32.504  27.795  1.00  0.00     0.064 A 
ATOM     88  C   UNL A   1      45.675  33.528  28.485  1.00  0.00     0.173 A 
ATOM     89  C   UNL A   1      44.349  32.889  26.607  1.00  0.00     0.173 A 
ATOM     90  F   UNL A   1      46.511  33.269  29.500  1.00  0.00    -0.203 F 
ATOM     91  C   UNL A   1      45.543  34.862  28.118  1.00  0.00     0.198 A 
ATOM     92  C   UNL A   1      44.318  34.209  26.180  1.00  0.00     0.198 A 
ATOM     93  F   UNL A   1      43.738  31.998  25.813  1.00  0.00    -0.203 F 
ATOM     94  F   UNL A   1      46.089  35.814  28.886  1.00  0.00    -0.200 F 
ATOM     95  C   UNL A   1      44.868  35.202  26.963  1.00  0.00     0.200 A 
ATOM     96  F   UNL A   1      43.752  34.509  25.004  1.00  0.00    -0.200 F 
ATOM     97  F   UNL A   1      44.769  36.483  26.591  1.00  0.00    -0.200 F 
ENDBRANCH  64  87
ENDBRANCH  38  39
ENDBRANCH  31  33
ENDBRANCH  30  31
ENDBRANCH  29  30
ENDBRANCH  28  29
ENDBRANCH  27  28
ENDBRANCH  26  27
ENDBRANCH   1  26
TORSDOF 19
ENDMDL
MODEL 2
REMARK VINA RESULT:     -12.7      5.044     11.108
REMARK SMILES Cc1ccc(NC(=O)[C@H]2CC=CC[C@H]2C(=O)OCCOCCOCCOC(=O)c2ccc(-c3c4nc(c(-c5c(F)c(F)c(F)c(F)c5F)c5ccc([nH]5)c(-c5c(F)c(F)c(F)c(F)c5F)c5nc(c(-c6c(F)c(F)c(F)c(F)c6F)c6ccc3[nH]6)C=C5)C=C4)cc2)cc1F
REMARK SMILES IDX 21 1 20 2 19 3 18 4 17 5 15 6 16 7 14 8 9 9 10 10 11 11
REMARK SMILES IDX 13 12 12 13 7 14 6 15 8 17 5 18 1 19 2 20 3 21 93 22 4 23
REMARK SMILES IDX 92 24 94 25 22 26 23 27 24 28 25 29 26 30 27 31 28 32 29 33
REMARK SMILES IDX 30 34 91 35 31 36 90 37 32 38 33 39 34 40 84 41 35 42 89 43
REMARK SMILES IDX 83 44 85 45 36 46 88 47 82 48 81 49 37 51 69 52 49 53 68 54
REMARK SMILES IDX 50 55 53 56 67 57 86 58 51 59 52 60 66 62 87 63 54 64 38 65
REMARK SMILES IDX 39 66 47 67 40 68 41 69 45 70 48 71 42 72 43 73 46 74 44 75
REMARK SMILES IDX 70 76 71 77 79 78 72 79 73 80 77 81 80 82 74 83 75 84 78 85
REMARK SMILES IDX 76 86 55 87 56 88 64 89 57 90 58 91 62 92 65 93 59 94 60 95
REMARK SMILES IDX 63 96 61 97
REMARK H PARENT 6 16 85 50 53 61
REMARK Flexibility Score: inf
ROOT
ATOM      1  C   UNL A   1      34.366  32.508  28.134  1.00  0.00     0.188 C 
ENDROOT
BRANCH   1   2
ATOM      2  O   UNL A   1      33.868  31.020  28.123  1.00  0.00    -0.376 OA
BRANCH   2   3
ATOM      3  C   UNL A   1      33.787  30.242  26.910  1.00  0.00     0.202 C 
BRANCH   3   4
ATOM      4  C   UNL A   1      34.451  28.857  26.765  1.00  0.00     0.261 C 
BRANCH   4   5
ATOM      5  O   UNL A   1      33.814  27.919  25.864  1.00  0.00    -0.463 OA
BRANCH   5   6
ATOM      6  C   UNL A   1      32.461  27.848  25.880  1.00  0.00     0.310 C 
ATOM      7  O   UNL A   1      31.816  27.570  26.887  1.00  0.00    -0.252 OA
BRANCH   6   8
ATOM      8  C   UNL A   1      31.760  28.073  24.530  1.00  0.00     0.116 C 
ATOM      9  C   UNL A   1      30.980  26.968  23.764  1.00  0.00     0.097 C 
ATOM     10  C   UNL A   1      30.292  27.489  22.478  1.00  0.00     0.041 C 
ATOM     11  C   UNL A   1      30.005  28.955  22.427  1.00  0.00    -0.030 C 
ATOM     12  C   UNL A   1      30.929  29.347  24.701  1.00  0.00     0.043 C 
ATOM     13  C   UNL A   1      30.278  29.792  23.432  1.00  0.00    -0.030 C 
BRANCH   9  14
ATOM     14  C   UNL A   1      30.180  26.044  24.656  1.00  0.00     0.228 C 
ATOM     15  N   UNL A   1      30.759  24.877  25.100  1.00  0.00    -0.326 N 
ATOM     16  H   UNL A   1      30.227  24.391  25.770  1.00  0.00     0.169 HD
ATOM     17  O   UNL A   1      29.028  26.313  24.999  1.00  0.00    -0.274 OA
BRANCH  15  18
ATOM     18  C   UNL A   1      31.992  24.247  24.764  1.00  0.00     0.044 A 
ATOM     19  C   UNL A   1      36.653  22.945  23.128  1.00  0.00     0.047 C 
ATOM     20  C   UNL A   1      35.236  23.225  23.531  1.00  0.00    -0.015 A 
ATOM     21  C   UNL A   1      33.792  22.954  22.495  1.00  0.00     0.008 A 
ATOM     22  C   UNL A   1      35.063  23.902  25.152  1.00  0.00     0.128 A 
ATOM     23  C   UNL A   1      32.157  23.513  23.076  1.00  0.00     0.026 A 
ATOM     24  C   UNL A   1      33.496  24.442  25.760  1.00  0.00     0.065 A 
ATOM     25  F   UNL A   1      36.152  24.110  25.908  1.00  0.00    -0.207 F 
ENDBRANCH  15  18
ENDBRANCH   9  14
ENDBRANCH   6   8
ENDBRANCH   5   6
ENDBRANCH   4   5
ENDBRANCH   3   4
ENDBRANCH   2   3
ENDBRANCH   1   2
BRANCH   1  26
ATOM     26  C   UNL A   1      33.278  34.381  28.377  1.00  0.00     0.188 C 
BRANCH  26  27
ATOM     27  O   UNL A   1      33.551  35.544  29.444  1.00  0.00    -0.376 OA
BRANCH  27  28
ATOM     28  C   UNL A   1      32.722  35.896  30.570  1.00  0.00     0.202 C 
BRANCH  28  29
ATOM     29  C   UNL A   1      33.316  35.815  31.978  1.00  0.00     0.261 C 
BRANCH  29  30
ATOM     30  O   UNL A   1      34.721  35.953  32.051  1.00  0.00    -0.460 OA
BRANCH  30  31
ATOM     31  C   UNL A   1      35.319  35.000  32.791  1.00  0.00     0.338 C 
ATOM     32  O   UNL A   1      35.507  35.068  33.987  1.00  0.00    -0.246 OA
BRANCH  31  33
ATOM     33  C   UNL A   1      35.581  33.864  31.876  1.00  0.00     0.060 A 
ATOM     34  C   UNL A   1      35.128  32.573  32.198  1.00  0.00     0.016 A 
ATOM     35  C   UNL A   1      36.421  34.093  30.786  1.00  0.00     0.016 A 
ATOM     36  C   UNL A   1      35.944  31.528  31.878  1.00  0.00     0.010 A 
ATOM     37  C   UNL A   1      37.199  33.059  30.408  1.00  0.00     0.010 A 
ATOM     38  C   UNL A   1      37.068  31.893  31.171  1.00  0.00    -0.014 A 
BRANCH  38  39
ATOM     39  C   UNL A   1      38.342  31.296  31.446  1.00  0.00     0.031 A 
ATOM     40  C   UNL A   1      38.527  30.048  30.710  1.00  0.00     0.074 A 
ATOM     41  C   UNL A   1      39.191  32.179  32.040  1.00  0.00     0.049 A 
ATOM     42  N   UNL A   1      39.337  29.118  31.046  1.00  0.00    -0.248 NA
ATOM     43  C   UNL A   1      37.634  29.635  29.608  1.00  0.00     0.031 C 
ATOM     44  C   UNL A   1      40.619  32.387  31.848  1.00  0.00     0.029 A 
ATOM     45  N   UNL A   1      38.849  33.152  33.019  1.00  0.00    -0.354 N 
ATOM     46  C   UNL A   1      39.444  28.336  29.917  1.00  0.00     0.074 A 
ATOM     47  C   UNL A   1      38.189  28.478  29.242  1.00  0.00     0.031 C 
ATOM     48  C   UNL A   1      41.083  33.208  32.814  1.00  0.00     0.029 A 
ATOM     49  C   UNL A   1      40.005  33.457  33.765  1.00  0.00     0.049 A 
ATOM     50  H   UNL A   1      37.957  33.546  33.152  1.00  0.00     0.167 HD
ATOM     51  C   UNL A   1      40.697  27.972  29.527  1.00  0.00     0.037 A 
ATOM     52  C   UNL A   1      40.093  33.120  35.092  1.00  0.00     0.037 A 
ATOM     53  C   UNL A   1      41.665  28.526  30.484  1.00  0.00     0.049 A 
ATOM     54  C   UNL A   1      40.880  31.867  35.279  1.00  0.00     0.074 A 
ATOM     55  C   UNL A   1      42.474  29.649  30.440  1.00  0.00     0.029 A 
ATOM     56  N   UNL A   1      41.567  28.165  31.823  1.00  0.00    -0.354 N 
ATOM     57  N   UNL A   1      41.122  31.015  34.327  1.00  0.00    -0.248 NA
ATOM     58  C   UNL A   1      41.433  31.484  36.567  1.00  0.00     0.031 C 
ATOM     59  C   UNL A   1      42.812  29.989  31.781  1.00  0.00     0.029 A 
ATOM     60  C   UNL A   1      42.205  29.081  32.636  1.00  0.00     0.049 A 
ATOM     61  H   UNL A   1      41.104  27.360  32.149  1.00  0.00     0.167 HD
ATOM     62  C   UNL A   1      41.841  29.984  34.837  1.00  0.00     0.074 A 
ATOM     63  C   UNL A   1      42.039  30.336  36.233  1.00  0.00     0.031 C 
ATOM     64  C   UNL A   1      42.189  28.906  34.083  1.00  0.00     0.037 A 
BRANCH  51  65
ATOM     65  C   UNL A   1      41.119  27.396  28.195  1.00  0.00     0.064 A 
ATOM     66  C   UNL A   1      41.138  25.992  28.042  1.00  0.00     0.173 A 
ATOM     67  C   UNL A   1      41.517  28.112  27.047  1.00  0.00     0.173 A 
ATOM     68  F   UNL A   1      40.754  25.177  29.034  1.00  0.00    -0.203 F 
ATOM     69  C   UNL A   1      41.536  25.364  26.860  1.00  0.00     0.198 A 
ATOM     70  C   UNL A   1      41.904  27.483  25.859  1.00  0.00     0.198 A 
ATOM     71  F   UNL A   1      41.554  29.445  27.004  1.00  0.00    -0.203 F 
ATOM     72  F   UNL A   1      41.543  24.026  26.791  1.00  0.00    -0.200 F 
ATOM     73  C   UNL A   1      41.915  26.109  25.766  1.00  0.00     0.200 A 
ATOM     74  F   UNL A   1      42.263  28.228  24.803  1.00  0.00    -0.200 F 
ATOM     75  F   UNL A   1      42.281  25.510  24.626  1.00  0.00    -0.200 F 
ENDBRANCH  51  65
BRANCH  52  76
ATOM     76  C   UNL A   1      38.902  33.417  35.931  1.00  0.00     0.064 A 
ATOM     77  C   UNL A   1      38.086  32.308  36.209  1.00  0.00     0.173 A 
ATOM     78  C   UNL A   1      38.952  34.485  36.843  1.00  0.00     0.173 A 
ATOM     79  F   UNL A   1      37.937  31.327  35.307  1.00  0.00    -0.203 F 
ATOM     80  C   UNL A   1      37.739  32.063  37.511  1.00  0.00     0.198 A 
ATOM     81  C   UNL A   1      38.532  34.276  38.131  1.00  0.00     0.198 A 
ATOM     82  F   UNL A   1      39.649  35.598  36.581  1.00  0.00    -0.203 F 
ATOM     83  F   UNL A   1      37.406  30.816  37.881  1.00  0.00    -0.200 F 
ATOM     84  C   UNL A   1      38.188  32.981  38.442  1.00  0.00     0.200 A 
ATOM     85  F   UNL A   1      38.933  35.095  39.116  1.00  0.00    -0.200 F 
ATOM     86  F   UNL A   1      39.023  32.487  39.333  1.00  0.00    -0.200 F 
ENDBRANCH  52  76
BRANCH  64  87
ATOM     87  C   UNL A   1      42.632  27.610  34.690  1.00  0.00     0.064 A 
ATOM     88  C   UNL A   1      41.764  26.531  34.920  1.00  0.00     0.173 A 
ATOM     89  C   UNL A   1      43.994  27.374  34.967  1.00  0.00     0.173 A 
ATOM     90  F   UNL A   1      40.490  26.543  34.502  1.00  0.00    -0.203 F 
ATOM     91  C   UNL A   1      42.194  25.370  35.553  1.00  0.00     0.198 A 
ATOM     92  C   UNL A   1      44.439  26.169  35.492  1.00  0.00     0.198 A 
ATOM     93  F   UNL A   1      44.939  28.293  34.719  1.00  0.00    -0.203 F 
ATOM     94  F   UNL A   1      41.302  24.424  35.874  1.00  0.00    -0.200 F 
ATOM     95  C   UNL A   1      43.532  25.188  35.834  1.00  0.00     0.200 A 
ATOM     96  F   UNL A   1      45.752  25.966  35.660  1.00  0.00    -0.200 F 
ATOM     97  F   UNL A   1      43.953  24.057  36.413  1.00  0.00    -0.200 F 
ENDBRANCH  64  87
ENDBRANCH  38  39
ENDBRANCH  31  33
ENDBRANCH  30  31
ENDBRANCH  29  30
ENDBRANCH  28  29
ENDBRANCH  27  28
ENDBRANCH  26  27
ENDBRANCH   1  26
TORSDOF 19
ENDMDL
MODEL 3
REMARK VINA RESULT:     -12.5      1.226      2.053
REMARK SMILES Cc1ccc(NC(=O)[C@H]2CC=CC[C@H]2C(=O)OCCOCCOCCOC(=O)c2ccc(-c3c4nc(c(-c5c(F)c(F)c(F)c(F)c5F)c5ccc([nH]5)c(-c5c(F)c(F)c(F)c(F)c5F)c5nc(c(-c6c(F)c(F)c(F)c(F)c6F)c6ccc3[nH]6)C=C5)C=C4)cc2)cc1F
REMARK SMILES IDX 21 1 20 2 19 3 18 4 17 5 15 6 16 7 14 8 9 9 10 10 11 11
REMARK SMILES IDX 13 12 12 13 7 14 6 15 8 17 5 18 1 19 2 20 3 21 93 22 4 23
REMARK SMILES IDX 92 24 94 25 22 26 23 27 24 28 25 29 26 30 27 31 28 32 29 33
REMARK SMILES IDX 30 34 91 35 31 36 90 37 32 38 33 39 34 40 84 41 35 42 89 43
REMARK SMILES IDX 83 44 85 45 36 46 88 47 82 48 81 49 37 51 69 52 49 53 68 54
REMARK SMILES IDX 50 55 53 56 67 57 86 58 51 59 52 60 66 62 87 63 54 64 38 65
REMARK SMILES IDX 39 66 47 67 40 68 41 69 45 70 48 71 42 72 43 73 46 74 44 75
REMARK SMILES IDX 70 76 71 77 79 78 72 79 73 80 77 81 80 82 74 83 75 84 78 85
REMARK SMILES IDX 76 86 55 87 56 88 64 89 57 90 58 91 62 92 65 93 59 94 60 95
REMARK SMILES IDX 63 96 61 97
REMARK H PARENT 6 16 85 50 53 61
REMARK Flexibility Score: inf
ROOT
ATOM      1  C   UNL A   1      39.881  21.377  26.450  1.00  0.00     0.188 C 
ENDROOT
BRANCH   1   2
ATOM      2  O   UNL A   1      38.413  21.714  26.007  1.00  0.00    -0.376 OA
BRANCH   2   3
ATOM      3  C   UNL A   1      37.994  23.056  25.681  1.00  0.00     0.202 C 
BRANCH   3   4
ATOM      4  C   UNL A   1      36.726  23.352  24.854  1.00  0.00     0.261 C 
BRANCH   4   5
ATOM      5  O   UNL A   1      35.462  23.304  25.560  1.00  0.00    -0.463 OA
BRANCH   5   6
ATOM      6  C   UNL A   1      34.521  24.223  25.235  1.00  0.00     0.310 C 
ATOM      7  O   UNL A   1      34.756  25.203  24.535  1.00  0.00    -0.252 OA
BRANCH   6   8
ATOM      8  C   UNL A   1      33.129  24.009  25.853  1.00  0.00     0.116 C 
ATOM      9  C   UNL A   1      31.960  25.024  25.725  1.00  0.00     0.097 C 
ATOM     10  C   UNL A   1      30.641  24.517  26.360  1.00  0.00     0.041 C 
ATOM     11  C   UNL A   1      30.500  23.036  26.500  1.00  0.00    -0.030 C 
ATOM     12  C   UNL A   1      32.708  22.595  25.447  1.00  0.00     0.043 C 
ATOM     13  C   UNL A   1      31.423  22.167  26.078  1.00  0.00    -0.030 C 
BRANCH   9  14
ATOM     14  C   UNL A   1      31.867  25.695  24.371  1.00  0.00     0.228 C 
ATOM     15  N   UNL A   1      32.178  27.032  24.266  1.00  0.00    -0.326 N 
ATOM     16  H   UNL A   1      32.213  27.367  23.341  1.00  0.00     0.169 HD
ATOM     17  O   UNL A   1      31.528  25.074  23.363  1.00  0.00    -0.274 OA
BRANCH  15  18
ATOM     18  C   UNL A   1      32.457  28.018  25.256  1.00  0.00     0.044 A 
ATOM     19  C   UNL A   1      33.975  32.047  28.004  1.00  0.00     0.047 C 
ATOM     20  C   UNL A   1      33.596  30.786  27.287  1.00  0.00    -0.015 A 
ATOM     21  C   UNL A   1      34.597  29.294  27.218  1.00  0.00     0.008 A 
ATOM     22  C   UNL A   1      32.047  30.868  26.445  1.00  0.00     0.128 A 
ATOM     23  C   UNL A   1      34.067  27.910  26.156  1.00  0.00     0.026 A 
ATOM     24  C   UNL A   1      31.488  29.544  25.418  1.00  0.00     0.065 A 
ATOM     25  F   UNL A   1      31.318  31.992  26.496  1.00  0.00    -0.207 F 
ENDBRANCH  15  18
ENDBRANCH   9  14
ENDBRANCH   6   8
ENDBRANCH   5   6
ENDBRANCH   4   5
ENDBRANCH   3   4
ENDBRANCH   2   3
ENDBRANCH   1   2
BRANCH   1  26
ATOM     26  C   UNL A   1      41.102  19.601  26.128  1.00  0.00     0.188 C 
BRANCH  26  27
ATOM     27  O   UNL A   1      42.678  19.437  26.359  1.00  0.00    -0.376 OA
BRANCH  27  28
ATOM     28  C   UNL A   1      43.646  18.952  25.405  1.00  0.00     0.202 C 
BRANCH  28  29
ATOM     29  C   UNL A   1      44.821  19.854  25.022  1.00  0.00     0.261 C 
BRANCH  29  30
ATOM     30  O   UNL A   1      44.482  21.190  24.707  1.00  0.00    -0.460 OA
BRANCH  30  31
ATOM     31  C   UNL A   1      44.812  22.073  25.669  1.00  0.00     0.338 C 
ATOM     32  O   UNL A   1      45.928  22.216  26.122  1.00  0.00    -0.246 OA
BRANCH  31  33
ATOM     33  C   UNL A   1      43.590  22.860  25.952  1.00  0.00     0.060 A 
ATOM     34  C   UNL A   1      43.061  23.727  24.980  1.00  0.00     0.016 A 
ATOM     35  C   UNL A   1      43.090  22.830  27.254  1.00  0.00     0.016 A 
ATOM     36  C   UNL A   1      42.539  24.908  25.417  1.00  0.00     0.010 A 
ATOM     37  C   UNL A   1      42.514  23.966  27.695  1.00  0.00     0.010 A 
ATOM     38  C   UNL A   1      42.505  25.031  26.788  1.00  0.00    -0.014 A 
BRANCH  38  39
ATOM     39  C   UNL A   1      42.830  26.273  27.428  1.00  0.00     0.031 A 
ATOM     40  C   UNL A   1      41.651  27.112  27.616  1.00  0.00     0.074 A 
ATOM     41  C   UNL A   1      44.064  26.230  28.005  1.00  0.00     0.049 A 
ATOM     42  N   UNL A   1      41.677  28.382  27.766  1.00  0.00    -0.248 NA
ATOM     43  C   UNL A   1      40.275  26.604  27.436  1.00  0.00     0.031 C 
ATOM     44  C   UNL A   1      44.531  26.778  29.270  1.00  0.00     0.029 A 
ATOM     45  N   UNL A   1      45.221  25.596  27.477  1.00  0.00    -0.354 N 
ATOM     46  C   UNL A   1      40.428  28.692  28.256  1.00  0.00     0.074 A 
ATOM     47  C   UNL A   1      39.555  27.690  27.722  1.00  0.00     0.031 C 
ATOM     48  C   UNL A   1      45.877  26.695  29.321  1.00  0.00     0.029 A 
ATOM     49  C   UNL A   1      46.359  26.218  28.028  1.00  0.00     0.049 A 
ATOM     50  H   UNL A   1      45.227  24.849  26.836  1.00  0.00     0.167 HD
ATOM     51  C   UNL A   1      40.370  29.530  29.329  1.00  0.00     0.037 A 
ATOM     52  C   UNL A   1      47.212  26.949  27.240  1.00  0.00     0.037 A 
ATOM     53  C   UNL A   1      41.739  29.923  29.691  1.00  0.00     0.049 A 
ATOM     54  C   UNL A   1      46.940  28.411  27.361  1.00  0.00     0.074 A 
ATOM     55  C   UNL A   1      42.605  29.470  30.672  1.00  0.00     0.029 A 
ATOM     56  N   UNL A   1      42.522  30.576  28.746  1.00  0.00    -0.354 N 
ATOM     57  N   UNL A   1      45.834  28.904  27.833  1.00  0.00    -0.248 NA
ATOM     58  C   UNL A   1      47.900  29.415  26.936  1.00  0.00     0.031 C 
ATOM     59  C   UNL A   1      43.928  29.812  30.269  1.00  0.00     0.029 A 
ATOM     60  C   UNL A   1      43.866  30.462  29.046  1.00  0.00     0.049 A 
ATOM     61  H   UNL A   1      42.165  31.056  27.964  1.00  0.00     0.167 HD
ATOM     62  C   UNL A   1      45.905  30.259  27.784  1.00  0.00     0.074 A 
ATOM     63  C   UNL A   1      47.227  30.532  27.246  1.00  0.00     0.031 C 
ATOM     64  C   UNL A   1      44.861  31.048  28.158  1.00  0.00     0.037 A 
BRANCH  51  65
ATOM     65  C   UNL A   1      39.189  29.786  30.238  1.00  0.00     0.064 A 
ATOM     66  C   UNL A   1      38.332  30.869  29.943  1.00  0.00     0.173 A 
ATOM     67  C   UNL A   1      38.829  29.054  31.389  1.00  0.00     0.173 A 
ATOM     68  F   UNL A   1      38.526  31.637  28.862  1.00  0.00    -0.203 F 
ATOM     69  C   UNL A   1      37.232  31.201  30.735  1.00  0.00     0.198 A 
ATOM     70  C   UNL A   1      37.719  29.380  32.175  1.00  0.00     0.198 A 
ATOM     71  F   UNL A   1      39.517  27.995  31.816  1.00  0.00    -0.203 F 
ATOM     72  F   UNL A   1      36.470  32.252  30.403  1.00  0.00    -0.200 F 
ATOM     73  C   UNL A   1      36.922  30.454  31.850  1.00  0.00     0.200 A 
ATOM     74  F   UNL A   1      37.431  28.635  33.253  1.00  0.00    -0.200 F 
ATOM     75  F   UNL A   1      35.857  30.760  32.601  1.00  0.00    -0.200 F 
ENDBRANCH  51  65
BRANCH  52  76
ATOM     76  C   UNL A   1      47.596  26.340  25.939  1.00  0.00     0.064 A 
ATOM     77  C   UNL A   1      46.924  26.864  24.822  1.00  0.00     0.173 A 
ATOM     78  C   UNL A   1      48.887  25.807  25.783  1.00  0.00     0.173 A 
ATOM     79  F   UNL A   1      45.652  27.277  24.922  1.00  0.00    -0.203 F 
ATOM     80  C   UNL A   1      47.667  27.274  23.747  1.00  0.00     0.198 A 
ATOM     81  C   UNL A   1      49.612  26.147  24.671  1.00  0.00     0.198 A 
ATOM     82  F   UNL A   1      49.531  25.223  26.801  1.00  0.00    -0.203 F 
ATOM     83  F   UNL A   1      47.161  28.193  22.909  1.00  0.00    -0.200 F 
ATOM     84  C   UNL A   1      49.032  27.079  23.843  1.00  0.00     0.200 A 
ATOM     85  F   UNL A   1      50.949  26.021  24.669  1.00  0.00    -0.200 F 
ATOM     86  F   UNL A   1      49.741  28.189  23.834  1.00  0.00    -0.200 F 
ENDBRANCH  52  76
BRANCH  64  87
ATOM     87  C   UNL A   1      44.765  32.490  27.762  1.00  0.00     0.064 A 
ATOM     88  C   UNL A   1      45.354  33.532  28.497  1.00  0.00     0.173 A 
ATOM     89  C   UNL A   1      44.153  32.864  26.548  1.00  0.00     0.173 A 
ATOM     90  F   UNL A   1      46.149  33.294  29.550  1.00  0.00    -0.203 F 
ATOM     91  C   UNL A   1      45.182  34.864  28.141  1.00  0.00     0.198 A 
ATOM     92  C   UNL A   1      44.085  34.187  26.136  1.00  0.00     0.198 A 
ATOM     93  F   UNL A   1      43.622  31.959  25.713  1.00  0.00    -0.203 F 
ATOM     94  F   UNL A   1      45.648  35.828  28.947  1.00  0.00    -0.200 F 
ATOM     95  C   UNL A   1      44.553  35.191  26.958  1.00  0.00     0.200 A 
ATOM     96  F   UNL A   1      43.567  34.480  24.937  1.00  0.00    -0.200 F 
ATOM     97  F   UNL A   1      44.417  36.472  26.596  1.00  0.00    -0.200 F 
ENDBRANCH  64  87
ENDBRANCH  38  39
ENDBRANCH  31  33
ENDBRANCH  30  31
ENDBRANCH  29  30
ENDBRANCH  28  29
ENDBRANCH  27  28
ENDBRANCH  26  27
ENDBRANCH   1  26
TORSDOF 19
ENDMDL
