MODEL 1
REMARK VINA RESULT:     -11.7      0.000      0.000
REMARK SMILES COC(=O)c1ccc(C)c2c1[C@H]1C=CC[C@H]1[C@@H](c1ccc(C(=O)OCCOCCOCCOC(=O)c3ccc(-c4c5nc(c(-c6c(F)c(F)c(F)c(F)c6F)c6ccc([nH]6)c(-c6c(F)c(F)c(F)c(F)c6F)c6nc(c(-c7c(F)c(F)c(F)c(F)c7F)c7ccc4[nH]7)C=C6)C=C5)cc3)cc1)N2
REMARK SMILES IDX 28 1 27 2 26 3 25 4 24 5 22 6 23 7 21 8 18 9 19 10 100 11
REMARK SMILES IDX 20 12 99 13 17 14 5 15 6 16 11 17 7 18 10 19 12 20 8 21
REMARK SMILES IDX 101 22 13 23 16 24 9 25 14 27 15 28 3 29 4 30 2 31 1 32
REMARK SMILES IDX 29 33 30 34 31 35 32 36 33 37 34 38 35 39 36 40 37 41 98 42
REMARK SMILES IDX 38 43 97 44 39 45 40 46 41 47 91 48 42 49 96 50 90 51 92 52
REMARK SMILES IDX 43 53 95 54 89 55 88 56 44 58 76 59 56 60 75 61 57 62 60 63
REMARK SMILES IDX 74 64 93 65 58 66 59 67 73 69 94 70 61 71 45 72 46 73 54 74
REMARK SMILES IDX 47 75 48 76 52 77 55 78 49 79 50 80 53 81 51 82 77 83 78 84
REMARK SMILES IDX 86 85 79 86 80 87 84 88 87 89 81 90 82 91 85 92 83 93 62 94
REMARK SMILES IDX 63 95 71 96 64 97 65 98 69 99 72 100 66 101 67 102 70 103
REMARK SMILES IDX 68 104
REMARK H PARENT 101 26 92 57 60 68
REMARK Flexibility Score: inf
ROOT
ATOM      1  C   UNL A   1      34.561  33.631  29.225  1.00  0.00     0.188 C 
ENDROOT
BRANCH   1   2
ATOM      2  O   UNL A   1      34.481  33.096  27.926  1.00  0.00    -0.376 OA
BRANCH   2   3
ATOM      3  C   UNL A   1      34.089  31.748  27.732  1.00  0.00     0.202 C 
BRANCH   3   4
ATOM      4  C   UNL A   1      34.961  30.511  28.038  1.00  0.00     0.261 C 
BRANCH   4   5
ATOM      5  O   UNL A   1      34.843  29.382  27.171  1.00  0.00    -0.460 OA
BRANCH   5   6
ATOM      6  C   UNL A   1      33.636  28.765  27.164  1.00  0.00     0.338 C 
ATOM      7  O   UNL A   1      32.665  29.044  27.845  1.00  0.00    -0.246 OA
BRANCH   6   8
ATOM      8  C   UNL A   1      33.582  27.833  26.019  1.00  0.00     0.060 A 
ATOM      9  C   UNL A   1      33.405  26.165  23.744  1.00  0.00    -0.025 A 
ATOM     10  C   UNL A   1      32.919  27.485  23.728  1.00  0.00     0.007 A 
ATOM     11  C   UNL A   1      34.039  25.723  24.922  1.00  0.00     0.007 A 
ATOM     12  C   UNL A   1      32.980  28.302  24.854  1.00  0.00     0.016 A 
ATOM     13  C   UNL A   1      34.138  26.554  26.051  1.00  0.00     0.016 A 
BRANCH   9  14
ATOM     14  C   UNL A   1      33.189  25.193  22.575  1.00  0.00     0.114 C 
ATOM     15  C   UNL A   1      33.354  21.477  24.647  1.00  0.00     0.065 A 
ATOM     16  C   UNL A   1      34.602  20.984  25.036  1.00  0.00     0.016 A 
ATOM     17  C   UNL A   1      33.241  22.585  23.781  1.00  0.00    -0.003 A 
ATOM     18  C   UNL A   1      35.757  21.568  24.535  1.00  0.00     0.006 A 
ATOM     19  C   UNL A   1      34.423  23.161  23.251  1.00  0.00     0.042 A 
ATOM     20  C   UNL A   1      31.882  23.157  23.431  1.00  0.00     0.050 C 
ATOM     21  C   UNL A   1      35.685  22.642  23.632  1.00  0.00    -0.028 A 
ATOM     22  N   UNL A   1      34.336  24.299  22.458  1.00  0.00    -0.377 N 
ATOM     23  C   UNL A   1      31.073  23.733  24.570  1.00  0.00    -0.023 C 
ATOM     24  C   UNL A   1      31.904  24.351  22.461  1.00  0.00     0.031 C 
ATOM     25  C   UNL A   1      37.003  23.227  23.193  1.00  0.00     0.046 C 
ATOM     26  H   UNL A   1      35.052  24.502  21.813  1.00  0.00     0.161 HD
ATOM     27  C   UNL A   1      30.363  24.802  24.185  1.00  0.00    -0.030 C 
ATOM     28  C   UNL A   1      30.614  25.128  22.749  1.00  0.00     0.034 C 
BRANCH  15  29
ATOM     29  C   UNL A   1      32.157  20.794  25.173  1.00  0.00     0.338 C 
ATOM     30  O   UNL A   1      31.430  21.236  26.044  1.00  0.00    -0.246 OA
BRANCH  29  31
ATOM     31  O   UNL A   1      32.073  19.588  24.566  1.00  0.00    -0.465 OA
ATOM     32  C   UNL A   1      32.575  18.508  25.346  1.00  0.00     0.282 C 
ENDBRANCH  29  31
ENDBRANCH  15  29
ENDBRANCH   9  14
ENDBRANCH   6   8
ENDBRANCH   5   6
ENDBRANCH   4   5
ENDBRANCH   3   4
ENDBRANCH   2   3
ENDBRANCH   1   2
BRANCH   1  33
ATOM     33  C   UNL A   1      33.513  34.726  29.532  1.00  0.00     0.188 C 
BRANCH  33  34
ATOM     34  O   UNL A   1      33.050  34.911  30.863  1.00  0.00    -0.376 OA
BRANCH  34  35
ATOM     35  C   UNL A   1      33.996  35.202  31.887  1.00  0.00     0.202 C 
BRANCH  35  36
ATOM     36  C   UNL A   1      34.599  34.063  32.724  1.00  0.00     0.261 C 
BRANCH  36  37
ATOM     37  O   UNL A   1      35.891  33.606  32.291  1.00  0.00    -0.460 OA
BRANCH  37  38
ATOM     38  C   UNL A   1      36.476  32.677  33.086  1.00  0.00     0.338 C 
ATOM     39  O   UNL A   1      36.256  32.450  34.263  1.00  0.00    -0.246 OA
BRANCH  38  40
ATOM     40  C   UNL A   1      37.380  31.843  32.279  1.00  0.00     0.060 A 
ATOM     41  C   UNL A   1      38.439  31.181  32.914  1.00  0.00     0.016 A 
ATOM     42  C   UNL A   1      37.243  31.799  30.891  1.00  0.00     0.016 A 
ATOM     43  C   UNL A   1      39.367  30.472  32.158  1.00  0.00     0.010 A 
ATOM     44  C   UNL A   1      38.198  31.117  30.130  1.00  0.00     0.010 A 
ATOM     45  C   UNL A   1      39.280  30.477  30.759  1.00  0.00    -0.014 A 
BRANCH  45  46
ATOM     46  C   UNL A   1      40.426  29.977  29.965  1.00  0.00     0.031 A 
ATOM     47  C   UNL A   1      41.571  30.915  29.689  1.00  0.00     0.074 A 
ATOM     48  C   UNL A   1      40.506  28.687  29.595  1.00  0.00     0.049 A 
ATOM     49  N   UNL A   1      42.708  30.675  29.090  1.00  0.00    -0.248 NA
ATOM     50  C   UNL A   1      41.450  32.286  30.219  1.00  0.00     0.031 C 
ATOM     51  C   UNL A   1      39.502  27.663  29.878  1.00  0.00     0.029 A 
ATOM     52  N   UNL A   1      41.482  28.018  28.898  1.00  0.00    -0.354 N 
ATOM     53  C   UNL A   1      43.454  31.839  29.214  1.00  0.00     0.074 A 
ATOM     54  C   UNL A   1      42.629  32.804  29.907  1.00  0.00     0.031 C 
ATOM     55  C   UNL A   1      39.899  26.501  29.330  1.00  0.00     0.029 A 
ATOM     56  C   UNL A   1      41.170  26.707  28.637  1.00  0.00     0.049 A 
ATOM     57  H   UNL A   1      42.324  28.439  28.612  1.00  0.00     0.167 HD
ATOM     58  C   UNL A   1      44.724  32.068  28.812  1.00  0.00     0.037 A 
ATOM     59  C   UNL A   1      41.823  25.789  27.894  1.00  0.00     0.037 A 
ATOM     60  C   UNL A   1      45.538  31.121  28.102  1.00  0.00     0.049 A 
ATOM     61  C   UNL A   1      43.148  26.149  27.270  1.00  0.00     0.074 A 
ATOM     62  C   UNL A   1      46.828  31.284  27.629  1.00  0.00     0.029 A 
ATOM     63  N   UNL A   1      45.138  29.843  27.747  1.00  0.00    -0.354 N 
ATOM     64  N   UNL A   1      43.852  27.247  27.401  1.00  0.00    -0.248 NA
ATOM     65  C   UNL A   1      43.772  25.143  26.398  1.00  0.00     0.031 C 
ATOM     66  C   UNL A   1      47.184  30.129  26.930  1.00  0.00     0.029 A 
ATOM     67  C   UNL A   1      46.139  29.224  27.018  1.00  0.00     0.049 A 
ATOM     68  H   UNL A   1      44.271  29.437  27.978  1.00  0.00     0.167 HD
ATOM     69  C   UNL A   1      45.008  27.053  26.654  1.00  0.00     0.074 A 
ATOM     70  C   UNL A   1      44.920  25.727  26.082  1.00  0.00     0.031 C 
ATOM     71  C   UNL A   1      46.048  27.900  26.459  1.00  0.00     0.037 A 
BRANCH  58  72
ATOM     72  C   UNL A   1      45.325  33.406  29.111  1.00  0.00     0.064 A 
ATOM     73  C   UNL A   1      46.119  33.607  30.247  1.00  0.00     0.173 A 
ATOM     74  C   UNL A   1      45.204  34.456  28.189  1.00  0.00     0.173 A 
ATOM     75  F   UNL A   1      46.251  32.633  31.160  1.00  0.00    -0.203 F 
ATOM     76  C   UNL A   1      46.783  34.815  30.446  1.00  0.00     0.198 A 
ATOM     77  C   UNL A   1      45.882  35.655  28.382  1.00  0.00     0.198 A 
ATOM     78  F   UNL A   1      44.456  34.303  27.087  1.00  0.00    -0.203 F 
ATOM     79  F   UNL A   1      47.539  34.993  31.538  1.00  0.00    -0.200 F 
ATOM     80  C   UNL A   1      46.675  35.832  29.507  1.00  0.00     0.200 A 
ATOM     81  F   UNL A   1      45.786  36.630  27.469  1.00  0.00    -0.200 F 
ATOM     82  F   UNL A   1      47.338  36.983  29.684  1.00  0.00    -0.200 F 
ENDBRANCH  58  72
BRANCH  59  83
ATOM     83  C   UNL A   1      41.210  24.455  27.647  1.00  0.00     0.064 A 
ATOM     84  C   UNL A   1      41.755  23.284  28.190  1.00  0.00     0.173 A 
ATOM     85  C   UNL A   1      40.089  24.324  26.812  1.00  0.00     0.173 A 
ATOM     86  F   UNL A   1      42.846  23.351  28.968  1.00  0.00    -0.203 F 
ATOM     87  C   UNL A   1      41.216  22.033  27.890  1.00  0.00     0.198 A 
ATOM     88  C   UNL A   1      39.533  23.077  26.538  1.00  0.00     0.198 A 
ATOM     89  F   UNL A   1      39.535  25.411  26.254  1.00  0.00    -0.203 F 
ATOM     90  F   UNL A   1      41.793  20.925  28.376  1.00  0.00    -0.200 F 
ATOM     91  C   UNL A   1      40.103  21.932  27.070  1.00  0.00     0.200 A 
ATOM     92  F   UNL A   1      38.454  22.985  25.749  1.00  0.00    -0.200 F 
ATOM     93  F   UNL A   1      39.590  20.729  26.779  1.00  0.00    -0.200 F 
ENDBRANCH  59  83
BRANCH  71  94
ATOM     94  C   UNL A   1      47.193  27.430  25.610  1.00  0.00     0.064 A 
ATOM     95  C   UNL A   1      47.222  27.666  24.227  1.00  0.00     0.173 A 
ATOM     96  C   UNL A   1      48.313  26.821  26.195  1.00  0.00     0.173 A 
ATOM     97  F   UNL A   1      46.170  28.234  23.617  1.00  0.00    -0.203 F 
ATOM     98  C   UNL A   1      48.325  27.300  23.462  1.00  0.00     0.198 A 
ATOM     99  C   UNL A   1      49.428  26.486  25.433  1.00  0.00     0.198 A 
ATOM    100  F   UNL A   1      48.340  26.583  27.516  1.00  0.00    -0.203 F 
ATOM    101  F   UNL A   1      48.319  27.507  22.138  1.00  0.00    -0.200 F 
ATOM    102  C   UNL A   1      49.433  26.723  24.067  1.00  0.00     0.200 A 
ATOM    103  F   UNL A   1      50.505  25.946  26.022  1.00  0.00    -0.200 F 
ATOM    104  F   UNL A   1      50.504  26.393  23.332  1.00  0.00    -0.200 F 
ENDBRANCH  71  94
ENDBRANCH  45  46
ENDBRANCH  38  40
ENDBRANCH  37  38
ENDBRANCH  36  37
ENDBRANCH  35  36
ENDBRANCH  34  35
ENDBRANCH  33  34
ENDBRANCH   1  33
TORSDOF 20
ENDMDL
MODEL 2
REMARK VINA RESULT:     -11.1      4.589      8.904
REMARK SMILES COC(=O)c1ccc(C)c2c1[C@H]1C=CC[C@H]1[C@@H](c1ccc(C(=O)OCCOCCOCCOC(=O)c3ccc(-c4c5nc(c(-c6c(F)c(F)c(F)c(F)c6F)c6ccc([nH]6)c(-c6c(F)c(F)c(F)c(F)c6F)c6nc(c(-c7c(F)c(F)c(F)c(F)c7F)c7ccc4[nH]7)C=C6)C=C5)cc3)cc1)N2
REMARK SMILES IDX 28 1 27 2 26 3 25 4 24 5 22 6 23 7 21 8 18 9 19 10 100 11
REMARK SMILES IDX 20 12 99 13 17 14 5 15 6 16 11 17 7 18 10 19 12 20 8 21
REMARK SMILES IDX 101 22 13 23 16 24 9 25 14 27 15 28 3 29 4 30 2 31 1 32
REMARK SMILES IDX 29 33 30 34 31 35 32 36 33 37 34 38 35 39 36 40 37 41 98 42
REMARK SMILES IDX 38 43 97 44 39 45 40 46 41 47 91 48 42 49 96 50 90 51 92 52
REMARK SMILES IDX 43 53 95 54 89 55 88 56 44 58 76 59 56 60 75 61 57 62 60 63
REMARK SMILES IDX 74 64 93 65 58 66 59 67 73 69 94 70 61 71 45 72 46 73 54 74
REMARK SMILES IDX 47 75 48 76 52 77 55 78 49 79 50 80 53 81 51 82 77 83 78 84
REMARK SMILES IDX 86 85 79 86 80 87 84 88 87 89 81 90 82 91 85 92 83 93 62 94
REMARK SMILES IDX 63 95 71 96 64 97 65 98 69 99 72 100 66 101 67 102 70 103
REMARK SMILES IDX 68 104
REMARK H PARENT 101 26 92 57 60 68
REMARK Flexibility Score: inf
ROOT
ATOM      1  C   UNL A   1      32.083  26.294  24.869  1.00  0.00     0.188 C 
ENDROOT
BRANCH   1   2
ATOM      2  O   UNL A   1      32.287  25.588  26.069  1.00  0.00    -0.376 OA
BRANCH   2   3
ATOM      3  C   UNL A   1      33.033  24.382  26.070  1.00  0.00     0.202 C 
BRANCH   3   4
ATOM      4  C   UNL A   1      34.238  24.077  25.155  1.00  0.00     0.261 C 
BRANCH   4   5
ATOM      5  O   UNL A   1      35.070  22.967  25.497  1.00  0.00    -0.460 OA
BRANCH   5   6
ATOM      6  C   UNL A   1      36.140  22.760  24.692  1.00  0.00     0.338 C 
ATOM      7  O   UNL A   1      36.136  22.655  23.478  1.00  0.00    -0.246 OA
BRANCH   6   8
ATOM      8  C   UNL A   1      37.376  22.915  25.487  1.00  0.00     0.060 A 
ATOM      9  C   UNL A   1      39.786  23.067  26.956  1.00  0.00    -0.025 A 
ATOM     10  C   UNL A   1      39.474  21.945  26.167  1.00  0.00     0.007 A 
ATOM     11  C   UNL A   1      38.874  24.142  26.940  1.00  0.00     0.007 A 
ATOM     12  C   UNL A   1      38.277  21.854  25.462  1.00  0.00     0.016 A 
ATOM     13  C   UNL A   1      37.681  24.074  26.201  1.00  0.00     0.016 A 
BRANCH   9  14
ATOM     14  C   UNL A   1      41.013  23.113  27.878  1.00  0.00     0.114 C 
ATOM     15  C   UNL A   1      43.936  21.357  25.329  1.00  0.00     0.065 A 
ATOM     16  C   UNL A   1      43.921  19.971  25.150  1.00  0.00     0.016 A 
ATOM     17  C   UNL A   1      43.140  21.978  26.313  1.00  0.00    -0.003 A 
ATOM     18  C   UNL A   1      43.138  19.181  25.980  1.00  0.00     0.006 A 
ATOM     19  C   UNL A   1      42.362  21.164  27.175  1.00  0.00     0.042 A 
ATOM     20  C   UNL A   1      43.106  23.488  26.442  1.00  0.00     0.050 C 
ATOM     21  C   UNL A   1      42.368  19.758  27.004  1.00  0.00    -0.028 A 
ATOM     22  N   UNL A   1      41.513  21.761  28.101  1.00  0.00    -0.377 N 
ATOM     23  C   UNL A   1      42.568  24.259  25.259  1.00  0.00    -0.023 C 
ATOM     24  C   UNL A   1      42.212  24.030  27.571  1.00  0.00     0.031 C 
ATOM     25  C   UNL A   1      41.520  18.808  27.810  1.00  0.00     0.046 C 
ATOM     26  H   UNL A   1      41.249  21.268  28.911  1.00  0.00     0.161 HD
ATOM     27  C   UNL A   1      41.884  25.345  25.644  1.00  0.00    -0.030 C 
ATOM     28  C   UNL A   1      41.826  25.447  27.133  1.00  0.00     0.034 C 
BRANCH  15  29
ATOM     29  C   UNL A   1      44.819  22.148  24.450  1.00  0.00     0.338 C 
ATOM     30  O   UNL A   1      44.568  22.445  23.296  1.00  0.00    -0.246 OA
BRANCH  29  31
ATOM     31  O   UNL A   1      45.955  22.406  25.136  1.00  0.00    -0.465 OA
ATOM     32  C   UNL A   1      46.656  23.561  24.686  1.00  0.00     0.282 C 
ENDBRANCH  29  31
ENDBRANCH  15  29
ENDBRANCH   9  14
ENDBRANCH   6   8
ENDBRANCH   5   6
ENDBRANCH   4   5
ENDBRANCH   3   4
ENDBRANCH   2   3
ENDBRANCH   1   2
BRANCH   1  33
ATOM     33  C   UNL A   1      30.970  27.365  24.939  1.00  0.00     0.188 C 
BRANCH  33  34
ATOM     34  O   UNL A   1      31.273  28.723  24.652  1.00  0.00    -0.376 OA
BRANCH  34  35
ATOM     35  C   UNL A   1      32.437  29.307  25.228  1.00  0.00     0.202 C 
BRANCH  35  36
ATOM     36  C   UNL A   1      32.354  29.997  26.598  1.00  0.00     0.261 C 
BRANCH  36  37
ATOM     37  O   UNL A   1      33.569  29.977  27.366  1.00  0.00    -0.460 OA
BRANCH  37  38
ATOM     38  C   UNL A   1      34.053  31.192  27.721  1.00  0.00     0.338 C 
ATOM     39  O   UNL A   1      33.453  32.250  27.784  1.00  0.00    -0.246 OA
BRANCH  38  40
ATOM     40  C   UNL A   1      35.449  31.050  28.165  1.00  0.00     0.060 A 
ATOM     41  C   UNL A   1      35.900  29.795  28.593  1.00  0.00     0.016 A 
ATOM     42  C   UNL A   1      36.275  32.171  28.253  1.00  0.00     0.016 A 
ATOM     43  C   UNL A   1      37.183  29.660  29.114  1.00  0.00     0.010 A 
ATOM     44  C   UNL A   1      37.550  32.040  28.812  1.00  0.00     0.010 A 
ATOM     45  C   UNL A   1      37.997  30.790  29.273  1.00  0.00    -0.014 A 
BRANCH  45  46
ATOM     46  C   UNL A   1      39.225  30.682  30.092  1.00  0.00     0.031 A 
ATOM     47  C   UNL A   1      39.189  31.188  31.510  1.00  0.00     0.074 A 
ATOM     48  C   UNL A   1      40.316  30.046  29.630  1.00  0.00     0.049 A 
ATOM     49  N   UNL A   1      40.113  31.123  32.432  1.00  0.00    -0.248 NA
ATOM     50  C   UNL A   1      37.920  31.780  31.972  1.00  0.00     0.031 C 
ATOM     51  C   UNL A   1      40.443  29.439  28.307  1.00  0.00     0.029 A 
ATOM     52  N   UNL A   1      41.529  29.806  30.229  1.00  0.00    -0.354 N 
ATOM     53  C   UNL A   1      39.527  31.616  33.589  1.00  0.00     0.074 A 
ATOM     54  C   UNL A   1      38.179  32.017  33.250  1.00  0.00     0.031 C 
ATOM     55  C   UNL A   1      41.679  28.924  28.181  1.00  0.00     0.029 A 
ATOM     56  C   UNL A   1      42.437  29.188  29.404  1.00  0.00     0.049 A 
ATOM     57  H   UNL A   1      41.728  30.053  31.160  1.00  0.00     0.167 HD
ATOM     58  C   UNL A   1      40.057  31.696  34.830  1.00  0.00     0.037 A 
ATOM     59  C   UNL A   1      43.739  28.900  29.604  1.00  0.00     0.037 A 
ATOM     60  C   UNL A   1      41.403  31.322  35.168  1.00  0.00     0.049 A 
ATOM     61  C   UNL A   1      44.366  29.206  30.942  1.00  0.00     0.074 A 
ATOM     62  C   UNL A   1      42.031  31.400  36.398  1.00  0.00     0.029 A 
ATOM     63  N   UNL A   1      42.331  30.816  34.273  1.00  0.00    -0.354 N 
ATOM     64  N   UNL A   1      43.803  29.661  32.034  1.00  0.00    -0.248 NA
ATOM     65  C   UNL A   1      45.810  28.955  31.076  1.00  0.00     0.031 C 
ATOM     66  C   UNL A   1      43.361  31.005  36.233  1.00  0.00     0.029 A 
ATOM     67  C   UNL A   1      43.543  30.624  34.913  1.00  0.00     0.049 A 
ATOM     68  H   UNL A   1      42.155  30.623  33.324  1.00  0.00     0.167 HD
ATOM     69  C   UNL A   1      44.812  29.724  32.988  1.00  0.00     0.074 A 
ATOM     70  C   UNL A   1      46.021  29.249  32.352  1.00  0.00     0.031 C 
ATOM     71  C   UNL A   1      44.741  30.142  34.276  1.00  0.00     0.037 A 
BRANCH  58  72
ATOM     72  C   UNL A   1      39.193  32.226  35.932  1.00  0.00     0.064 A 
ATOM     73  C   UNL A   1      38.360  31.377  36.672  1.00  0.00     0.173 A 
ATOM     74  C   UNL A   1      39.293  33.568  36.324  1.00  0.00     0.173 A 
ATOM     75  F   UNL A   1      38.226  30.089  36.323  1.00  0.00    -0.203 F 
ATOM     76  C   UNL A   1      37.662  31.853  37.780  1.00  0.00     0.198 A 
ATOM     77  C   UNL A   1      38.609  34.037  37.441  1.00  0.00     0.198 A 
ATOM     78  F   UNL A   1      40.081  34.413  35.643  1.00  0.00    -0.203 F 
ATOM     79  F   UNL A   1      36.870  31.030  38.478  1.00  0.00    -0.200 F 
ATOM     80  C   UNL A   1      37.798  33.179  38.171  1.00  0.00     0.200 A 
ATOM     81  F   UNL A   1      38.750  35.313  37.823  1.00  0.00    -0.200 F 
ATOM     82  F   UNL A   1      37.151  33.629  39.254  1.00  0.00    -0.200 F 
ENDBRANCH  58  72
BRANCH  59  83
ATOM     83  C   UNL A   1      44.560  28.341  28.496  1.00  0.00     0.064 A 
ATOM     84  C   UNL A   1      45.092  29.160  27.491  1.00  0.00     0.173 A 
ATOM     85  C   UNL A   1      44.782  26.958  28.394  1.00  0.00     0.173 A 
ATOM     86  F   UNL A   1      44.880  30.484  27.523  1.00  0.00    -0.203 F 
ATOM     87  C   UNL A   1      45.795  28.615  26.416  1.00  0.00     0.198 A 
ATOM     88  C   UNL A   1      45.512  26.419  27.338  1.00  0.00     0.198 A 
ATOM     89  F   UNL A   1      44.284  26.127  29.322  1.00  0.00    -0.203 F 
ATOM     90  F   UNL A   1      46.243  29.415  25.438  1.00  0.00    -0.200 F 
ATOM     91  C   UNL A   1      46.009  27.248  26.344  1.00  0.00     0.200 A 
ATOM     92  F   UNL A   1      45.721  25.097  27.276  1.00  0.00    -0.200 F 
ATOM     93  F   UNL A   1      46.681  26.725  25.309  1.00  0.00    -0.200 F 
ENDBRANCH  59  83
BRANCH  71  94
ATOM     94  C   UNL A   1      45.991  30.093  35.104  1.00  0.00     0.064 A 
ATOM     95  C   UNL A   1      46.857  31.194  35.187  1.00  0.00     0.173 A 
ATOM     96  C   UNL A   1      46.279  28.971  35.896  1.00  0.00     0.173 A 
ATOM     97  F   UNL A   1      46.632  32.286  34.441  1.00  0.00    -0.203 F 
ATOM     98  C   UNL A   1      47.969  31.168  36.023  1.00  0.00     0.198 A 
ATOM     99  C   UNL A   1      47.374  28.961  36.755  1.00  0.00     0.198 A 
ATOM    100  F   UNL A   1      45.478  27.895  35.863  1.00  0.00    -0.203 F 
ATOM    101  F   UNL A   1      48.800  32.219  36.063  1.00  0.00    -0.200 F 
ATOM    102  C   UNL A   1      48.220  30.058  36.816  1.00  0.00     0.200 A 
ATOM    103  F   UNL A   1      47.604  27.895  37.535  1.00  0.00    -0.200 F 
ATOM    104  F   UNL A   1      49.279  30.044  37.638  1.00  0.00    -0.200 F 
ENDBRANCH  71  94
ENDBRANCH  45  46
ENDBRANCH  38  40
ENDBRANCH  37  38
ENDBRANCH  36  37
ENDBRANCH  35  36
ENDBRANCH  34  35
ENDBRANCH  33  34
ENDBRANCH   1  33
TORSDOF 20
ENDMDL
MODEL 3
REMARK VINA RESULT:     -11.1      4.694      9.605
REMARK SMILES COC(=O)c1ccc(C)c2c1[C@H]1C=CC[C@H]1[C@@H](c1ccc(C(=O)OCCOCCOCCOC(=O)c3ccc(-c4c5nc(c(-c6c(F)c(F)c(F)c(F)c6F)c6ccc([nH]6)c(-c6c(F)c(F)c(F)c(F)c6F)c6nc(c(-c7c(F)c(F)c(F)c(F)c7F)c7ccc4[nH]7)C=C6)C=C5)cc3)cc1)N2
REMARK SMILES IDX 28 1 27 2 26 3 25 4 24 5 22 6 23 7 21 8 18 9 19 10 100 11
REMARK SMILES IDX 20 12 99 13 17 14 5 15 6 16 11 17 7 18 10 19 12 20 8 21
REMARK SMILES IDX 101 22 13 23 16 24 9 25 14 27 15 28 3 29 4 30 2 31 1 32
REMARK SMILES IDX 29 33 30 34 31 35 32 36 33 37 34 38 35 39 36 40 37 41 98 42
REMARK SMILES IDX 38 43 97 44 39 45 40 46 41 47 91 48 42 49 96 50 90 51 92 52
REMARK SMILES IDX 43 53 95 54 89 55 88 56 44 58 76 59 56 60 75 61 57 62 60 63
REMARK SMILES IDX 74 64 93 65 58 66 59 67 73 69 94 70 61 71 45 72 46 73 54 74
REMARK SMILES IDX 47 75 48 76 52 77 55 78 49 79 50 80 53 81 51 82 77 83 78 84
REMARK SMILES IDX 86 85 79 86 80 87 84 88 87 89 81 90 82 91 85 92 83 93 62 94
REMARK SMILES IDX 63 95 71 96 64 97 65 98 69 99 72 100 66 101 67 102 70 103
REMARK SMILES IDX 68 104
REMARK H PARENT 101 26 92 57 60 68
REMARK Flexibility Score: inf
ROOT
ATOM      1  C   UNL A   1      31.936  26.202  24.536  1.00  0.00     0.188 C 
ENDROOT
BRANCH   1   2
ATOM      2  O   UNL A   1      31.820  24.874  24.087  1.00  0.00    -0.376 OA
BRANCH   2   3
ATOM      3  C   UNL A   1      32.847  23.936  24.359  1.00  0.00     0.202 C 
BRANCH   3   4
ATOM      4  C   UNL A   1      34.349  24.148  24.073  1.00  0.00     0.261 C 
BRANCH   4   5
ATOM      5  O   UNL A   1      35.289  23.493  24.926  1.00  0.00    -0.460 OA
BRANCH   5   6
ATOM      6  C   UNL A   1      36.371  22.956  24.312  1.00  0.00     0.338 C 
ATOM      7  O   UNL A   1      36.488  22.692  23.128  1.00  0.00    -0.246 OA
BRANCH   6   8
ATOM      8  C   UNL A   1      37.506  22.950  25.259  1.00  0.00     0.060 A 
ATOM      9  C   UNL A   1      39.629  23.084  27.119  1.00  0.00    -0.025 A 
ATOM     10  C   UNL A   1      38.701  24.133  26.984  1.00  0.00     0.007 A 
ATOM     11  C   UNL A   1      39.425  21.934  26.330  1.00  0.00     0.007 A 
ATOM     12  C   UNL A   1      37.669  24.083  26.051  1.00  0.00     0.016 A 
ATOM     13  C   UNL A   1      38.364  21.860  25.413  1.00  0.00     0.016 A 
BRANCH   9  14
ATOM     14  C   UNL A   1      40.874  23.193  28.012  1.00  0.00     0.114 C 
ATOM     15  C   UNL A   1      43.851  21.745  25.335  1.00  0.00     0.065 A 
ATOM     16  C   UNL A   1      43.935  20.368  25.111  1.00  0.00     0.016 A 
ATOM     17  C   UNL A   1      43.037  22.273  26.359  1.00  0.00    -0.003 A 
ATOM     18  C   UNL A   1      43.236  19.496  25.933  1.00  0.00     0.006 A 
ATOM     19  C   UNL A   1      42.345  21.376  27.212  1.00  0.00     0.042 A 
ATOM     20  C   UNL A   1      42.894  23.771  26.539  1.00  0.00     0.050 C 
ATOM     21  C   UNL A   1      42.453  19.981  26.994  1.00  0.00    -0.028 A 
ATOM     22  N   UNL A   1      41.479  21.877  28.177  1.00  0.00    -0.377 N 
ATOM     23  C   UNL A   1      42.267  24.536  25.396  1.00  0.00    -0.023 C 
ATOM     24  C   UNL A   1      41.992  24.208  27.707  1.00  0.00     0.031 C 
ATOM     25  C   UNL A   1      41.700  18.944  27.788  1.00  0.00     0.046 C 
ATOM     26  H   UNL A   1      41.275  21.340  28.978  1.00  0.00     0.161 HD
ATOM     27  C   UNL A   1      41.515  25.555  25.834  1.00  0.00    -0.030 C 
ATOM     28  C   UNL A   1      41.489  25.605  27.326  1.00  0.00     0.034 C 
BRANCH  15  29
ATOM     29  C   UNL A   1      44.648  22.628  24.462  1.00  0.00     0.338 C 
ATOM     30  O   UNL A   1      44.404  22.853  23.291  1.00  0.00    -0.246 OA
BRANCH  29  31
ATOM     31  O   UNL A   1      45.707  23.066  25.180  1.00  0.00    -0.465 OA
ATOM     32  C   UNL A   1      46.821  23.465  24.387  1.00  0.00     0.282 C 
ENDBRANCH  29  31
ENDBRANCH  15  29
ENDBRANCH   9  14
ENDBRANCH   6   8
ENDBRANCH   5   6
ENDBRANCH   4   5
ENDBRANCH   3   4
ENDBRANCH   2   3
ENDBRANCH   1   2
BRANCH   1  33
ATOM     33  C   UNL A   1      31.624  26.400  26.037  1.00  0.00     0.188 C 
BRANCH  33  34
ATOM     34  O   UNL A   1      31.667  27.702  26.605  1.00  0.00    -0.376 OA
BRANCH  34  35
ATOM     35  C   UNL A   1      31.758  28.829  25.740  1.00  0.00     0.202 C 
BRANCH  35  36
ATOM     36  C   UNL A   1      32.296  30.166  26.271  1.00  0.00     0.261 C 
BRANCH  36  37
ATOM     37  O   UNL A   1      33.550  30.086  26.970  1.00  0.00    -0.460 OA
BRANCH  37  38
ATOM     38  C   UNL A   1      33.990  31.248  27.510  1.00  0.00     0.338 C 
ATOM     39  O   UNL A   1      33.387  32.302  27.618  1.00  0.00    -0.246 OA
BRANCH  38  40
ATOM     40  C   UNL A   1      35.323  31.040  28.097  1.00  0.00     0.060 A 
ATOM     41  C   UNL A   1      35.637  29.787  28.638  1.00  0.00     0.016 A 
ATOM     42  C   UNL A   1      36.218  32.105  28.201  1.00  0.00     0.016 A 
ATOM     43  C   UNL A   1      36.851  29.597  29.291  1.00  0.00     0.010 A 
ATOM     44  C   UNL A   1      37.422  31.922  28.889  1.00  0.00     0.010 A 
ATOM     45  C   UNL A   1      37.729  30.677  29.463  1.00  0.00    -0.014 A 
BRANCH  45  46
ATOM     46  C   UNL A   1      38.863  30.538  30.404  1.00  0.00     0.031 A 
ATOM     47  C   UNL A   1      40.141  29.920  29.900  1.00  0.00     0.074 A 
ATOM     48  C   UNL A   1      38.805  31.051  31.645  1.00  0.00     0.049 A 
ATOM     49  N   UNL A   1      41.284  29.773  30.517  1.00  0.00    -0.248 NA
ATOM     50  C   UNL A   1      40.155  29.475  28.494  1.00  0.00     0.031 C 
ATOM     51  C   UNL A   1      37.656  31.748  32.218  1.00  0.00     0.029 A 
ATOM     52  N   UNL A   1      39.743  31.065  32.649  1.00  0.00    -0.354 N 
ATOM     53  C   UNL A   1      42.163  29.267  29.568  1.00  0.00     0.074 A 
ATOM     54  C   UNL A   1      41.415  29.092  28.342  1.00  0.00     0.031 C 
ATOM     55  C   UNL A   1      37.942  32.092  33.486  1.00  0.00     0.029 A 
ATOM     56  C   UNL A   1      39.285  31.618  33.820  1.00  0.00     0.049 A 
ATOM     57  H   UNL A   1      40.654  30.711  32.540  1.00  0.00     0.167 HD
ATOM     58  C   UNL A   1      43.482  29.005  29.701  1.00  0.00     0.037 A 
ATOM     59  C   UNL A   1      39.874  31.700  35.031  1.00  0.00     0.037 A 
ATOM     60  C   UNL A   1      44.223  29.155  30.924  1.00  0.00     0.049 A 
ATOM     61  C   UNL A   1      41.284  31.193  35.204  1.00  0.00     0.074 A 
ATOM     62  C   UNL A   1      45.560  28.881  31.154  1.00  0.00     0.029 A 
ATOM     63  N   UNL A   1      43.692  29.601  32.122  1.00  0.00    -0.354 N 
ATOM     64  N   UNL A   1      42.111  30.728  34.300  1.00  0.00    -0.248 NA
ATOM     65  C   UNL A   1      41.843  31.225  36.564  1.00  0.00     0.031 C 
ATOM     66  C   UNL A   1      45.821  29.097  32.509  1.00  0.00     0.029 A 
ATOM     67  C   UNL A   1      44.662  29.563  33.108  1.00  0.00     0.049 A 
ATOM     68  H   UNL A   1      42.763  29.900  32.252  1.00  0.00     0.167 HD
ATOM     69  C   UNL A   1      43.292  30.440  34.974  1.00  0.00     0.074 A 
ATOM     70  C   UNL A   1      43.081  30.794  36.361  1.00  0.00     0.031 C 
ATOM     71  C   UNL A   1      44.447  29.925  34.485  1.00  0.00     0.037 A 
BRANCH  58  72
ATOM     72  C   UNL A   1      44.225  28.508  28.501  1.00  0.00     0.064 A 
ATOM     73  C   UNL A   1      44.761  29.397  27.561  1.00  0.00     0.173 A 
ATOM     74  C   UNL A   1      44.505  27.142  28.360  1.00  0.00     0.173 A 
ATOM     75  F   UNL A   1      44.508  30.711  27.653  1.00  0.00    -0.203 F 
ATOM     76  C   UNL A   1      45.565  28.935  26.521  1.00  0.00     0.198 A 
ATOM     77  C   UNL A   1      45.322  26.684  27.331  1.00  0.00     0.198 A 
ATOM     78  F   UNL A   1      44.013  26.258  29.241  1.00  0.00    -0.203 F 
ATOM     79  F   UNL A   1      46.070  29.797  25.629  1.00  0.00    -0.200 F 
ATOM     80  C   UNL A   1      45.855  27.581  26.416  1.00  0.00     0.200 A 
ATOM     81  F   UNL A   1      45.610  25.380  27.238  1.00  0.00    -0.200 F 
ATOM     82  F   UNL A   1      46.652  27.140  25.433  1.00  0.00    -0.200 F 
ENDBRANCH  58  72
BRANCH  59  83
ATOM     83  C   UNL A   1      39.115  32.233  36.196  1.00  0.00     0.064 A 
ATOM     84  C   UNL A   1      39.269  33.556  36.630  1.00  0.00     0.173 A 
ATOM     85  C   UNL A   1      38.255  31.402  36.932  1.00  0.00     0.173 A 
ATOM     86  F   UNL A   1      40.104  34.381  35.981  1.00  0.00    -0.203 F 
ATOM     87  C   UNL A   1      38.610  34.021  37.767  1.00  0.00     0.198 A 
ATOM     88  C   UNL A   1      37.573  31.877  38.049  1.00  0.00     0.198 A 
ATOM     89  F   UNL A   1      38.081  30.123  36.569  1.00  0.00    -0.203 F 
ATOM     90  F   UNL A   1      38.821  35.274  38.195  1.00  0.00    -0.200 F 
ATOM     91  C   UNL A   1      37.759  33.184  38.472  1.00  0.00     0.200 A 
ATOM     92  F   UNL A   1      36.747  31.065  38.724  1.00  0.00    -0.200 F 
ATOM     93  F   UNL A   1      37.130  33.631  39.568  1.00  0.00    -0.200 F 
ENDBRANCH  59  83
BRANCH  71  94
ATOM     94  C   UNL A   1      45.590  29.724  35.438  1.00  0.00     0.064 A 
ATOM     95  C   UNL A   1      46.537  30.734  35.667  1.00  0.00     0.173 A 
ATOM     96  C   UNL A   1      45.688  28.548  36.197  1.00  0.00     0.173 A 
ATOM     97  F   UNL A   1      46.494  31.872  34.958  1.00  0.00    -0.203 F 
ATOM     98  C   UNL A   1      47.544  30.568  36.612  1.00  0.00     0.198 A 
ATOM     99  C   UNL A   1      46.677  28.399  37.165  1.00  0.00     0.198 A 
ATOM    100  F   UNL A   1      44.801  27.556  36.024  1.00  0.00    -0.203 F 
ATOM    101  F   UNL A   1      48.456  31.534  36.793  1.00  0.00    -0.200 F 
ATOM    102  C   UNL A   1      47.606  29.408  37.370  1.00  0.00     0.200 A 
ATOM    103  F   UNL A   1      46.723  27.285  37.909  1.00  0.00    -0.200 F 
ATOM    104  F   UNL A   1      48.563  29.260  38.296  1.00  0.00    -0.200 F 
ENDBRANCH  71  94
ENDBRANCH  45  46
ENDBRANCH  38  40
ENDBRANCH  37  38
ENDBRANCH  36  37
ENDBRANCH  35  36
ENDBRANCH  34  35
ENDBRANCH  33  34
ENDBRANCH   1  33
TORSDOF 20
ENDMDL
