MODEL 1
REMARK VINA RESULT:     -11.8      0.000      0.000
REMARK SMILES CCC[N@@H+]1CC2(CC[NH+](c3nccnc3C)CC2)C[C@H]1C(=O)OCCOCCOCCOC(=O)c1ccc(-c2c3nc(c(-c4c(F)c(F)c(F)c(F)c4F)c4ccc([nH]4)c(-c4c(F)c(F)c(F)c(F)c4F)c4nc(c(-c5c(F)c(F)c(F)c(F)c5F)c5ccc2[nH]5)C=C4)C=C3)cc1
REMARK SMILES IDX 27 1 26 2 25 3 24 4 23 5 21 6 22 7 20 8 4 9 5 10 6 12 19 13
REMARK SMILES IDX 7 14 18 15 8 16 17 17 9 18 3 20 2 21 1 22 10 23 11 24 15 25
REMARK SMILES IDX 12 26 14 27 16 28 13 29 28 30 29 31 30 32 31 33 32 34 33 35
REMARK SMILES IDX 34 36 35 37 36 38 97 39 37 40 96 41 38 42 39 43 40 44 90 45
REMARK SMILES IDX 41 46 95 47 89 48 91 49 42 50 94 51 88 52 87 53 43 55 75 56
REMARK SMILES IDX 55 57 74 58 56 59 59 60 73 61 92 62 57 63 58 64 72 66 93 67
REMARK SMILES IDX 60 68 44 69 45 70 53 71 46 72 47 73 51 74 54 75 48 76 49 77
REMARK SMILES IDX 52 78 50 79 76 80 77 81 85 82 78 83 79 84 83 85 86 86 80 87
REMARK SMILES IDX 81 88 84 89 82 90 61 91 62 92 70 93 63 94 64 95 68 96 71 97
REMARK SMILES IDX 65 98 66 99 69 100 67 101
REMARK H PARENT 4 11 9 19 91 54 59 65
REMARK Flexibility Score: inf
ROOT
ATOM      1  C   UNL A   1      42.548  19.649  26.569  1.00  0.00     0.188 C 
ENDROOT
BRANCH   1   2
ATOM      2  O   UNL A   1      42.145  21.011  26.659  1.00  0.00    -0.376 OA
BRANCH   2   3
ATOM      3  C   UNL A   1      41.015  21.460  25.923  1.00  0.00     0.202 C 
BRANCH   3   4
ATOM      4  C   UNL A   1      39.723  21.825  26.671  1.00  0.00     0.261 C 
BRANCH   4   5
ATOM      5  O   UNL A   1      38.515  21.226  26.164  1.00  0.00    -0.459 OA
BRANCH   5   6
ATOM      6  C   UNL A   1      37.662  22.050  25.506  1.00  0.00     0.365 C 
ATOM      7  O   UNL A   1      37.736  23.278  25.545  1.00  0.00    -0.245 OA
BRANCH   6   8
ATOM      8  C   UNL A   1      36.518  21.359  24.735  1.00  0.00     0.295 C 
ATOM      9  N   UNL A   1      35.365  20.790  25.507  1.00  0.00    -0.323 N 
ATOM     10  C   UNL A   1      34.510  21.936  25.797  1.00  0.00     0.270 C 
ATOM     11  H   UNL A   1      35.648  20.338  26.378  1.00  0.00     0.348 HD
ATOM     12  C   UNL A   1      34.643  22.896  24.604  1.00  0.00     0.036 C 
ATOM     13  C   UNL A   1      35.894  22.412  23.841  1.00  0.00     0.091 C 
ATOM     14  C   UNL A   1      34.820  24.337  25.146  1.00  0.00     0.075 C 
ATOM     15  C   UNL A   1      33.450  22.802  23.624  1.00  0.00     0.075 C 
ATOM     16  C   UNL A   1      33.496  24.969  25.591  1.00  0.00     0.269 C 
ATOM     17  C   UNL A   1      32.176  23.415  24.182  1.00  0.00     0.269 C 
ATOM     18  N   UNL A   1      32.514  24.775  24.542  1.00  0.00    -0.284 N 
ATOM     19  H   UNL A   1      32.412  25.519  23.905  1.00  0.00     0.355 HD
BRANCH   9  20
ATOM     20  C   UNL A   1      34.703  19.696  24.765  1.00  0.00     0.262 C 
BRANCH  20  21
ATOM     21  C   UNL A   1      33.330  19.192  25.271  1.00  0.00     0.058 C 
ATOM     22  C   UNL A   1      32.362  18.666  24.215  1.00  0.00     0.010 C 
ENDBRANCH  20  21
ENDBRANCH   9  20
BRANCH  18  23
ATOM     23  C   UNL A   1      31.733  25.780  24.033  1.00  0.00     0.247 A 
ATOM     24  N   UNL A   1      30.538  25.985  24.640  1.00  0.00    -0.202 NA
ATOM     25  C   UNL A   1      32.060  26.501  22.866  1.00  0.00     0.119 A 
ATOM     26  C   UNL A   1      29.723  26.912  24.097  1.00  0.00     0.137 A 
ATOM     27  N   UNL A   1      31.239  27.451  22.337  1.00  0.00    -0.252 NA
ATOM     28  C   UNL A   1      33.293  26.221  22.061  1.00  0.00     0.075 C 
ATOM     29  C   UNL A   1      30.067  27.634  22.973  1.00  0.00     0.132 A 
ENDBRANCH  18  23
ENDBRANCH   6   8
ENDBRANCH   5   6
ENDBRANCH   4   5
ENDBRANCH   3   4
ENDBRANCH   2   3
ENDBRANCH   1   2
BRANCH   1  30
ATOM     30  C   UNL A   1      43.460  19.188  25.415  1.00  0.00     0.188 C 
BRANCH  30  31
ATOM     31  O   UNL A   1      44.149  20.229  24.772  1.00  0.00    -0.376 OA
BRANCH  31  32
ATOM     32  C   UNL A   1      45.259  20.811  25.420  1.00  0.00     0.202 C 
BRANCH  32  33
ATOM     33  C   UNL A   1      45.729  22.248  25.118  1.00  0.00     0.261 C 
BRANCH  33  34
ATOM     34  O   UNL A   1      45.030  23.338  25.741  1.00  0.00    -0.460 OA
BRANCH  34  35
ATOM     35  C   UNL A   1      43.885  23.763  25.150  1.00  0.00     0.338 C 
ATOM     36  O   UNL A   1      43.363  23.314  24.151  1.00  0.00    -0.246 OA
BRANCH  35  37
ATOM     37  C   UNL A   1      43.247  24.760  26.046  1.00  0.00     0.060 A 
ATOM     38  C   UNL A   1      43.625  26.108  25.955  1.00  0.00     0.016 A 
ATOM     39  C   UNL A   1      42.280  24.364  26.972  1.00  0.00     0.016 A 
ATOM     40  C   UNL A   1      43.058  27.059  26.809  1.00  0.00     0.010 A 
ATOM     41  C   UNL A   1      41.733  25.312  27.842  1.00  0.00     0.010 A 
ATOM     42  C   UNL A   1      42.140  26.659  27.788  1.00  0.00    -0.014 A 
BRANCH  42  43
ATOM     43  C   UNL A   1      41.745  27.588  28.879  1.00  0.00     0.031 A 
ATOM     44  C   UNL A   1      42.543  27.570  30.154  1.00  0.00     0.074 A 
ATOM     45  C   UNL A   1      40.699  28.426  28.757  1.00  0.00     0.049 A 
ATOM     46  N   UNL A   1      42.334  28.200  31.283  1.00  0.00    -0.248 NA
ATOM     47  C   UNL A   1      43.742  26.716  30.156  1.00  0.00     0.031 C 
ATOM     48  C   UNL A   1      39.873  28.581  27.563  1.00  0.00     0.029 A 
ATOM     49  N   UNL A   1      40.144  29.294  29.668  1.00  0.00    -0.354 N 
ATOM     50  C   UNL A   1      43.364  27.810  32.129  1.00  0.00     0.074 A 
ATOM     51  C   UNL A   1      44.180  26.865  31.397  1.00  0.00     0.031 C 
ATOM     52  C   UNL A   1      38.902  29.476  27.820  1.00  0.00     0.029 A 
ATOM     53  C   UNL A   1      39.015  29.926  29.207  1.00  0.00     0.049 A 
ATOM     54  H   UNL A   1      40.519  29.447  30.564  1.00  0.00     0.167 HD
ATOM     55  C   UNL A   1      43.613  28.207  33.399  1.00  0.00     0.037 A 
ATOM     56  C   UNL A   1      38.156  30.748  29.845  1.00  0.00     0.037 A 
ATOM     57  C   UNL A   1      42.798  29.141  34.131  1.00  0.00     0.049 A 
ATOM     58  C   UNL A   1      38.402  31.104  31.293  1.00  0.00     0.074 A 
ATOM     59  C   UNL A   1      42.973  29.613  35.420  1.00  0.00     0.029 A 
ATOM     60  N   UNL A   1      41.646  29.738  33.640  1.00  0.00    -0.354 N 
ATOM     61  N   UNL A   1      39.388  30.748  32.080  1.00  0.00    -0.248 NA
ATOM     62  C   UNL A   1      37.411  31.979  31.938  1.00  0.00     0.031 C 
ATOM     63  C   UNL A   1      41.895  30.448  35.730  1.00  0.00     0.029 A 
ATOM     64  C   UNL A   1      41.085  30.553  34.612  1.00  0.00     0.049 A 
ATOM     65  H   UNL A   1      41.281  29.602  32.735  1.00  0.00     0.167 HD
ATOM     66  C   UNL A   1      39.157  31.383  33.296  1.00  0.00     0.074 A 
ATOM     67  C   UNL A   1      37.945  32.157  33.138  1.00  0.00     0.031 C 
ATOM     68  C   UNL A   1      39.886  31.333  34.438  1.00  0.00     0.037 A 
BRANCH  55  69
ATOM     69  C   UNL A   1      44.804  27.610  34.092  1.00  0.00     0.064 A 
ATOM     70  C   UNL A   1      46.074  28.203  34.025  1.00  0.00     0.173 A 
ATOM     71  C   UNL A   1      44.667  26.444  34.861  1.00  0.00     0.173 A 
ATOM     72  F   UNL A   1      46.263  29.312  33.293  1.00  0.00    -0.203 F 
ATOM     73  C   UNL A   1      47.165  27.637  34.677  1.00  0.00     0.198 A 
ATOM     74  C   UNL A   1      45.753  25.899  35.540  1.00  0.00     0.198 A 
ATOM     75  F   UNL A   1      43.475  25.837  34.963  1.00  0.00    -0.203 F 
ATOM     76  F   UNL A   1      48.379  28.193  34.556  1.00  0.00    -0.200 F 
ATOM     77  C   UNL A   1      47.003  26.491  35.441  1.00  0.00     0.200 A 
ATOM     78  F   UNL A   1      45.590  24.800  36.290  1.00  0.00    -0.200 F 
ATOM     79  F   UNL A   1      48.053  25.952  36.076  1.00  0.00    -0.200 F 
ENDBRANCH  55  69
BRANCH  56  80
ATOM     80  C   UNL A   1      36.965  31.287  29.133  1.00  0.00     0.064 A 
ATOM     81  C   UNL A   1      36.900  32.635  28.752  1.00  0.00     0.173 A 
ATOM     82  C   UNL A   1      35.849  30.481  28.859  1.00  0.00     0.173 A 
ATOM     83  F   UNL A   1      37.925  33.457  29.019  1.00  0.00    -0.203 F 
ATOM     84  C   UNL A   1      35.758  33.161  28.148  1.00  0.00     0.198 A 
ATOM     85  C   UNL A   1      34.722  30.999  28.225  1.00  0.00     0.198 A 
ATOM     86  F   UNL A   1      35.854  29.187  29.211  1.00  0.00    -0.203 F 
ATOM     87  F   UNL A   1      35.701  34.466  27.851  1.00  0.00    -0.200 F 
ATOM     88  C   UNL A   1      34.673  32.341  27.880  1.00  0.00     0.200 A 
ATOM     89  F   UNL A   1      33.679  30.201  27.961  1.00  0.00    -0.200 F 
ATOM     90  F   UNL A   1      33.575  32.847  27.302  1.00  0.00    -0.200 F 
ENDBRANCH  56  80
BRANCH  68  91
ATOM     91  C   UNL A   1      39.430  32.178  35.596  1.00  0.00     0.064 A 
ATOM     92  C   UNL A   1      38.472  31.725  36.516  1.00  0.00     0.173 A 
ATOM     93  C   UNL A   1      39.996  33.445  35.812  1.00  0.00     0.173 A 
ATOM     94  F   UNL A   1      37.891  30.528  36.351  1.00  0.00    -0.203 F 
ATOM     95  C   UNL A   1      38.077  32.521  37.589  1.00  0.00     0.198 A 
ATOM     96  C   UNL A   1      39.625  34.222  36.906  1.00  0.00     0.198 A 
ATOM     97  F   UNL A   1      40.923  33.925  34.970  1.00  0.00    -0.203 F 
ATOM     98  F   UNL A   1      37.121  32.090  38.424  1.00  0.00    -0.200 F 
ATOM     99  C   UNL A   1      38.659  33.764  37.788  1.00  0.00     0.200 A 
ATOM    100  F   UNL A   1      40.202  35.414  37.106  1.00  0.00    -0.200 F 
ATOM    101  F   UNL A   1      38.284  34.523  38.827  1.00  0.00    -0.200 F 
ENDBRANCH  68  91
ENDBRANCH  42  43
ENDBRANCH  35  37
ENDBRANCH  34  35
ENDBRANCH  33  34
ENDBRANCH  32  33
ENDBRANCH  31  32
ENDBRANCH  30  31
ENDBRANCH   1  30
TORSDOF 20
ENDMDL
MODEL 2
REMARK VINA RESULT:     -11.6      4.447      7.191
REMARK SMILES CCC[N@@H+]1CC2(CC[NH+](c3nccnc3C)CC2)C[C@H]1C(=O)OCCOCCOCCOC(=O)c1ccc(-c2c3nc(c(-c4c(F)c(F)c(F)c(F)c4F)c4ccc([nH]4)c(-c4c(F)c(F)c(F)c(F)c4F)c4nc(c(-c5c(F)c(F)c(F)c(F)c5F)c5ccc2[nH]5)C=C4)C=C3)cc1
REMARK SMILES IDX 27 1 26 2 25 3 24 4 23 5 21 6 22 7 20 8 4 9 5 10 6 12 19 13
REMARK SMILES IDX 7 14 18 15 8 16 17 17 9 18 3 20 2 21 1 22 10 23 11 24 15 25
REMARK SMILES IDX 12 26 14 27 16 28 13 29 28 30 29 31 30 32 31 33 32 34 33 35
REMARK SMILES IDX 34 36 35 37 36 38 97 39 37 40 96 41 38 42 39 43 40 44 90 45
REMARK SMILES IDX 41 46 95 47 89 48 91 49 42 50 94 51 88 52 87 53 43 55 75 56
REMARK SMILES IDX 55 57 74 58 56 59 59 60 73 61 92 62 57 63 58 64 72 66 93 67
REMARK SMILES IDX 60 68 44 69 45 70 53 71 46 72 47 73 51 74 54 75 48 76 49 77
REMARK SMILES IDX 52 78 50 79 76 80 77 81 85 82 78 83 79 84 83 85 86 86 80 87
REMARK SMILES IDX 81 88 84 89 82 90 61 91 62 92 70 93 63 94 64 95 68 96 71 97
REMARK SMILES IDX 65 98 66 99 69 100 67 101
REMARK H PARENT 4 11 9 19 91 54 59 65
REMARK Flexibility Score: inf
ROOT
ATOM      1  C   UNL A   1      36.467  23.075  25.581  1.00  0.00     0.188 C 
ENDROOT
BRANCH   1   2
ATOM      2  O   UNL A   1      35.047  23.064  25.674  1.00  0.00    -0.376 OA
BRANCH   2   3
ATOM      3  C   UNL A   1      34.424  22.546  26.842  1.00  0.00     0.202 C 
BRANCH   3   4
ATOM      4  C   UNL A   1      32.896  22.386  26.874  1.00  0.00     0.261 C 
BRANCH   4   5
ATOM      5  O   UNL A   1      32.165  23.470  27.479  1.00  0.00    -0.459 OA
BRANCH   5   6
ATOM      6  C   UNL A   1      31.292  24.132  26.679  1.00  0.00     0.365 C 
ATOM      7  O   UNL A   1      30.076  24.145  26.864  1.00  0.00    -0.245 OA
BRANCH   6   8
ATOM      8  C   UNL A   1      31.905  24.835  25.450  1.00  0.00     0.295 C 
ATOM      9  N   UNL A   1      31.016  25.668  24.574  1.00  0.00    -0.323 N 
ATOM     10  C   UNL A   1      30.894  26.942  25.274  1.00  0.00     0.270 C 
ATOM     11  H   UNL A   1      30.092  25.258  24.433  1.00  0.00     0.348 HD
ATOM     12  C   UNL A   1      32.232  27.180  25.992  1.00  0.00     0.036 C 
ATOM     13  C   UNL A   1      32.941  25.809  25.975  1.00  0.00     0.091 C 
ATOM     14  C   UNL A   1      31.940  27.659  27.436  1.00  0.00     0.075 C 
ATOM     15  C   UNL A   1      33.148  28.173  25.239  1.00  0.00     0.075 C 
ATOM     16  C   UNL A   1      31.567  29.145  27.501  1.00  0.00     0.269 C 
ATOM     17  C   UNL A   1      32.662  29.611  25.328  1.00  0.00     0.269 C 
ATOM     18  N   UNL A   1      32.540  29.902  26.740  1.00  0.00    -0.284 N 
ATOM     19  H   UNL A   1      33.287  30.283  27.255  1.00  0.00     0.355 HD
BRANCH   9  20
ATOM     20  C   UNL A   1      31.549  25.765  23.198  1.00  0.00     0.262 C 
BRANCH  20  21
ATOM     21  C   UNL A   1      32.149  24.494  22.552  1.00  0.00     0.058 C 
ATOM     22  C   UNL A   1      33.668  24.355  22.594  1.00  0.00     0.010 C 
ENDBRANCH  20  21
ENDBRANCH   9  20
BRANCH  18  23
ATOM     23  C   UNL A   1      33.185  31.014  27.217  1.00  0.00     0.247 A 
ATOM     24  N   UNL A   1      32.492  32.179  27.177  1.00  0.00    -0.202 NA
ATOM     25  C   UNL A   1      34.536  31.014  27.619  1.00  0.00     0.119 A 
ATOM     26  C   UNL A   1      33.143  33.296  27.562  1.00  0.00     0.137 A 
ATOM     27  N   UNL A   1      35.179  32.145  28.027  1.00  0.00    -0.252 NA
ATOM     28  C   UNL A   1      35.402  29.794  27.546  1.00  0.00     0.075 C 
ATOM     29  C   UNL A   1      34.456  33.279  27.984  1.00  0.00     0.132 A 
ENDBRANCH  18  23
ENDBRANCH   6   8
ENDBRANCH   5   6
ENDBRANCH   4   5
ENDBRANCH   3   4
ENDBRANCH   2   3
ENDBRANCH   1   2
BRANCH   1  30
ATOM     30  C   UNL A   1      37.197  21.972  24.790  1.00  0.00     0.188 C 
BRANCH  30  31
ATOM     31  O   UNL A   1      37.245  20.728  25.441  1.00  0.00    -0.376 OA
BRANCH  31  32
ATOM     32  C   UNL A   1      38.084  19.721  24.919  1.00  0.00     0.202 C 
BRANCH  32  33
ATOM     33  C   UNL A   1      39.375  19.273  25.633  1.00  0.00     0.261 C 
BRANCH  33  34
ATOM     34  O   UNL A   1      40.371  20.266  25.928  1.00  0.00    -0.460 OA
BRANCH  34  35
ATOM     35  C   UNL A   1      40.806  20.351  27.209  1.00  0.00     0.338 C 
ATOM     36  O   UNL A   1      41.132  19.437  27.937  1.00  0.00    -0.246 OA
BRANCH  35  37
ATOM     37  C   UNL A   1      41.015  21.786  27.531  1.00  0.00     0.060 A 
ATOM     38  C   UNL A   1      40.231  22.756  26.888  1.00  0.00     0.016 A 
ATOM     39  C   UNL A   1      41.982  22.170  28.461  1.00  0.00     0.016 A 
ATOM     40  C   UNL A   1      40.431  24.114  27.154  1.00  0.00     0.010 A 
ATOM     41  C   UNL A   1      42.198  23.529  28.707  1.00  0.00     0.010 A 
ATOM     42  C   UNL A   1      41.446  24.511  28.034  1.00  0.00    -0.014 A 
BRANCH  42  43
ATOM     43  C   UNL A   1      41.863  25.936  28.113  1.00  0.00     0.031 A 
ATOM     44  C   UNL A   1      43.177  26.329  27.493  1.00  0.00     0.074 A 
ATOM     45  C   UNL A   1      41.108  26.865  28.726  1.00  0.00     0.049 A 
ATOM     46  N   UNL A   1      43.807  27.476  27.524  1.00  0.00    -0.248 NA
ATOM     47  C   UNL A   1      43.877  25.278  26.737  1.00  0.00     0.031 C 
ATOM     48  C   UNL A   1      39.796  26.632  29.324  1.00  0.00     0.029 A 
ATOM     49  N   UNL A   1      41.355  28.197  28.961  1.00  0.00    -0.354 N 
ATOM     50  C   UNL A   1      44.980  27.281  26.806  1.00  0.00     0.074 A 
ATOM     51  C   UNL A   1      44.990  25.899  26.377  1.00  0.00     0.031 C 
ATOM     52  C   UNL A   1      39.360  27.778  29.876  1.00  0.00     0.029 A 
ATOM     53  C   UNL A   1      40.378  28.814  29.706  1.00  0.00     0.049 A 
ATOM     54  H   UNL A   1      42.155  28.664  28.630  1.00  0.00     0.167 HD
ATOM     55  C   UNL A   1      45.958  28.173  26.522  1.00  0.00     0.037 A 
ATOM     56  C   UNL A   1      40.330  30.062  30.215  1.00  0.00     0.037 A 
ATOM     57  C   UNL A   1      45.953  29.546  26.955  1.00  0.00     0.049 A 
ATOM     58  C   UNL A   1      41.478  31.013  29.965  1.00  0.00     0.074 A 
ATOM     59  C   UNL A   1      46.894  30.531  26.712  1.00  0.00     0.029 A 
ATOM     60  N   UNL A   1      44.960  30.126  27.732  1.00  0.00    -0.354 N 
ATOM     61  N   UNL A   1      42.574  30.829  29.269  1.00  0.00    -0.248 NA
ATOM     62  C   UNL A   1      41.378  32.348  30.574  1.00  0.00     0.031 C 
ATOM     63  C   UNL A   1      46.501  31.689  27.390  1.00  0.00     0.029 A 
ATOM     64  C   UNL A   1      45.281  31.448  27.999  1.00  0.00     0.049 A 
ATOM     65  H   UNL A   1      44.148  29.666  28.046  1.00  0.00     0.167 HD
ATOM     66  C   UNL A   1      43.271  32.031  29.325  1.00  0.00     0.074 A 
ATOM     67  C   UNL A   1      42.469  32.941  30.113  1.00  0.00     0.031 C 
ATOM     68  C   UNL A   1      44.466  32.352  28.770  1.00  0.00     0.037 A 
BRANCH  55  69
ATOM     69  C   UNL A   1      47.134  27.684  25.728  1.00  0.00     0.064 A 
ATOM     70  C   UNL A   1      47.188  27.812  24.331  1.00  0.00     0.173 A 
ATOM     71  C   UNL A   1      48.238  27.108  26.374  1.00  0.00     0.173 A 
ATOM     72  F   UNL A   1      46.154  28.344  23.661  1.00  0.00    -0.203 F 
ATOM     73  C   UNL A   1      48.289  27.357  23.611  1.00  0.00     0.198 A 
ATOM     74  C   UNL A   1      49.352  26.684  25.654  1.00  0.00     0.198 A 
ATOM     75  F   UNL A   1      48.242  26.964  27.708  1.00  0.00    -0.203 F 
ATOM     76  F   UNL A   1      48.295  27.442  22.273  1.00  0.00    -0.200 F 
ATOM     77  C   UNL A   1      49.373  26.801  24.274  1.00  0.00     0.200 A 
ATOM     78  F   UNL A   1      50.405  26.162  26.299  1.00  0.00    -0.200 F 
ATOM     79  F   UNL A   1      50.437  26.371  23.580  1.00  0.00    -0.200 F 
ENDBRANCH  55  69
BRANCH  56  80
ATOM     80  C   UNL A   1      39.164  30.495  31.032  1.00  0.00     0.064 A 
ATOM     81  C   UNL A   1      38.128  31.254  30.468  1.00  0.00     0.173 A 
ATOM     82  C   UNL A   1      39.081  30.200  32.401  1.00  0.00     0.173 A 
ATOM     83  F   UNL A   1      38.175  31.591  29.171  1.00  0.00    -0.203 F 
ATOM     84  C   UNL A   1      37.069  31.720  31.245  1.00  0.00     0.198 A 
ATOM     85  C   UNL A   1      38.004  30.638  33.170  1.00  0.00     0.198 A 
ATOM     86  F   UNL A   1      40.048  29.486  32.995  1.00  0.00    -0.203 F 
ATOM     87  F   UNL A   1      36.126  32.495  30.692  1.00  0.00    -0.200 F 
ATOM     88  C   UNL A   1      37.005  31.408  32.594  1.00  0.00     0.200 A 
ATOM     89  F   UNL A   1      37.942  30.326  34.472  1.00  0.00    -0.200 F 
ATOM     90  F   UNL A   1      35.988  31.858  33.341  1.00  0.00    -0.200 F 
ENDBRANCH  56  80
BRANCH  68  91
ATOM     91  C   UNL A   1      44.961  33.762  28.944  1.00  0.00     0.064 A 
ATOM     92  C   UNL A   1      45.806  34.129  30.003  1.00  0.00     0.173 A 
ATOM     93  C   UNL A   1      44.618  34.751  28.009  1.00  0.00     0.173 A 
ATOM     94  F   UNL A   1      46.156  33.226  30.931  1.00  0.00    -0.203 F 
ATOM     95  C   UNL A   1      46.263  35.438  30.134  1.00  0.00     0.198 A 
ATOM     96  C   UNL A   1      45.106  36.050  28.123  1.00  0.00     0.198 A 
ATOM     97  F   UNL A   1      43.822  34.455  26.972  1.00  0.00    -0.203 F 
ATOM     98  F   UNL A   1      47.025  35.777  31.183  1.00  0.00    -0.200 F 
ATOM     99  C   UNL A   1      45.921  36.395  29.190  1.00  0.00     0.200 A 
ATOM    100  F   UNL A   1      44.789  36.968  27.200  1.00  0.00    -0.200 F 
ATOM    101  F   UNL A   1      46.370  37.652  29.314  1.00  0.00    -0.200 F 
ENDBRANCH  68  91
ENDBRANCH  42  43
ENDBRANCH  35  37
ENDBRANCH  34  35
ENDBRANCH  33  34
ENDBRANCH  32  33
ENDBRANCH  31  32
ENDBRANCH  30  31
ENDBRANCH   1  30
TORSDOF 20
ENDMDL
MODEL 3
REMARK VINA RESULT:     -11.6      4.486      7.120
REMARK SMILES CCC[N@@H+]1CC2(CC[NH+](c3nccnc3C)CC2)C[C@H]1C(=O)OCCOCCOCCOC(=O)c1ccc(-c2c3nc(c(-c4c(F)c(F)c(F)c(F)c4F)c4ccc([nH]4)c(-c4c(F)c(F)c(F)c(F)c4F)c4nc(c(-c5c(F)c(F)c(F)c(F)c5F)c5ccc2[nH]5)C=C4)C=C3)cc1
REMARK SMILES IDX 27 1 26 2 25 3 24 4 23 5 21 6 22 7 20 8 4 9 5 10 6 12 19 13
REMARK SMILES IDX 7 14 18 15 8 16 17 17 9 18 3 20 2 21 1 22 10 23 11 24 15 25
REMARK SMILES IDX 12 26 14 27 16 28 13 29 28 30 29 31 30 32 31 33 32 34 33 35
REMARK SMILES IDX 34 36 35 37 36 38 97 39 37 40 96 41 38 42 39 43 40 44 90 45
REMARK SMILES IDX 41 46 95 47 89 48 91 49 42 50 94 51 88 52 87 53 43 55 75 56
REMARK SMILES IDX 55 57 74 58 56 59 59 60 73 61 92 62 57 63 58 64 72 66 93 67
REMARK SMILES IDX 60 68 44 69 45 70 53 71 46 72 47 73 51 74 54 75 48 76 49 77
REMARK SMILES IDX 52 78 50 79 76 80 77 81 85 82 78 83 79 84 83 85 86 86 80 87
REMARK SMILES IDX 81 88 84 89 82 90 61 91 62 92 70 93 63 94 64 95 68 96 71 97
REMARK SMILES IDX 65 98 66 99 69 100 67 101
REMARK H PARENT 4 11 9 19 91 54 59 65
REMARK Flexibility Score: inf
ROOT
ATOM      1  C   UNL A   1      36.645  23.250  25.035  1.00  0.00     0.188 C 
ENDROOT
BRANCH   1   2
ATOM      2  O   UNL A   1      35.261  23.486  24.800  1.00  0.00    -0.376 OA
BRANCH   2   3
ATOM      3  C   UNL A   1      34.661  23.011  23.601  1.00  0.00     0.202 C 
BRANCH   3   4
ATOM      4  C   UNL A   1      33.856  23.982  22.724  1.00  0.00     0.261 C 
BRANCH   4   5
ATOM      5  O   UNL A   1      32.438  23.738  22.659  1.00  0.00    -0.459 OA
BRANCH   5   6
ATOM      6  C   UNL A   1      31.630  24.755  23.052  1.00  0.00     0.365 C 
ATOM      7  O   UNL A   1      31.274  25.667  22.307  1.00  0.00    -0.245 OA
BRANCH   6   8
ATOM      8  C   UNL A   1      31.218  24.752  24.539  1.00  0.00     0.295 C 
ATOM      9  N   UNL A   1      32.258  24.451  25.577  1.00  0.00    -0.323 N 
ATOM     10  C   UNL A   1      32.981  25.707  25.753  1.00  0.00     0.270 C 
ATOM     11  H   UNL A   1      32.906  23.714  25.296  1.00  0.00     0.348 HD
ATOM     12  C   UNL A   1      31.958  26.835  25.543  1.00  0.00     0.036 C 
ATOM     13  C   UNL A   1      30.750  26.156  24.865  1.00  0.00     0.091 C 
ATOM     14  C   UNL A   1      32.595  27.917  24.634  1.00  0.00     0.075 C 
ATOM     15  C   UNL A   1      31.451  27.440  26.874  1.00  0.00     0.075 C 
ATOM     16  C   UNL A   1      33.555  28.839  25.395  1.00  0.00     0.269 C 
ATOM     17  C   UNL A   1      32.496  28.298  27.569  1.00  0.00     0.269 C 
ATOM     18  N   UNL A   1      32.897  29.297  26.603  1.00  0.00    -0.284 N 
ATOM     19  H   UNL A   1      32.443  30.168  26.542  1.00  0.00     0.355 HD
BRANCH   9  20
ATOM     20  C   UNL A   1      31.651  23.908  26.810  1.00  0.00     0.262 C 
BRANCH  20  21
ATOM     21  C   UNL A   1      30.687  22.705  26.685  1.00  0.00     0.058 C 
ATOM     22  C   UNL A   1      29.274  22.899  27.230  1.00  0.00     0.010 C 
ENDBRANCH  20  21
ENDBRANCH   9  20
BRANCH  18  23
ATOM     23  C   UNL A   1      32.834  30.613  26.985  1.00  0.00     0.247 A 
ATOM     24  N   UNL A   1      31.730  31.301  26.604  1.00  0.00    -0.202 NA
ATOM     25  C   UNL A   1      33.892  31.284  27.629  1.00  0.00     0.119 A 
ATOM     26  C   UNL A   1      31.692  32.617  26.898  1.00  0.00     0.137 A 
ATOM     27  N   UNL A   1      33.836  32.610  27.942  1.00  0.00    -0.252 NA
ATOM     28  C   UNL A   1      35.199  30.623  27.944  1.00  0.00     0.075 C 
ATOM     29  C   UNL A   1      32.720  33.257  27.558  1.00  0.00     0.132 A 
ENDBRANCH  18  23
ENDBRANCH   6   8
ENDBRANCH   5   6
ENDBRANCH   4   5
ENDBRANCH   3   4
ENDBRANCH   2   3
ENDBRANCH   1   2
BRANCH   1  30
ATOM     30  C   UNL A   1      37.325  21.999  24.446  1.00  0.00     0.188 C 
BRANCH  30  31
ATOM     31  O   UNL A   1      37.247  20.859  25.263  1.00  0.00    -0.376 OA
BRANCH  31  32
ATOM     32  C   UNL A   1      38.021  19.729  24.927  1.00  0.00     0.202 C 
BRANCH  32  33
ATOM     33  C   UNL A   1      39.310  19.357  25.688  1.00  0.00     0.261 C 
BRANCH  33  34
ATOM     34  O   UNL A   1      40.304  20.377  25.882  1.00  0.00    -0.460 OA
BRANCH  34  35
ATOM     35  C   UNL A   1      40.879  20.461  27.108  1.00  0.00     0.338 C 
ATOM     36  O   UNL A   1      41.315  19.550  27.779  1.00  0.00    -0.246 OA
BRANCH  35  37
ATOM     37  C   UNL A   1      41.077  21.898  27.426  1.00  0.00     0.060 A 
ATOM     38  C   UNL A   1      40.370  22.867  26.699  1.00  0.00     0.016 A 
ATOM     39  C   UNL A   1      41.958  22.284  28.437  1.00  0.00     0.016 A 
ATOM     40  C   UNL A   1      40.564  24.227  26.962  1.00  0.00     0.010 A 
ATOM     41  C   UNL A   1      42.169  23.645  28.682  1.00  0.00     0.010 A 
ATOM     42  C   UNL A   1      41.497  24.625  27.927  1.00  0.00    -0.014 A 
BRANCH  42  43
ATOM     43  C   UNL A   1      41.925  26.046  28.024  1.00  0.00     0.031 A 
ATOM     44  C   UNL A   1      43.262  26.428  27.450  1.00  0.00     0.074 A 
ATOM     45  C   UNL A   1      41.158  26.981  28.614  1.00  0.00     0.049 A 
ATOM     46  N   UNL A   1      43.903  27.568  27.506  1.00  0.00    -0.248 NA
ATOM     47  C   UNL A   1      43.978  25.372  26.716  1.00  0.00     0.031 C 
ATOM     48  C   UNL A   1      39.825  26.759  29.166  1.00  0.00     0.029 A 
ATOM     49  N   UNL A   1      41.409  28.310  28.860  1.00  0.00    -0.354 N 
ATOM     50  C   UNL A   1      45.097  27.364  26.827  1.00  0.00     0.074 A 
ATOM     51  C   UNL A   1      45.109  25.982  26.395  1.00  0.00     0.031 C 
ATOM     52  C   UNL A   1      39.381  27.908  29.705  1.00  0.00     0.029 A 
ATOM     53  C   UNL A   1      40.414  28.934  29.572  1.00  0.00     0.049 A 
ATOM     54  H   UNL A   1      42.225  28.770  28.557  1.00  0.00     0.167 HD
ATOM     55  C   UNL A   1      46.093  28.248  26.580  1.00  0.00     0.037 A 
ATOM     56  C   UNL A   1      40.360  30.182  30.083  1.00  0.00     0.037 A 
ATOM     57  C   UNL A   1      46.086  29.620  27.015  1.00  0.00     0.049 A 
ATOM     58  C   UNL A   1      41.525  31.122  29.874  1.00  0.00     0.074 A 
ATOM     59  C   UNL A   1      47.044  30.596  26.807  1.00  0.00     0.029 A 
ATOM     60  N   UNL A   1      45.073  30.207  27.759  1.00  0.00    -0.354 N 
ATOM     61  N   UNL A   1      42.642  30.929  29.216  1.00  0.00    -0.248 NA
ATOM     62  C   UNL A   1      41.417  32.457  30.484  1.00  0.00     0.031 C 
ATOM     63  C   UNL A   1      46.639  31.756  27.474  1.00  0.00     0.029 A 
ATOM     64  C   UNL A   1      45.397  31.525  28.040  1.00  0.00     0.049 A 
ATOM     65  H   UNL A   1      44.246  29.754  28.045  1.00  0.00     0.167 HD
ATOM     66  C   UNL A   1      43.348  32.125  29.298  1.00  0.00     0.074 A 
ATOM     67  C   UNL A   1      42.528  33.041  30.061  1.00  0.00     0.031 C 
ATOM     68  C   UNL A   1      44.565  32.435  28.786  1.00  0.00     0.037 A 
BRANCH  55  69
ATOM     69  C   UNL A   1      47.291  27.749  25.824  1.00  0.00     0.064 A 
ATOM     70  C   UNL A   1      48.413  27.222  26.482  1.00  0.00     0.173 A 
ATOM     71  C   UNL A   1      47.304  27.767  24.421  1.00  0.00     0.173 A 
ATOM     72  F   UNL A   1      48.459  27.193  27.823  1.00  0.00    -0.203 F 
ATOM     73  C   UNL A   1      49.513  26.761  25.765  1.00  0.00     0.198 A 
ATOM     74  C   UNL A   1      48.392  27.273  23.706  1.00  0.00     0.198 A 
ATOM     75  F   UNL A   1      46.256  28.255  23.741  1.00  0.00    -0.203 F 
ATOM     76  F   UNL A   1      50.595  26.311  26.416  1.00  0.00    -0.200 F 
ATOM     77  C   UNL A   1      49.498  26.778  24.378  1.00  0.00     0.200 A 
ATOM     78  F   UNL A   1      48.368  27.277  22.366  1.00  0.00    -0.200 F 
ATOM     79  F   UNL A   1      50.554  26.325  23.688  1.00  0.00    -0.200 F 
ENDBRANCH  55  69
BRANCH  56  80
ATOM     80  C   UNL A   1      39.171  30.624  30.860  1.00  0.00     0.064 A 
ATOM     81  C   UNL A   1      39.022  30.279  32.211  1.00  0.00     0.173 A 
ATOM     82  C   UNL A   1      38.139  31.363  30.261  1.00  0.00     0.173 A 
ATOM     83  F   UNL A   1      39.963  29.546  32.823  1.00  0.00    -0.203 F 
ATOM     84  C   UNL A   1      37.877  30.632  32.925  1.00  0.00     0.198 A 
ATOM     85  C   UNL A   1      37.010  31.744  30.985  1.00  0.00     0.198 A 
ATOM     86  F   UNL A   1      38.225  31.712  28.969  1.00  0.00    -0.203 F 
ATOM     87  F   UNL A   1      37.734  30.235  34.196  1.00  0.00    -0.200 F 
ATOM     88  C   UNL A   1      36.875  31.369  32.312  1.00  0.00     0.200 A 
ATOM     89  F   UNL A   1      36.048  32.464  30.391  1.00  0.00    -0.200 F 
ATOM     90  F   UNL A   1      35.774  31.706  32.998  1.00  0.00    -0.200 F 
ENDBRANCH  56  80
BRANCH  68  91
ATOM     91  C   UNL A   1      45.067  33.840  28.980  1.00  0.00     0.064 A 
ATOM     92  C   UNL A   1      44.770  34.869  28.074  1.00  0.00     0.173 A 
ATOM     93  C   UNL A   1      45.822  34.168  30.118  1.00  0.00     0.173 A 
ATOM     94  F   UNL A   1      44.062  34.608  26.965  1.00  0.00    -0.203 F 
ATOM     95  C   UNL A   1      45.235  36.165  28.284  1.00  0.00     0.198 A 
ATOM     96  C   UNL A   1      46.254  35.473  30.342  1.00  0.00     0.198 A 
ATOM     97  F   UNL A   1      46.129  33.227  31.022  1.00  0.00    -0.203 F 
ATOM     98  F   UNL A   1      44.983  37.120  27.377  1.00  0.00    -0.200 F 
ATOM     99  C   UNL A   1      45.968  36.468  29.421  1.00  0.00     0.200 A 
ATOM    100  F   UNL A   1      46.947  35.766  31.451  1.00  0.00    -0.200 F 
ATOM    101  F   UNL A   1      46.406  37.718  29.626  1.00  0.00    -0.200 F 
ENDBRANCH  68  91
ENDBRANCH  42  43
ENDBRANCH  35  37
ENDBRANCH  34  35
ENDBRANCH  33  34
ENDBRANCH  32  33
ENDBRANCH  31  32
ENDBRANCH  30  31
ENDBRANCH   1  30
TORSDOF 20
ENDMDL
