MODEL 1
REMARK VINA RESULT:     -12.1      0.000      0.000
REMARK SMILES CN1C(=O)/C(=C\c2ccc(-c3ccccc3C(=O)OCCOCCOCCOC(=O)c3ccc(-c4c5nc(c(-c6c(F)c(F)c(F)c(F)c6F)c6ccc([nH]6)c(-c6c(F)c(F)c(F)c(F)c6F)c6nc(c(-c7c(F)c(F)c(F)c(F)c7F)c7ccc4[nH]7)C=C6)C=C5)cc3)o2)C(=O)[NH+]=C1S
REMARK SMILES IDX 23 1 22 2 21 3 20 4 19 5 17 6 18 7 16 8 11 9 12 10 13 11
REMARK SMILES IDX 15 12 14 13 10 14 7 15 8 16 94 17 9 18 6 19 1 20 2 21 3 22
REMARK SMILES IDX 98 23 4 24 5 25 97 26 95 27 96 29 99 30 24 32 25 33 26 34
REMARK SMILES IDX 27 35 28 36 29 37 30 38 31 39 32 40 93 41 33 42 92 43 34 44
REMARK SMILES IDX 35 45 36 46 86 47 37 48 91 49 85 50 87 51 38 52 90 53 84 54
REMARK SMILES IDX 83 55 39 57 71 58 51 59 70 60 52 61 55 62 69 63 88 64 53 65
REMARK SMILES IDX 54 66 68 68 89 69 56 70 40 71 41 72 49 73 42 74 43 75 47 76
REMARK SMILES IDX 50 77 44 78 45 79 48 80 46 81 72 82 73 83 81 84 74 85 75 86
REMARK SMILES IDX 79 87 82 88 76 89 77 90 80 91 78 92 57 93 58 94 66 95 59 96
REMARK SMILES IDX 60 97 64 98 67 99 61 100 62 101 65 102 63 103
REMARK H PARENT 97 28 99 31 87 56 55 67
REMARK Flexibility Score: inf
ROOT
ATOM      1  C   UNL A   1      34.223  32.311  28.002  1.00  0.00     0.188 C 
ENDROOT
BRANCH   1   2
ATOM      2  O   UNL A   1      34.526  31.144  27.251  1.00  0.00    -0.376 OA
BRANCH   2   3
ATOM      3  C   UNL A   1      33.552  30.111  27.148  1.00  0.00     0.202 C 
BRANCH   3   4
ATOM      4  C   UNL A   1      33.973  28.640  27.251  1.00  0.00     0.261 C 
BRANCH   4   5
ATOM      5  O   UNL A   1      33.247  27.789  26.360  1.00  0.00    -0.460 OA
BRANCH   5   6
ATOM      6  C   UNL A   1      31.917  27.641  26.561  1.00  0.00     0.338 C 
ATOM      7  O   UNL A   1      31.346  27.629  27.638  1.00  0.00    -0.246 OA
BRANCH   6   8
ATOM      8  C   UNL A   1      31.200  27.669  25.258  1.00  0.00     0.071 A 
ATOM      9  C   UNL A   1      30.442  26.595  24.747  1.00  0.00     0.032 A 
ATOM     10  C   UNL A   1      29.839  26.752  23.485  1.00  0.00     0.013 A 
ATOM     11  C   UNL A   1      30.012  27.922  22.738  1.00  0.00     0.001 A 
ATOM     12  C   UNL A   1      31.380  28.837  24.494  1.00  0.00     0.016 A 
ATOM     13  C   UNL A   1      30.797  28.957  23.234  1.00  0.00     0.001 A 
BRANCH   9  14
ATOM     14  C   UNL A   1      30.303  25.327  25.455  1.00  0.00     0.135 A 
ATOM     15  C   UNL A   1      30.824  23.200  25.790  1.00  0.00     0.128 A 
ATOM     16  C   UNL A   1      30.071  23.625  26.876  1.00  0.00     0.051 A 
ATOM     17  O   UNL A   1      31.016  24.272  24.955  1.00  0.00    -0.457 OA
ATOM     18  C   UNL A   1      29.642  24.935  26.598  1.00  0.00     0.051 A 
BRANCH  15  19
ATOM     19  C   UNL A   1      31.225  21.870  25.504  1.00  0.00     0.071 C 
ATOM     20  C   UNL A   1      35.802  23.165  26.305  1.00  0.00     0.301 C 
ATOM     21  N   UNL A   1      34.845  22.146  25.878  1.00  0.00    -0.189 N 
ATOM     22  C   UNL A   1      33.541  22.409  26.233  1.00  0.00     0.349 C 
ATOM     23  C   UNL A   1      35.151  20.953  25.278  1.00  0.00     0.318 C 
ATOM     24  O   UNL A   1      33.259  23.290  27.041  1.00  0.00    -0.240 OA
ATOM     25  C   UNL A   1      32.524  21.524  25.619  1.00  0.00     0.157 C 
ATOM     26  N   UNL A   1      34.308  20.061  24.905  1.00  0.00    -0.200 N 
ATOM     27  C   UNL A   1      32.957  20.242  25.027  1.00  0.00     0.347 C 
ATOM     28  H   UNL A   1      34.643  19.221  24.519  1.00  0.00     0.316 HD
ATOM     29  O   UNL A   1      32.150  19.421  24.622  1.00  0.00    -0.241 OA
BRANCH  23  30
ATOM     30  S   UNL A   1      36.830  20.561  25.001  1.00  0.00    -0.055 SA
ATOM     31  H   UNL A   1      36.916  19.539  24.109  1.00  0.00     0.116 HD
ENDBRANCH  23  30
ENDBRANCH  15  19
ENDBRANCH   9  14
ENDBRANCH   6   8
ENDBRANCH   5   6
ENDBRANCH   4   5
ENDBRANCH   3   4
ENDBRANCH   2   3
ENDBRANCH   1   2
BRANCH   1  32
ATOM     32  C   UNL A   1      35.200  33.509  28.001  1.00  0.00     0.188 C 
BRANCH  32  33
ATOM     33  O   UNL A   1      35.007  34.474  29.006  1.00  0.00    -0.376 OA
BRANCH  33  34
ATOM     34  C   UNL A   1      34.102  34.234  30.068  1.00  0.00     0.202 C 
BRANCH  34  35
ATOM     35  C   UNL A   1      34.467  33.707  31.472  1.00  0.00     0.261 C 
BRANCH  35  36
ATOM     36  O   UNL A   1      34.861  32.340  31.610  1.00  0.00    -0.460 OA
BRANCH  36  37
ATOM     37  C   UNL A   1      35.857  32.097  32.499  1.00  0.00     0.338 C 
ATOM     38  O   UNL A   1      35.859  32.325  33.695  1.00  0.00    -0.246 OA
BRANCH  37  39
ATOM     39  C   UNL A   1      36.910  31.324  31.817  1.00  0.00     0.060 A 
ATOM     40  C   UNL A   1      37.819  30.579  32.586  1.00  0.00     0.016 A 
ATOM     41  C   UNL A   1      37.008  31.350  30.426  1.00  0.00     0.016 A 
ATOM     42  C   UNL A   1      38.847  29.873  31.961  1.00  0.00     0.010 A 
ATOM     43  C   UNL A   1      38.054  30.667  29.806  1.00  0.00     0.010 A 
ATOM     44  C   UNL A   1      38.996  29.953  30.571  1.00  0.00    -0.014 A 
BRANCH  44  45
ATOM     45  C   UNL A   1      40.248  29.496  29.923  1.00  0.00     0.031 A 
ATOM     46  C   UNL A   1      41.331  30.511  29.696  1.00  0.00     0.074 A 
ATOM     47  C   UNL A   1      40.412  28.227  29.514  1.00  0.00     0.049 A 
ATOM     48  N   UNL A   1      42.446  30.409  29.020  1.00  0.00    -0.248 NA
ATOM     49  C   UNL A   1      41.114  31.833  30.307  1.00  0.00     0.031 C 
ATOM     50  C   UNL A   1      39.460  27.141  29.719  1.00  0.00     0.029 A 
ATOM     51  N   UNL A   1      41.441  27.650  28.809  1.00  0.00    -0.354 N 
ATOM     52  C   UNL A   1      43.052  31.656  29.107  1.00  0.00     0.074 A 
ATOM     53  C   UNL A   1      42.168  32.506  29.875  1.00  0.00     0.031 C 
ATOM     54  C   UNL A   1      39.935  26.031  29.127  1.00  0.00     0.029 A 
ATOM     55  C   UNL A   1      41.201  26.343  28.465  1.00  0.00     0.049 A 
ATOM     56  H   UNL A   1      42.269  28.128  28.574  1.00  0.00     0.167 HD
ATOM     57  C   UNL A   1      44.239  32.055  28.593  1.00  0.00     0.037 A 
ATOM     58  C   UNL A   1      41.908  25.512  27.674  1.00  0.00     0.037 A 
ATOM     59  C   UNL A   1      45.106  31.206  27.820  1.00  0.00     0.049 A 
ATOM     60  C   UNL A   1      43.189  25.998  27.041  1.00  0.00     0.074 A 
ATOM     61  C   UNL A   1      46.336  31.507  27.263  1.00  0.00     0.029 A 
ATOM     62  N   UNL A   1      44.825  29.890  27.482  1.00  0.00    -0.354 N 
ATOM     63  N   UNL A   1      43.767  27.172  27.135  1.00  0.00    -0.248 NA
ATOM     64  C   UNL A   1      43.916  25.042  26.191  1.00  0.00     0.031 C 
ATOM     65  C   UNL A   1      46.768  30.395  26.533  1.00  0.00     0.029 A 
ATOM     66  C   UNL A   1      45.845  29.374  26.701  1.00  0.00     0.049 A 
ATOM     67  H   UNL A   1      44.019  29.396  27.757  1.00  0.00     0.167 HD
ATOM     68  C   UNL A   1      44.941  27.084  26.394  1.00  0.00     0.074 A 
ATOM     69  C   UNL A   1      44.992  25.740  25.856  1.00  0.00     0.031 C 
ATOM     70  C   UNL A   1      45.892  28.027  26.184  1.00  0.00     0.037 A 
BRANCH  57  71
ATOM     71  C   UNL A   1      44.637  33.487  28.813  1.00  0.00     0.064 A 
ATOM     72  C   UNL A   1      44.265  34.507  27.924  1.00  0.00     0.173 A 
ATOM     73  C   UNL A   1      45.408  33.842  29.931  1.00  0.00     0.173 A 
ATOM     74  F   UNL A   1      43.541  34.220  26.831  1.00  0.00    -0.203 F 
ATOM     75  C   UNL A   1      44.686  35.819  28.122  1.00  0.00     0.198 A 
ATOM     76  C   UNL A   1      45.794  35.162  30.146  1.00  0.00     0.198 A 
ATOM     77  F   UNL A   1      45.788  32.909  30.815  1.00  0.00    -0.203 F 
ATOM     78  F   UNL A   1      44.377  36.763  27.222  1.00  0.00    -0.200 F 
ATOM     79  C   UNL A   1      45.444  36.147  29.235  1.00  0.00     0.200 A 
ATOM     80  F   UNL A   1      46.513  35.479  31.232  1.00  0.00    -0.200 F 
ATOM     81  F   UNL A   1      45.848  37.410  29.426  1.00  0.00    -0.200 F 
ENDBRANCH  57  71
BRANCH  58  82
ATOM     82  C   UNL A   1      41.410  24.133  27.422  1.00  0.00     0.064 A 
ATOM     83  C   UNL A   1      42.030  23.023  28.012  1.00  0.00     0.173 A 
ATOM     84  C   UNL A   1      40.309  23.897  26.586  1.00  0.00     0.173 A 
ATOM     85  F   UNL A   1      43.104  23.194  28.796  1.00  0.00    -0.203 F 
ATOM     86  C   UNL A   1      41.574  21.729  27.766  1.00  0.00     0.198 A 
ATOM     87  C   UNL A   1      39.836  22.606  26.365  1.00  0.00     0.198 A 
ATOM     88  F   UNL A   1      39.684  24.924  25.992  1.00  0.00    -0.203 F 
ATOM     89  F   UNL A   1      42.211  20.683  28.308  1.00  0.00    -0.200 F 
ATOM     90  C   UNL A   1      40.472  21.521  26.950  1.00  0.00     0.200 A 
ATOM     91  F   UNL A   1      38.763  22.411  25.584  1.00  0.00    -0.200 F 
ATOM     92  F   UNL A   1      40.029  20.278  26.720  1.00  0.00    -0.200 F 
ENDBRANCH  58  82
BRANCH  70  93
ATOM     93  C   UNL A   1      47.110  27.633  25.395  1.00  0.00     0.064 A 
ATOM     94  C   UNL A   1      47.175  27.776  24.002  1.00  0.00     0.173 A 
ATOM     95  C   UNL A   1      48.257  27.166  26.058  1.00  0.00     0.173 A 
ATOM     96  F   UNL A   1      46.104  28.206  23.316  1.00  0.00    -0.203 F 
ATOM     97  C   UNL A   1      48.333  27.446  23.300  1.00  0.00     0.198 A 
ATOM     98  C   UNL A   1      49.423  26.872  25.359  1.00  0.00     0.198 A 
ATOM     99  F   UNL A   1      48.254  27.020  27.392  1.00  0.00    -0.203 F 
ATOM    100  F   UNL A   1      48.357  27.548  21.964  1.00  0.00    -0.200 F 
ATOM    101  C   UNL A   1      49.458  27.004  23.980  1.00  0.00     0.200 A 
ATOM    102  F   UNL A   1      50.515  26.464  26.022  1.00  0.00    -0.200 F 
ATOM    103  F   UNL A   1      50.576  26.703  23.306  1.00  0.00    -0.200 F 
ENDBRANCH  70  93
ENDBRANCH  44  45
ENDBRANCH  37  39
ENDBRANCH  36  37
ENDBRANCH  35  36
ENDBRANCH  34  35
ENDBRANCH  33  34
ENDBRANCH  32  33
ENDBRANCH   1  32
TORSDOF 20
ENDMDL
MODEL 2
REMARK VINA RESULT:     -12.0      3.349      8.682
REMARK SMILES CN1C(=O)/C(=C\c2ccc(-c3ccccc3C(=O)OCCOCCOCCOC(=O)c3ccc(-c4c5nc(c(-c6c(F)c(F)c(F)c(F)c6F)c6ccc([nH]6)c(-c6c(F)c(F)c(F)c(F)c6F)c6nc(c(-c7c(F)c(F)c(F)c(F)c7F)c7ccc4[nH]7)C=C6)C=C5)cc3)o2)C(=O)[NH+]=C1S
REMARK SMILES IDX 23 1 22 2 21 3 20 4 19 5 17 6 18 7 16 8 11 9 12 10 13 11
REMARK SMILES IDX 15 12 14 13 10 14 7 15 8 16 94 17 9 18 6 19 1 20 2 21 3 22
REMARK SMILES IDX 98 23 4 24 5 25 97 26 95 27 96 29 99 30 24 32 25 33 26 34
REMARK SMILES IDX 27 35 28 36 29 37 30 38 31 39 32 40 93 41 33 42 92 43 34 44
REMARK SMILES IDX 35 45 36 46 86 47 37 48 91 49 85 50 87 51 38 52 90 53 84 54
REMARK SMILES IDX 83 55 39 57 71 58 51 59 70 60 52 61 55 62 69 63 88 64 53 65
REMARK SMILES IDX 54 66 68 68 89 69 56 70 40 71 41 72 49 73 42 74 43 75 47 76
REMARK SMILES IDX 50 77 44 78 45 79 48 80 46 81 72 82 73 83 81 84 74 85 75 86
REMARK SMILES IDX 79 87 82 88 76 89 77 90 80 91 78 92 57 93 58 94 66 95 59 96
REMARK SMILES IDX 60 97 64 98 67 99 61 100 62 101 65 102 63 103
REMARK H PARENT 97 28 99 31 87 56 55 67
REMARK Flexibility Score: inf
ROOT
ATOM      1  C   UNL A   1      36.877  22.580  24.110  1.00  0.00     0.188 C 
ENDROOT
BRANCH   1   2
ATOM      2  O   UNL A   1      35.753  23.354  24.507  1.00  0.00    -0.376 OA
BRANCH   2   3
ATOM      3  C   UNL A   1      35.683  23.845  25.840  1.00  0.00     0.202 C 
BRANCH   3   4
ATOM      4  C   UNL A   1      34.680  23.244  26.833  1.00  0.00     0.261 C 
BRANCH   4   5
ATOM      5  O   UNL A   1      34.155  21.985  26.400  1.00  0.00    -0.460 OA
BRANCH   5   6
ATOM      6  C   UNL A   1      32.839  21.915  26.093  1.00  0.00     0.338 C 
ATOM      7  O   UNL A   1      31.937  22.531  26.635  1.00  0.00    -0.246 OA
BRANCH   6   8
ATOM      8  C   UNL A   1      32.647  21.100  24.865  1.00  0.00     0.071 A 
ATOM      9  C   UNL A   1      32.221  21.621  23.625  1.00  0.00     0.032 A 
ATOM     10  C   UNL A   1      32.055  20.725  22.552  1.00  0.00     0.013 A 
ATOM     11  C   UNL A   1      32.269  19.352  22.712  1.00  0.00     0.001 A 
ATOM     12  C   UNL A   1      32.847  19.716  25.020  1.00  0.00     0.016 A 
ATOM     13  C   UNL A   1      32.648  18.845  23.951  1.00  0.00     0.001 A 
BRANCH   9  14
ATOM     14  C   UNL A   1      31.906  23.033  23.435  1.00  0.00     0.135 A 
ATOM     15  C   UNL A   1      32.468  25.120  22.950  1.00  0.00     0.128 A 
ATOM     16  C   UNL A   1      31.082  25.049  22.964  1.00  0.00     0.051 A 
ATOM     17  O   UNL A   1      32.964  23.861  23.176  1.00  0.00    -0.457 OA
ATOM     18  C   UNL A   1      30.734  23.756  23.392  1.00  0.00     0.051 A 
BRANCH  15  19
ATOM     19  C   UNL A   1      33.257  26.294  22.852  1.00  0.00     0.071 C 
ATOM     20  C   UNL A   1      31.703  27.610  27.224  1.00  0.00     0.301 C 
ATOM     21  N   UNL A   1      32.464  27.928  26.017  1.00  0.00    -0.189 N 
ATOM     22  C   UNL A   1      32.750  26.838  25.224  1.00  0.00     0.349 C 
ATOM     23  C   UNL A   1      32.985  29.152  25.691  1.00  0.00     0.318 C 
ATOM     24  O   UNL A   1      32.589  25.690  25.627  1.00  0.00    -0.240 OA
ATOM     25  C   UNL A   1      33.310  27.154  23.890  1.00  0.00     0.157 C 
ATOM     26  N   UNL A   1      33.654  29.427  24.631  1.00  0.00    -0.200 N 
ATOM     27  C   UNL A   1      33.879  28.497  23.653  1.00  0.00     0.347 C 
ATOM     28  H   UNL A   1      34.016  30.334  24.517  1.00  0.00     0.316 HD
ATOM     29  O   UNL A   1      34.464  28.768  22.618  1.00  0.00    -0.241 OA
BRANCH  23  30
ATOM     30  S   UNL A   1      32.765  30.480  26.804  1.00  0.00    -0.055 SA
ATOM     31  H   UNL A   1      31.598  31.119  26.522  1.00  0.00     0.116 HD
ENDBRANCH  23  30
ENDBRANCH  15  19
ENDBRANCH   9  14
ENDBRANCH   6   8
ENDBRANCH   5   6
ENDBRANCH   4   5
ENDBRANCH   3   4
ENDBRANCH   2   3
ENDBRANCH   1   2
BRANCH   1  32
ATOM     32  C   UNL A   1      37.477  21.533  25.077  1.00  0.00     0.188 C 
BRANCH  32  33
ATOM     33  O   UNL A   1      37.297  20.183  24.726  1.00  0.00    -0.376 OA
BRANCH  33  34
ATOM     34  C   UNL A   1      38.312  19.232  24.987  1.00  0.00     0.202 C 
BRANCH  34  35
ATOM     35  C   UNL A   1      39.354  19.303  26.124  1.00  0.00     0.261 C 
BRANCH  35  36
ATOM     36  O   UNL A   1      40.462  20.196  25.984  1.00  0.00    -0.460 OA
BRANCH  36  37
ATOM     37  C   UNL A   1      41.236  20.358  27.086  1.00  0.00     0.338 C 
ATOM     38  O   UNL A   1      41.890  19.511  27.667  1.00  0.00    -0.246 OA
BRANCH  37  39
ATOM     39  C   UNL A   1      41.317  21.798  27.389  1.00  0.00     0.060 A 
ATOM     40  C   UNL A   1      40.571  22.703  26.616  1.00  0.00     0.016 A 
ATOM     41  C   UNL A   1      42.139  22.252  28.420  1.00  0.00     0.016 A 
ATOM     42  C   UNL A   1      40.665  24.073  26.861  1.00  0.00     0.010 A 
ATOM     43  C   UNL A   1      42.253  23.623  28.644  1.00  0.00     0.010 A 
ATOM     44  C   UNL A   1      41.543  24.541  27.845  1.00  0.00    -0.014 A 
BRANCH  44  45
ATOM     45  C   UNL A   1      41.909  25.976  27.904  1.00  0.00     0.031 A 
ATOM     46  C   UNL A   1      43.238  26.385  27.335  1.00  0.00     0.074 A 
ATOM     47  C   UNL A   1      41.107  26.889  28.475  1.00  0.00     0.049 A 
ATOM     48  N   UNL A   1      43.857  27.535  27.398  1.00  0.00    -0.248 NA
ATOM     49  C   UNL A   1      43.975  25.340  26.606  1.00  0.00     0.031 C 
ATOM     50  C   UNL A   1      39.778  26.628  29.016  1.00  0.00     0.029 A 
ATOM     51  N   UNL A   1      41.317  28.225  28.717  1.00  0.00    -0.354 N 
ATOM     52  C   UNL A   1      45.063  27.347  26.736  1.00  0.00     0.074 A 
ATOM     53  C   UNL A   1      45.102  25.966  26.306  1.00  0.00     0.031 C 
ATOM     54  C   UNL A   1      39.299  27.763  29.557  1.00  0.00     0.029 A 
ATOM     55  C   UNL A   1      40.308  28.815  29.435  1.00  0.00     0.049 A 
ATOM     56  H   UNL A   1      42.115  28.711  28.406  1.00  0.00     0.167 HD
ATOM     57  C   UNL A   1      46.050  28.245  26.508  1.00  0.00     0.037 A 
ATOM     58  C   UNL A   1      40.230  30.052  29.966  1.00  0.00     0.037 A 
ATOM     59  C   UNL A   1      46.008  29.614  26.950  1.00  0.00     0.049 A 
ATOM     60  C   UNL A   1      41.374  31.017  29.772  1.00  0.00     0.074 A 
ATOM     61  C   UNL A   1      46.949  30.611  26.760  1.00  0.00     0.029 A 
ATOM     62  N   UNL A   1      44.973  30.174  27.685  1.00  0.00    -0.354 N 
ATOM     63  N   UNL A   1      42.508  30.843  29.135  1.00  0.00    -0.248 NA
ATOM     64  C   UNL A   1      41.227  32.352  30.371  1.00  0.00     0.031 C 
ATOM     65  C   UNL A   1      46.513  31.755  27.437  1.00  0.00     0.029 A 
ATOM     66  C   UNL A   1      45.264  31.495  27.982  1.00  0.00     0.049 A 
ATOM     67  H   UNL A   1      44.153  29.702  27.956  1.00  0.00     0.167 HD
ATOM     68  C   UNL A   1      43.188  32.052  29.222  1.00  0.00     0.074 A 
ATOM     69  C   UNL A   1      42.340  32.953  29.973  1.00  0.00     0.031 C 
ATOM     70  C   UNL A   1      44.402  32.388  28.718  1.00  0.00     0.037 A 
BRANCH  57  71
ATOM     71  C   UNL A   1      47.274  27.755  25.789  1.00  0.00     0.064 A 
ATOM     72  C   UNL A   1      47.370  27.770  24.388  1.00  0.00     0.173 A 
ATOM     73  C   UNL A   1      48.369  27.259  26.514  1.00  0.00     0.173 A 
ATOM     74  F   UNL A   1      46.346  28.220  23.646  1.00  0.00    -0.203 F 
ATOM     75  C   UNL A   1      48.495  27.267  23.741  1.00  0.00     0.198 A 
ATOM     76  C   UNL A   1      49.508  26.792  25.864  1.00  0.00     0.198 A 
ATOM     77  F   UNL A   1      48.334  27.226  27.854  1.00  0.00    -0.203 F 
ATOM     78  F   UNL A   1      48.533  27.226  22.402  1.00  0.00    -0.200 F 
ATOM     79  C   UNL A   1      49.565  26.784  24.479  1.00  0.00     0.200 A 
ATOM     80  F   UNL A   1      50.548  26.341  26.580  1.00  0.00    -0.200 F 
ATOM     81  F   UNL A   1      50.648  26.300  23.855  1.00  0.00    -0.200 F 
ENDBRANCH  57  71
BRANCH  58  82
ATOM     82  C   UNL A   1      39.027  30.446  30.747  1.00  0.00     0.064 A 
ATOM     83  C   UNL A   1      38.954  30.215  32.128  1.00  0.00     0.173 A 
ATOM     84  C   UNL A   1      37.925  31.057  30.129  1.00  0.00     0.173 A 
ATOM     85  F   UNL A   1      39.969  29.608  32.759  1.00  0.00    -0.203 F 
ATOM     86  C   UNL A   1      37.822  30.569  32.858  1.00  0.00     0.198 A 
ATOM     87  C   UNL A   1      36.806  31.438  30.866  1.00  0.00     0.198 A 
ATOM     88  F   UNL A   1      37.942  31.294  28.810  1.00  0.00    -0.203 F 
ATOM     89  F   UNL A   1      37.761  30.298  34.168  1.00  0.00    -0.200 F 
ATOM     90  C   UNL A   1      36.752  31.189  32.229  1.00  0.00     0.200 A 
ATOM     91  F   UNL A   1      35.779  32.047  30.255  1.00  0.00    -0.200 F 
ATOM     92  F   UNL A   1      35.667  31.537  32.933  1.00  0.00    -0.200 F 
ENDBRANCH  58  82
BRANCH  70  93
ATOM     93  C   UNL A   1      44.869  33.805  28.898  1.00  0.00     0.064 A 
ATOM     94  C   UNL A   1      45.657  34.200  29.988  1.00  0.00     0.173 A 
ATOM     95  C   UNL A   1      44.576  34.772  27.920  1.00  0.00     0.173 A 
ATOM     96  F   UNL A   1      45.957  33.321  30.957  1.00  0.00    -0.203 F 
ATOM     97  C   UNL A   1      46.114  35.511  30.106  1.00  0.00     0.198 A 
ATOM     98  C   UNL A   1      45.064  36.070  28.022  1.00  0.00     0.198 A 
ATOM     99  F   UNL A   1      43.834  34.447  26.850  1.00  0.00    -0.203 F 
ATOM    100  F   UNL A   1      46.829  35.876  31.180  1.00  0.00    -0.200 F 
ATOM    101  C   UNL A   1      45.827  36.441  29.118  1.00  0.00     0.200 A 
ATOM    102  F   UNL A   1      44.800  36.962  27.056  1.00  0.00    -0.200 F 
ATOM    103  F   UNL A   1      46.281  37.698  29.225  1.00  0.00    -0.200 F 
ENDBRANCH  70  93
ENDBRANCH  44  45
ENDBRANCH  37  39
ENDBRANCH  36  37
ENDBRANCH  35  36
ENDBRANCH  34  35
ENDBRANCH  33  34
ENDBRANCH  32  33
ENDBRANCH   1  32
TORSDOF 20
ENDMDL
MODEL 3
REMARK VINA RESULT:     -11.9      4.973      7.464
REMARK SMILES CN1C(=O)/C(=C\c2ccc(-c3ccccc3C(=O)OCCOCCOCCOC(=O)c3ccc(-c4c5nc(c(-c6c(F)c(F)c(F)c(F)c6F)c6ccc([nH]6)c(-c6c(F)c(F)c(F)c(F)c6F)c6nc(c(-c7c(F)c(F)c(F)c(F)c7F)c7ccc4[nH]7)C=C6)C=C5)cc3)o2)C(=O)[NH+]=C1S
REMARK SMILES IDX 23 1 22 2 21 3 20 4 19 5 17 6 18 7 16 8 11 9 12 10 13 11
REMARK SMILES IDX 15 12 14 13 10 14 7 15 8 16 94 17 9 18 6 19 1 20 2 21 3 22
REMARK SMILES IDX 98 23 4 24 5 25 97 26 95 27 96 29 99 30 24 32 25 33 26 34
REMARK SMILES IDX 27 35 28 36 29 37 30 38 31 39 32 40 93 41 33 42 92 43 34 44
REMARK SMILES IDX 35 45 36 46 86 47 37 48 91 49 85 50 87 51 38 52 90 53 84 54
REMARK SMILES IDX 83 55 39 57 71 58 51 59 70 60 52 61 55 62 69 63 88 64 53 65
REMARK SMILES IDX 54 66 68 68 89 69 56 70 40 71 41 72 49 73 42 74 43 75 47 76
REMARK SMILES IDX 50 77 44 78 45 79 48 80 46 81 72 82 73 83 81 84 74 85 75 86
REMARK SMILES IDX 79 87 82 88 76 89 77 90 80 91 78 92 57 93 58 94 66 95 59 96
REMARK SMILES IDX 60 97 64 98 67 99 61 100 62 101 65 102 63 103
REMARK H PARENT 97 28 99 31 87 56 55 67
REMARK Flexibility Score: inf
ROOT
ATOM      1  C   UNL A   1      34.388  31.932  28.836  1.00  0.00     0.188 C 
ENDROOT
BRANCH   1   2
ATOM      2  O   UNL A   1      34.807  31.488  27.553  1.00  0.00    -0.376 OA
BRANCH   2   3
ATOM      3  C   UNL A   1      35.161  30.121  27.372  1.00  0.00     0.202 C 
BRANCH   3   4
ATOM      4  C   UNL A   1      34.125  29.016  27.613  1.00  0.00     0.261 C 
BRANCH   4   5
ATOM      5  O   UNL A   1      33.274  28.795  26.484  1.00  0.00    -0.460 OA
BRANCH   5   6
ATOM      6  C   UNL A   1      32.126  28.106  26.678  1.00  0.00     0.338 C 
ATOM      7  O   UNL A   1      31.580  27.896  27.747  1.00  0.00    -0.246 OA
BRANCH   6   8
ATOM      8  C   UNL A   1      31.506  27.775  25.367  1.00  0.00     0.071 A 
ATOM      9  C   UNL A   1      31.440  26.473  24.827  1.00  0.00     0.032 A 
ATOM     10  C   UNL A   1      30.847  26.311  23.560  1.00  0.00     0.013 A 
ATOM     11  C   UNL A   1      30.369  27.408  22.837  1.00  0.00     0.001 A 
ATOM     12  C   UNL A   1      31.035  28.874  24.626  1.00  0.00     0.016 A 
ATOM     13  C   UNL A   1      30.479  28.692  23.362  1.00  0.00     0.001 A 
BRANCH   9  14
ATOM     14  C   UNL A   1      32.000  25.312  25.510  1.00  0.00     0.135 A 
ATOM     15  C   UNL A   1      33.661  23.922  25.975  1.00  0.00     0.128 A 
ATOM     16  C   UNL A   1      32.636  23.671  26.878  1.00  0.00     0.051 A 
ATOM     17  O   UNL A   1      33.285  24.977  25.182  1.00  0.00    -0.457 OA
ATOM     18  C   UNL A   1      31.542  24.470  26.499  1.00  0.00     0.051 A 
BRANCH  15  19
ATOM     19  C   UNL A   1      34.841  23.157  25.797  1.00  0.00     0.071 C 
ATOM     20  C   UNL A   1      32.153  19.567  24.023  1.00  0.00     0.301 C 
ATOM     21  N   UNL A   1      33.461  20.058  24.452  1.00  0.00    -0.189 N 
ATOM     22  C   UNL A   1      33.541  21.428  24.572  1.00  0.00     0.349 C 
ATOM     23  C   UNL A   1      34.590  19.301  24.625  1.00  0.00     0.318 C 
ATOM     24  O   UNL A   1      32.667  22.165  24.123  1.00  0.00    -0.240 OA
ATOM     25  C   UNL A   1      34.769  21.938  25.224  1.00  0.00     0.157 C 
ATOM     26  N   UNL A   1      35.737  19.736  25.001  1.00  0.00    -0.200 N 
ATOM     27  C   UNL A   1      35.944  21.048  25.331  1.00  0.00     0.347 C 
ATOM     28  H   UNL A   1      36.491  19.107  25.055  1.00  0.00     0.316 HD
ATOM     29  O   UNL A   1      37.017  21.455  25.743  1.00  0.00    -0.241 OA
BRANCH  23  30
ATOM     30  S   UNL A   1      34.510  17.589  24.290  1.00  0.00    -0.055 SA
ATOM     31  H   UNL A   1      33.412  17.060  24.891  1.00  0.00     0.116 HD
ENDBRANCH  23  30
ENDBRANCH  15  19
ENDBRANCH   9  14
ENDBRANCH   6   8
ENDBRANCH   5   6
ENDBRANCH   4   5
ENDBRANCH   3   4
ENDBRANCH   2   3
ENDBRANCH   1   2
BRANCH   1  32
ATOM     32  C   UNL A   1      34.435  33.437  29.188  1.00  0.00     0.188 C 
BRANCH  32  33
ATOM     33  O   UNL A   1      33.212  34.128  29.140  1.00  0.00    -0.376 OA
BRANCH  33  34
ATOM     34  C   UNL A   1      33.187  35.533  28.968  1.00  0.00     0.202 C 
BRANCH  34  35
ATOM     35  C   UNL A   1      32.903  36.579  30.067  1.00  0.00     0.261 C 
BRANCH  35  36
ATOM     36  O   UNL A   1      32.133  36.185  31.205  1.00  0.00    -0.460 OA
BRANCH  36  37
ATOM     37  C   UNL A   1      32.745  36.317  32.409  1.00  0.00     0.338 C 
ATOM     38  O   UNL A   1      32.391  36.999  33.353  1.00  0.00    -0.246 OA
BRANCH  37  39
ATOM     39  C   UNL A   1      33.847  35.341  32.478  1.00  0.00     0.060 A 
ATOM     40  C   UNL A   1      33.577  34.034  32.913  1.00  0.00     0.016 A 
ATOM     41  C   UNL A   1      35.143  35.723  32.131  1.00  0.00     0.016 A 
ATOM     42  C   UNL A   1      34.614  33.107  33.024  1.00  0.00     0.010 A 
ATOM     43  C   UNL A   1      36.182  34.804  32.270  1.00  0.00     0.010 A 
ATOM     44  C   UNL A   1      35.928  33.503  32.747  1.00  0.00    -0.014 A 
BRANCH  44  45
ATOM     45  C   UNL A   1      37.071  32.657  33.166  1.00  0.00     0.031 A 
ATOM     46  C   UNL A   1      37.727  32.966  34.481  1.00  0.00     0.074 A 
ATOM     47  C   UNL A   1      37.540  31.665  32.391  1.00  0.00     0.049 A 
ATOM     48  N   UNL A   1      38.827  32.485  35.002  1.00  0.00    -0.248 NA
ATOM     49  C   UNL A   1      37.053  33.972  35.317  1.00  0.00     0.031 C 
ATOM     50  C   UNL A   1      36.962  31.237  31.123  1.00  0.00     0.029 A 
ATOM     51  N   UNL A   1      38.638  30.856  32.557  1.00  0.00    -0.354 N 
ATOM     52  C   UNL A   1      38.985  33.144  36.214  1.00  0.00     0.074 A 
ATOM     53  C   UNL A   1      37.888  34.078  36.338  1.00  0.00     0.031 C 
ATOM     54  C   UNL A   1      37.728  30.259  30.605  1.00  0.00     0.029 A 
ATOM     55  C   UNL A   1      38.872  30.028  31.488  1.00  0.00     0.049 A 
ATOM     56  H   UNL A   1      39.202  30.870  33.364  1.00  0.00     0.167 HD
ATOM     57  C   UNL A   1      39.960  32.983  37.140  1.00  0.00     0.037 A 
ATOM     58  C   UNL A   1      39.912  29.208  31.238  1.00  0.00     0.037 A 
ATOM     59  C   UNL A   1      41.054  32.059  37.003  1.00  0.00     0.049 A 
ATOM     60  C   UNL A   1      41.032  29.101  32.244  1.00  0.00     0.074 A 
ATOM     61  C   UNL A   1      42.088  31.809  37.888  1.00  0.00     0.029 A 
ATOM     62  N   UNL A   1      41.264  31.244  35.900  1.00  0.00    -0.354 N 
ATOM     63  N   UNL A   1      41.175  29.713  33.395  1.00  0.00    -0.248 NA
ATOM     64  C   UNL A   1      42.136  28.187  31.915  1.00  0.00     0.031 C 
ATOM     65  C   UNL A   1      42.959  30.891  37.292  1.00  0.00     0.029 A 
ATOM     66  C   UNL A   1      42.427  30.510  36.070  1.00  0.00     0.049 A 
ATOM     67  H   UNL A   1      40.675  31.194  35.113  1.00  0.00     0.167 HD
ATOM     68  C   UNL A   1      42.358  29.231  33.944  1.00  0.00     0.074 A 
ATOM     69  C   UNL A   1      42.894  28.274  32.999  1.00  0.00     0.031 C 
ATOM     70  C   UNL A   1      42.942  29.546  35.127  1.00  0.00     0.037 A 
BRANCH  57  71
ATOM     71  C   UNL A   1      39.904  33.862  38.357  1.00  0.00     0.064 A 
ATOM     72  C   UNL A   1      39.189  33.495  39.507  1.00  0.00     0.173 A 
ATOM     73  C   UNL A   1      40.576  35.095  38.370  1.00  0.00     0.173 A 
ATOM     74  F   UNL A   1      38.516  32.334  39.543  1.00  0.00    -0.203 F 
ATOM     75  C   UNL A   1      39.111  34.347  40.606  1.00  0.00     0.198 A 
ATOM     76  C   UNL A   1      40.528  35.926  39.485  1.00  0.00     0.198 A 
ATOM     77  F   UNL A   1      41.279  35.494  37.300  1.00  0.00    -0.203 F 
ATOM     78  F   UNL A   1      38.364  34.006  41.665  1.00  0.00    -0.200 F 
ATOM     79  C   UNL A   1      39.786  35.558  40.596  1.00  0.00     0.200 A 
ATOM     80  F   UNL A   1      41.194  37.090  39.479  1.00  0.00    -0.200 F 
ATOM     81  F   UNL A   1      39.712  36.378  41.654  1.00  0.00    -0.200 F 
ENDBRANCH  57  71
BRANCH  58  82
ATOM     82  C   UNL A   1      39.951  28.432  29.969  1.00  0.00     0.064 A 
ATOM     83  C   UNL A   1      39.341  27.174  29.873  1.00  0.00     0.173 A 
ATOM     84  C   UNL A   1      40.601  28.931  28.830  1.00  0.00     0.173 A 
ATOM     85  F   UNL A   1      38.732  26.642  30.943  1.00  0.00    -0.203 F 
ATOM     86  C   UNL A   1      39.389  26.439  28.690  1.00  0.00     0.198 A 
ATOM     87  C   UNL A   1      40.622  28.208  27.639  1.00  0.00     0.198 A 
ATOM     88  F   UNL A   1      41.206  30.126  28.871  1.00  0.00    -0.203 F 
ATOM     89  F   UNL A   1      38.835  25.221  28.639  1.00  0.00    -0.200 F 
ATOM     90  C   UNL A   1      40.022  26.959  27.572  1.00  0.00     0.200 A 
ATOM     91  F   UNL A   1      41.226  28.720  26.557  1.00  0.00    -0.200 F 
ATOM     92  F   UNL A   1      40.061  26.256  26.431  1.00  0.00    -0.200 F 
ENDBRANCH  58  82
BRANCH  70  93
ATOM     93  C   UNL A   1      44.195  28.809  35.510  1.00  0.00     0.064 A 
ATOM     94  C   UNL A   1      45.473  29.310  35.226  1.00  0.00     0.173 A 
ATOM     95  C   UNL A   1      44.110  27.608  36.234  1.00  0.00     0.173 A 
ATOM     96  F   UNL A   1      45.613  30.447  34.527  1.00  0.00    -0.203 F 
ATOM     97  C   UNL A   1      46.618  28.628  35.634  1.00  0.00     0.198 A 
ATOM     98  C   UNL A   1      45.254  26.948  36.670  1.00  0.00     0.198 A 
ATOM     99  F   UNL A   1      42.912  27.087  36.541  1.00  0.00    -0.203 F 
ATOM    100  F   UNL A   1      47.830  29.104  35.313  1.00  0.00    -0.200 F 
ATOM    101  C   UNL A   1      46.508  27.454  36.363  1.00  0.00     0.200 A 
ATOM    102  F   UNL A   1      45.143  25.823  37.392  1.00  0.00    -0.200 F 
ATOM    103  F   UNL A   1      47.609  26.808  36.768  1.00  0.00    -0.200 F 
ENDBRANCH  70  93
ENDBRANCH  44  45
ENDBRANCH  37  39
ENDBRANCH  36  37
ENDBRANCH  35  36
ENDBRANCH  34  35
ENDBRANCH  33  34
ENDBRANCH  32  33
ENDBRANCH   1  32
TORSDOF 20
ENDMDL
