MODEL 1
REMARK VINA RESULT:     -11.3      0.000      0.000
REMARK SMILES Cc1cc(C)c2c(c1)C=C(C(=O)OCCOCCOCCOC(=O)c1ccc(-c3c4nc(c(-c5c(F)c(F)c(F)c(F)c5F)c5ccc([nH]5)c(-c5c(F)c(F)c(F)c(F)c5F)c5nc(c(-c6c(F)c(F)c(F)c(F)c6F)c6ccc3[nH]6)C=C5)C=C4)cc1)[C@@H](C(F)(F)F)O2
REMARK SMILES IDX 18 1 17 2 16 3 15 4 14 5 13 6 11 7 12 8 10 9 1 10 2 11 3 12
REMARK SMILES IDX 8 13 4 14 7 15 5 16 6 17 9 18 93 19 88 20 89 21 90 22 91 23
REMARK SMILES IDX 92 24 19 25 20 26 21 27 22 28 23 29 24 30 25 31 26 32 87 33
REMARK SMILES IDX 27 34 86 35 28 36 29 37 30 38 80 39 31 40 85 41 79 42 81 43
REMARK SMILES IDX 32 44 84 45 78 46 77 47 33 49 65 50 45 51 64 52 46 53 49 54
REMARK SMILES IDX 63 55 82 56 47 57 48 58 62 60 83 61 50 62 34 63 35 64 43 65
REMARK SMILES IDX 36 66 37 67 41 68 44 69 38 70 39 71 42 72 40 73 66 74 67 75
REMARK SMILES IDX 75 76 68 77 69 78 73 79 76 80 70 81 71 82 74 83 72 84 51 85
REMARK SMILES IDX 52 86 60 87 53 88 54 89 58 90 61 91 55 92 56 93 59 94 57 95
REMARK H PARENT 81 48 49 59
REMARK Flexibility Score: inf
ROOT
ATOM      1  C   UNL A   1      32.527  27.953  24.082  1.00  0.00     0.188 C 
ENDROOT
BRANCH   1   2
ATOM      2  C   UNL A   1      33.394  27.477  25.268  1.00  0.00     0.188 C 
BRANCH   2   3
ATOM      3  O   UNL A   1      32.797  26.852  26.392  1.00  0.00    -0.376 OA
BRANCH   3   4
ATOM      4  C   UNL A   1      31.402  26.595  26.416  1.00  0.00     0.202 C 
BRANCH   4   5
ATOM      5  C   UNL A   1      30.809  25.365  25.710  1.00  0.00     0.261 C 
BRANCH   5   6
ATOM      6  O   UNL A   1      31.747  24.323  25.406  1.00  0.00    -0.460 OA
BRANCH   6   7
ATOM      7  C   UNL A   1      31.993  23.449  26.412  1.00  0.00     0.338 C 
ATOM      8  O   UNL A   1      31.204  23.069  27.260  1.00  0.00    -0.246 OA
BRANCH   7   9
ATOM      9  C   UNL A   1      33.347  22.877  26.251  1.00  0.00     0.087 C 
ATOM     10  C   UNL A   1      39.289  24.539  26.284  1.00  0.00     0.044 C 
ATOM     11  C   UNL A   1      38.107  23.627  26.126  1.00  0.00    -0.050 A 
ATOM     12  C   UNL A   1      38.284  22.337  25.612  1.00  0.00     0.010 A 
ATOM     13  C   UNL A   1      36.818  24.052  26.463  1.00  0.00     0.015 A 
ATOM     14  C   UNL A   1      37.193  21.471  25.441  1.00  0.00    -0.008 A 
ATOM     15  C   UNL A   1      35.717  23.206  26.277  1.00  0.00     0.018 A 
ATOM     16  C   UNL A   1      37.406  20.103  24.853  1.00  0.00     0.048 C 
ATOM     17  C   UNL A   1      35.908  21.908  25.798  1.00  0.00     0.130 A 
ATOM     18  C   UNL A   1      34.371  23.703  26.503  1.00  0.00     0.027 C 
ATOM     19  O   UNL A   1      34.887  21.012  25.642  1.00  0.00    -0.475 OA
ATOM     20  C   UNL A   1      33.512  21.444  25.829  1.00  0.00     0.316 C 
BRANCH  20  21
ATOM     21  C   UNL A   1      32.730  21.113  24.552  1.00  0.00     0.430 C 
ATOM     22  F   UNL A   1      31.397  21.061  24.791  1.00  0.00    -0.167 F 
ATOM     23  F   UNL A   1      32.913  22.050  23.593  1.00  0.00    -0.167 F 
ATOM     24  F   UNL A   1      33.096  19.921  24.028  1.00  0.00    -0.167 F 
ENDBRANCH  20  21
ENDBRANCH   7   9
ENDBRANCH   6   7
ENDBRANCH   5   6
ENDBRANCH   4   5
ENDBRANCH   3   4
ENDBRANCH   2   3
ENDBRANCH   1   2
BRANCH   1  25
ATOM     25  O   UNL A   1      32.226  29.325  24.056  1.00  0.00    -0.376 OA
BRANCH  25  26
ATOM     26  C   UNL A   1      31.330  29.879  25.005  1.00  0.00     0.202 C 
BRANCH  26  27
ATOM     27  C   UNL A   1      31.714  30.765  26.210  1.00  0.00     0.261 C 
BRANCH  27  28
ATOM     28  O   UNL A   1      32.980  30.555  26.841  1.00  0.00    -0.460 OA
BRANCH  28  29
ATOM     29  C   UNL A   1      33.576  31.651  27.369  1.00  0.00     0.338 C 
ATOM     30  O   UNL A   1      33.082  32.748  27.552  1.00  0.00    -0.246 OA
BRANCH  29  31
ATOM     31  C   UNL A   1      34.903  31.258  27.882  1.00  0.00     0.060 A 
ATOM     32  C   UNL A   1      35.124  29.916  28.223  1.00  0.00     0.016 A 
ATOM     33  C   UNL A   1      35.909  32.209  28.051  1.00  0.00     0.016 A 
ATOM     34  C   UNL A   1      36.346  29.525  28.766  1.00  0.00     0.010 A 
ATOM     35  C   UNL A   1      37.123  31.823  28.627  1.00  0.00     0.010 A 
ATOM     36  C   UNL A   1      37.331  30.488  29.019  1.00  0.00    -0.014 A 
BRANCH  36  37
ATOM     37  C   UNL A   1      38.472  30.160  29.906  1.00  0.00     0.031 A 
ATOM     38  C   UNL A   1      39.522  29.221  29.380  1.00  0.00     0.074 A 
ATOM     39  C   UNL A   1      38.589  30.684  31.137  1.00  0.00     0.049 A 
ATOM     40  N   UNL A   1      40.546  28.685  29.994  1.00  0.00    -0.248 NA
ATOM     41  C   UNL A   1      39.399  28.834  27.964  1.00  0.00     0.031 C 
ATOM     42  C   UNL A   1      37.682  31.662  31.732  1.00  0.00     0.029 A 
ATOM     43  N   UNL A   1      39.524  30.449  32.115  1.00  0.00    -0.354 N 
ATOM     44  C   UNL A   1      41.181  27.896  29.044  1.00  0.00     0.074 A 
ATOM     45  C   UNL A   1      40.417  28.000  27.820  1.00  0.00     0.031 C 
ATOM     46  C   UNL A   1      38.095  31.932  32.982  1.00  0.00     0.029 A 
ATOM     47  C   UNL A   1      39.269  31.114  33.289  1.00  0.00     0.049 A 
ATOM     48  H   UNL A   1      40.303  29.861  31.986  1.00  0.00     0.167 HD
ATOM     49  C   UNL A   1      42.304  27.155  29.178  1.00  0.00     0.037 A 
ATOM     50  C   UNL A   1      39.896  31.040  34.480  1.00  0.00     0.037 A 
ATOM     51  C   UNL A   1      43.056  27.042  30.400  1.00  0.00     0.049 A 
ATOM     52  C   UNL A   1      41.082  30.122  34.637  1.00  0.00     0.074 A 
ATOM     53  C   UNL A   1      44.199  26.302  30.644  1.00  0.00     0.029 A 
ATOM     54  N   UNL A   1      42.736  27.687  31.586  1.00  0.00    -0.354 N 
ATOM     55  N   UNL A   1      41.669  29.360  33.744  1.00  0.00    -0.248 NA
ATOM     56  C   UNL A   1      41.690  30.050  35.974  1.00  0.00     0.031 C 
ATOM     57  C   UNL A   1      44.541  26.458  31.991  1.00  0.00     0.029 A 
ATOM     58  C   UNL A   1      43.647  27.344  32.571  1.00  0.00     0.049 A 
ATOM     59  H   UNL A   1      41.973  28.297  31.708  1.00  0.00     0.167 HD
ATOM     60  C   UNL A   1      42.725  28.740  34.402  1.00  0.00     0.074 A 
ATOM     61  C   UNL A   1      42.713  29.233  35.763  1.00  0.00     0.031 C 
ATOM     62  C   UNL A   1      43.621  27.840  33.924  1.00  0.00     0.037 A 
BRANCH  49  63
ATOM     63  C   UNL A   1      42.776  26.385  27.980  1.00  0.00     0.064 A 
ATOM     64  C   UNL A   1      43.605  26.968  27.010  1.00  0.00     0.173 A 
ATOM     65  C   UNL A   1      42.434  25.033  27.825  1.00  0.00     0.173 A 
ATOM     66  F   UNL A   1      43.943  28.263  27.101  1.00  0.00    -0.203 F 
ATOM     67  C   UNL A   1      44.062  26.229  25.922  1.00  0.00     0.198 A 
ATOM     68  C   UNL A   1      42.919  24.289  26.752  1.00  0.00     0.198 A 
ATOM     69  F   UNL A   1      41.643  24.427  28.723  1.00  0.00    -0.203 F 
ATOM     70  F   UNL A   1      44.820  26.818  24.987  1.00  0.00    -0.200 F 
ATOM     71  C   UNL A   1      43.729  24.889  25.800  1.00  0.00     0.200 A 
ATOM     72  F   UNL A   1      42.605  22.991  26.642  1.00  0.00    -0.200 F 
ATOM     73  F   UNL A   1      44.184  24.175  24.760  1.00  0.00    -0.200 F 
ENDBRANCH  49  63
BRANCH  50  74
ATOM     74  C   UNL A   1      39.408  31.851  35.628  1.00  0.00     0.064 A 
ATOM     75  C   UNL A   1      38.465  31.330  36.526  1.00  0.00     0.173 A 
ATOM     76  C   UNL A   1      39.858  33.161  35.843  1.00  0.00     0.173 A 
ATOM     77  F   UNL A   1      37.978  30.094  36.344  1.00  0.00    -0.203 F 
ATOM     78  C   UNL A   1      37.987  32.092  37.590  1.00  0.00     0.198 A 
ATOM     79  C   UNL A   1      39.402  33.911  36.926  1.00  0.00     0.198 A 
ATOM     80  F   UNL A   1      40.751  33.711  35.007  1.00  0.00    -0.203 F 
ATOM     81  F   UNL A   1      37.054  31.585  38.408  1.00  0.00    -0.200 F 
ATOM     82  C   UNL A   1      38.462  33.378  37.795  1.00  0.00     0.200 A 
ATOM     83  F   UNL A   1      39.871  35.151  37.124  1.00  0.00    -0.200 F 
ATOM     84  F   UNL A   1      38.009  34.107  38.824  1.00  0.00    -0.200 F 
ENDBRANCH  50  74
BRANCH  62  85
ATOM     85  C   UNL A   1      44.680  27.346  34.871  1.00  0.00     0.064 A 
ATOM     86  C   UNL A   1      44.502  26.183  35.634  1.00  0.00     0.173 A 
ATOM     87  C   UNL A   1      45.905  28.024  34.988  1.00  0.00     0.173 A 
ATOM     88  F   UNL A   1      43.347  25.502  35.567  1.00  0.00    -0.203 F 
ATOM     89  C   UNL A   1      45.494  25.737  36.505  1.00  0.00     0.198 A 
ATOM     90  C   UNL A   1      46.908  27.554  35.831  1.00  0.00     0.198 A 
ATOM     91  F   UNL A   1      46.135  29.135  34.272  1.00  0.00    -0.203 F 
ATOM     92  F   UNL A   1      45.277  24.655  37.266  1.00  0.00    -0.200 F 
ATOM     93  C   UNL A   1      46.698  26.418  36.596  1.00  0.00     0.200 A 
ATOM     94  F   UNL A   1      48.079  28.203  35.904  1.00  0.00    -0.200 F 
ATOM     95  F   UNL A   1      47.653  25.984  37.430  1.00  0.00    -0.200 F 
ENDBRANCH  62  85
ENDBRANCH  36  37
ENDBRANCH  29  31
ENDBRANCH  28  29
ENDBRANCH  27  28
ENDBRANCH  26  27
ENDBRANCH  25  26
ENDBRANCH   1  25
TORSDOF 18
ENDMDL
MODEL 2
REMARK VINA RESULT:     -11.1      2.869      8.091
REMARK SMILES Cc1cc(C)c2c(c1)C=C(C(=O)OCCOCCOCCOC(=O)c1ccc(-c3c4nc(c(-c5c(F)c(F)c(F)c(F)c5F)c5ccc([nH]5)c(-c5c(F)c(F)c(F)c(F)c5F)c5nc(c(-c6c(F)c(F)c(F)c(F)c6F)c6ccc3[nH]6)C=C5)C=C4)cc1)[C@@H](C(F)(F)F)O2
REMARK SMILES IDX 18 1 17 2 16 3 15 4 14 5 13 6 11 7 12 8 10 9 1 10 2 11 3 12
REMARK SMILES IDX 8 13 4 14 7 15 5 16 6 17 9 18 93 19 88 20 89 21 90 22 91 23
REMARK SMILES IDX 92 24 19 25 20 26 21 27 22 28 23 29 24 30 25 31 26 32 87 33
REMARK SMILES IDX 27 34 86 35 28 36 29 37 30 38 80 39 31 40 85 41 79 42 81 43
REMARK SMILES IDX 32 44 84 45 78 46 77 47 33 49 65 50 45 51 64 52 46 53 49 54
REMARK SMILES IDX 63 55 82 56 47 57 48 58 62 60 83 61 50 62 34 63 35 64 43 65
REMARK SMILES IDX 36 66 37 67 41 68 44 69 38 70 39 71 42 72 40 73 66 74 67 75
REMARK SMILES IDX 75 76 68 77 69 78 73 79 76 80 70 81 71 82 74 83 72 84 51 85
REMARK SMILES IDX 52 86 60 87 53 88 54 89 58 90 61 91 55 92 56 93 59 94 57 95
REMARK H PARENT 81 48 49 59
REMARK Flexibility Score: inf
ROOT
ATOM      1  C   UNL A   1      40.608  20.647  26.864  1.00  0.00     0.188 C 
ENDROOT
BRANCH   1   2
ATOM      2  C   UNL A   1      39.687  21.782  26.368  1.00  0.00     0.188 C 
BRANCH   2   3
ATOM      3  O   UNL A   1      38.445  21.486  25.752  1.00  0.00    -0.376 OA
BRANCH   3   4
ATOM      4  C   UNL A   1      37.658  22.522  25.184  1.00  0.00     0.202 C 
BRANCH   4   5
ATOM      5  C   UNL A   1      36.718  23.373  26.052  1.00  0.00     0.261 C 
BRANCH   5   6
ATOM      6  O   UNL A   1      35.734  24.127  25.330  1.00  0.00    -0.460 OA
BRANCH   6   7
ATOM      7  C   UNL A   1      34.504  24.173  25.897  1.00  0.00     0.338 C 
ATOM      8  O   UNL A   1      34.135  23.573  26.892  1.00  0.00    -0.246 OA
BRANCH   7   9
ATOM      9  C   UNL A   1      33.685  25.200  25.219  1.00  0.00     0.087 C 
ATOM     10  C   UNL A   1      31.497  30.908  26.056  1.00  0.00     0.044 C 
ATOM     11  C   UNL A   1      31.693  29.587  25.371  1.00  0.00    -0.050 A 
ATOM     12  C   UNL A   1      30.929  29.266  24.243  1.00  0.00     0.010 A 
ATOM     13  C   UNL A   1      32.615  28.653  25.855  1.00  0.00     0.015 A 
ATOM     14  C   UNL A   1      31.082  28.030  23.594  1.00  0.00    -0.008 A 
ATOM     15  C   UNL A   1      32.763  27.409  25.230  1.00  0.00     0.018 A 
ATOM     16  C   UNL A   1      30.223  27.696  22.406  1.00  0.00     0.048 C 
ATOM     17  C   UNL A   1      32.023  27.110  24.084  1.00  0.00     0.130 A 
ATOM     18  C   UNL A   1      33.624  26.397  25.818  1.00  0.00     0.027 C 
ATOM     19  O   UNL A   1      32.155  25.938  23.393  1.00  0.00    -0.475 OA
ATOM     20  C   UNL A   1      32.982  24.872  23.932  1.00  0.00     0.316 C 
BRANCH  20  21
ATOM     21  C   UNL A   1      32.119  23.608  24.040  1.00  0.00     0.430 C 
ATOM     22  F   UNL A   1      32.887  22.492  24.104  1.00  0.00    -0.167 F 
ATOM     23  F   UNL A   1      31.354  23.614  25.156  1.00  0.00    -0.167 F 
ATOM     24  F   UNL A   1      31.290  23.469  22.981  1.00  0.00    -0.167 F 
ENDBRANCH  20  21
ENDBRANCH   7   9
ENDBRANCH   6   7
ENDBRANCH   5   6
ENDBRANCH   4   5
ENDBRANCH   3   4
ENDBRANCH   2   3
ENDBRANCH   1   2
BRANCH   1  25
ATOM     25  O   UNL A   1      41.945  21.004  27.106  1.00  0.00    -0.376 OA
BRANCH  25  26
ATOM     26  C   UNL A   1      42.930  20.805  26.105  1.00  0.00     0.202 C 
BRANCH  26  27
ATOM     27  C   UNL A   1      43.528  21.895  25.189  1.00  0.00     0.261 C 
BRANCH  27  28
ATOM     28  O   UNL A   1      42.842  23.144  25.069  1.00  0.00    -0.460 OA
BRANCH  28  29
ATOM     29  C   UNL A   1      43.602  24.259  25.185  1.00  0.00     0.338 C 
ATOM     30  O   UNL A   1      44.612  24.536  24.567  1.00  0.00    -0.246 OA
BRANCH  29  31
ATOM     31  C   UNL A   1      42.900  25.211  26.069  1.00  0.00     0.060 A 
ATOM     32  C   UNL A   1      43.259  26.566  26.022  1.00  0.00     0.016 A 
ATOM     33  C   UNL A   1      41.919  24.766  26.955  1.00  0.00     0.016 A 
ATOM     34  C   UNL A   1      42.658  27.479  26.886  1.00  0.00     0.010 A 
ATOM     35  C   UNL A   1      41.341  25.675  27.845  1.00  0.00     0.010 A 
ATOM     36  C   UNL A   1      41.734  27.027  27.837  1.00  0.00    -0.014 A 
BRANCH  36  37
ATOM     37  C   UNL A   1      41.360  27.899  28.975  1.00  0.00     0.031 A 
ATOM     38  C   UNL A   1      42.172  27.795  30.236  1.00  0.00     0.074 A 
ATOM     39  C   UNL A   1      40.341  28.770  28.897  1.00  0.00     0.049 A 
ATOM     40  N   UNL A   1      41.978  28.354  31.403  1.00  0.00    -0.248 NA
ATOM     41  C   UNL A   1      43.370  26.940  30.169  1.00  0.00     0.031 C 
ATOM     42  C   UNL A   1      39.528  29.021  27.710  1.00  0.00     0.029 A 
ATOM     43  N   UNL A   1      39.810  29.600  29.854  1.00  0.00    -0.354 N 
ATOM     44  C   UNL A   1      43.021  27.914  32.207  1.00  0.00     0.074 A 
ATOM     45  C   UNL A   1      43.832  27.023  31.407  1.00  0.00     0.031 C 
ATOM     46  C   UNL A   1      38.587  29.931  28.013  1.00  0.00     0.029 A 
ATOM     47  C   UNL A   1      38.705  30.294  29.425  1.00  0.00     0.049 A 
ATOM     48  H   UNL A   1      40.185  29.689  30.760  1.00  0.00     0.167 HD
ATOM     49  C   UNL A   1      43.283  28.230  33.496  1.00  0.00     0.037 A 
ATOM     50  C   UNL A   1      37.870  31.102  30.110  1.00  0.00     0.037 A 
ATOM     51  C   UNL A   1      42.468  29.107  34.294  1.00  0.00     0.049 A 
ATOM     52  C   UNL A   1      38.119  31.352  31.577  1.00  0.00     0.074 A 
ATOM     53  C   UNL A   1      42.637  29.477  35.616  1.00  0.00     0.029 A 
ATOM     54  N   UNL A   1      41.324  29.749  33.842  1.00  0.00    -0.354 N 
ATOM     55  N   UNL A   1      39.094  30.920  32.341  1.00  0.00    -0.248 NA
ATOM     56  C   UNL A   1      37.145  32.203  32.277  1.00  0.00     0.031 C 
ATOM     57  C   UNL A   1      41.568  30.301  35.980  1.00  0.00     0.029 A 
ATOM     58  C   UNL A   1      40.765  30.495  34.868  1.00  0.00     0.049 A 
ATOM     59  H   UNL A   1      40.963  29.682  32.929  1.00  0.00     0.167 HD
ATOM     60  C   UNL A   1      38.865  31.461  33.601  1.00  0.00     0.074 A 
ATOM     61  C   UNL A   1      37.672  32.275  33.491  1.00  0.00     0.031 C 
ATOM     62  C   UNL A   1      39.575  31.298  34.745  1.00  0.00     0.037 A 
BRANCH  49  63
ATOM     63  C   UNL A   1      44.487  27.603  34.134  1.00  0.00     0.064 A 
ATOM     64  C   UNL A   1      45.755  28.199  34.058  1.00  0.00     0.173 A 
ATOM     65  C   UNL A   1      44.363  26.416  34.871  1.00  0.00     0.173 A 
ATOM     66  F   UNL A   1      45.931  29.324  33.348  1.00  0.00    -0.203 F 
ATOM     67  C   UNL A   1      46.856  27.622  34.685  1.00  0.00     0.198 A 
ATOM     68  C   UNL A   1      45.460  25.858  35.523  1.00  0.00     0.198 A 
ATOM     69  F   UNL A   1      43.174  25.803  34.974  1.00  0.00    -0.203 F 
ATOM     70  F   UNL A   1      48.065  28.188  34.567  1.00  0.00    -0.200 F 
ATOM     71  C   UNL A   1      46.706  26.459  35.426  1.00  0.00     0.200 A 
ATOM     72  F   UNL A   1      45.311  24.741  36.248  1.00  0.00    -0.200 F 
ATOM     73  F   UNL A   1      47.764  25.914  36.044  1.00  0.00    -0.200 F 
ENDBRANCH  49  63
BRANCH  50  74
ATOM     74  C   UNL A   1      36.709  31.726  29.421  1.00  0.00     0.064 A 
ATOM     75  C   UNL A   1      36.703  33.095  29.121  1.00  0.00     0.173 A 
ATOM     76  C   UNL A   1      35.581  30.975  29.062  1.00  0.00     0.173 A 
ATOM     77  F   UNL A   1      37.744  33.863  29.473  1.00  0.00    -0.203 F 
ATOM     78  C   UNL A   1      35.609  33.690  28.496  1.00  0.00     0.198 A 
ATOM     79  C   UNL A   1      34.500  31.565  28.409  1.00  0.00     0.198 A 
ATOM     80  F   UNL A   1      35.531  29.663  29.336  1.00  0.00    -0.203 F 
ATOM     81  F   UNL A   1      35.612  35.009  28.260  1.00  0.00    -0.200 F 
ATOM     82  C   UNL A   1      34.513  32.924  28.132  1.00  0.00     0.200 A 
ATOM     83  F   UNL A   1      33.446  30.818  28.052  1.00  0.00    -0.200 F 
ATOM     84  F   UNL A   1      33.465  33.495  27.522  1.00  0.00    -0.200 F 
ENDBRANCH  50  74
BRANCH  62  85
ATOM     85  C   UNL A   1      39.096  32.030  35.969  1.00  0.00     0.064 A 
ATOM     86  C   UNL A   1      38.221  31.434  36.889  1.00  0.00     0.173 A 
ATOM     87  C   UNL A   1      39.548  33.331  36.244  1.00  0.00     0.173 A 
ATOM     88  F   UNL A   1      37.751  30.197  36.671  1.00  0.00    -0.203 F 
ATOM     89  C   UNL A   1      37.790  32.125  38.020  1.00  0.00     0.198 A 
ATOM     90  C   UNL A   1      39.144  34.004  37.393  1.00  0.00     0.198 A 
ATOM     91  F   UNL A   1      40.396  33.945  35.405  1.00  0.00    -0.203 F 
ATOM     92  F   UNL A   1      36.909  31.556  38.854  1.00  0.00    -0.200 F 
ATOM     93  C   UNL A   1      38.258  33.405  38.274  1.00  0.00     0.200 A 
ATOM     94  F   UNL A   1      39.612  35.234  37.648  1.00  0.00    -0.200 F 
ATOM     95  F   UNL A   1      37.846  34.066  39.365  1.00  0.00    -0.200 F 
ENDBRANCH  62  85
ENDBRANCH  36  37
ENDBRANCH  29  31
ENDBRANCH  28  29
ENDBRANCH  27  28
ENDBRANCH  26  27
ENDBRANCH  25  26
ENDBRANCH   1  25
TORSDOF 18
ENDMDL
MODEL 3
REMARK VINA RESULT:     -11.0      0.660      2.110
REMARK SMILES Cc1cc(C)c2c(c1)C=C(C(=O)OCCOCCOCCOC(=O)c1ccc(-c3c4nc(c(-c5c(F)c(F)c(F)c(F)c5F)c5ccc([nH]5)c(-c5c(F)c(F)c(F)c(F)c5F)c5nc(c(-c6c(F)c(F)c(F)c(F)c6F)c6ccc3[nH]6)C=C5)C=C4)cc1)[C@@H](C(F)(F)F)O2
REMARK SMILES IDX 18 1 17 2 16 3 15 4 14 5 13 6 11 7 12 8 10 9 1 10 2 11 3 12
REMARK SMILES IDX 8 13 4 14 7 15 5 16 6 17 9 18 93 19 88 20 89 21 90 22 91 23
REMARK SMILES IDX 92 24 19 25 20 26 21 27 22 28 23 29 24 30 25 31 26 32 87 33
REMARK SMILES IDX 27 34 86 35 28 36 29 37 30 38 80 39 31 40 85 41 79 42 81 43
REMARK SMILES IDX 32 44 84 45 78 46 77 47 33 49 65 50 45 51 64 52 46 53 49 54
REMARK SMILES IDX 63 55 82 56 47 57 48 58 62 60 83 61 50 62 34 63 35 64 43 65
REMARK SMILES IDX 36 66 37 67 41 68 44 69 38 70 39 71 42 72 40 73 66 74 67 75
REMARK SMILES IDX 75 76 68 77 69 78 73 79 76 80 70 81 71 82 74 83 72 84 51 85
REMARK SMILES IDX 52 86 60 87 53 88 54 89 58 90 61 91 55 92 56 93 59 94 57 95
REMARK H PARENT 81 48 49 59
REMARK Flexibility Score: inf
ROOT
ATOM      1  C   UNL A   1      30.020  28.124  23.501  1.00  0.00     0.188 C 
ENDROOT
BRANCH   1   2
ATOM      2  C   UNL A   1      30.855  27.488  22.369  1.00  0.00     0.188 C 
BRANCH   2   3
ATOM      3  O   UNL A   1      32.009  26.721  22.668  1.00  0.00    -0.376 OA
BRANCH   3   4
ATOM      4  C   UNL A   1      31.888  25.364  23.068  1.00  0.00     0.202 C 
BRANCH   4   5
ATOM      5  C   UNL A   1      31.142  24.980  24.356  1.00  0.00     0.261 C 
BRANCH   5   6
ATOM      6  O   UNL A   1      31.977  24.750  25.500  1.00  0.00    -0.460 OA
BRANCH   6   7
ATOM      7  C   UNL A   1      31.942  23.492  26.002  1.00  0.00     0.338 C 
ATOM      8  O   UNL A   1      30.951  22.862  26.330  1.00  0.00    -0.246 OA
BRANCH   7   9
ATOM      9  C   UNL A   1      33.297  22.902  25.956  1.00  0.00     0.087 C 
ATOM     10  C   UNL A   1      39.241  24.512  26.337  1.00  0.00     0.044 C 
ATOM     11  C   UNL A   1      38.063  23.606  26.131  1.00  0.00    -0.050 A 
ATOM     12  C   UNL A   1      38.260  22.296  25.679  1.00  0.00     0.010 A 
ATOM     13  C   UNL A   1      36.759  24.054  26.363  1.00  0.00     0.015 A 
ATOM     14  C   UNL A   1      37.174  21.433  25.464  1.00  0.00    -0.008 A 
ATOM     15  C   UNL A   1      35.664  23.212  26.133  1.00  0.00     0.018 A 
ATOM     16  C   UNL A   1      37.411  20.043  24.942  1.00  0.00     0.048 C 
ATOM     17  C   UNL A   1      35.872  21.895  25.715  1.00  0.00     0.130 A 
ATOM     18  C   UNL A   1      34.311  23.728  26.247  1.00  0.00     0.027 C 
ATOM     19  O   UNL A   1      34.854  21.002  25.522  1.00  0.00    -0.475 OA
ATOM     20  C   UNL A   1      33.475  21.453  25.599  1.00  0.00     0.316 C 
BRANCH  20  21
ATOM     21  C   UNL A   1      32.779  21.082  24.284  1.00  0.00     0.430 C 
ATOM     22  F   UNL A   1      33.414  20.058  23.663  1.00  0.00    -0.167 F 
ATOM     23  F   UNL A   1      31.503  20.679  24.485  1.00  0.00    -0.167 F 
ATOM     24  F   UNL A   1      32.743  22.121  23.419  1.00  0.00    -0.167 F 
ENDBRANCH  20  21
ENDBRANCH   7   9
ENDBRANCH   6   7
ENDBRANCH   5   6
ENDBRANCH   4   5
ENDBRANCH   3   4
ENDBRANCH   2   3
ENDBRANCH   1   2
BRANCH   1  25
ATOM     25  O   UNL A   1      30.508  29.335  24.016  1.00  0.00    -0.376 OA
BRANCH  25  26
ATOM     26  C   UNL A   1      31.496  29.333  25.034  1.00  0.00     0.202 C 
BRANCH  26  27
ATOM     27  C   UNL A   1      31.745  30.457  26.063  1.00  0.00     0.261 C 
BRANCH  27  28
ATOM     28  O   UNL A   1      32.845  30.330  26.967  1.00  0.00    -0.460 OA
BRANCH  28  29
ATOM     29  C   UNL A   1      33.469  31.480  27.318  1.00  0.00     0.338 C 
ATOM     30  O   UNL A   1      32.989  32.597  27.372  1.00  0.00    -0.246 OA
BRANCH  29  31
ATOM     31  C   UNL A   1      34.815  31.145  27.824  1.00  0.00     0.060 A 
ATOM     32  C   UNL A   1      35.102  29.809  28.140  1.00  0.00     0.016 A 
ATOM     33  C   UNL A   1      35.772  32.141  28.010  1.00  0.00     0.016 A 
ATOM     34  C   UNL A   1      36.343  29.469  28.677  1.00  0.00     0.010 A 
ATOM     35  C   UNL A   1      37.004  31.806  28.578  1.00  0.00     0.010 A 
ATOM     36  C   UNL A   1      37.279  30.475  28.946  1.00  0.00    -0.014 A 
BRANCH  36  37
ATOM     37  C   UNL A   1      38.436  30.189  29.827  1.00  0.00     0.031 A 
ATOM     38  C   UNL A   1      39.507  29.273  29.302  1.00  0.00     0.074 A 
ATOM     39  C   UNL A   1      38.548  30.730  31.051  1.00  0.00     0.049 A 
ATOM     40  N   UNL A   1      40.550  28.772  29.913  1.00  0.00    -0.248 NA
ATOM     41  C   UNL A   1      39.382  28.866  27.892  1.00  0.00     0.031 C 
ATOM     42  C   UNL A   1      37.620  31.689  31.642  1.00  0.00     0.029 A 
ATOM     43  N   UNL A   1      39.498  30.532  32.023  1.00  0.00    -0.354 N 
ATOM     44  C   UNL A   1      41.198  27.990  28.967  1.00  0.00     0.074 A 
ATOM     45  C   UNL A   1      40.421  28.059  27.749  1.00  0.00     0.031 C 
ATOM     46  C   UNL A   1      38.037  31.985  32.886  1.00  0.00     0.029 A 
ATOM     47  C   UNL A   1      39.235  31.203  33.192  1.00  0.00     0.049 A 
ATOM     48  H   UNL A   1      40.292  29.963  31.894  1.00  0.00     0.167 HD
ATOM     49  C   UNL A   1      42.343  27.281  29.100  1.00  0.00     0.037 A 
ATOM     50  C   UNL A   1      39.873  31.160  34.378  1.00  0.00     0.037 A 
ATOM     51  C   UNL A   1      43.107  27.203  30.316  1.00  0.00     0.049 A 
ATOM     52  C   UNL A   1      41.085  30.276  34.535  1.00  0.00     0.074 A 
ATOM     53  C   UNL A   1      44.272  26.497  30.559  1.00  0.00     0.029 A 
ATOM     54  N   UNL A   1      42.779  27.852  31.497  1.00  0.00    -0.354 N 
ATOM     55  N   UNL A   1      41.685  29.520  33.646  1.00  0.00    -0.248 NA
ATOM     56  C   UNL A   1      41.707  30.236  35.868  1.00  0.00     0.031 C 
ATOM     57  C   UNL A   1      44.621  26.677  31.900  1.00  0.00     0.029 A 
ATOM     58  C   UNL A   1      43.708  27.545  32.478  1.00  0.00     0.049 A 
ATOM     59  H   UNL A   1      42.001  28.443  31.619  1.00  0.00     0.167 HD
ATOM     60  C   UNL A   1      42.763  28.936  34.301  1.00  0.00     0.074 A 
ATOM     61  C   UNL A   1      42.749  29.445  35.657  1.00  0.00     0.031 C 
ATOM     62  C   UNL A   1      43.680  28.056  33.826  1.00  0.00     0.037 A 
BRANCH  49  63
ATOM     63  C   UNL A   1      42.825  26.510  27.906  1.00  0.00     0.064 A 
ATOM     64  C   UNL A   1      42.493  25.160  27.718  1.00  0.00     0.173 A 
ATOM     65  C   UNL A   1      43.589  27.142  26.914  1.00  0.00     0.173 A 
ATOM     66  F   UNL A   1      41.782  24.504  28.648  1.00  0.00    -0.203 F 
ATOM     67  C   UNL A   1      42.920  24.469  26.588  1.00  0.00     0.198 A 
ATOM     68  C   UNL A   1      43.988  26.456  25.769  1.00  0.00     0.198 A 
ATOM     69  F   UNL A   1      43.937  28.432  27.045  1.00  0.00    -0.203 F 
ATOM     70  F   UNL A   1      42.623  23.169  26.448  1.00  0.00    -0.200 F 
ATOM     71  C   UNL A   1      43.656  25.119  25.610  1.00  0.00     0.200 A 
ATOM     72  F   UNL A   1      44.690  27.090  24.820  1.00  0.00    -0.200 F 
ATOM     73  F   UNL A   1      44.052  24.457  24.513  1.00  0.00    -0.200 F 
ENDBRANCH  49  63
BRANCH  50  74
ATOM     74  C   UNL A   1      39.373  31.970  35.521  1.00  0.00     0.064 A 
ATOM     75  C   UNL A   1      39.820  33.284  35.720  1.00  0.00     0.173 A 
ATOM     76  C   UNL A   1      38.453  31.448  36.442  1.00  0.00     0.173 A 
ATOM     77  F   UNL A   1      40.724  33.818  34.886  1.00  0.00    -0.203 F 
ATOM     78  C   UNL A   1      39.372  34.040  36.801  1.00  0.00     0.198 A 
ATOM     79  C   UNL A   1      37.983  32.216  37.505  1.00  0.00     0.198 A 
ATOM     80  F   UNL A   1      38.003  30.192  36.303  1.00  0.00    -0.203 F 
ATOM     81  F   UNL A   1      39.849  35.278  36.993  1.00  0.00    -0.200 F 
ATOM     82  C   UNL A   1      38.447  33.510  37.688  1.00  0.00     0.200 A 
ATOM     83  F   UNL A   1      37.082  31.701  38.354  1.00  0.00    -0.200 F 
ATOM     84  F   UNL A   1      38.010  34.241  38.722  1.00  0.00    -0.200 F 
ENDBRANCH  50  74
BRANCH  62  85
ATOM     85  C   UNL A   1      44.760  27.602  34.768  1.00  0.00     0.064 A 
ATOM     86  C   UNL A   1      45.957  28.318  34.919  1.00  0.00     0.173 A 
ATOM     87  C   UNL A   1      44.580  26.456  35.560  1.00  0.00     0.173 A 
ATOM     88  F   UNL A   1      46.184  29.416  34.181  1.00  0.00    -0.203 F 
ATOM     89  C   UNL A   1      46.946  27.885  35.799  1.00  0.00     0.198 A 
ATOM     90  C   UNL A   1      45.556  26.047  36.465  1.00  0.00     0.198 A 
ATOM     91  F   UNL A   1      43.450  25.739  35.467  1.00  0.00    -0.203 F 
ATOM     92  F   UNL A   1      48.104  28.555  35.882  1.00  0.00    -0.200 F 
ATOM     93  C   UNL A   1      46.741  26.756  36.576  1.00  0.00     0.200 A 
ATOM     94  F   UNL A   1      45.348  24.966  37.230  1.00  0.00    -0.200 F 
ATOM     95  F   UNL A   1      47.692  26.344  37.427  1.00  0.00    -0.200 F 
ENDBRANCH  62  85
ENDBRANCH  36  37
ENDBRANCH  29  31
ENDBRANCH  28  29
ENDBRANCH  27  28
ENDBRANCH  26  27
ENDBRANCH  25  26
ENDBRANCH   1  25
TORSDOF 18
ENDMDL
