MODEL 1
REMARK VINA RESULT:      -9.6      0.000      0.000
REMARK SMILES O=C(C[N@@H+]1CCC[C@@H]1c1ccccc1Cl)OCCOCCOCCOC(=O)c1ccc(-c2c3nc(c(-c4c(F)c(F)c(F)c(F)c4F)c4ccc([nH]4)c(-c4c(F)c(F)c(F)c(F)c4F)c4nc(c(-c5c(F)c(F)c(F)c(F)c5F)c5ccc2[nH]5)C=C4)C=C3)cc1
REMARK SMILES IDX 20 1 19 2 18 3 17 4 16 5 2 6 1 7 3 8 4 9 5 10 8 11 6 13 7 14
REMARK SMILES IDX 9 15 10 16 14 17 11 18 13 19 15 20 12 21 21 22 22 23 23 24
REMARK SMILES IDX 24 25 25 26 26 27 27 28 28 29 29 30 90 31 30 32 89 33 31 34
REMARK SMILES IDX 32 35 33 36 83 37 34 38 88 39 82 40 84 41 35 42 87 43 81 44
REMARK SMILES IDX 80 45 36 47 68 48 48 49 67 50 49 51 52 52 66 53 85 54 50 55
REMARK SMILES IDX 51 56 65 58 86 59 53 60 37 61 38 62 46 63 39 64 40 65 44 66
REMARK SMILES IDX 47 67 41 68 42 69 45 70 43 71 69 72 70 73 78 74 71 75 72 76
REMARK SMILES IDX 76 77 79 78 73 79 74 80 77 81 75 82 54 83 55 84 63 85 56 86
REMARK SMILES IDX 57 87 61 88 64 89 58 90 59 91 62 92 60 93
REMARK H PARENT 4 12 84 46 52 57
REMARK Flexibility Score: inf
ROOT
ATOM      1  C   UNL A   1      43.926  18.486  25.708  1.00  0.00     0.188 C 
ENDROOT
BRANCH   1   2
ATOM      2  O   UNL A   1      44.032  19.179  24.464  1.00  0.00    -0.376 OA
BRANCH   2   3
ATOM      3  C   UNL A   1      45.339  19.580  24.069  1.00  0.00     0.202 C 
BRANCH   3   4
ATOM      4  C   UNL A   1      46.142  20.467  25.028  1.00  0.00     0.261 C 
BRANCH   4   5
ATOM      5  O   UNL A   1      46.669  21.704  24.514  1.00  0.00    -0.459 OA
BRANCH   5   6
ATOM      6  C   UNL A   1      46.009  22.882  24.446  1.00  0.00     0.361 C 
ATOM      7  O   UNL A   1      45.146  23.052  23.583  1.00  0.00    -0.245 OA
BRANCH   6   8
ATOM      8  C   UNL A   1      46.420  24.011  25.376  1.00  0.00     0.387 C 
BRANCH   8   9
ATOM      9  N   UNL A   1      45.536  25.181  25.291  1.00  0.00    -0.319 N 
ATOM     10  C   UNL A   1      46.307  26.356  24.828  1.00  0.00     0.263 C 
ATOM     11  C   UNL A   1      44.878  25.669  26.548  1.00  0.00     0.217 C 
ATOM     12  H   UNL A   1      44.805  24.837  24.669  1.00  0.00     0.349 HD
ATOM     13  C   UNL A   1      46.838  27.000  26.097  1.00  0.00     0.068 C 
ATOM     14  C   UNL A   1      45.698  26.846  27.082  1.00  0.00     0.076 C 
BRANCH  11  15
ATOM     15  C   UNL A   1      44.439  24.708  27.638  1.00  0.00     0.028 A 
ATOM     16  C   UNL A   1      43.191  24.071  27.591  1.00  0.00     0.011 A 
ATOM     17  C   UNL A   1      45.276  24.376  28.724  1.00  0.00     0.050 A 
ATOM     18  C   UNL A   1      42.703  23.364  28.683  1.00  0.00     0.001 A 
ATOM     19  C   UNL A   1      44.808  23.603  29.793  1.00  0.00     0.021 A 
ATOM     20  Cl  UNL A   1      46.941  24.845  28.792  1.00  0.00    -0.084 Cl
ATOM     21  C   UNL A   1      43.500  23.146  29.797  1.00  0.00     0.002 A 
ENDBRANCH  11  15
ENDBRANCH   8   9
ENDBRANCH   6   8
ENDBRANCH   5   6
ENDBRANCH   4   5
ENDBRANCH   3   4
ENDBRANCH   2   3
ENDBRANCH   1   2
BRANCH   1  22
ATOM     22  C   UNL A   1      42.498  18.639  26.239  1.00  0.00     0.188 C 
BRANCH  22  23
ATOM     23  O   UNL A   1      42.358  19.653  27.238  1.00  0.00    -0.376 OA
BRANCH  23  24
ATOM     24  C   UNL A   1      41.074  20.259  27.346  1.00  0.00     0.202 C 
BRANCH  24  25
ATOM     25  C   UNL A   1      40.653  21.102  26.141  1.00  0.00     0.261 C 
BRANCH  25  26
ATOM     26  O   UNL A   1      40.623  22.512  26.407  1.00  0.00    -0.460 OA
BRANCH  26  27
ATOM     27  C   UNL A   1      39.398  23.089  26.356  1.00  0.00     0.338 C 
ATOM     28  O   UNL A   1      38.373  22.645  25.871  1.00  0.00    -0.246 OA
BRANCH  27  29
ATOM     29  C   UNL A   1      39.473  24.402  27.017  1.00  0.00     0.060 A 
ATOM     30  C   UNL A   1      40.067  25.481  26.355  1.00  0.00     0.016 A 
ATOM     31  C   UNL A   1      38.981  24.550  28.316  1.00  0.00     0.016 A 
ATOM     32  C   UNL A   1      40.176  26.719  27.001  1.00  0.00     0.010 A 
ATOM     33  C   UNL A   1      39.059  25.794  28.947  1.00  0.00     0.010 A 
ATOM     34  C   UNL A   1      39.690  26.879  28.309  1.00  0.00    -0.014 A 
BRANCH  34  35
ATOM     35  C   UNL A   1      40.049  28.081  29.106  1.00  0.00     0.031 A 
ATOM     36  C   UNL A   1      41.460  28.175  29.627  1.00  0.00     0.074 A 
ATOM     37  C   UNL A   1      39.169  29.062  29.383  1.00  0.00     0.049 A 
ATOM     38  N   UNL A   1      42.023  29.103  30.358  1.00  0.00    -0.248 NA
ATOM     39  C   UNL A   1      42.348  27.047  29.298  1.00  0.00     0.031 C 
ATOM     40  C   UNL A   1      37.770  29.098  28.968  1.00  0.00     0.029 A 
ATOM     41  N   UNL A   1      39.338  30.228  30.093  1.00  0.00    -0.354 N 
ATOM     42  C   UNL A   1      43.320  28.660  30.584  1.00  0.00     0.074 A 
ATOM     43  C   UNL A   1      43.439  27.355  29.977  1.00  0.00     0.031 C 
ATOM     44  C   UNL A   1      37.208  30.237  29.421  1.00  0.00     0.029 A 
ATOM     45  C   UNL A   1      38.205  31.003  30.166  1.00  0.00     0.049 A 
ATOM     46  H   UNL A   1      40.192  30.483  30.511  1.00  0.00     0.167 HD
ATOM     47  C   UNL A   1      44.338  29.293  31.210  1.00  0.00     0.037 A 
ATOM     48  C   UNL A   1      38.009  32.198  30.761  1.00  0.00     0.037 A 
ATOM     49  C   UNL A   1      44.244  30.601  31.792  1.00  0.00     0.049 A 
ATOM     50  C   UNL A   1      39.155  32.878  31.473  1.00  0.00     0.074 A 
ATOM     51  C   UNL A   1      45.233  31.347  32.406  1.00  0.00     0.029 A 
ATOM     52  N   UNL A   1      43.084  31.359  31.829  1.00  0.00    -0.354 N 
ATOM     53  N   UNL A   1      40.399  32.490  31.609  1.00  0.00    -0.248 NA
ATOM     54  C   UNL A   1      38.866  34.176  32.104  1.00  0.00     0.031 C 
ATOM     55  C   UNL A   1      44.662  32.545  32.849  1.00  0.00     0.029 A 
ATOM     56  C   UNL A   1      43.329  32.561  32.471  1.00  0.00     0.049 A 
ATOM     57  H   UNL A   1      42.217  31.084  31.455  1.00  0.00     0.167 HD
ATOM     58  C   UNL A   1      41.048  33.511  32.295  1.00  0.00     0.074 A 
ATOM     59  C   UNL A   1      40.061  34.539  32.548  1.00  0.00     0.031 C 
ATOM     60  C   UNL A   1      42.345  33.591  32.682  1.00  0.00     0.037 A 
BRANCH  47  61
ATOM     61  C   UNL A   1      45.643  28.557  31.288  1.00  0.00     0.064 A 
ATOM     62  C   UNL A   1      46.617  28.686  30.285  1.00  0.00     0.173 A 
ATOM     63  C   UNL A   1      45.909  27.693  32.359  1.00  0.00     0.173 A 
ATOM     64  F   UNL A   1      46.397  29.484  29.229  1.00  0.00    -0.203 F 
ATOM     65  C   UNL A   1      47.789  27.938  30.327  1.00  0.00     0.198 A 
ATOM     66  C   UNL A   1      47.097  26.971  32.413  1.00  0.00     0.198 A 
ATOM     67  F   UNL A   1      45.010  27.536  33.341  1.00  0.00    -0.203 F 
ATOM     68  F   UNL A   1      48.671  28.019  29.322  1.00  0.00    -0.200 F 
ATOM     69  C   UNL A   1      48.030  27.084  31.393  1.00  0.00     0.200 A 
ATOM     70  F   UNL A   1      47.333  26.151  33.447  1.00  0.00    -0.200 F 
ATOM     71  F   UNL A   1      49.155  26.357  31.428  1.00  0.00    -0.200 F 
ENDBRANCH  47  61
BRANCH  48  72
ATOM     72  C   UNL A   1      36.684  32.872  30.685  1.00  0.00     0.064 A 
ATOM     73  C   UNL A   1      36.328  33.622  29.554  1.00  0.00     0.173 A 
ATOM     74  C   UNL A   1      35.781  32.841  31.756  1.00  0.00     0.173 A 
ATOM     75  F   UNL A   1      37.173  33.708  28.516  1.00  0.00    -0.203 F 
ATOM     76  C   UNL A   1      35.133  34.336  29.509  1.00  0.00     0.198 A 
ATOM     77  C   UNL A   1      34.574  33.537  31.701  1.00  0.00     0.198 A 
ATOM     78  F   UNL A   1      36.077  32.145  32.864  1.00  0.00    -0.203 F 
ATOM     79  F   UNL A   1      34.845  35.091  28.439  1.00  0.00    -0.200 F 
ATOM     80  C   UNL A   1      34.256  34.293  30.581  1.00  0.00     0.200 A 
ATOM     81  F   UNL A   1      33.728  33.489  32.738  1.00  0.00    -0.200 F 
ATOM     82  F   UNL A   1      33.112  34.989  30.544  1.00  0.00    -0.200 F 
ENDBRANCH  48  72
BRANCH  60  83
ATOM     83  C   UNL A   1      42.799  34.851  33.359  1.00  0.00     0.064 A 
ATOM     84  C   UNL A   1      43.227  35.970  32.630  1.00  0.00     0.173 A 
ATOM     85  C   UNL A   1      42.745  34.960  34.758  1.00  0.00     0.173 A 
ATOM     86  F   UNL A   1      43.308  35.913  31.292  1.00  0.00    -0.203 F 
ATOM     87  C   UNL A   1      43.601  37.145  33.277  1.00  0.00     0.198 A 
ATOM     88  C   UNL A   1      43.092  36.146  35.399  1.00  0.00     0.198 A 
ATOM     89  F   UNL A   1      42.335  33.921  35.501  1.00  0.00    -0.203 F 
ATOM     90  F   UNL A   1      44.043  38.190  32.562  1.00  0.00    -0.200 F 
ATOM     91  C   UNL A   1      43.526  37.235  34.659  1.00  0.00     0.200 A 
ATOM     92  F   UNL A   1      43.005  36.234  36.733  1.00  0.00    -0.200 F 
ATOM     93  F   UNL A   1      43.875  38.370  35.278  1.00  0.00    -0.200 F 
ENDBRANCH  60  83
ENDBRANCH  34  35
ENDBRANCH  27  29
ENDBRANCH  26  27
ENDBRANCH  25  26
ENDBRANCH  24  25
ENDBRANCH  23  24
ENDBRANCH  22  23
ENDBRANCH   1  22
TORSDOF 19
ENDMDL
MODEL 2
REMARK VINA RESULT:      -9.5      4.426      6.929
REMARK SMILES O=C(C[N@@H+]1CCC[C@@H]1c1ccccc1Cl)OCCOCCOCCOC(=O)c1ccc(-c2c3nc(c(-c4c(F)c(F)c(F)c(F)c4F)c4ccc([nH]4)c(-c4c(F)c(F)c(F)c(F)c4F)c4nc(c(-c5c(F)c(F)c(F)c(F)c5F)c5ccc2[nH]5)C=C4)C=C3)cc1
REMARK SMILES IDX 20 1 19 2 18 3 17 4 16 5 2 6 1 7 3 8 4 9 5 10 8 11 6 13 7 14
REMARK SMILES IDX 9 15 10 16 14 17 11 18 13 19 15 20 12 21 21 22 22 23 23 24
REMARK SMILES IDX 24 25 25 26 26 27 27 28 28 29 29 30 90 31 30 32 89 33 31 34
REMARK SMILES IDX 32 35 33 36 83 37 34 38 88 39 82 40 84 41 35 42 87 43 81 44
REMARK SMILES IDX 80 45 36 47 68 48 48 49 67 50 49 51 52 52 66 53 85 54 50 55
REMARK SMILES IDX 51 56 65 58 86 59 53 60 37 61 38 62 46 63 39 64 40 65 44 66
REMARK SMILES IDX 47 67 41 68 42 69 45 70 43 71 69 72 70 73 78 74 71 75 72 76
REMARK SMILES IDX 76 77 79 78 73 79 74 80 77 81 75 82 54 83 55 84 63 85 56 86
REMARK SMILES IDX 57 87 61 88 64 89 58 90 59 91 62 92 60 93
REMARK H PARENT 4 12 84 46 52 57
REMARK Flexibility Score: inf
ROOT
ATOM      1  C   UNL A   1      40.708  21.338  27.327  1.00  0.00     0.188 C 
ENDROOT
BRANCH   1   2
ATOM      2  O   UNL A   1      39.664  21.828  26.485  1.00  0.00    -0.376 OA
BRANCH   2   3
ATOM      3  C   UNL A   1      39.350  23.211  26.603  1.00  0.00     0.202 C 
BRANCH   3   4
ATOM      4  C   UNL A   1      37.963  23.678  26.144  1.00  0.00     0.261 C 
BRANCH   4   5
ATOM      5  O   UNL A   1      37.076  22.692  25.584  1.00  0.00    -0.459 OA
BRANCH   5   6
ATOM      6  C   UNL A   1      35.924  22.945  24.924  1.00  0.00     0.361 C 
ATOM      7  O   UNL A   1      35.858  23.899  24.147  1.00  0.00    -0.245 OA
BRANCH   6   8
ATOM      8  C   UNL A   1      34.698  22.101  25.234  1.00  0.00     0.387 C 
BRANCH   8   9
ATOM      9  N   UNL A   1      33.455  22.666  24.690  1.00  0.00    -0.319 N 
ATOM     10  C   UNL A   1      33.003  23.788  25.541  1.00  0.00     0.263 C 
ATOM     11  C   UNL A   1      32.247  21.780  24.610  1.00  0.00     0.217 C 
ATOM     12  H   UNL A   1      33.737  22.895  23.738  1.00  0.00     0.349 HD
ATOM     13  C   UNL A   1      32.111  23.148  26.591  1.00  0.00     0.068 C 
ATOM     14  C   UNL A   1      31.363  22.078  25.824  1.00  0.00     0.076 C 
BRANCH  11  15
ATOM     15  C   UNL A   1      32.369  20.295  24.315  1.00  0.00     0.028 A 
ATOM     16  C   UNL A   1      32.531  19.357  25.343  1.00  0.00     0.011 A 
ATOM     17  C   UNL A   1      32.281  19.785  23.003  1.00  0.00     0.050 A 
ATOM     18  C   UNL A   1      32.853  18.034  25.066  1.00  0.00     0.001 A 
ATOM     19  C   UNL A   1      32.535  18.436  22.729  1.00  0.00     0.021 A 
ATOM     20  Cl  UNL A   1      31.803  20.760  21.655  1.00  0.00    -0.084 Cl
ATOM     21  C   UNL A   1      32.878  17.573  23.758  1.00  0.00     0.002 A 
ENDBRANCH  11  15
ENDBRANCH   8   9
ENDBRANCH   6   8
ENDBRANCH   5   6
ENDBRANCH   4   5
ENDBRANCH   3   4
ENDBRANCH   2   3
ENDBRANCH   1   2
BRANCH   1  22
ATOM     22  C   UNL A   1      42.029  21.990  26.907  1.00  0.00     0.188 C 
BRANCH  22  23
ATOM     23  O   UNL A   1      42.387  21.741  25.544  1.00  0.00    -0.376 OA
BRANCH  23  24
ATOM     24  C   UNL A   1      43.762  21.466  25.295  1.00  0.00     0.202 C 
BRANCH  24  25
ATOM     25  C   UNL A   1      44.558  22.629  24.702  1.00  0.00     0.261 C 
BRANCH  25  26
ATOM     26  O   UNL A   1      43.825  23.862  24.652  1.00  0.00    -0.460 OA
BRANCH  26  27
ATOM     27  C   UNL A   1      44.524  24.971  24.998  1.00  0.00     0.338 C 
ATOM     28  O   UNL A   1      45.634  25.310  24.630  1.00  0.00    -0.246 OA
BRANCH  27  29
ATOM     29  C   UNL A   1      43.706  25.764  25.929  1.00  0.00     0.060 A 
ATOM     30  C   UNL A   1      43.947  27.134  26.073  1.00  0.00     0.016 A 
ATOM     31  C   UNL A   1      42.717  25.134  26.689  1.00  0.00     0.016 A 
ATOM     32  C   UNL A   1      43.197  27.880  26.990  1.00  0.00     0.010 A 
ATOM     33  C   UNL A   1      41.945  25.886  27.578  1.00  0.00     0.010 A 
ATOM     34  C   UNL A   1      42.203  27.257  27.763  1.00  0.00    -0.014 A 
BRANCH  34  35
ATOM     35  C   UNL A   1      41.603  27.958  28.929  1.00  0.00     0.031 A 
ATOM     36  C   UNL A   1      42.285  27.798  30.264  1.00  0.00     0.074 A 
ATOM     37  C   UNL A   1      40.488  28.706  28.836  1.00  0.00     0.049 A 
ATOM     38  N   UNL A   1      41.961  28.284  31.434  1.00  0.00    -0.248 NA
ATOM     39  C   UNL A   1      43.485  26.943  30.280  1.00  0.00     0.031 C 
ATOM     40  C   UNL A   1      39.710  28.933  27.621  1.00  0.00     0.029 A 
ATOM     41  N   UNL A   1      39.813  29.414  29.803  1.00  0.00    -0.354 N 
ATOM     42  C   UNL A   1      42.906  27.782  32.319  1.00  0.00     0.074 A 
ATOM     43  C   UNL A   1      43.770  26.901  31.569  1.00  0.00     0.031 C 
ATOM     44  C   UNL A   1      38.669  29.738  27.913  1.00  0.00     0.029 A 
ATOM     45  C   UNL A   1      38.702  30.073  29.336  1.00  0.00     0.049 A 
ATOM     46  H   UNL A   1      40.101  29.446  30.744  1.00  0.00     0.167 HD
ATOM     47  C   UNL A   1      43.069  28.053  33.634  1.00  0.00     0.037 A 
ATOM     48  C   UNL A   1      37.823  30.862  29.988  1.00  0.00     0.037 A 
ATOM     49  C   UNL A   1      42.237  28.949  34.386  1.00  0.00     0.049 A 
ATOM     50  C   UNL A   1      38.012  31.136  31.462  1.00  0.00     0.074 A 
ATOM     51  C   UNL A   1      42.350  29.326  35.712  1.00  0.00     0.029 A 
ATOM     52  N   UNL A   1      41.133  29.609  33.871  1.00  0.00    -0.354 N 
ATOM     53  N   UNL A   1      38.956  30.723  32.271  1.00  0.00    -0.248 NA
ATOM     54  C   UNL A   1      37.011  32.000  32.109  1.00  0.00     0.031 C 
ATOM     55  C   UNL A   1      41.290  30.188  36.010  1.00  0.00     0.029 A 
ATOM     56  C   UNL A   1      40.544  30.381  34.858  1.00  0.00     0.049 A 
ATOM     57  H   UNL A   1      40.814  29.539  32.943  1.00  0.00     0.167 HD
ATOM     58  C   UNL A   1      38.692  31.313  33.503  1.00  0.00     0.074 A 
ATOM     59  C   UNL A   1      37.498  32.114  33.336  1.00  0.00     0.031 C 
ATOM     60  C   UNL A   1      39.377  31.202  34.667  1.00  0.00     0.037 A 
BRANCH  47  61
ATOM     61  C   UNL A   1      44.201  27.360  34.330  1.00  0.00     0.064 A 
ATOM     62  C   UNL A   1      45.487  27.923  34.378  1.00  0.00     0.173 A 
ATOM     63  C   UNL A   1      44.008  26.107  34.928  1.00  0.00     0.173 A 
ATOM     64  F   UNL A   1      45.725  29.110  33.799  1.00  0.00    -0.203 F 
ATOM     65  C   UNL A   1      46.548  27.234  34.956  1.00  0.00     0.198 A 
ATOM     66  C   UNL A   1      45.066  25.436  35.535  1.00  0.00     0.198 A 
ATOM     67  F   UNL A   1      42.799  25.527  34.910  1.00  0.00    -0.203 F 
ATOM     68  F   UNL A   1      47.781  27.757  34.924  1.00  0.00    -0.200 F 
ATOM     69  C   UNL A   1      46.336  25.993  35.537  1.00  0.00     0.200 A 
ATOM     70  F   UNL A   1      44.859  24.239  36.102  1.00  0.00    -0.200 F 
ATOM     71  F   UNL A   1      47.360  25.326  36.086  1.00  0.00    -0.200 F 
ENDBRANCH  47  61
BRANCH  48  72
ATOM     72  C   UNL A   1      36.693  31.500  29.258  1.00  0.00     0.064 A 
ATOM     73  C   UNL A   1      36.691  32.882  29.013  1.00  0.00     0.173 A 
ATOM     74  C   UNL A   1      35.570  30.766  28.855  1.00  0.00     0.173 A 
ATOM     75  F   UNL A   1      37.729  33.633  29.409  1.00  0.00    -0.203 F 
ATOM     76  C   UNL A   1      35.598  33.507  28.417  1.00  0.00     0.198 A 
ATOM     77  C   UNL A   1      34.486  31.388  28.237  1.00  0.00     0.198 A 
ATOM     78  F   UNL A   1      35.519  29.443  29.073  1.00  0.00    -0.203 F 
ATOM     79  F   UNL A   1      35.599  34.837  28.249  1.00  0.00    -0.200 F 
ATOM     80  C   UNL A   1      34.497  32.760  28.029  1.00  0.00     0.200 A 
ATOM     81  F   UNL A   1      33.426  30.663  27.860  1.00  0.00    -0.200 F 
ATOM     82  F   UNL A   1      33.440  33.362  27.467  1.00  0.00    -0.200 F 
ENDBRANCH  48  72
BRANCH  60  83
ATOM     83  C   UNL A   1      38.902  32.010  35.840  1.00  0.00     0.064 A 
ATOM     84  C   UNL A   1      38.156  31.437  36.880  1.00  0.00     0.173 A 
ATOM     85  C   UNL A   1      39.253  33.365  35.952  1.00  0.00     0.173 A 
ATOM     86  F   UNL A   1      37.785  30.150  36.815  1.00  0.00    -0.203 F 
ATOM     87  C   UNL A   1      37.764  32.195  37.981  1.00  0.00     0.198 A 
ATOM     88  C   UNL A   1      38.884  34.112  37.068  1.00  0.00     0.198 A 
ATOM     89  F   UNL A   1      39.972  33.959  34.989  1.00  0.00    -0.203 F 
ATOM     90  F   UNL A   1      37.020  31.636  38.946  1.00  0.00    -0.200 F 
ATOM     91  C   UNL A   1      38.135  33.528  38.078  1.00  0.00     0.200 A 
ATOM     92  F   UNL A   1      39.256  35.395  37.166  1.00  0.00    -0.200 F 
ATOM     93  F   UNL A   1      37.767  34.251  39.144  1.00  0.00    -0.200 F 
ENDBRANCH  60  83
ENDBRANCH  34  35
ENDBRANCH  27  29
ENDBRANCH  26  27
ENDBRANCH  25  26
ENDBRANCH  24  25
ENDBRANCH  23  24
ENDBRANCH  22  23
ENDBRANCH   1  22
TORSDOF 19
ENDMDL
MODEL 3
REMARK VINA RESULT:      -9.5      4.839     10.424
REMARK SMILES O=C(C[N@@H+]1CCC[C@@H]1c1ccccc1Cl)OCCOCCOCCOC(=O)c1ccc(-c2c3nc(c(-c4c(F)c(F)c(F)c(F)c4F)c4ccc([nH]4)c(-c4c(F)c(F)c(F)c(F)c4F)c4nc(c(-c5c(F)c(F)c(F)c(F)c5F)c5ccc2[nH]5)C=C4)C=C3)cc1
REMARK SMILES IDX 20 1 19 2 18 3 17 4 16 5 2 6 1 7 3 8 4 9 5 10 8 11 6 13 7 14
REMARK SMILES IDX 9 15 10 16 14 17 11 18 13 19 15 20 12 21 21 22 22 23 23 24
REMARK SMILES IDX 24 25 25 26 26 27 27 28 28 29 29 30 90 31 30 32 89 33 31 34
REMARK SMILES IDX 32 35 33 36 83 37 34 38 88 39 82 40 84 41 35 42 87 43 81 44
REMARK SMILES IDX 80 45 36 47 68 48 48 49 67 50 49 51 52 52 66 53 85 54 50 55
REMARK SMILES IDX 51 56 65 58 86 59 53 60 37 61 38 62 46 63 39 64 40 65 44 66
REMARK SMILES IDX 47 67 41 68 42 69 45 70 43 71 69 72 70 73 78 74 71 75 72 76
REMARK SMILES IDX 76 77 79 78 73 79 74 80 77 81 75 82 54 83 55 84 63 85 56 86
REMARK SMILES IDX 57 87 61 88 64 89 58 90 59 91 62 92 60 93
REMARK H PARENT 4 12 84 46 52 57
REMARK Flexibility Score: inf
ROOT
ATOM      1  C   UNL A   1      33.371  28.247  26.353  1.00  0.00     0.188 C 
ENDROOT
BRANCH   1   2
ATOM      2  O   UNL A   1      33.035  28.009  24.986  1.00  0.00    -0.376 OA
BRANCH   2   3
ATOM      3  C   UNL A   1      33.689  26.915  24.352  1.00  0.00     0.202 C 
BRANCH   3   4
ATOM      4  C   UNL A   1      33.053  26.332  23.084  1.00  0.00     0.261 C 
BRANCH   4   5
ATOM      5  O   UNL A   1      33.815  25.368  22.335  1.00  0.00    -0.459 OA
BRANCH   5   6
ATOM      6  C   UNL A   1      33.633  24.028  22.346  1.00  0.00     0.361 C 
ATOM      7  O   UNL A   1      33.605  23.403  21.285  1.00  0.00    -0.245 OA
BRANCH   6   8
ATOM      8  C   UNL A   1      33.363  23.334  23.671  1.00  0.00     0.387 C 
BRANCH   8   9
ATOM      9  N   UNL A   1      33.583  21.882  23.619  1.00  0.00    -0.319 N 
ATOM     10  C   UNL A   1      32.297  21.175  23.804  1.00  0.00     0.263 C 
ATOM     11  C   UNL A   1      34.475  21.261  24.653  1.00  0.00     0.217 C 
ATOM     12  H   UNL A   1      34.038  21.780  22.712  1.00  0.00     0.349 HD
ATOM     13  C   UNL A   1      32.171  20.980  25.305  1.00  0.00     0.068 C 
ATOM     14  C   UNL A   1      33.585  20.667  25.747  1.00  0.00     0.076 C 
BRANCH  11  15
ATOM     15  C   UNL A   1      35.684  21.996  25.204  1.00  0.00     0.028 A 
ATOM     16  C   UNL A   1      35.570  23.278  25.756  1.00  0.00     0.011 A 
ATOM     17  C   UNL A   1      36.967  21.410  25.229  1.00  0.00     0.050 A 
ATOM     18  C   UNL A   1      36.696  24.032  26.064  1.00  0.00     0.001 A 
ATOM     19  C   UNL A   1      38.095  22.147  25.607  1.00  0.00     0.021 A 
ATOM     20  Cl  UNL A   1      37.236  19.742  24.853  1.00  0.00    -0.084 Cl
ATOM     21  C   UNL A   1      37.964  23.478  25.970  1.00  0.00     0.002 A 
ENDBRANCH  11  15
ENDBRANCH   8   9
ENDBRANCH   6   8
ENDBRANCH   5   6
ENDBRANCH   4   5
ENDBRANCH   3   4
ENDBRANCH   2   3
ENDBRANCH   1   2
BRANCH   1  22
ATOM     22  C   UNL A   1      32.407  29.291  26.924  1.00  0.00     0.188 C 
BRANCH  22  23
ATOM     23  O   UNL A   1      32.453  30.550  26.246  1.00  0.00    -0.376 OA
BRANCH  23  24
ATOM     24  C   UNL A   1      31.369  31.440  26.497  1.00  0.00     0.202 C 
BRANCH  24  25
ATOM     25  C   UNL A   1      31.771  32.822  27.010  1.00  0.00     0.261 C 
BRANCH  25  26
ATOM     26  O   UNL A   1      33.183  33.076  26.937  1.00  0.00    -0.460 OA
BRANCH  26  27
ATOM     27  C   UNL A   1      33.739  33.610  28.051  1.00  0.00     0.338 C 
ATOM     28  O   UNL A   1      33.358  34.567  28.701  1.00  0.00    -0.246 OA
BRANCH  27  29
ATOM     29  C   UNL A   1      34.933  32.825  28.398  1.00  0.00     0.060 A 
ATOM     30  C   UNL A   1      34.807  31.468  28.713  1.00  0.00     0.016 A 
ATOM     31  C   UNL A   1      36.181  33.451  28.445  1.00  0.00     0.016 A 
ATOM     32  C   UNL A   1      35.938  30.731  29.084  1.00  0.00     0.010 A 
ATOM     33  C   UNL A   1      37.315  32.707  28.782  1.00  0.00     0.010 A 
ATOM     34  C   UNL A   1      37.198  31.350  29.140  1.00  0.00    -0.014 A 
BRANCH  34  35
ATOM     35  C   UNL A   1      38.344  30.672  29.800  1.00  0.00     0.031 A 
ATOM     36  C   UNL A   1      38.612  31.004  31.245  1.00  0.00     0.074 A 
ATOM     37  C   UNL A   1      39.142  29.797  29.158  1.00  0.00     0.049 A 
ATOM     38  N   UNL A   1      39.552  30.569  32.045  1.00  0.00    -0.248 NA
ATOM     39  C   UNL A   1      37.706  31.988  31.862  1.00  0.00     0.031 C 
ATOM     40  C   UNL A   1      39.020  29.396  27.759  1.00  0.00     0.029 A 
ATOM     41  N   UNL A   1      40.228  29.088  29.616  1.00  0.00    -0.354 N 
ATOM     42  C   UNL A   1      39.355  31.238  33.246  1.00  0.00     0.074 A 
ATOM     43  C   UNL A   1      38.256  32.155  33.051  1.00  0.00     0.031 C 
ATOM     44  C   UNL A   1      39.987  28.502  27.475  1.00  0.00     0.029 A 
ATOM     45  C   UNL A   1      40.801  28.276  28.668  1.00  0.00     0.049 A 
ATOM     46  H   UNL A   1      40.563  29.158  30.539  1.00  0.00     0.167 HD
ATOM     47  C   UNL A   1      40.004  31.082  34.423  1.00  0.00     0.037 A 
ATOM     48  C   UNL A   1      41.857  27.441  28.765  1.00  0.00     0.037 A 
ATOM     49  C   UNL A   1      41.077  30.154  34.640  1.00  0.00     0.049 A 
ATOM     50  C   UNL A   1      42.581  27.297  30.083  1.00  0.00     0.074 A 
ATOM     51  C   UNL A   1      41.767  29.889  35.808  1.00  0.00     0.029 A 
ATOM     52  N   UNL A   1      41.616  29.338  33.658  1.00  0.00    -0.354 N 
ATOM     53  N   UNL A   1      42.334  27.871  31.235  1.00  0.00    -0.248 NA
ATOM     54  C   UNL A   1      43.726  26.374  30.113  1.00  0.00     0.031 C 
ATOM     55  C   UNL A   1      42.750  28.936  35.526  1.00  0.00     0.029 A 
ATOM     56  C   UNL A   1      42.642  28.577  34.191  1.00  0.00     0.049 A 
ATOM     57  H   UNL A   1      41.314  29.304  32.722  1.00  0.00     0.167 HD
ATOM     58  C   UNL A   1      43.258  27.345  32.132  1.00  0.00     0.074 A 
ATOM     59  C   UNL A   1      44.071  26.405  31.392  1.00  0.00     0.031 C 
ATOM     60  C   UNL A   1      43.419  27.617  33.450  1.00  0.00     0.037 A 
BRANCH  47  61
ATOM     61  C   UNL A   1      39.553  31.948  35.561  1.00  0.00     0.064 A 
ATOM     62  C   UNL A   1      40.160  33.186  35.824  1.00  0.00     0.173 A 
ATOM     63  C   UNL A   1      38.526  31.522  36.414  1.00  0.00     0.173 A 
ATOM     64  F   UNL A   1      41.162  33.625  35.048  1.00  0.00    -0.203 F 
ATOM     65  C   UNL A   1      39.787  33.944  36.930  1.00  0.00     0.198 A 
ATOM     66  C   UNL A   1      38.135  32.298  37.500  1.00  0.00     0.198 A 
ATOM     67  F   UNL A   1      37.916  30.347  36.204  1.00  0.00    -0.203 F 
ATOM     68  F   UNL A   1      40.431  35.086  37.206  1.00  0.00    -0.200 F 
ATOM     69  C   UNL A   1      38.773  33.501  37.765  1.00  0.00     0.200 A 
ATOM     70  F   UNL A   1      37.149  31.873  38.304  1.00  0.00    -0.200 F 
ATOM     71  F   UNL A   1      38.421  34.226  38.836  1.00  0.00    -0.200 F 
ENDBRANCH  47  61
BRANCH  48  72
ATOM     72  C   UNL A   1      42.288  26.628  27.595  1.00  0.00     0.064 A 
ATOM     73  C   UNL A   1      41.702  25.379  27.338  1.00  0.00     0.173 A 
ATOM     74  C   UNL A   1      43.330  27.043  26.756  1.00  0.00     0.173 A 
ATOM     75  F   UNL A   1      40.722  24.924  28.133  1.00  0.00    -0.203 F 
ATOM     76  C   UNL A   1      42.161  24.565  26.305  1.00  0.00     0.198 A 
ATOM     77  C   UNL A   1      43.773  26.238  25.706  1.00  0.00     0.198 A 
ATOM     78  F   UNL A   1      43.929  28.225  26.962  1.00  0.00    -0.203 F 
ATOM     79  F   UNL A   1      41.622  23.352  26.120  1.00  0.00    -0.200 F 
ATOM     80  C   UNL A   1      43.196  24.995  25.489  1.00  0.00     0.200 A 
ATOM     81  F   UNL A   1      44.771  26.659  24.917  1.00  0.00    -0.200 F 
ATOM     82  F   UNL A   1      43.646  24.209  24.503  1.00  0.00    -0.200 F 
ENDBRANCH  48  72
BRANCH  60  83
ATOM     83  C   UNL A   1      44.465  26.847  34.203  1.00  0.00     0.064 A 
ATOM     84  C   UNL A   1      45.769  27.335  34.366  1.00  0.00     0.173 A 
ATOM     85  C   UNL A   1      44.136  25.631  34.823  1.00  0.00     0.173 A 
ATOM     86  F   UNL A   1      46.136  28.487  33.784  1.00  0.00    -0.203 F 
ATOM     87  C   UNL A   1      46.711  26.626  35.107  1.00  0.00     0.198 A 
ATOM     88  C   UNL A   1      45.073  24.938  35.586  1.00  0.00     0.198 A 
ATOM     89  F   UNL A   1      42.900  25.124  34.704  1.00  0.00    -0.203 F 
ATOM     90  F   UNL A   1      47.963  27.093  35.218  1.00  0.00    -0.200 F 
ATOM     91  C   UNL A   1      46.361  25.433  35.722  1.00  0.00     0.200 A 
ATOM     92  F   UNL A   1      44.727  23.794  36.191  1.00  0.00    -0.200 F 
ATOM     93  F   UNL A   1      47.265  24.758  36.444  1.00  0.00    -0.200 F 
ENDBRANCH  60  83
ENDBRANCH  34  35
ENDBRANCH  27  29
ENDBRANCH  26  27
ENDBRANCH  25  26
ENDBRANCH  24  25
ENDBRANCH  23  24
ENDBRANCH  22  23
ENDBRANCH   1  22
TORSDOF 19
ENDMDL
