MODEL 1
REMARK VINA RESULT:      -9.8      0.000      0.000
REMARK SMILES C#CCNC(=O)C[N@@H+](CC(=O)OCCOCCOCCOC(=O)c1ccc(-c2c3nc(c(-c4c(F)c(F)c(F)c(F)c4F)c4ccc([nH]4)c(-c4c(F)c(F)c(F)c(F)c4F)c4nc(c(-c5c(F)c(F)c(F)c(F)c5F)c5ccc2[nH]5)C=C4)C=C3)cc1)C(C)(C)C
REMARK SMILES IDX 15 1 14 2 13 3 12 4 10 5 11 6 9 7 8 8 7 10 5 11 4 12 6 14
REMARK SMILES IDX 3 15 2 16 1 17 87 18 88 19 89 20 90 21 16 22 17 23 18 24
REMARK SMILES IDX 19 25 20 26 21 27 22 28 23 29 24 30 25 31 86 32 26 33 85 34
REMARK SMILES IDX 27 35 28 36 29 37 79 38 30 39 84 40 78 41 80 42 31 43 83 44
REMARK SMILES IDX 77 45 76 46 32 48 64 49 44 50 63 51 45 52 48 53 62 54 81 55
REMARK SMILES IDX 46 56 47 57 61 59 82 60 49 61 33 62 34 63 42 64 35 65 36 66
REMARK SMILES IDX 40 67 43 68 37 69 38 70 41 71 39 72 65 73 66 74 74 75 67 76
REMARK SMILES IDX 68 77 72 78 75 79 69 80 70 81 73 82 71 83 50 84 51 85 59 86
REMARK SMILES IDX 52 87 53 88 57 89 60 90 54 91 55 92 58 93 56 94
REMARK H PARENT 8 9 4 13 80 47 48 58
REMARK Flexibility Score: inf
ROOT
ATOM      1  O   UNL A   1      31.873  26.276  23.155  1.00  0.00    -0.376 OA
ENDROOT
BRANCH   1   2
ATOM      2  C   UNL A   1      32.804  25.222  22.913  1.00  0.00     0.202 C 
BRANCH   2   3
ATOM      3  C   UNL A   1      34.023  25.122  23.850  1.00  0.00     0.261 C 
BRANCH   3   4
ATOM      4  O   UNL A   1      33.780  25.178  25.282  1.00  0.00    -0.459 OA
BRANCH   4   5
ATOM      5  C   UNL A   1      33.426  24.002  25.866  1.00  0.00     0.361 C 
ATOM      6  O   UNL A   1      32.273  23.748  26.218  1.00  0.00    -0.245 OA
BRANCH   5   7
ATOM      7  C   UNL A   1      34.543  22.999  26.185  1.00  0.00     0.387 C 
BRANCH   7   8
ATOM      8  N   UNL A   1      35.102  22.055  25.173  1.00  0.00    -0.314 N 
ATOM      9  H   UNL A   1      34.869  22.448  24.261  1.00  0.00     0.349 HD
BRANCH   8  10
ATOM     10  C   UNL A   1      34.389  20.759  25.187  1.00  0.00     0.364 C 
BRANCH  10  11
ATOM     11  C   UNL A   1      33.172  20.719  24.263  1.00  0.00     0.275 C 
ATOM     12  N   UNL A   1      32.340  19.636  24.321  1.00  0.00    -0.340 N 
ATOM     13  H   UNL A   1      31.473  19.697  23.857  1.00  0.00     0.164 HD
ATOM     14  O   UNL A   1      32.938  21.622  23.459  1.00  0.00    -0.268 OA
BRANCH  12  15
ATOM     15  C   UNL A   1      32.639  18.422  25.007  1.00  0.00     0.206 C 
BRANCH  15  16
ATOM     16  C   UNL A   1      33.550  17.425  24.310  1.00  0.00    -0.085 C 
ATOM     17  C   UNL A   1      34.331  16.569  23.713  1.00  0.00     0.006 C 
ENDBRANCH  15  16
ENDBRANCH  12  15
ENDBRANCH  10  11
ENDBRANCH   8  10
BRANCH   8  18
ATOM     18  C   UNL A   1      36.558  22.103  24.881  1.00  0.00     0.090 C 
ATOM     19  C   UNL A   1      36.649  22.675  23.497  1.00  0.00     0.078 C 
ATOM     20  C   UNL A   1      37.544  23.002  25.694  1.00  0.00     0.078 C 
ATOM     21  C   UNL A   1      37.150  20.674  24.994  1.00  0.00     0.078 C 
ENDBRANCH   8  18
ENDBRANCH   7   8
ENDBRANCH   5   7
ENDBRANCH   4   5
ENDBRANCH   3   4
ENDBRANCH   2   3
ENDBRANCH   1   2
BRANCH   1  22
ATOM     22  C   UNL A   1      30.728  25.935  23.921  1.00  0.00     0.188 C 
BRANCH  22  23
ATOM     23  C   UNL A   1      30.565  26.676  25.262  1.00  0.00     0.188 C 
BRANCH  23  24
ATOM     24  O   UNL A   1      31.545  27.687  25.468  1.00  0.00    -0.376 OA
BRANCH  24  25
ATOM     25  C   UNL A   1      31.203  29.058  25.264  1.00  0.00     0.202 C 
BRANCH  25  26
ATOM     26  C   UNL A   1      32.248  30.150  25.508  1.00  0.00     0.261 C 
BRANCH  26  27
ATOM     27  O   UNL A   1      32.512  30.425  26.901  1.00  0.00    -0.460 OA
BRANCH  27  28
ATOM     28  C   UNL A   1      33.094  31.606  27.207  1.00  0.00     0.338 C 
ATOM     29  O   UNL A   1      32.570  32.710  27.187  1.00  0.00    -0.246 OA
BRANCH  28  30
ATOM     30  C   UNL A   1      34.429  31.326  27.796  1.00  0.00     0.060 A 
ATOM     31  C   UNL A   1      34.758  30.005  28.114  1.00  0.00     0.016 A 
ATOM     32  C   UNL A   1      35.363  32.330  28.024  1.00  0.00     0.016 A 
ATOM     33  C   UNL A   1      35.993  29.663  28.654  1.00  0.00     0.010 A 
ATOM     34  C   UNL A   1      36.599  32.001  28.601  1.00  0.00     0.010 A 
ATOM     35  C   UNL A   1      36.914  30.668  28.940  1.00  0.00    -0.014 A 
BRANCH  35  36
ATOM     36  C   UNL A   1      38.097  30.350  29.778  1.00  0.00     0.031 A 
ATOM     37  C   UNL A   1      39.138  29.426  29.211  1.00  0.00     0.074 A 
ATOM     38  C   UNL A   1      38.287  30.909  30.988  1.00  0.00     0.049 A 
ATOM     39  N   UNL A   1      40.163  28.864  29.798  1.00  0.00    -0.248 NA
ATOM     40  C   UNL A   1      39.002  29.089  27.784  1.00  0.00     0.031 C 
ATOM     41  C   UNL A   1      37.423  31.912  31.608  1.00  0.00     0.029 A 
ATOM     42  N   UNL A   1      39.276  30.698  31.919  1.00  0.00    -0.354 N 
ATOM     43  C   UNL A   1      40.760  28.070  28.827  1.00  0.00     0.074 A 
ATOM     44  C   UNL A   1      39.989  28.222  27.615  1.00  0.00     0.031 C 
ATOM     45  C   UNL A   1      37.905  32.208  32.828  1.00  0.00     0.029 A 
ATOM     46  C   UNL A   1      39.071  31.372  33.100  1.00  0.00     0.049 A 
ATOM     47  H   UNL A   1      40.056  30.119  31.757  1.00  0.00     0.167 HD
ATOM     48  C   UNL A   1      41.853  27.280  28.945  1.00  0.00     0.037 A 
ATOM     49  C   UNL A   1      39.719  31.279  34.279  1.00  0.00     0.037 A 
ATOM     50  C   UNL A   1      42.642  27.165  30.142  1.00  0.00     0.049 A 
ATOM     51  C   UNL A   1      40.883  30.326  34.409  1.00  0.00     0.074 A 
ATOM     52  C   UNL A   1      43.778  26.405  30.355  1.00  0.00     0.029 A 
ATOM     53  N   UNL A   1      42.379  27.834  31.329  1.00  0.00    -0.354 N 
ATOM     54  N   UNL A   1      41.427  29.549  33.502  1.00  0.00    -0.248 NA
ATOM     55  C   UNL A   1      41.520  30.232  35.730  1.00  0.00     0.031 C 
ATOM     56  C   UNL A   1      44.164  26.561  31.688  1.00  0.00     0.029 A 
ATOM     57  C   UNL A   1      43.314  27.476  32.286  1.00  0.00     0.049 A 
ATOM     58  H   UNL A   1      41.639  28.468  31.469  1.00  0.00     0.167 HD
ATOM     59  C   UNL A   1      42.483  28.903  34.134  1.00  0.00     0.074 A 
ATOM     60  C   UNL A   1      42.517  29.392  35.495  1.00  0.00     0.031 C 
ATOM     61  C   UNL A   1      43.346  27.984  33.634  1.00  0.00     0.037 A 
BRANCH  48  62
ATOM     62  C   UNL A   1      42.234  26.431  27.769  1.00  0.00     0.064 A 
ATOM     63  C   UNL A   1      43.199  26.834  26.836  1.00  0.00     0.173 A 
ATOM     64  C   UNL A   1      41.659  25.160  27.613  1.00  0.00     0.173 A 
ATOM     65  F   UNL A   1      43.764  28.047  26.928  1.00  0.00    -0.203 F 
ATOM     66  C   UNL A   1      43.565  26.000  25.781  1.00  0.00     0.198 A 
ATOM     67  C   UNL A   1      42.050  24.316  26.579  1.00  0.00     0.198 A 
ATOM     68  F   UNL A   1      40.730  24.727  28.480  1.00  0.00    -0.203 F 
ATOM     69  F   UNL A   1      44.461  26.419  24.877  1.00  0.00    -0.200 F 
ATOM     70  C   UNL A   1      43.000  24.738  25.661  1.00  0.00     0.200 A 
ATOM     71  F   UNL A   1      41.513  23.094  26.474  1.00  0.00    -0.200 F 
ATOM     72  F   UNL A   1      43.367  23.930  24.657  1.00  0.00    -0.200 F 
ENDBRANCH  48  62
BRANCH  49  73
ATOM     73  C   UNL A   1      39.246  32.050  35.462  1.00  0.00     0.064 A 
ATOM     74  C   UNL A   1      39.710  33.347  35.723  1.00  0.00     0.173 A 
ATOM     75  C   UNL A   1      38.368  31.477  36.397  1.00  0.00     0.173 A 
ATOM     76  F   UNL A   1      40.576  33.930  34.880  1.00  0.00    -0.203 F 
ATOM     77  C   UNL A   1      39.345  34.026  36.885  1.00  0.00     0.198 A 
ATOM     78  C   UNL A   1      37.972  32.172  37.538  1.00  0.00     0.198 A 
ATOM     79  F   UNL A   1      37.899  30.236  36.205  1.00  0.00    -0.203 F 
ATOM     80  F   UNL A   1      39.864  35.234  37.144  1.00  0.00    -0.200 F 
ATOM     81  C   UNL A   1      38.472  33.439  37.789  1.00  0.00     0.200 A 
ATOM     82  F   UNL A   1      37.120  31.604  38.403  1.00  0.00    -0.200 F 
ATOM     83  F   UNL A   1      38.128  34.089  38.909  1.00  0.00    -0.200 F 
ENDBRANCH  49  73
BRANCH  61  84
ATOM     84  C   UNL A   1      44.435  27.486  34.542  1.00  0.00     0.064 A 
ATOM     85  C   UNL A   1      45.664  28.151  34.661  1.00  0.00     0.173 A 
ATOM     86  C   UNL A   1      44.227  26.347  35.337  1.00  0.00     0.173 A 
ATOM     87  F   UNL A   1      45.919  29.236  33.916  1.00  0.00    -0.203 F 
ATOM     88  C   UNL A   1      46.656  27.675  35.517  1.00  0.00     0.198 A 
ATOM     89  C   UNL A   1      45.206  25.897  36.219  1.00  0.00     0.198 A 
ATOM     90  F   UNL A   1      43.066  25.679  35.272  1.00  0.00    -0.203 F 
ATOM     91  F   UNL A   1      47.844  28.295  35.570  1.00  0.00    -0.200 F 
ATOM     92  C   UNL A   1      46.423  26.555  36.300  1.00  0.00     0.200 A 
ATOM     93  F   UNL A   1      44.971  24.825  36.989  1.00  0.00    -0.200 F 
ATOM     94  F   UNL A   1      47.375  26.105  37.128  1.00  0.00    -0.200 F 
ENDBRANCH  61  84
ENDBRANCH  35  36
ENDBRANCH  28  30
ENDBRANCH  27  28
ENDBRANCH  26  27
ENDBRANCH  25  26
ENDBRANCH  24  25
ENDBRANCH  23  24
ENDBRANCH  22  23
ENDBRANCH   1  22
TORSDOF 23
ENDMDL
MODEL 2
REMARK VINA RESULT:      -9.0      3.171      7.875
REMARK SMILES C#CCNC(=O)C[N@@H+](CC(=O)OCCOCCOCCOC(=O)c1ccc(-c2c3nc(c(-c4c(F)c(F)c(F)c(F)c4F)c4ccc([nH]4)c(-c4c(F)c(F)c(F)c(F)c4F)c4nc(c(-c5c(F)c(F)c(F)c(F)c5F)c5ccc2[nH]5)C=C4)C=C3)cc1)C(C)(C)C
REMARK SMILES IDX 15 1 14 2 13 3 12 4 10 5 11 6 9 7 8 8 7 10 5 11 4 12 6 14
REMARK SMILES IDX 3 15 2 16 1 17 87 18 88 19 89 20 90 21 16 22 17 23 18 24
REMARK SMILES IDX 19 25 20 26 21 27 22 28 23 29 24 30 25 31 86 32 26 33 85 34
REMARK SMILES IDX 27 35 28 36 29 37 79 38 30 39 84 40 78 41 80 42 31 43 83 44
REMARK SMILES IDX 77 45 76 46 32 48 64 49 44 50 63 51 45 52 48 53 62 54 81 55
REMARK SMILES IDX 46 56 47 57 61 59 82 60 49 61 33 62 34 63 42 64 35 65 36 66
REMARK SMILES IDX 40 67 43 68 37 69 38 70 41 71 39 72 65 73 66 74 74 75 67 76
REMARK SMILES IDX 68 77 72 78 75 79 69 80 70 81 73 82 71 83 50 84 51 85 59 86
REMARK SMILES IDX 52 87 53 88 57 89 60 90 54 91 55 92 58 93 56 94
REMARK H PARENT 8 9 4 13 80 47 48 58
REMARK Flexibility Score: inf
ROOT
ATOM      1  O   UNL A   1      30.834  28.034  22.624  1.00  0.00    -0.376 OA
ENDROOT
BRANCH   1   2
ATOM      2  C   UNL A   1      30.638  26.622  22.588  1.00  0.00     0.202 C 
BRANCH   2   3
ATOM      3  C   UNL A   1      31.715  25.737  23.244  1.00  0.00     0.261 C 
BRANCH   3   4
ATOM      4  O   UNL A   1      32.326  24.701  22.428  1.00  0.00    -0.459 OA
BRANCH   4   5
ATOM      5  C   UNL A   1      33.375  24.047  22.994  1.00  0.00     0.361 C 
ATOM      6  O   UNL A   1      34.399  23.757  22.373  1.00  0.00    -0.245 OA
BRANCH   5   7
ATOM      7  C   UNL A   1      33.217  23.565  24.442  1.00  0.00     0.387 C 
BRANCH   7   8
ATOM      8  N   UNL A   1      33.659  22.216  24.903  1.00  0.00    -0.314 N 
ATOM      9  H   UNL A   1      34.208  21.822  24.139  1.00  0.00     0.349 HD
BRANCH   8  10
ATOM     10  C   UNL A   1      32.518  21.283  25.029  1.00  0.00     0.364 C 
BRANCH  10  11
ATOM     11  C   UNL A   1      32.368  20.334  23.839  1.00  0.00     0.275 C 
ATOM     12  N   UNL A   1      32.492  18.989  24.054  1.00  0.00    -0.340 N 
ATOM     13  H   UNL A   1      32.222  18.382  23.328  1.00  0.00     0.164 HD
ATOM     14  O   UNL A   1      32.163  20.751  22.699  1.00  0.00    -0.268 OA
BRANCH  12  15
ATOM     15  C   UNL A   1      32.984  18.405  25.259  1.00  0.00     0.206 C 
BRANCH  15  16
ATOM     16  C   UNL A   1      32.999  16.888  25.351  1.00  0.00    -0.085 C 
ATOM     17  C   UNL A   1      33.011  15.588  25.431  1.00  0.00     0.006 C 
ENDBRANCH  15  16
ENDBRANCH  12  15
ENDBRANCH  10  11
ENDBRANCH   8  10
BRANCH   8  18
ATOM     18  C   UNL A   1      34.805  22.124  25.844  1.00  0.00     0.090 C 
ATOM     19  C   UNL A   1      35.697  21.070  25.256  1.00  0.00     0.078 C 
ATOM     20  C   UNL A   1      35.787  23.316  26.082  1.00  0.00     0.078 C 
ATOM     21  C   UNL A   1      34.279  21.763  27.257  1.00  0.00     0.078 C 
ENDBRANCH   8  18
ENDBRANCH   7   8
ENDBRANCH   5   7
ENDBRANCH   4   5
ENDBRANCH   3   4
ENDBRANCH   2   3
ENDBRANCH   1   2
BRANCH   1  22
ATOM     22  C   UNL A   1      30.665  28.658  23.888  1.00  0.00     0.188 C 
BRANCH  22  23
ATOM     23  C   UNL A   1      31.936  29.249  24.527  1.00  0.00     0.188 C 
BRANCH  23  24
ATOM     24  O   UNL A   1      31.662  30.261  25.489  1.00  0.00    -0.376 OA
BRANCH  24  25
ATOM     25  C   UNL A   1      31.959  30.029  26.867  1.00  0.00     0.202 C 
BRANCH  25  26
ATOM     26  C   UNL A   1      33.376  29.629  27.286  1.00  0.00     0.261 C 
BRANCH  26  27
ATOM     27  O   UNL A   1      34.354  30.685  27.172  1.00  0.00    -0.460 OA
BRANCH  27  28
ATOM     28  C   UNL A   1      34.923  31.138  28.313  1.00  0.00     0.338 C 
ATOM     29  O   UNL A   1      34.404  31.844  29.163  1.00  0.00    -0.246 OA
BRANCH  28  30
ATOM     30  C   UNL A   1      36.229  30.449  28.483  1.00  0.00     0.060 A 
ATOM     31  C   UNL A   1      36.522  29.861  29.717  1.00  0.00     0.016 A 
ATOM     32  C   UNL A   1      37.157  30.356  27.452  1.00  0.00     0.016 A 
ATOM     33  C   UNL A   1      37.715  29.185  29.947  1.00  0.00     0.010 A 
ATOM     34  C   UNL A   1      38.380  29.707  27.684  1.00  0.00     0.010 A 
ATOM     35  C   UNL A   1      38.676  29.137  28.940  1.00  0.00    -0.014 A 
BRANCH  35  36
ATOM     36  C   UNL A   1      40.051  28.685  29.271  1.00  0.00     0.031 A 
ATOM     37  C   UNL A   1      40.925  29.607  30.074  1.00  0.00     0.074 A 
ATOM     38  C   UNL A   1      40.504  27.464  28.928  1.00  0.00     0.049 A 
ATOM     39  N   UNL A   1      42.201  29.522  30.343  1.00  0.00    -0.248 NA
ATOM     40  C   UNL A   1      40.265  30.790  30.652  1.00  0.00     0.031 C 
ATOM     41  C   UNL A   1      39.726  26.425  28.256  1.00  0.00     0.029 A 
ATOM     42  N   UNL A   1      41.745  26.898  29.095  1.00  0.00    -0.354 N 
ATOM     43  C   UNL A   1      42.506  30.662  31.076  1.00  0.00     0.074 A 
ATOM     44  C   UNL A   1      41.285  31.423  31.211  1.00  0.00     0.031 C 
ATOM     45  C   UNL A   1      40.516  25.358  28.044  1.00  0.00     0.029 A 
ATOM     46  C   UNL A   1      41.868  25.662  28.506  1.00  0.00     0.049 A 
ATOM     47  H   UNL A   1      42.476  27.335  29.589  1.00  0.00     0.167 HD
ATOM     48  C   UNL A   1      43.704  31.039  31.582  1.00  0.00     0.037 A 
ATOM     49  C   UNL A   1      42.960  24.894  28.314  1.00  0.00     0.037 A 
ATOM     50  C   UNL A   1      44.907  30.257  31.481  1.00  0.00     0.049 A 
ATOM     51  C   UNL A   1      44.300  25.378  28.814  1.00  0.00     0.074 A 
ATOM     52  C   UNL A   1      46.165  30.546  31.977  1.00  0.00     0.029 A 
ATOM     53  N   UNL A   1      44.999  29.029  30.842  1.00  0.00    -0.354 N 
ATOM     54  N   UNL A   1      44.596  26.471  29.475  1.00  0.00    -0.248 NA
ATOM     55  C   UNL A   1      45.462  24.521  28.534  1.00  0.00     0.031 C 
ATOM     56  C   UNL A   1      47.034  29.526  31.582  1.00  0.00     0.029 A 
ATOM     57  C   UNL A   1      46.302  28.564  30.904  1.00  0.00     0.049 A 
ATOM     58  H   UNL A   1      44.250  28.558  30.409  1.00  0.00     0.167 HD
ATOM     59  C   UNL A   1      45.963  26.417  29.716  1.00  0.00     0.074 A 
ATOM     60  C   UNL A   1      46.438  25.174  29.148  1.00  0.00     0.031 C 
ATOM     61  C   UNL A   1      46.758  27.316  30.347  1.00  0.00     0.037 A 
BRANCH  48  62
ATOM     62  C   UNL A   1      43.793  32.381  32.245  1.00  0.00     0.064 A 
ATOM     63  C   UNL A   1      44.060  33.555  31.529  1.00  0.00     0.173 A 
ATOM     64  C   UNL A   1      43.543  32.494  33.622  1.00  0.00     0.173 A 
ATOM     65  F   UNL A   1      44.325  33.500  30.215  1.00  0.00    -0.203 F 
ATOM     66  C   UNL A   1      44.088  34.792  32.169  1.00  0.00     0.198 A 
ATOM     67  C   UNL A   1      43.539  33.734  34.253  1.00  0.00     0.198 A 
ATOM     68  F   UNL A   1      43.283  31.399  34.354  1.00  0.00    -0.203 F 
ATOM     69  F   UNL A   1      44.383  35.899  31.472  1.00  0.00    -0.200 F 
ATOM     70  C   UNL A   1      43.815  34.882  33.526  1.00  0.00     0.200 A 
ATOM     71  F   UNL A   1      43.262  33.817  35.561  1.00  0.00    -0.200 F 
ATOM     72  F   UNL A   1      43.823  36.075  34.136  1.00  0.00    -0.200 F 
ENDBRANCH  48  62
BRANCH  49  73
ATOM     73  C   UNL A   1      42.860  23.619  27.550  1.00  0.00     0.064 A 
ATOM     74  C   UNL A   1      43.152  23.563  26.180  1.00  0.00     0.173 A 
ATOM     75  C   UNL A   1      42.403  22.441  28.163  1.00  0.00     0.173 A 
ATOM     76  F   UNL A   1      43.561  24.667  25.537  1.00  0.00    -0.203 F 
ATOM     77  C   UNL A   1      42.959  22.393  25.446  1.00  0.00     0.198 A 
ATOM     78  C   UNL A   1      42.248  21.261  27.438  1.00  0.00     0.198 A 
ATOM     79  F   UNL A   1      42.099  22.437  29.469  1.00  0.00    -0.203 F 
ATOM     80  F   UNL A   1      43.174  22.390  24.124  1.00  0.00    -0.200 F 
ATOM     81  C   UNL A   1      42.512  21.242  26.078  1.00  0.00     0.200 A 
ATOM     82  F   UNL A   1      41.825  20.149  28.055  1.00  0.00    -0.200 F 
ATOM     83  F   UNL A   1      42.318  20.119  25.371  1.00  0.00    -0.200 F 
ENDBRANCH  49  73
BRANCH  61  84
ATOM     84  C   UNL A   1      48.212  26.969  30.508  1.00  0.00     0.064 A 
ATOM     85  C   UNL A   1      48.676  26.204  31.588  1.00  0.00     0.173 A 
ATOM     86  C   UNL A   1      49.146  27.374  29.542  1.00  0.00     0.173 A 
ATOM     87  F   UNL A   1      47.827  25.802  32.545  1.00  0.00    -0.203 F 
ATOM     88  C   UNL A   1      50.027  25.887  31.712  1.00  0.00     0.198 A 
ATOM     89  C   UNL A   1      50.489  27.022  29.650  1.00  0.00     0.198 A 
ATOM     90  F   UNL A   1      48.755  28.097  28.482  1.00  0.00    -0.203 F 
ATOM     91  F   UNL A   1      50.457  25.204  32.783  1.00  0.00    -0.200 F 
ATOM     92  C   UNL A   1      50.930  26.289  30.739  1.00  0.00     0.200 A 
ATOM     93  F   UNL A   1      51.356  27.395  28.698  1.00  0.00    -0.200 F 
ATOM     94  F   UNL A   1      52.227  25.974  30.856  1.00  0.00    -0.200 F 
ENDBRANCH  61  84
ENDBRANCH  35  36
ENDBRANCH  28  30
ENDBRANCH  27  28
ENDBRANCH  26  27
ENDBRANCH  25  26
ENDBRANCH  24  25
ENDBRANCH  23  24
ENDBRANCH  22  23
ENDBRANCH   1  22
TORSDOF 23
ENDMDL
MODEL 3
REMARK VINA RESULT:      -8.8      4.801     10.492
REMARK SMILES C#CCNC(=O)C[N@@H+](CC(=O)OCCOCCOCCOC(=O)c1ccc(-c2c3nc(c(-c4c(F)c(F)c(F)c(F)c4F)c4ccc([nH]4)c(-c4c(F)c(F)c(F)c(F)c4F)c4nc(c(-c5c(F)c(F)c(F)c(F)c5F)c5ccc2[nH]5)C=C4)C=C3)cc1)C(C)(C)C
REMARK SMILES IDX 15 1 14 2 13 3 12 4 10 5 11 6 9 7 8 8 7 10 5 11 4 12 6 14
REMARK SMILES IDX 3 15 2 16 1 17 87 18 88 19 89 20 90 21 16 22 17 23 18 24
REMARK SMILES IDX 19 25 20 26 21 27 22 28 23 29 24 30 25 31 86 32 26 33 85 34
REMARK SMILES IDX 27 35 28 36 29 37 79 38 30 39 84 40 78 41 80 42 31 43 83 44
REMARK SMILES IDX 77 45 76 46 32 48 64 49 44 50 63 51 45 52 48 53 62 54 81 55
REMARK SMILES IDX 46 56 47 57 61 59 82 60 49 61 33 62 34 63 42 64 35 65 36 66
REMARK SMILES IDX 40 67 43 68 37 69 38 70 41 71 39 72 65 73 66 74 74 75 67 76
REMARK SMILES IDX 68 77 72 78 75 79 69 80 70 81 73 82 71 83 50 84 51 85 59 86
REMARK SMILES IDX 52 87 53 88 57 89 60 90 54 91 55 92 58 93 56 94
REMARK H PARENT 8 9 4 13 80 47 48 58
REMARK Flexibility Score: inf
ROOT
ATOM      1  O   UNL A   1      35.478  22.282  24.163  1.00  0.00    -0.376 OA
ENDROOT
BRANCH   1   2
ATOM      2  C   UNL A   1      34.341  22.655  24.941  1.00  0.00     0.202 C 
BRANCH   2   3
ATOM      3  C   UNL A   1      32.950  22.444  24.313  1.00  0.00     0.261 C 
BRANCH   3   4
ATOM      4  O   UNL A   1      32.736  22.939  22.964  1.00  0.00    -0.459 OA
BRANCH   4   5
ATOM      5  C   UNL A   1      32.844  24.286  22.806  1.00  0.00     0.361 C 
ATOM      6  O   UNL A   1      33.683  24.811  22.074  1.00  0.00    -0.245 OA
BRANCH   5   7
ATOM      7  C   UNL A   1      31.939  25.179  23.666  1.00  0.00     0.387 C 
BRANCH   7   8
ATOM      8  N   UNL A   1      32.327  26.553  24.099  1.00  0.00    -0.314 N 
ATOM      9  H   UNL A   1      33.201  26.765  23.617  1.00  0.00     0.349 HD
BRANCH   8  10
ATOM     10  C   UNL A   1      32.699  26.589  25.530  1.00  0.00     0.364 C 
BRANCH  10  11
ATOM     11  C   UNL A   1      31.499  26.549  26.476  1.00  0.00     0.275 C 
ATOM     12  N   UNL A   1      31.307  27.596  27.335  1.00  0.00    -0.340 N 
ATOM     13  H   UNL A   1      30.446  27.647  27.811  1.00  0.00     0.164 HD
ATOM     14  O   UNL A   1      30.721  25.595  26.498  1.00  0.00    -0.268 OA
BRANCH  12  15
ATOM     15  C   UNL A   1      32.268  28.618  27.590  1.00  0.00     0.206 C 
BRANCH  15  16
ATOM     16  C   UNL A   1      32.005  29.995  27.001  1.00  0.00    -0.085 C 
ATOM     17  C   UNL A   1      31.779  31.174  26.496  1.00  0.00     0.006 C 
ENDBRANCH  15  16
ENDBRANCH  12  15
ENDBRANCH  10  11
ENDBRANCH   8  10
BRANCH   8  18
ATOM     18  C   UNL A   1      31.642  27.716  23.476  1.00  0.00     0.090 C 
ATOM     19  C   UNL A   1      31.274  27.247  22.099  1.00  0.00     0.078 C 
ATOM     20  C   UNL A   1      30.292  28.282  24.023  1.00  0.00     0.078 C 
ATOM     21  C   UNL A   1      32.603  28.933  23.472  1.00  0.00     0.078 C 
ENDBRANCH   8  18
ENDBRANCH   7   8
ENDBRANCH   5   7
ENDBRANCH   4   5
ENDBRANCH   3   4
ENDBRANCH   2   3
ENDBRANCH   1   2
BRANCH   1  22
ATOM     22  C   UNL A   1      36.585  23.169  24.208  1.00  0.00     0.188 C 
BRANCH  22  23
ATOM     23  C   UNL A   1      37.700  22.811  25.209  1.00  0.00     0.188 C 
BRANCH  23  24
ATOM     24  O   UNL A   1      37.531  21.530  25.804  1.00  0.00    -0.376 OA
BRANCH  24  25
ATOM     25  C   UNL A   1      37.739  20.352  25.023  1.00  0.00     0.202 C 
BRANCH  25  26
ATOM     26  C   UNL A   1      38.917  19.426  25.339  1.00  0.00     0.261 C 
BRANCH  26  27
ATOM     27  O   UNL A   1      39.813  19.922  26.356  1.00  0.00    -0.460 OA
BRANCH  27  28
ATOM     28  C   UNL A   1      41.133  19.672  26.205  1.00  0.00     0.338 C 
ATOM     29  O   UNL A   1      41.643  18.643  25.789  1.00  0.00    -0.246 OA
BRANCH  28  30
ATOM     30  C   UNL A   1      41.872  20.944  26.417  1.00  0.00     0.060 A 
ATOM     31  C   UNL A   1      42.286  21.271  27.711  1.00  0.00     0.016 A 
ATOM     32  C   UNL A   1      42.177  21.806  25.370  1.00  0.00     0.016 A 
ATOM     33  C   UNL A   1      42.995  22.436  27.985  1.00  0.00     0.010 A 
ATOM     34  C   UNL A   1      42.861  23.002  25.641  1.00  0.00     0.010 A 
ATOM     35  C   UNL A   1      43.255  23.334  26.953  1.00  0.00    -0.014 A 
BRANCH  35  36
ATOM     36  C   UNL A   1      43.741  24.698  27.285  1.00  0.00     0.031 A 
ATOM     37  C   UNL A   1      42.768  25.666  27.898  1.00  0.00     0.074 A 
ATOM     38  C   UNL A   1      45.025  25.061  27.111  1.00  0.00     0.049 A 
ATOM     39  N   UNL A   1      42.894  26.948  28.117  1.00  0.00    -0.248 NA
ATOM     40  C   UNL A   1      41.472  25.107  28.320  1.00  0.00     0.031 C 
ATOM     41  C   UNL A   1      46.101  24.190  26.641  1.00  0.00     0.029 A 
ATOM     42  N   UNL A   1      45.639  26.276  27.304  1.00  0.00    -0.354 N 
ATOM     43  C   UNL A   1      41.680  27.358  28.653  1.00  0.00     0.074 A 
ATOM     44  C   UNL A   1      40.830  26.191  28.729  1.00  0.00     0.031 C 
ATOM     45  C   UNL A   1      47.236  24.905  26.557  1.00  0.00     0.029 A 
ATOM     46  C   UNL A   1      46.954  26.296  26.904  1.00  0.00     0.049 A 
ATOM     47  H   UNL A   1      45.181  27.057  27.691  1.00  0.00     0.167 HD
ATOM     48  C   UNL A   1      41.309  28.601  29.040  1.00  0.00     0.037 A 
ATOM     49  C   UNL A   1      47.811  27.330  26.779  1.00  0.00     0.037 A 
ATOM     50  C   UNL A   1      42.174  29.750  29.003  1.00  0.00     0.049 A 
ATOM     51  C   UNL A   1      47.345  28.721  27.138  1.00  0.00     0.074 A 
ATOM     52  C   UNL A   1      41.896  31.048  29.391  1.00  0.00     0.029 A 
ATOM     53  N   UNL A   1      43.486  29.737  28.554  1.00  0.00    -0.354 N 
ATOM     54  N   UNL A   1      46.187  29.114  27.611  1.00  0.00    -0.248 NA
ATOM     55  C   UNL A   1      48.307  29.815  26.937  1.00  0.00     0.031 C 
ATOM     56  C   UNL A   1      43.017  31.835  29.115  1.00  0.00     0.029 A 
ATOM     57  C   UNL A   1      44.019  31.014  28.625  1.00  0.00     0.049 A 
ATOM     58  H   UNL A   1      43.967  28.940  28.233  1.00  0.00     0.167 HD
ATOM     59  C   UNL A   1      46.293  30.488  27.793  1.00  0.00     0.074 A 
ATOM     60  C   UNL A   1      47.634  30.859  27.399  1.00  0.00     0.031 C 
ATOM     61  C   UNL A   1      45.363  31.366  28.244  1.00  0.00     0.037 A 
BRANCH  48  62
ATOM     62  C   UNL A   1      39.893  28.802  29.488  1.00  0.00     0.064 A 
ATOM     63  C   UNL A   1      39.466  28.494  30.787  1.00  0.00     0.173 A 
ATOM     64  C   UNL A   1      38.959  29.374  28.608  1.00  0.00     0.173 A 
ATOM     65  F   UNL A   1      40.312  27.928  31.660  1.00  0.00    -0.203 F 
ATOM     66  C   UNL A   1      38.153  28.739  31.185  1.00  0.00     0.198 A 
ATOM     67  C   UNL A   1      37.659  29.648  29.018  1.00  0.00     0.198 A 
ATOM     68  F   UNL A   1      39.318  29.686  27.353  1.00  0.00    -0.203 F 
ATOM     69  F   UNL A   1      37.755  28.402  32.419  1.00  0.00    -0.200 F 
ATOM     70  C   UNL A   1      37.255  29.326  30.305  1.00  0.00     0.200 A 
ATOM     71  F   UNL A   1      36.799  30.227  28.170  1.00  0.00    -0.200 F 
ATOM     72  F   UNL A   1      35.999  29.579  30.695  1.00  0.00    -0.200 F 
ENDBRANCH  48  62
BRANCH  49  73
ATOM     73  C   UNL A   1      49.176  27.116  26.223  1.00  0.00     0.064 A 
ATOM     74  C   UNL A   1      50.279  26.891  27.060  1.00  0.00     0.173 A 
ATOM     75  C   UNL A   1      49.418  27.201  24.843  1.00  0.00     0.173 A 
ATOM     76  F   UNL A   1      50.110  26.834  28.390  1.00  0.00    -0.203 F 
ATOM     77  C   UNL A   1      51.570  26.793  26.544  1.00  0.00     0.198 A 
ATOM     78  C   UNL A   1      50.704  27.063  24.324  1.00  0.00     0.198 A 
ATOM     79  F   UNL A   1      48.404  27.424  23.995  1.00  0.00    -0.203 F 
ATOM     80  F   UNL A   1      52.613  26.654  27.374  1.00  0.00    -0.200 F 
ATOM     81  C   UNL A   1      51.781  26.875  25.175  1.00  0.00     0.200 A 
ATOM     82  F   UNL A   1      50.901  27.132  23.000  1.00  0.00    -0.200 F 
ATOM     83  F   UNL A   1      53.023  26.790  24.680  1.00  0.00    -0.200 F 
ENDBRANCH  49  73
BRANCH  61  84
ATOM     84  C   UNL A   1      45.775  32.805  28.388  1.00  0.00     0.064 A 
ATOM     85  C   UNL A   1      46.291  33.311  29.589  1.00  0.00     0.173 A 
ATOM     86  C   UNL A   1      45.691  33.677  27.291  1.00  0.00     0.173 A 
ATOM     87  F   UNL A   1      46.381  32.523  30.671  1.00  0.00    -0.203 F 
ATOM     88  C   UNL A   1      46.675  34.646  29.697  1.00  0.00     0.198 A 
ATOM     89  C   UNL A   1      46.111  35.000  27.392  1.00  0.00     0.198 A 
ATOM     90  F   UNL A   1      45.216  33.242  26.114  1.00  0.00    -0.203 F 
ATOM     91  F   UNL A   1      47.111  35.122  30.872  1.00  0.00    -0.200 F 
ATOM     92  C   UNL A   1      46.593  35.487  28.597  1.00  0.00     0.200 A 
ATOM     93  F   UNL A   1      46.049  35.805  26.321  1.00  0.00    -0.200 F 
ATOM     94  F   UNL A   1      46.971  36.768  28.700  1.00  0.00    -0.200 F 
ENDBRANCH  61  84
ENDBRANCH  35  36
ENDBRANCH  28  30
ENDBRANCH  27  28
ENDBRANCH  26  27
ENDBRANCH  25  26
ENDBRANCH  24  25
ENDBRANCH  23  24
ENDBRANCH  22  23
ENDBRANCH   1  22
TORSDOF 23
ENDMDL
