MODEL 1
REMARK VINA RESULT:     -10.4      0.000      0.000
REMARK SMILES CCOc1ncnc(N[C@@H]2C=C[C@H](C(=O)OCCOCCOCCOC(=O)c3ccc(-c4c5nc(c(-c6c(F)c(F)c(F)c(F)c6F)c6ccc([nH]6)c(-c6c(F)c(F)c(F)c(F)c6F)c6nc(c(-c7c(F)c(F)c(F)c(F)c7F)c7ccc4[nH]7)C=C6)C=C5)cc3)C2)c1C
REMARK SMILES IDX 20 1 19 2 18 3 17 4 16 5 14 6 15 7 13 8 10 9 11 10 91 11
REMARK SMILES IDX 12 12 9 13 8 15 4 16 5 17 92 18 6 19 93 20 7 21 3 22 2 23
REMARK SMILES IDX 1 24 21 25 22 26 23 27 24 28 25 29 26 30 27 31 28 32 29 33
REMARK SMILES IDX 90 34 30 35 89 36 31 37 32 38 33 39 83 40 34 41 88 42 82 43
REMARK SMILES IDX 84 44 35 45 87 46 81 47 80 48 36 50 68 51 48 52 67 53 49 54
REMARK SMILES IDX 52 55 66 56 85 57 50 58 51 59 65 61 86 62 53 63 37 64 38 65
REMARK SMILES IDX 46 66 39 67 40 68 44 69 47 70 41 71 42 72 45 73 43 74 69 75
REMARK SMILES IDX 70 76 78 77 71 78 72 79 76 80 79 81 73 82 74 83 77 84 75 85
REMARK SMILES IDX 54 86 55 87 63 88 56 89 57 90 61 91 64 92 58 93 59 94 62 95
REMARK SMILES IDX 60 96
REMARK H PARENT 9 14 84 49 52 60
REMARK Flexibility Score: inf
ROOT
ATOM      1  C   UNL A   1      36.023  22.610  25.636  1.00  0.00     0.188 C 
ENDROOT
BRANCH   1   2
ATOM      2  O   UNL A   1      35.511  22.702  24.315  1.00  0.00    -0.376 OA
BRANCH   2   3
ATOM      3  C   UNL A   1      35.250  24.015  23.840  1.00  0.00     0.202 C 
BRANCH   3   4
ATOM      4  C   UNL A   1      34.369  24.881  24.745  1.00  0.00     0.261 C 
BRANCH   4   5
ATOM      5  O   UNL A   1      34.165  26.191  24.184  1.00  0.00    -0.463 OA
BRANCH   5   6
ATOM      6  C   UNL A   1      33.094  26.419  23.382  1.00  0.00     0.312 C 
ATOM      7  O   UNL A   1      33.026  26.057  22.214  1.00  0.00    -0.252 OA
BRANCH   6   8
ATOM      8  C   UNL A   1      32.084  27.324  24.103  1.00  0.00     0.124 C 
ATOM      9  C   UNL A   1      30.194  26.461  25.434  1.00  0.00     0.104 C 
ATOM     10  C   UNL A   1      29.762  26.884  24.078  1.00  0.00    -0.006 C 
ATOM     11  C   UNL A   1      31.658  26.887  25.519  1.00  0.00     0.048 C 
ATOM     12  C   UNL A   1      30.777  27.382  23.366  1.00  0.00    -0.014 C 
BRANCH   9  13
ATOM     13  N   UNL A   1      29.929  25.060  25.662  1.00  0.00    -0.363 N 
ATOM     14  H   UNL A   1      28.981  24.794  25.660  1.00  0.00     0.162 HD
BRANCH  13  15
ATOM     15  C   UNL A   1      30.843  24.046  25.883  1.00  0.00     0.136 A 
ATOM     16  C   UNL A   1      32.041  22.166  25.112  1.00  0.00     0.221 A 
ATOM     17  N   UNL A   1      32.552  21.916  26.320  1.00  0.00    -0.201 NA
ATOM     18  C   UNL A   1      31.202  23.230  24.824  1.00  0.00     0.054 A 
ATOM     19  C   UNL A   1      32.178  22.787  27.258  1.00  0.00     0.228 A 
ATOM     20  C   UNL A   1      30.748  23.517  23.438  1.00  0.00     0.054 C 
ATOM     21  N   UNL A   1      31.311  23.805  27.109  1.00  0.00    -0.219 NA
BRANCH  16  22
ATOM     22  O   UNL A   1      32.244  21.203  24.151  1.00  0.00    -0.478 OA
BRANCH  22  23
ATOM     23  C   UNL A   1      33.140  20.183  24.594  1.00  0.00     0.228 C 
ATOM     24  C   UNL A   1      32.510  18.833  24.284  1.00  0.00     0.049 C 
ENDBRANCH  22  23
ENDBRANCH  16  22
ENDBRANCH  13  15
ENDBRANCH   9  13
ENDBRANCH   6   8
ENDBRANCH   5   6
ENDBRANCH   4   5
ENDBRANCH   3   4
ENDBRANCH   2   3
ENDBRANCH   1   2
BRANCH   1  25
ATOM     25  C   UNL A   1      37.529  22.945  25.755  1.00  0.00     0.188 C 
BRANCH  25  26
ATOM     26  O   UNL A   1      38.518  21.981  25.411  1.00  0.00    -0.376 OA
BRANCH  26  27
ATOM     27  C   UNL A   1      38.128  20.638  25.184  1.00  0.00     0.202 C 
BRANCH  27  28
ATOM     28  C   UNL A   1      39.165  19.533  25.420  1.00  0.00     0.261 C 
BRANCH  28  29
ATOM     29  O   UNL A   1      40.107  19.781  26.481  1.00  0.00    -0.460 OA
BRANCH  29  30
ATOM     30  C   UNL A   1      41.401  19.513  26.190  1.00  0.00     0.338 C 
ATOM     31  O   UNL A   1      41.848  18.497  25.668  1.00  0.00    -0.246 OA
BRANCH  30  32
ATOM     32  C   UNL A   1      42.258  20.684  26.466  1.00  0.00     0.060 A 
ATOM     33  C   UNL A   1      42.307  21.185  27.776  1.00  0.00     0.016 A 
ATOM     34  C   UNL A   1      42.906  21.365  25.433  1.00  0.00     0.016 A 
ATOM     35  C   UNL A   1      42.965  22.387  28.048  1.00  0.00     0.010 A 
ATOM     36  C   UNL A   1      43.546  22.584  25.704  1.00  0.00     0.010 A 
ATOM     37  C   UNL A   1      43.547  23.121  27.005  1.00  0.00    -0.014 A 
BRANCH  37  38
ATOM     38  C   UNL A   1      43.996  24.519  27.248  1.00  0.00     0.031 A 
ATOM     39  C   UNL A   1      43.018  25.527  27.771  1.00  0.00     0.074 A 
ATOM     40  C   UNL A   1      45.254  24.915  26.995  1.00  0.00     0.049 A 
ATOM     41  N   UNL A   1      43.194  26.803  28.008  1.00  0.00    -0.248 NA
ATOM     42  C   UNL A   1      41.656  25.041  28.028  1.00  0.00     0.031 C 
ATOM     43  C   UNL A   1      46.288  24.070  26.419  1.00  0.00     0.029 A 
ATOM     44  N   UNL A   1      45.868  26.135  27.168  1.00  0.00    -0.354 N 
ATOM     45  C   UNL A   1      41.958  27.282  28.410  1.00  0.00     0.074 A 
ATOM     46  C   UNL A   1      41.040  26.160  28.377  1.00  0.00     0.031 C 
ATOM     47  C   UNL A   1      47.407  24.800  26.286  1.00  0.00     0.029 A 
ATOM     48  C   UNL A   1      47.183  26.147  26.778  1.00  0.00     0.049 A 
ATOM     49  H   UNL A   1      45.408  26.923  27.536  1.00  0.00     0.167 HD
ATOM     50  C   UNL A   1      41.616  28.545  28.761  1.00  0.00     0.037 A 
ATOM     51  C   UNL A   1      48.120  27.114  26.789  1.00  0.00     0.037 A 
ATOM     52  C   UNL A   1      42.520  29.668  28.778  1.00  0.00     0.049 A 
ATOM     53  C   UNL A   1      47.734  28.494  27.214  1.00  0.00     0.074 A 
ATOM     54  C   UNL A   1      42.261  30.976  29.150  1.00  0.00     0.029 A 
ATOM     55  N   UNL A   1      43.853  29.624  28.393  1.00  0.00    -0.354 N 
ATOM     56  N   UNL A   1      46.566  28.932  27.607  1.00  0.00    -0.248 NA
ATOM     57  C   UNL A   1      48.784  29.520  27.160  1.00  0.00     0.031 C 
ATOM     58  C   UNL A   1      43.421  31.733  28.941  1.00  0.00     0.029 A 
ATOM     59  C   UNL A   1      44.422  30.886  28.496  1.00  0.00     0.049 A 
ATOM     60  H   UNL A   1      44.326  28.814  28.091  1.00  0.00     0.167 HD
ATOM     61  C   UNL A   1      46.728  30.290  27.825  1.00  0.00     0.074 A 
ATOM     62  C   UNL A   1      48.120  30.596  27.561  1.00  0.00     0.031 C 
ATOM     63  C   UNL A   1      45.795  31.199  28.195  1.00  0.00     0.037 A 
BRANCH  50  64
ATOM     64  C   UNL A   1      40.175  28.780  29.104  1.00  0.00     0.064 A 
ATOM     65  C   UNL A   1      39.686  28.608  30.408  1.00  0.00     0.173 A 
ATOM     66  C   UNL A   1      39.266  29.162  28.106  1.00  0.00     0.173 A 
ATOM     67  F   UNL A   1      40.512  28.225  31.394  1.00  0.00    -0.203 F 
ATOM     68  C   UNL A   1      38.332  28.768  30.691  1.00  0.00     0.198 A 
ATOM     69  C   UNL A   1      37.919  29.354  28.400  1.00  0.00     0.198 A 
ATOM     70  F   UNL A   1      39.683  29.340  26.844  1.00  0.00    -0.203 F 
ATOM     71  F   UNL A   1      37.875  28.532  31.929  1.00  0.00    -0.200 F 
ATOM     72  C   UNL A   1      37.451  29.145  29.688  1.00  0.00     0.200 A 
ATOM     73  F   UNL A   1      37.071  29.727  27.431  1.00  0.00    -0.200 F 
ATOM     74  F   UNL A   1      36.148  29.293  29.960  1.00  0.00    -0.200 F 
ENDBRANCH  50  64
BRANCH  51  75
ATOM     75  C   UNL A   1      49.512  26.818  26.360  1.00  0.00     0.064 A 
ATOM     76  C   UNL A   1      49.908  26.998  25.027  1.00  0.00     0.173 A 
ATOM     77  C   UNL A   1      50.474  26.363  27.272  1.00  0.00     0.173 A 
ATOM     78  F   UNL A   1      49.017  27.411  24.112  1.00  0.00    -0.203 F 
ATOM     79  C   UNL A   1      51.215  26.731  24.623  1.00  0.00     0.198 A 
ATOM     80  C   UNL A   1      51.785  26.116  26.871  1.00  0.00     0.198 A 
ATOM     81  F   UNL A   1      50.146  26.187  28.559  1.00  0.00    -0.203 F 
ATOM     82  F   UNL A   1      51.564  26.890  23.339  1.00  0.00    -0.200 F 
ATOM     83  C   UNL A   1      52.154  26.298  25.547  1.00  0.00     0.200 A 
ATOM     84  F   UNL A   1      52.694  25.719  27.771  1.00  0.00    -0.200 F 
ATOM     85  F   UNL A   1      53.415  26.058  25.163  1.00  0.00    -0.200 F 
ENDBRANCH  51  75
BRANCH  63  86
ATOM     86  C   UNL A   1      46.260  32.617  28.334  1.00  0.00     0.064 A 
ATOM     87  C   UNL A   1      46.167  33.528  27.270  1.00  0.00     0.173 A 
ATOM     88  C   UNL A   1      46.818  33.066  29.539  1.00  0.00     0.173 A 
ATOM     89  F   UNL A   1      45.667  33.138  26.088  1.00  0.00    -0.203 F 
ATOM     90  C   UNL A   1      46.642  34.830  27.402  1.00  0.00     0.198 A 
ATOM     91  C   UNL A   1      47.266  34.376  29.675  1.00  0.00     0.198 A 
ATOM     92  F   UNL A   1      46.936  32.232  30.583  1.00  0.00    -0.203 F 
ATOM     93  F   UNL A   1      46.598  35.666  26.355  1.00  0.00    -0.200 F 
ATOM     94  C   UNL A   1      47.186  35.254  28.605  1.00  0.00     0.200 A 
ATOM     95  F   UNL A   1      47.788  34.786  30.840  1.00  0.00    -0.200 F 
ATOM     96  F   UNL A   1      47.648  36.506  28.728  1.00  0.00    -0.200 F 
ENDBRANCH  63  86
ENDBRANCH  37  38
ENDBRANCH  30  32
ENDBRANCH  29  30
ENDBRANCH  28  29
ENDBRANCH  27  28
ENDBRANCH  26  27
ENDBRANCH  25  26
ENDBRANCH   1  25
TORSDOF 21
ENDMDL
MODEL 2
REMARK VINA RESULT:     -10.3      5.002      9.004
REMARK SMILES CCOc1ncnc(N[C@@H]2C=C[C@H](C(=O)OCCOCCOCCOC(=O)c3ccc(-c4c5nc(c(-c6c(F)c(F)c(F)c(F)c6F)c6ccc([nH]6)c(-c6c(F)c(F)c(F)c(F)c6F)c6nc(c(-c7c(F)c(F)c(F)c(F)c7F)c7ccc4[nH]7)C=C6)C=C5)cc3)C2)c1C
REMARK SMILES IDX 20 1 19 2 18 3 17 4 16 5 14 6 15 7 13 8 10 9 11 10 91 11
REMARK SMILES IDX 12 12 9 13 8 15 4 16 5 17 92 18 6 19 93 20 7 21 3 22 2 23
REMARK SMILES IDX 1 24 21 25 22 26 23 27 24 28 25 29 26 30 27 31 28 32 29 33
REMARK SMILES IDX 90 34 30 35 89 36 31 37 32 38 33 39 83 40 34 41 88 42 82 43
REMARK SMILES IDX 84 44 35 45 87 46 81 47 80 48 36 50 68 51 48 52 67 53 49 54
REMARK SMILES IDX 52 55 66 56 85 57 50 58 51 59 65 61 86 62 53 63 37 64 38 65
REMARK SMILES IDX 46 66 39 67 40 68 44 69 47 70 41 71 42 72 45 73 43 74 69 75
REMARK SMILES IDX 70 76 78 77 71 78 72 79 76 80 79 81 73 82 74 83 77 84 75 85
REMARK SMILES IDX 54 86 55 87 63 88 56 89 57 90 61 91 64 92 58 93 59 94 62 95
REMARK SMILES IDX 60 96
REMARK H PARENT 9 14 84 49 52 60
REMARK Flexibility Score: inf
ROOT
ATOM      1  C   UNL A   1      32.346  29.301  26.751  1.00  0.00     0.188 C 
ENDROOT
BRANCH   1   2
ATOM      2  O   UNL A   1      33.719  29.012  26.540  1.00  0.00    -0.376 OA
BRANCH   2   3
ATOM      3  C   UNL A   1      34.052  27.637  26.407  1.00  0.00     0.202 C 
BRANCH   3   4
ATOM      4  C   UNL A   1      32.865  26.687  26.219  1.00  0.00     0.261 C 
BRANCH   4   5
ATOM      5  O   UNL A   1      33.295  25.395  25.752  1.00  0.00    -0.463 OA
BRANCH   5   6
ATOM      6  C   UNL A   1      32.605  24.285  26.120  1.00  0.00     0.312 C 
ATOM      7  O   UNL A   1      31.771  24.265  27.016  1.00  0.00    -0.252 OA
BRANCH   6   8
ATOM      8  C   UNL A   1      33.148  23.059  25.369  1.00  0.00     0.124 C 
ATOM      9  C   UNL A   1      33.116  22.849  22.911  1.00  0.00     0.104 C 
ATOM     10  C   UNL A   1      32.001  22.099  23.540  1.00  0.00    -0.006 C 
ATOM     11  C   UNL A   1      33.956  23.342  24.087  1.00  0.00     0.048 C 
ATOM     12  C   UNL A   1      32.033  22.184  24.874  1.00  0.00    -0.014 C 
BRANCH   9  13
ATOM     13  N   UNL A   1      32.628  23.867  22.011  1.00  0.00    -0.363 N 
ATOM     14  H   UNL A   1      32.264  23.548  21.154  1.00  0.00     0.162 HD
BRANCH  13  15
ATOM     15  C   UNL A   1      32.611  25.236  22.204  1.00  0.00     0.136 A 
ATOM     16  C   UNL A   1      31.448  27.208  22.772  1.00  0.00     0.221 A 
ATOM     17  N   UNL A   1      32.488  27.988  22.463  1.00  0.00    -0.201 NA
ATOM     18  C   UNL A   1      31.456  25.826  22.690  1.00  0.00     0.054 A 
ATOM     19  C   UNL A   1      33.563  27.316  22.048  1.00  0.00     0.228 A 
ATOM     20  C   UNL A   1      30.303  25.007  23.146  1.00  0.00     0.054 C 
ATOM     21  N   UNL A   1      33.657  25.988  21.856  1.00  0.00    -0.219 NA
BRANCH  16  22
ATOM     22  O   UNL A   1      30.259  27.851  23.030  1.00  0.00    -0.478 OA
BRANCH  22  23
ATOM     23  C   UNL A   1      30.176  29.112  22.367  1.00  0.00     0.228 C 
ATOM     24  C   UNL A   1      28.705  29.446  22.167  1.00  0.00     0.049 C 
ENDBRANCH  22  23
ENDBRANCH  16  22
ENDBRANCH  13  15
ENDBRANCH   9  13
ENDBRANCH   6   8
ENDBRANCH   5   6
ENDBRANCH   4   5
ENDBRANCH   3   4
ENDBRANCH   2   3
ENDBRANCH   1   2
BRANCH   1  25
ATOM     25  C   UNL A   1      31.634  29.917  25.523  1.00  0.00     0.188 C 
BRANCH  25  26
ATOM     26  O   UNL A   1      31.087  31.229  25.582  1.00  0.00    -0.376 OA
BRANCH  26  27
ATOM     27  C   UNL A   1      31.028  31.901  26.828  1.00  0.00     0.202 C 
BRANCH  27  28
ATOM     28  C   UNL A   1      31.755  33.244  26.962  1.00  0.00     0.261 C 
BRANCH  28  29
ATOM     29  O   UNL A   1      33.193  33.180  26.917  1.00  0.00    -0.460 OA
BRANCH  29  30
ATOM     30  C   UNL A   1      33.837  33.697  27.989  1.00  0.00     0.338 C 
ATOM     31  O   UNL A   1      33.458  34.613  28.710  1.00  0.00    -0.246 OA
BRANCH  30  32
ATOM     32  C   UNL A   1      35.056  32.920  28.297  1.00  0.00     0.060 A 
ATOM     33  C   UNL A   1      34.926  31.553  28.584  1.00  0.00     0.016 A 
ATOM     34  C   UNL A   1      36.296  33.548  28.432  1.00  0.00     0.016 A 
ATOM     35  C   UNL A   1      36.023  30.822  29.046  1.00  0.00     0.010 A 
ATOM     36  C   UNL A   1      37.391  32.817  28.919  1.00  0.00     0.010 A 
ATOM     37  C   UNL A   1      37.252  31.460  29.265  1.00  0.00    -0.014 A 
BRANCH  37  38
ATOM     38  C   UNL A   1      38.327  30.753  30.012  1.00  0.00     0.031 A 
ATOM     39  C   UNL A   1      38.528  31.049  31.468  1.00  0.00     0.074 A 
ATOM     40  C   UNL A   1      39.141  29.867  29.417  1.00  0.00     0.049 A 
ATOM     41  N   UNL A   1      39.434  30.577  32.289  1.00  0.00    -0.248 NA
ATOM     42  C   UNL A   1      37.612  32.027  32.068  1.00  0.00     0.031 C 
ATOM     43  C   UNL A   1      39.112  29.536  28.002  1.00  0.00     0.029 A 
ATOM     44  N   UNL A   1      40.166  29.100  29.925  1.00  0.00    -0.354 N 
ATOM     45  C   UNL A   1      39.219  31.226  33.493  1.00  0.00     0.074 A 
ATOM     46  C   UNL A   1      38.103  32.129  33.293  1.00  0.00     0.031 C 
ATOM     47  C   UNL A   1      40.077  28.635  27.757  1.00  0.00     0.029 A 
ATOM     48  C   UNL A   1      40.777  28.310  28.985  1.00  0.00     0.049 A 
ATOM     49  H   UNL A   1      40.436  29.119  30.871  1.00  0.00     0.167 HD
ATOM     50  C   UNL A   1      39.900  31.090  34.658  1.00  0.00     0.037 A 
ATOM     51  C   UNL A   1      41.791  27.429  29.067  1.00  0.00     0.037 A 
ATOM     52  C   UNL A   1      41.022  30.207  34.857  1.00  0.00     0.049 A 
ATOM     53  C   UNL A   1      42.508  27.266  30.369  1.00  0.00     0.074 A 
ATOM     54  C   UNL A   1      41.750  29.989  36.014  1.00  0.00     0.029 A 
ATOM     55  N   UNL A   1      41.592  29.408  33.875  1.00  0.00    -0.354 N 
ATOM     56  N   UNL A   1      42.287  27.873  31.506  1.00  0.00    -0.248 NA
ATOM     57  C   UNL A   1      43.637  26.327  30.389  1.00  0.00     0.031 C 
ATOM     58  C   UNL A   1      42.790  29.098  35.720  1.00  0.00     0.029 A 
ATOM     59  C   UNL A   1      42.676  28.713  34.395  1.00  0.00     0.049 A 
ATOM     60  H   UNL A   1      41.273  29.344  32.946  1.00  0.00     0.167 HD
ATOM     61  C   UNL A   1      43.262  27.411  32.374  1.00  0.00     0.074 A 
ATOM     62  C   UNL A   1      44.052  26.440  31.643  1.00  0.00     0.031 C 
ATOM     63  C   UNL A   1      43.486  27.779  33.658  1.00  0.00     0.037 A 
BRANCH  50  64
ATOM     64  C   UNL A   1      39.470  31.972  35.793  1.00  0.00     0.064 A 
ATOM     65  C   UNL A   1      40.085  33.209  36.044  1.00  0.00     0.173 A 
ATOM     66  C   UNL A   1      38.443  31.562  36.654  1.00  0.00     0.173 A 
ATOM     67  F   UNL A   1      41.085  33.637  35.260  1.00  0.00    -0.203 F 
ATOM     68  C   UNL A   1      39.713  33.981  37.141  1.00  0.00     0.198 A 
ATOM     69  C   UNL A   1      38.052  32.352  37.730  1.00  0.00     0.198 A 
ATOM     70  F   UNL A   1      37.823  30.388  36.457  1.00  0.00    -0.203 F 
ATOM     71  F   UNL A   1      40.360  35.126  37.401  1.00  0.00    -0.200 F 
ATOM     72  C   UNL A   1      38.695  33.554  37.980  1.00  0.00     0.200 A 
ATOM     73  F   UNL A   1      37.061  31.943  38.535  1.00  0.00    -0.200 F 
ATOM     74  F   UNL A   1      38.343  34.296  39.039  1.00  0.00    -0.200 F 
ENDBRANCH  50  64
BRANCH  51  75
ATOM     75  C   UNL A   1      42.209  26.647  27.874  1.00  0.00     0.064 A 
ATOM     76  C   UNL A   1      43.181  27.143  26.992  1.00  0.00     0.173 A 
ATOM     77  C   UNL A   1      41.655  25.390  27.597  1.00  0.00     0.173 A 
ATOM     78  F   UNL A   1      43.724  28.351  27.203  1.00  0.00    -0.203 F 
ATOM     79  C   UNL A   1      43.582  26.409  25.877  1.00  0.00     0.198 A 
ATOM     80  C   UNL A   1      42.071  24.649  26.493  1.00  0.00     0.198 A 
ATOM     81  F   UNL A   1      40.731  24.870  28.416  1.00  0.00    -0.203 F 
ATOM     82  F   UNL A   1      44.496  26.913  25.038  1.00  0.00    -0.200 F 
ATOM     83  C   UNL A   1      43.032  25.159  25.633  1.00  0.00     0.200 A 
ATOM     84  F   UNL A   1      41.554  23.433  26.273  1.00  0.00    -0.200 F 
ATOM     85  F   UNL A   1      43.429  24.445  24.571  1.00  0.00    -0.200 F 
ENDBRANCH  51  75
BRANCH  63  86
ATOM     86  C   UNL A   1      44.640  27.121  34.351  1.00  0.00     0.064 A 
ATOM     87  C   UNL A   1      44.496  25.893  35.017  1.00  0.00     0.173 A 
ATOM     88  C   UNL A   1      45.902  27.732  34.362  1.00  0.00     0.173 A 
ATOM     89  F   UNL A   1      43.301  25.284  35.058  1.00  0.00    -0.203 F 
ATOM     90  C   UNL A   1      45.568  25.316  35.692  1.00  0.00     0.198 A 
ATOM     91  C   UNL A   1      46.978  27.137  35.014  1.00  0.00     0.198 A 
ATOM     92  F   UNL A   1      46.090  28.909  33.748  1.00  0.00    -0.203 F 
ATOM     93  F   UNL A   1      45.393  24.174  36.370  1.00  0.00    -0.200 F 
ATOM     94  C   UNL A   1      46.809  25.936  35.686  1.00  0.00     0.200 A 
ATOM     95  F   UNL A   1      48.178  27.735  35.005  1.00  0.00    -0.200 F 
ATOM     96  F   UNL A   1      47.839  25.382  36.341  1.00  0.00    -0.200 F 
ENDBRANCH  63  86
ENDBRANCH  37  38
ENDBRANCH  30  32
ENDBRANCH  29  30
ENDBRANCH  28  29
ENDBRANCH  27  28
ENDBRANCH  26  27
ENDBRANCH  25  26
ENDBRANCH   1  25
TORSDOF 21
ENDMDL
MODEL 3
REMARK VINA RESULT:     -10.2      5.386      9.652
REMARK SMILES CCOc1ncnc(N[C@@H]2C=C[C@H](C(=O)OCCOCCOCCOC(=O)c3ccc(-c4c5nc(c(-c6c(F)c(F)c(F)c(F)c6F)c6ccc([nH]6)c(-c6c(F)c(F)c(F)c(F)c6F)c6nc(c(-c7c(F)c(F)c(F)c(F)c7F)c7ccc4[nH]7)C=C6)C=C5)cc3)C2)c1C
REMARK SMILES IDX 20 1 19 2 18 3 17 4 16 5 14 6 15 7 13 8 10 9 11 10 91 11
REMARK SMILES IDX 12 12 9 13 8 15 4 16 5 17 92 18 6 19 93 20 7 21 3 22 2 23
REMARK SMILES IDX 1 24 21 25 22 26 23 27 24 28 25 29 26 30 27 31 28 32 29 33
REMARK SMILES IDX 90 34 30 35 89 36 31 37 32 38 33 39 83 40 34 41 88 42 82 43
REMARK SMILES IDX 84 44 35 45 87 46 81 47 80 48 36 50 68 51 48 52 67 53 49 54
REMARK SMILES IDX 52 55 66 56 85 57 50 58 51 59 65 61 86 62 53 63 37 64 38 65
REMARK SMILES IDX 46 66 39 67 40 68 44 69 47 70 41 71 42 72 45 73 43 74 69 75
REMARK SMILES IDX 70 76 78 77 71 78 72 79 76 80 79 81 73 82 74 83 77 84 75 85
REMARK SMILES IDX 54 86 55 87 63 88 56 89 57 90 61 91 64 92 58 93 59 94 62 95
REMARK SMILES IDX 60 96
REMARK H PARENT 9 14 84 49 52 60
REMARK Flexibility Score: inf
ROOT
ATOM      1  C   UNL A   1      32.367  28.738  26.436  1.00  0.00     0.188 C 
ENDROOT
BRANCH   1   2
ATOM      2  O   UNL A   1      33.640  28.221  26.082  1.00  0.00    -0.376 OA
BRANCH   2   3
ATOM      3  C   UNL A   1      33.738  26.805  26.012  1.00  0.00     0.202 C 
BRANCH   3   4
ATOM      4  C   UNL A   1      32.487  26.035  26.445  1.00  0.00     0.261 C 
BRANCH   4   5
ATOM      5  O   UNL A   1      32.320  24.829  25.677  1.00  0.00    -0.463 OA
BRANCH   5   6
ATOM      6  C   UNL A   1      32.247  23.633  26.314  1.00  0.00     0.312 C 
ATOM      7  O   UNL A   1      31.673  23.460  27.381  1.00  0.00    -0.252 OA
BRANCH   6   8
ATOM      8  C   UNL A   1      33.121  22.599  25.585  1.00  0.00     0.124 C 
ATOM      9  C   UNL A   1      33.385  22.532  23.133  1.00  0.00     0.104 C 
ATOM     10  C   UNL A   1      32.405  21.523  23.607  1.00  0.00    -0.006 C 
ATOM     11  C   UNL A   1      33.972  23.125  24.412  1.00  0.00     0.048 C 
ATOM     12  C   UNL A   1      32.283  21.534  24.938  1.00  0.00    -0.014 C 
BRANCH   9  13
ATOM     13  N   UNL A   1      32.779  23.472  22.221  1.00  0.00    -0.363 N 
ATOM     14  H   UNL A   1      32.424  23.094  21.384  1.00  0.00     0.162 HD
BRANCH  13  15
ATOM     15  C   UNL A   1      32.635  24.839  22.377  1.00  0.00     0.136 A 
ATOM     16  C   UNL A   1      31.275  26.719  22.795  1.00  0.00     0.221 A 
ATOM     17  N   UNL A   1      32.272  27.575  22.556  1.00  0.00    -0.201 NA
ATOM     18  C   UNL A   1      31.399  25.341  22.748  1.00  0.00     0.054 A 
ATOM     19  C   UNL A   1      33.429  26.986  22.251  1.00  0.00     0.228 A 
ATOM     20  C   UNL A   1      30.280  24.439  23.126  1.00  0.00     0.054 C 
ATOM     21  N   UNL A   1      33.644  25.666  22.101  1.00  0.00    -0.219 NA
BRANCH  16  22
ATOM     22  O   UNL A   1      30.020  27.267  22.934  1.00  0.00    -0.478 OA
BRANCH  22  23
ATOM     23  C   UNL A   1      29.942  28.579  22.376  1.00  0.00     0.228 C 
ATOM     24  C   UNL A   1      28.811  29.322  23.071  1.00  0.00     0.049 C 
ENDBRANCH  22  23
ENDBRANCH  16  22
ENDBRANCH  13  15
ENDBRANCH   9  13
ENDBRANCH   6   8
ENDBRANCH   5   6
ENDBRANCH   4   5
ENDBRANCH   3   4
ENDBRANCH   2   3
ENDBRANCH   1   2
BRANCH   1  25
ATOM     25  C   UNL A   1      31.725  29.636  25.352  1.00  0.00     0.188 C 
BRANCH  25  26
ATOM     26  O   UNL A   1      31.296  30.957  25.661  1.00  0.00    -0.376 OA
BRANCH  26  27
ATOM     27  C   UNL A   1      31.710  31.553  26.878  1.00  0.00     0.202 C 
BRANCH  27  28
ATOM     28  C   UNL A   1      31.869  33.078  26.919  1.00  0.00     0.261 C 
BRANCH  28  29
ATOM     29  O   UNL A   1      33.189  33.558  27.241  1.00  0.00    -0.460 OA
BRANCH  29  30
ATOM     30  C   UNL A   1      33.273  34.354  28.332  1.00  0.00     0.338 C 
ATOM     31  O   UNL A   1      32.528  35.280  28.632  1.00  0.00    -0.246 OA
BRANCH  30  32
ATOM     32  C   UNL A   1      34.341  33.891  29.242  1.00  0.00     0.060 A 
ATOM     33  C   UNL A   1      35.655  34.321  29.007  1.00  0.00     0.016 A 
ATOM     34  C   UNL A   1      34.083  32.944  30.236  1.00  0.00     0.016 A 
ATOM     35  C   UNL A   1      36.717  33.775  29.733  1.00  0.00     0.010 A 
ATOM     36  C   UNL A   1      35.153  32.380  30.947  1.00  0.00     0.010 A 
ATOM     37  C   UNL A   1      36.479  32.764  30.674  1.00  0.00    -0.014 A 
BRANCH  37  38
ATOM     38  C   UNL A   1      37.622  31.997  31.238  1.00  0.00     0.031 A 
ATOM     39  C   UNL A   1      38.060  32.256  32.648  1.00  0.00     0.074 A 
ATOM     40  C   UNL A   1      38.292  31.086  30.514  1.00  0.00     0.049 A 
ATOM     41  N   UNL A   1      39.058  31.730  33.312  1.00  0.00    -0.248 NA
ATOM     42  C   UNL A   1      37.295  33.264  33.393  1.00  0.00     0.031 C 
ATOM     43  C   UNL A   1      38.028  30.783  29.116  1.00  0.00     0.029 A 
ATOM     44  N   UNL A   1      39.346  30.265  30.847  1.00  0.00    -0.354 N 
ATOM     45  C   UNL A   1      39.064  32.365  34.543  1.00  0.00     0.074 A 
ATOM     46  C   UNL A   1      37.974  33.321  34.529  1.00  0.00     0.031 C 
ATOM     47  C   UNL A   1      38.900  29.844  28.714  1.00  0.00     0.029 A 
ATOM     48  C   UNL A   1      39.766  29.466  29.815  1.00  0.00     0.049 A 
ATOM     49  H   UNL A   1      39.760  30.254  31.740  1.00  0.00     0.167 HD
ATOM     50  C   UNL A   1      39.910  32.178  35.586  1.00  0.00     0.037 A 
ATOM     51  C   UNL A   1      40.739  28.539  29.729  1.00  0.00     0.037 A 
ATOM     52  C   UNL A   1      41.006  31.243  35.598  1.00  0.00     0.049 A 
ATOM     53  C   UNL A   1      41.640  28.320  30.901  1.00  0.00     0.074 A 
ATOM     54  C   UNL A   1      41.894  30.971  36.626  1.00  0.00     0.029 A 
ATOM     55  N   UNL A   1      41.379  30.437  34.531  1.00  0.00    -0.354 N 
ATOM     56  N   UNL A   1      41.626  28.915  32.066  1.00  0.00    -0.248 NA
ATOM     57  C   UNL A   1      42.713  27.331  30.735  1.00  0.00     0.031 C 
ATOM     58  C   UNL A   1      42.832  30.040  36.164  1.00  0.00     0.029 A 
ATOM     59  C   UNL A   1      42.497  29.685  34.868  1.00  0.00     0.049 A 
ATOM     60  H   UNL A   1      40.917  30.404  33.662  1.00  0.00     0.167 HD
ATOM     61  C   UNL A   1      42.701  28.395  32.766  1.00  0.00     0.074 A 
ATOM     62  C   UNL A   1      43.321  27.404  31.911  1.00  0.00     0.031 C 
ATOM     63  C   UNL A   1      43.138  28.729  34.004  1.00  0.00     0.037 A 
BRANCH  50  64
ATOM     64  C   UNL A   1      39.702  33.057  36.783  1.00  0.00     0.064 A 
ATOM     65  C   UNL A   1      38.762  32.744  37.778  1.00  0.00     0.173 A 
ATOM     66  C   UNL A   1      40.440  34.241  36.926  1.00  0.00     0.173 A 
ATOM     67  F   UNL A   1      38.018  31.632  37.678  1.00  0.00    -0.203 F 
ATOM     68  C   UNL A   1      38.541  33.607  38.848  1.00  0.00     0.198 A 
ATOM     69  C   UNL A   1      40.240  35.083  38.015  1.00  0.00     0.198 A 
ATOM     70  F   UNL A   1      41.351  34.585  36.003  1.00  0.00    -0.203 F 
ATOM     71  F   UNL A   1      37.590  33.322  39.750  1.00  0.00    -0.200 F 
ATOM     72  C   UNL A   1      39.282  34.772  38.968  1.00  0.00     0.200 A 
ATOM     73  F   UNL A   1      40.964  36.205  38.134  1.00  0.00    -0.200 F 
ATOM     74  F   UNL A   1      39.063  35.604  39.995  1.00  0.00    -0.200 F 
ENDBRANCH  50  64
BRANCH  51  75
ATOM     75  C   UNL A   1      40.929  27.761  28.476  1.00  0.00     0.064 A 
ATOM     76  C   UNL A   1      41.821  28.199  27.486  1.00  0.00     0.173 A 
ATOM     77  C   UNL A   1      40.235  26.565  28.249  1.00  0.00     0.173 A 
ATOM     78  F   UNL A   1      42.491  29.349  27.648  1.00  0.00    -0.203 F 
ATOM     79  C   UNL A   1      42.009  27.468  26.314  1.00  0.00     0.198 A 
ATOM     80  C   UNL A   1      40.439  25.826  27.086  1.00  0.00     0.198 A 
ATOM     81  F   UNL A   1      39.381  26.101  29.171  1.00  0.00    -0.203 F 
ATOM     82  F   UNL A   1      42.850  27.918  25.373  1.00  0.00    -0.200 F 
ATOM     83  C   UNL A   1      41.323  26.278  26.119  1.00  0.00     0.200 A 
ATOM     84  F   UNL A   1      39.792  24.666  26.912  1.00  0.00    -0.200 F 
ATOM     85  F   UNL A   1      41.517  25.565  25.001  1.00  0.00    -0.200 F 
ENDBRANCH  51  75
BRANCH  63  86
ATOM     86  C   UNL A   1      44.354  28.007  34.501  1.00  0.00     0.064 A 
ATOM     87  C   UNL A   1      45.645  28.523  34.309  1.00  0.00     0.173 A 
ATOM     88  C   UNL A   1      44.227  26.779  35.165  1.00  0.00     0.173 A 
ATOM     89  F   UNL A   1      45.819  29.681  33.654  1.00  0.00    -0.203 F 
ATOM     90  C   UNL A   1      46.766  27.819  34.740  1.00  0.00     0.198 A 
ATOM     91  C   UNL A   1      45.349  26.093  35.620  1.00  0.00     0.198 A 
ATOM     92  F   UNL A   1      43.016  26.240  35.367  1.00  0.00    -0.203 F 
ATOM     93  F   UNL A   1      47.993  28.302  34.493  1.00  0.00    -0.200 F 
ATOM     94  C   UNL A   1      46.618  26.608  35.399  1.00  0.00     0.200 A 
ATOM     95  F   UNL A   1      45.204  24.924  36.260  1.00  0.00    -0.200 F 
ATOM     96  F   UNL A   1      47.699  25.930  35.808  1.00  0.00    -0.200 F 
ENDBRANCH  63  86
ENDBRANCH  37  38
ENDBRANCH  30  32
ENDBRANCH  29  30
ENDBRANCH  28  29
ENDBRANCH  27  28
ENDBRANCH  26  27
ENDBRANCH  25  26
ENDBRANCH   1  25
TORSDOF 21
ENDMDL
