MODEL 1
REMARK VINA RESULT:     -11.0      0.000      0.000
REMARK SMILES C[C@@H](C(=O)OCCOCCOCCOC(=O)c1ccc(-c2c3nc(c(-c4c(F)c(F)c(F)c(F)c4F)c4ccc([nH]4)c(-c4c(F)c(F)c(F)c(F)c4F)c4nc(c(-c5c(F)c(F)c(F)c(F)c5F)c5ccc2[nH]5)C=C4)C=C3)cc1)N(C)c1ccc(C(N)=O)nn1
REMARK SMILES IDX 9 1 8 2 7 3 6 4 5 5 3 6 4 7 2 8 1 9 80 10 81 11 82 12 83 13
REMARK SMILES IDX 90 14 84 15 89 16 85 17 86 18 87 19 88 20 10 23 11 24 12 25
REMARK SMILES IDX 13 26 14 27 15 28 16 29 17 30 18 31 79 32 19 33 78 34 20 35
REMARK SMILES IDX 21 36 22 37 72 38 23 39 77 40 71 41 73 42 24 43 76 44 70 45
REMARK SMILES IDX 69 46 25 48 57 49 37 50 56 51 38 52 41 53 55 54 74 55 39 56
REMARK SMILES IDX 40 57 54 59 75 60 42 61 26 62 27 63 35 64 28 65 29 66 33 67
REMARK SMILES IDX 36 68 30 69 31 70 34 71 32 72 58 73 59 74 67 75 60 76 61 77
REMARK SMILES IDX 65 78 68 79 62 80 63 81 66 82 64 83 43 84 44 85 52 86 45 87
REMARK SMILES IDX 46 88 50 89 53 90 47 91 48 92 51 93 49 94
REMARK H PARENT 87 21 87 22 73 47 41 58
REMARK Flexibility Score: inf
ROOT
ATOM      1  C   UNL A   1      31.240  26.545  23.908  1.00  0.00     0.188 C 
ENDROOT
BRANCH   1   2
ATOM      2  O   UNL A   1      31.247  25.422  23.037  1.00  0.00    -0.376 OA
BRANCH   2   3
ATOM      3  C   UNL A   1      30.473  24.285  23.400  1.00  0.00     0.202 C 
BRANCH   3   4
ATOM      4  C   UNL A   1      31.280  23.107  23.942  1.00  0.00     0.261 C 
BRANCH   4   5
ATOM      5  O   UNL A   1      32.688  23.422  23.945  1.00  0.00    -0.462 OA
BRANCH   5   6
ATOM      6  C   UNL A   1      33.331  23.401  25.145  1.00  0.00     0.328 C 
ATOM      7  O   UNL A   1      33.933  24.363  25.612  1.00  0.00    -0.250 OA
BRANCH   6   8
ATOM      8  C   UNL A   1      33.242  22.019  25.853  1.00  0.00     0.190 C 
ATOM      9  C   UNL A   1      33.519  22.080  27.349  1.00  0.00     0.044 C 
BRANCH   8  10
ATOM     10  N   UNL A   1      33.941  20.942  25.079  1.00  0.00    -0.345 N 
ATOM     11  C   UNL A   1      35.257  21.323  24.541  1.00  0.00     0.146 C 
BRANCH  10  12
ATOM     12  C   UNL A   1      33.733  19.571  25.116  1.00  0.00     0.151 A 
ATOM     13  C   UNL A   1      34.600  18.643  24.550  1.00  0.00     0.051 A 
ATOM     14  N   UNL A   1      32.680  19.069  25.809  1.00  0.00    -0.132 NA
ATOM     15  C   UNL A   1      34.382  17.264  24.663  1.00  0.00     0.040 A 
ATOM     16  N   UNL A   1      32.437  17.698  25.929  1.00  0.00    -0.143 NA
ATOM     17  C   UNL A   1      33.283  16.826  25.360  1.00  0.00     0.150 A 
BRANCH  17  18
ATOM     18  C   UNL A   1      32.961  15.377  25.415  1.00  0.00     0.269 C 
ATOM     19  N   UNL A   1      31.636  15.048  25.446  1.00  0.00    -0.364 N 
ATOM     20  O   UNL A   1      33.829  14.516  25.357  1.00  0.00    -0.268 OA
ATOM     21  H   UNL A   1      30.953  15.756  25.492  1.00  0.00     0.160 HD
ATOM     22  H   UNL A   1      31.362  14.102  25.422  1.00  0.00     0.160 HD
ENDBRANCH  17  18
ENDBRANCH  10  12
ENDBRANCH   8  10
ENDBRANCH   6   8
ENDBRANCH   5   6
ENDBRANCH   4   5
ENDBRANCH   3   4
ENDBRANCH   2   3
ENDBRANCH   1   2
BRANCH   1  23
ATOM     23  C   UNL A   1      30.606  26.381  25.303  1.00  0.00     0.188 C 
BRANCH  23  24
ATOM     24  O   UNL A   1      31.059  27.219  26.357  1.00  0.00    -0.376 OA
BRANCH  24  25
ATOM     25  C   UNL A   1      32.120  28.118  26.046  1.00  0.00     0.202 C 
BRANCH  25  26
ATOM     26  C   UNL A   1      31.824  29.578  26.385  1.00  0.00     0.261 C 
BRANCH  26  27
ATOM     27  O   UNL A   1      32.984  30.389  26.125  1.00  0.00    -0.460 OA
BRANCH  27  28
ATOM     28  C   UNL A   1      33.418  31.093  27.194  1.00  0.00     0.338 C 
ATOM     29  O   UNL A   1      32.741  31.815  27.905  1.00  0.00    -0.246 OA
BRANCH  28  30
ATOM     30  C   UNL A   1      34.847  30.812  27.475  1.00  0.00     0.060 A 
ATOM     31  C   UNL A   1      35.300  29.511  27.701  1.00  0.00     0.016 A 
ATOM     32  C   UNL A   1      35.695  31.884  27.754  1.00  0.00     0.016 A 
ATOM     33  C   UNL A   1      36.540  29.287  28.305  1.00  0.00     0.010 A 
ATOM     34  C   UNL A   1      36.957  31.655  28.318  1.00  0.00     0.010 A 
ATOM     35  C   UNL A   1      37.371  30.355  28.652  1.00  0.00    -0.014 A 
BRANCH  35  36
ATOM     36  C   UNL A   1      38.583  30.142  29.492  1.00  0.00     0.031 A 
ATOM     37  C   UNL A   1      39.706  29.296  28.959  1.00  0.00     0.074 A 
ATOM     38  C   UNL A   1      38.764  30.746  30.677  1.00  0.00     0.049 A 
ATOM     39  N   UNL A   1      40.619  28.604  29.586  1.00  0.00    -0.248 NA
ATOM     40  C   UNL A   1      39.813  29.235  27.498  1.00  0.00     0.031 C 
ATOM     41  C   UNL A   1      37.885  31.746  31.274  1.00  0.00     0.029 A 
ATOM     42  N   UNL A   1      39.775  30.593  31.595  1.00  0.00    -0.354 N 
ATOM     43  C   UNL A   1      41.336  27.943  28.593  1.00  0.00     0.074 A 
ATOM     44  C   UNL A   1      40.787  28.356  27.322  1.00  0.00     0.031 C 
ATOM     45  C   UNL A   1      38.395  32.124  32.457  1.00  0.00     0.029 A 
ATOM     46  C   UNL A   1      39.562  31.298  32.751  1.00  0.00     0.049 A 
ATOM     47  H   UNL A   1      40.570  30.033  31.439  1.00  0.00     0.167 HD
ATOM     48  C   UNL A   1      42.358  27.068  28.742  1.00  0.00     0.037 A 
ATOM     49  C   UNL A   1      40.178  31.216  33.944  1.00  0.00     0.037 A 
ATOM     50  C   UNL A   1      42.996  26.812  30.005  1.00  0.00     0.049 A 
ATOM     51  C   UNL A   1      41.294  30.226  34.128  1.00  0.00     0.074 A 
ATOM     52  C   UNL A   1      44.020  25.932  30.304  1.00  0.00     0.029 A 
ATOM     53  N   UNL A   1      42.710  27.509  31.169  1.00  0.00    -0.354 N 
ATOM     54  N   UNL A   1      41.798  29.377  33.264  1.00  0.00    -0.248 NA
ATOM     55  C   UNL A   1      41.908  30.161  35.460  1.00  0.00     0.031 C 
ATOM     56  C   UNL A   1      44.365  26.110  31.650  1.00  0.00     0.029 A 
ATOM     57  C   UNL A   1      43.567  27.113  32.179  1.00  0.00     0.049 A 
ATOM     58  H   UNL A   1      42.001  28.185  31.263  1.00  0.00     0.167 HD
ATOM     59  C   UNL A   1      42.785  28.677  33.944  1.00  0.00     0.074 A 
ATOM     60  C   UNL A   1      42.823  29.217  35.289  1.00  0.00     0.031 C 
ATOM     61  C   UNL A   1      43.583  27.674  33.504  1.00  0.00     0.037 A 
BRANCH  48  62
ATOM     62  C   UNL A   1      42.824  26.305  27.537  1.00  0.00     0.064 A 
ATOM     63  C   UNL A   1      43.879  26.743  26.726  1.00  0.00     0.173 A 
ATOM     64  C   UNL A   1      42.221  25.075  27.220  1.00  0.00     0.173 A 
ATOM     65  F   UNL A   1      44.477  27.917  26.974  1.00  0.00    -0.203 F 
ATOM     66  C   UNL A   1      44.302  25.990  25.633  1.00  0.00     0.198 A 
ATOM     67  C   UNL A   1      42.666  24.311  26.145  1.00  0.00     0.198 A 
ATOM     68  F   UNL A   1      41.209  24.607  27.964  1.00  0.00    -0.203 F 
ATOM     69  F   UNL A   1      45.289  26.446  24.848  1.00  0.00    -0.200 F 
ATOM     70  C   UNL A   1      43.703  24.771  25.349  1.00  0.00     0.200 A 
ATOM     71  F   UNL A   1      42.095  23.128  25.883  1.00  0.00    -0.200 F 
ATOM     72  F   UNL A   1      44.124  24.041  24.307  1.00  0.00    -0.200 F 
ENDBRANCH  48  62
BRANCH  49  73
ATOM     73  C   UNL A   1      39.657  32.023  35.076  1.00  0.00     0.064 A 
ATOM     74  C   UNL A   1      38.737  31.493  35.989  1.00  0.00     0.173 A 
ATOM     75  C   UNL A   1      40.122  33.329  35.298  1.00  0.00     0.173 A 
ATOM     76  F   UNL A   1      38.243  30.260  35.804  1.00  0.00    -0.203 F 
ATOM     77  C   UNL A   1      38.309  32.238  37.086  1.00  0.00     0.198 A 
ATOM     78  C   UNL A   1      39.720  34.058  36.412  1.00  0.00     0.198 A 
ATOM     79  F   UNL A   1      41.003  33.881  34.450  1.00  0.00    -0.203 F 
ATOM     80  F   UNL A   1      37.410  31.721  37.934  1.00  0.00    -0.200 F 
ATOM     81  C   UNL A   1      38.811  33.513  37.305  1.00  0.00     0.200 A 
ATOM     82  F   UNL A   1      40.226  35.280  36.629  1.00  0.00    -0.200 F 
ATOM     83  F   UNL A   1      38.420  34.216  38.376  1.00  0.00    -0.200 F 
ENDBRANCH  49  73
BRANCH  61  84
ATOM     84  C   UNL A   1      44.579  27.122  34.473  1.00  0.00     0.064 A 
ATOM     85  C   UNL A   1      44.264  26.037  35.302  1.00  0.00     0.173 A 
ATOM     86  C   UNL A   1      45.873  27.660  34.546  1.00  0.00     0.173 A 
ATOM     87  F   UNL A   1      43.034  25.501  35.273  1.00  0.00    -0.203 F 
ATOM     88  C   UNL A   1      45.204  25.523  36.190  1.00  0.00     0.198 A 
ATOM     89  C   UNL A   1      46.816  27.130  35.420  1.00  0.00     0.198 A 
ATOM     90  F   UNL A   1      46.220  28.694  33.765  1.00  0.00    -0.203 F 
ATOM     91  F   UNL A   1      44.872  24.510  37.001  1.00  0.00    -0.200 F 
ATOM     92  C   UNL A   1      46.480  26.066  36.244  1.00  0.00     0.200 A 
ATOM     93  F   UNL A   1      48.050  27.649  35.466  1.00  0.00    -0.200 F 
ATOM     94  F   UNL A   1      47.383  25.569  37.099  1.00  0.00    -0.200 F 
ENDBRANCH  61  84
ENDBRANCH  35  36
ENDBRANCH  28  30
ENDBRANCH  27  28
ENDBRANCH  26  27
ENDBRANCH  25  26
ENDBRANCH  24  25
ENDBRANCH  23  24
ENDBRANCH   1  23
TORSDOF 20
ENDMDL
MODEL 2
REMARK VINA RESULT:     -10.9      3.844      9.425
REMARK SMILES C[C@@H](C(=O)OCCOCCOCCOC(=O)c1ccc(-c2c3nc(c(-c4c(F)c(F)c(F)c(F)c4F)c4ccc([nH]4)c(-c4c(F)c(F)c(F)c(F)c4F)c4nc(c(-c5c(F)c(F)c(F)c(F)c5F)c5ccc2[nH]5)C=C4)C=C3)cc1)N(C)c1ccc(C(N)=O)nn1
REMARK SMILES IDX 9 1 8 2 7 3 6 4 5 5 3 6 4 7 2 8 1 9 80 10 81 11 82 12 83 13
REMARK SMILES IDX 90 14 84 15 89 16 85 17 86 18 87 19 88 20 10 23 11 24 12 25
REMARK SMILES IDX 13 26 14 27 15 28 16 29 17 30 18 31 79 32 19 33 78 34 20 35
REMARK SMILES IDX 21 36 22 37 72 38 23 39 77 40 71 41 73 42 24 43 76 44 70 45
REMARK SMILES IDX 69 46 25 48 57 49 37 50 56 51 38 52 41 53 55 54 74 55 39 56
REMARK SMILES IDX 40 57 54 59 75 60 42 61 26 62 27 63 35 64 28 65 29 66 33 67
REMARK SMILES IDX 36 68 30 69 31 70 34 71 32 72 58 73 59 74 67 75 60 76 61 77
REMARK SMILES IDX 65 78 68 79 62 80 63 81 66 82 64 83 43 84 44 85 52 86 45 87
REMARK SMILES IDX 46 88 50 89 53 90 47 91 48 92 51 93 49 94
REMARK H PARENT 87 21 87 22 73 47 41 58
REMARK Flexibility Score: inf
ROOT
ATOM      1  C   UNL A   1      34.619  31.133  27.809  1.00  0.00     0.188 C 
ENDROOT
BRANCH   1   2
ATOM      2  O   UNL A   1      33.452  30.462  27.352  1.00  0.00    -0.376 OA
BRANCH   2   3
ATOM      3  C   UNL A   1      33.590  29.517  26.299  1.00  0.00     0.202 C 
BRANCH   3   4
ATOM      4  C   UNL A   1      32.415  28.555  26.142  1.00  0.00     0.261 C 
BRANCH   4   5
ATOM      5  O   UNL A   1      32.853  27.192  26.322  1.00  0.00    -0.462 OA
BRANCH   5   6
ATOM      6  C   UNL A   1      31.984  26.204  25.971  1.00  0.00     0.328 C 
ATOM      7  O   UNL A   1      31.026  25.864  26.658  1.00  0.00    -0.250 OA
BRANCH   6   8
ATOM      8  C   UNL A   1      32.348  25.535  24.615  1.00  0.00     0.190 C 
ATOM      9  C   UNL A   1      33.714  25.942  24.079  1.00  0.00     0.044 C 
BRANCH   8  10
ATOM     10  N   UNL A   1      31.205  25.565  23.645  1.00  0.00    -0.345 N 
ATOM     11  C   UNL A   1      30.662  24.245  23.289  1.00  0.00     0.146 C 
BRANCH  10  12
ATOM     12  C   UNL A   1      30.353  26.617  23.339  1.00  0.00     0.151 A 
ATOM     13  C   UNL A   1      29.051  26.718  23.817  1.00  0.00     0.051 A 
ATOM     14  N   UNL A   1      30.812  27.662  22.608  1.00  0.00    -0.132 NA
ATOM     15  C   UNL A   1      28.245  27.829  23.532  1.00  0.00     0.040 A 
ATOM     16  N   UNL A   1      30.024  28.777  22.303  1.00  0.00    -0.143 NA
ATOM     17  C   UNL A   1      28.767  28.842  22.765  1.00  0.00     0.150 A 
BRANCH  17  18
ATOM     18  C   UNL A   1      27.911  29.985  22.356  1.00  0.00     0.269 C 
ATOM     19  N   UNL A   1      27.760  30.182  21.013  1.00  0.00    -0.364 N 
ATOM     20  O   UNL A   1      27.309  30.670  23.171  1.00  0.00    -0.268 OA
ATOM     21  H   UNL A   1      28.254  29.620  20.373  1.00  0.00     0.160 HD
ATOM     22  H   UNL A   1      27.158  30.888  20.683  1.00  0.00     0.160 HD
ENDBRANCH  17  18
ENDBRANCH  10  12
ENDBRANCH   8  10
ENDBRANCH   6   8
ENDBRANCH   5   6
ENDBRANCH   4   5
ENDBRANCH   3   4
ENDBRANCH   2   3
ENDBRANCH   1   2
BRANCH   1  23
ATOM     23  C   UNL A   1      34.497  32.049  29.042  1.00  0.00     0.188 C 
BRANCH  23  24
ATOM     24  O   UNL A   1      34.799  33.429  28.895  1.00  0.00    -0.376 OA
BRANCH  24  25
ATOM     25  C   UNL A   1      33.874  34.207  28.140  1.00  0.00     0.202 C 
BRANCH  25  26
ATOM     26  C   UNL A   1      33.324  35.423  28.883  1.00  0.00     0.261 C 
BRANCH  26  27
ATOM     27  O   UNL A   1      32.618  35.002  30.065  1.00  0.00    -0.460 OA
BRANCH  27  28
ATOM     28  C   UNL A   1      32.809  35.801  31.138  1.00  0.00     0.338 C 
ATOM     29  O   UNL A   1      32.239  36.854  31.364  1.00  0.00    -0.246 OA
BRANCH  28  30
ATOM     30  C   UNL A   1      33.761  35.189  32.097  1.00  0.00     0.060 A 
ATOM     31  C   UNL A   1      35.013  35.755  32.338  1.00  0.00     0.016 A 
ATOM     32  C   UNL A   1      33.492  33.906  32.576  1.00  0.00     0.016 A 
ATOM     33  C   UNL A   1      36.024  35.007  32.950  1.00  0.00     0.010 A 
ATOM     34  C   UNL A   1      34.493  33.174  33.229  1.00  0.00     0.010 A 
ATOM     35  C   UNL A   1      35.789  33.697  33.373  1.00  0.00    -0.014 A 
BRANCH  35  36
ATOM     36  C   UNL A   1      36.910  32.822  33.817  1.00  0.00     0.031 A 
ATOM     37  C   UNL A   1      37.455  32.976  35.209  1.00  0.00     0.074 A 
ATOM     38  C   UNL A   1      37.404  31.830  33.058  1.00  0.00     0.049 A 
ATOM     39  N   UNL A   1      38.636  32.700  35.694  1.00  0.00    -0.248 NA
ATOM     40  C   UNL A   1      36.518  33.517  36.198  1.00  0.00     0.031 C 
ATOM     41  C   UNL A   1      36.885  31.398  31.765  1.00  0.00     0.029 A 
ATOM     42  N   UNL A   1      38.474  30.999  33.289  1.00  0.00    -0.354 N 
ATOM     43  C   UNL A   1      38.609  33.136  37.016  1.00  0.00     0.074 A 
ATOM     44  C   UNL A   1      37.282  33.646  37.271  1.00  0.00     0.031 C 
ATOM     45  C   UNL A   1      37.633  30.378  31.315  1.00  0.00     0.029 A 
ATOM     46  C   UNL A   1      38.753  30.176  32.229  1.00  0.00     0.049 A 
ATOM     47  H   UNL A   1      38.988  30.996  34.129  1.00  0.00     0.167 HD
ATOM     48  C   UNL A   1      39.612  33.109  37.925  1.00  0.00     0.037 A 
ATOM     49  C   UNL A   1      39.837  29.420  31.979  1.00  0.00     0.037 A 
ATOM     50  C   UNL A   1      40.863  32.439  37.696  1.00  0.00     0.049 A 
ATOM     51  C   UNL A   1      40.969  29.409  32.968  1.00  0.00     0.074 A 
ATOM     52  C   UNL A   1      41.974  32.358  38.516  1.00  0.00     0.029 A 
ATOM     53  N   UNL A   1      41.128  31.661  36.579  1.00  0.00    -0.354 N 
ATOM     54  N   UNL A   1      41.081  30.053  34.105  1.00  0.00    -0.248 NA
ATOM     55  C   UNL A   1      42.138  28.588  32.626  1.00  0.00     0.031 C 
ATOM     56  C   UNL A   1      42.907  31.514  37.900  1.00  0.00     0.029 A 
ATOM     57  C   UNL A   1      42.366  31.059  36.706  1.00  0.00     0.049 A 
ATOM     58  H   UNL A   1      40.525  31.553  35.809  1.00  0.00     0.167 HD
ATOM     59  C   UNL A   1      42.328  29.719  34.614  1.00  0.00     0.074 A 
ATOM     60  C   UNL A   1      42.927  28.796  33.671  1.00  0.00     0.031 C 
ATOM     61  C   UNL A   1      42.930  30.141  35.753  1.00  0.00     0.037 A 
BRANCH  48  62
ATOM     62  C   UNL A   1      39.420  33.845  39.218  1.00  0.00     0.064 A 
ATOM     63  C   UNL A   1      39.812  35.178  39.396  1.00  0.00     0.173 A 
ATOM     64  C   UNL A   1      38.778  33.202  40.292  1.00  0.00     0.173 A 
ATOM     65  F   UNL A   1      40.443  35.832  38.410  1.00  0.00    -0.203 F 
ATOM     66  C   UNL A   1      39.588  35.835  40.604  1.00  0.00     0.198 A 
ATOM     67  C   UNL A   1      38.529  33.872  41.486  1.00  0.00     0.198 A 
ATOM     68  F   UNL A   1      38.379  31.928  40.175  1.00  0.00    -0.203 F 
ATOM     69  F   UNL A   1      40.005  37.099  40.765  1.00  0.00    -0.200 F 
ATOM     70  C   UNL A   1      38.938  35.186  41.643  1.00  0.00     0.200 A 
ATOM     71  F   UNL A   1      37.888  33.246  42.483  1.00  0.00    -0.200 F 
ATOM     72  F   UNL A   1      38.708  35.827  42.798  1.00  0.00    -0.200 F 
ENDBRANCH  48  62
BRANCH  49  73
ATOM     73  C   UNL A   1      39.932  28.713  30.677  1.00  0.00     0.064 A 
ATOM     74  C   UNL A   1      39.354  27.453  30.485  1.00  0.00     0.173 A 
ATOM     75  C   UNL A   1      40.557  29.321  29.576  1.00  0.00     0.173 A 
ATOM     76  F   UNL A   1      38.770  26.819  31.513  1.00  0.00    -0.203 F 
ATOM     77  C   UNL A   1      39.391  26.831  29.238  1.00  0.00     0.198 A 
ATOM     78  C   UNL A   1      40.563  28.715  28.324  1.00  0.00     0.198 A 
ATOM     79  F   UNL A   1      41.127  30.528  29.710  1.00  0.00    -0.203 F 
ATOM     80  F   UNL A   1      38.852  25.615  29.083  1.00  0.00    -0.200 F 
ATOM     81  C   UNL A   1      39.981  27.468  28.156  1.00  0.00     0.200 A 
ATOM     82  F   UNL A   1      41.115  29.346  27.279  1.00  0.00    -0.200 F 
ATOM     83  F   UNL A   1      39.990  26.881  26.952  1.00  0.00    -0.200 F 
ENDBRANCH  49  73
BRANCH  61  84
ATOM     84  C   UNL A   1      44.286  29.585  36.051  1.00  0.00     0.064 A 
ATOM     85  C   UNL A   1      44.441  28.352  36.697  1.00  0.00     0.173 A 
ATOM     86  C   UNL A   1      45.441  30.276  35.653  1.00  0.00     0.173 A 
ATOM     87  F   UNL A   1      43.364  27.664  37.106  1.00  0.00    -0.203 F 
ATOM     88  C   UNL A   1      45.708  27.838  36.956  1.00  0.00     0.198 A 
ATOM     89  C   UNL A   1      46.705  29.749  35.895  1.00  0.00     0.198 A 
ATOM     90  F   UNL A   1      45.339  31.456  35.024  1.00  0.00    -0.203 F 
ATOM     91  F   UNL A   1      45.837  26.675  37.609  1.00  0.00    -0.200 F 
ATOM     92  C   UNL A   1      46.838  28.534  36.551  1.00  0.00     0.200 A 
ATOM     93  F   UNL A   1      47.795  30.418  35.496  1.00  0.00    -0.200 F 
ATOM     94  F   UNL A   1      48.056  28.038  36.801  1.00  0.00    -0.200 F 
ENDBRANCH  61  84
ENDBRANCH  35  36
ENDBRANCH  28  30
ENDBRANCH  27  28
ENDBRANCH  26  27
ENDBRANCH  25  26
ENDBRANCH  24  25
ENDBRANCH  23  24
ENDBRANCH   1  23
TORSDOF 20
ENDMDL
MODEL 3
REMARK VINA RESULT:     -10.7      1.732      2.608
REMARK SMILES C[C@@H](C(=O)OCCOCCOCCOC(=O)c1ccc(-c2c3nc(c(-c4c(F)c(F)c(F)c(F)c4F)c4ccc([nH]4)c(-c4c(F)c(F)c(F)c(F)c4F)c4nc(c(-c5c(F)c(F)c(F)c(F)c5F)c5ccc2[nH]5)C=C4)C=C3)cc1)N(C)c1ccc(C(N)=O)nn1
REMARK SMILES IDX 9 1 8 2 7 3 6 4 5 5 3 6 4 7 2 8 1 9 80 10 81 11 82 12 83 13
REMARK SMILES IDX 90 14 84 15 89 16 85 17 86 18 87 19 88 20 10 23 11 24 12 25
REMARK SMILES IDX 13 26 14 27 15 28 16 29 17 30 18 31 79 32 19 33 78 34 20 35
REMARK SMILES IDX 21 36 22 37 72 38 23 39 77 40 71 41 73 42 24 43 76 44 70 45
REMARK SMILES IDX 69 46 25 48 57 49 37 50 56 51 38 52 41 53 55 54 74 55 39 56
REMARK SMILES IDX 40 57 54 59 75 60 42 61 26 62 27 63 35 64 28 65 29 66 33 67
REMARK SMILES IDX 36 68 30 69 31 70 34 71 32 72 58 73 59 74 67 75 60 76 61 77
REMARK SMILES IDX 65 78 68 79 62 80 63 81 66 82 64 83 43 84 44 85 52 86 45 87
REMARK SMILES IDX 46 88 50 89 53 90 47 91 48 92 51 93 49 94
REMARK H PARENT 87 21 87 22 73 47 41 58
REMARK Flexibility Score: inf
ROOT
ATOM      1  C   UNL A   1      32.596  25.984  26.127  1.00  0.00     0.188 C 
ENDROOT
BRANCH   1   2
ATOM      2  O   UNL A   1      33.493  25.952  25.025  1.00  0.00    -0.376 OA
BRANCH   2   3
ATOM      3  C   UNL A   1      33.133  25.175  23.889  1.00  0.00     0.202 C 
BRANCH   3   4
ATOM      4  C   UNL A   1      34.309  24.553  23.139  1.00  0.00     0.261 C 
BRANCH   4   5
ATOM      5  O   UNL A   1      35.322  24.114  24.067  1.00  0.00    -0.462 OA
BRANCH   5   6
ATOM      6  C   UNL A   1      36.085  23.047  23.702  1.00  0.00     0.328 C 
ATOM      7  O   UNL A   1      36.653  22.955  22.619  1.00  0.00    -0.250 OA
BRANCH   6   8
ATOM      8  C   UNL A   1      36.141  21.943  24.796  1.00  0.00     0.190 C 
ATOM      9  C   UNL A   1      37.410  21.102  24.750  1.00  0.00     0.044 C 
BRANCH   8  10
ATOM     10  N   UNL A   1      34.843  21.203  24.920  1.00  0.00    -0.345 N 
ATOM     11  C   UNL A   1      34.973  19.739  25.000  1.00  0.00     0.146 C 
BRANCH  10  12
ATOM     12  C   UNL A   1      33.611  21.676  25.347  1.00  0.00     0.151 A 
ATOM     13  C   UNL A   1      32.456  21.625  24.574  1.00  0.00     0.051 A 
ATOM     14  N   UNL A   1      33.470  22.140  26.613  1.00  0.00    -0.132 NA
ATOM     15  C   UNL A   1      31.218  22.059  25.067  1.00  0.00     0.040 A 
ATOM     16  N   UNL A   1      32.248  22.586  27.125  1.00  0.00    -0.143 NA
ATOM     17  C   UNL A   1      31.153  22.539  26.352  1.00  0.00     0.150 A 
BRANCH  17  18
ATOM     18  C   UNL A   1      29.883  23.103  26.875  1.00  0.00     0.269 C 
ATOM     19  N   UNL A   1      28.927  22.203  27.251  1.00  0.00    -0.364 N 
ATOM     20  O   UNL A   1      29.723  24.305  27.036  1.00  0.00    -0.268 OA
ATOM     21  H   UNL A   1      29.074  21.240  27.114  1.00  0.00     0.160 HD
ATOM     22  H   UNL A   1      28.088  22.518  27.660  1.00  0.00     0.160 HD
ENDBRANCH  17  18
ENDBRANCH  10  12
ENDBRANCH   8  10
ENDBRANCH   6   8
ENDBRANCH   5   6
ENDBRANCH   4   5
ENDBRANCH   3   4
ENDBRANCH   2   3
ENDBRANCH   1   2
BRANCH   1  23
ATOM     23  C   UNL A   1      31.641  27.187  26.255  1.00  0.00     0.188 C 
BRANCH  23  24
ATOM     24  O   UNL A   1      31.201  27.833  25.069  1.00  0.00    -0.376 OA
BRANCH  24  25
ATOM     25  C   UNL A   1      31.388  29.244  25.005  1.00  0.00     0.202 C 
BRANCH  25  26
ATOM     26  C   UNL A   1      32.728  29.724  25.559  1.00  0.00     0.261 C 
BRANCH  26  27
ATOM     27  O   UNL A   1      32.588  30.087  26.944  1.00  0.00    -0.460 OA
BRANCH  27  28
ATOM     28  C   UNL A   1      33.264  31.203  27.295  1.00  0.00     0.338 C 
ATOM     29  O   UNL A   1      32.793  32.318  27.438  1.00  0.00    -0.246 OA
BRANCH  28  30
ATOM     30  C   UNL A   1      34.686  30.896  27.589  1.00  0.00     0.060 A 
ATOM     31  C   UNL A   1      35.097  29.602  27.913  1.00  0.00     0.016 A 
ATOM     32  C   UNL A   1      35.572  31.958  27.778  1.00  0.00     0.016 A 
ATOM     33  C   UNL A   1      36.334  29.384  28.525  1.00  0.00     0.010 A 
ATOM     34  C   UNL A   1      36.830  31.730  28.351  1.00  0.00     0.010 A 
ATOM     35  C   UNL A   1      37.203  30.447  28.783  1.00  0.00    -0.014 A 
BRANCH  35  36
ATOM     36  C   UNL A   1      38.415  30.259  29.629  1.00  0.00     0.031 A 
ATOM     37  C   UNL A   1      39.546  29.413  29.115  1.00  0.00     0.074 A 
ATOM     38  C   UNL A   1      38.587  30.887  30.804  1.00  0.00     0.049 A 
ATOM     39  N   UNL A   1      40.463  28.740  29.757  1.00  0.00    -0.248 NA
ATOM     40  C   UNL A   1      39.657  29.326  27.656  1.00  0.00     0.031 C 
ATOM     41  C   UNL A   1      37.698  31.890  31.380  1.00  0.00     0.029 A 
ATOM     42  N   UNL A   1      39.598  30.758  31.727  1.00  0.00    -0.354 N 
ATOM     43  C   UNL A   1      41.188  28.067  28.777  1.00  0.00     0.074 A 
ATOM     44  C   UNL A   1      40.639  28.452  27.498  1.00  0.00     0.031 C 
ATOM     45  C   UNL A   1      38.203  32.292  32.557  1.00  0.00     0.029 A 
ATOM     46  C   UNL A   1      39.376  31.482  32.869  1.00  0.00     0.049 A 
ATOM     47  H   UNL A   1      40.397  30.202  31.583  1.00  0.00     0.167 HD
ATOM     48  C   UNL A   1      42.217  27.203  28.945  1.00  0.00     0.037 A 
ATOM     49  C   UNL A   1      39.989  31.426  34.066  1.00  0.00     0.037 A 
ATOM     50  C   UNL A   1      42.853  26.975  30.213  1.00  0.00     0.049 A 
ATOM     51  C   UNL A   1      41.112  30.449  34.270  1.00  0.00     0.074 A 
ATOM     52  C   UNL A   1      43.884  26.109  30.531  1.00  0.00     0.029 A 
ATOM     53  N   UNL A   1      42.559  27.691  31.364  1.00  0.00    -0.354 N 
ATOM     54  N   UNL A   1      41.626  29.589  33.423  1.00  0.00    -0.248 NA
ATOM     55  C   UNL A   1      41.724  30.413  35.605  1.00  0.00     0.031 C 
ATOM     56  C   UNL A   1      44.224  26.314  31.874  1.00  0.00     0.029 A 
ATOM     57  C   UNL A   1      43.416  27.320  32.384  1.00  0.00     0.049 A 
ATOM     58  H   UNL A   1      41.844  28.363  31.444  1.00  0.00     0.167 HD
ATOM     59  C   UNL A   1      42.617  28.910  34.118  1.00  0.00     0.074 A 
ATOM     60  C   UNL A   1      42.647  29.474  35.452  1.00  0.00     0.031 C 
ATOM     61  C   UNL A   1      43.424  27.905  33.698  1.00  0.00     0.037 A 
BRANCH  48  62
ATOM     62  C   UNL A   1      42.692  26.423  27.755  1.00  0.00     0.064 A 
ATOM     63  C   UNL A   1      42.137  25.190  27.388  1.00  0.00     0.173 A 
ATOM     64  C   UNL A   1      43.702  26.957  26.935  1.00  0.00     0.173 A 
ATOM     65  F   UNL A   1      41.183  24.629  28.145  1.00  0.00    -0.203 F 
ATOM     66  C   UNL A   1      42.586  24.512  26.256  1.00  0.00     0.198 A 
ATOM     67  C   UNL A   1      44.126  26.290  25.789  1.00  0.00     0.198 A 
ATOM     68  F   UNL A   1      44.266  28.135  27.237  1.00  0.00    -0.203 F 
ATOM     69  F   UNL A   1      42.067  23.316  25.945  1.00  0.00    -0.200 F 
ATOM     70  C   UNL A   1      43.572  25.066  25.453  1.00  0.00     0.200 A 
ATOM     71  F   UNL A   1      45.069  26.835  25.007  1.00  0.00    -0.200 F 
ATOM     72  F   UNL A   1      43.989  24.418  24.356  1.00  0.00    -0.200 F 
ENDBRANCH  48  62
BRANCH  49  73
ATOM     73  C   UNL A   1      39.458  32.249  35.182  1.00  0.00     0.064 A 
ATOM     74  C   UNL A   1      38.595  31.709  36.142  1.00  0.00     0.173 A 
ATOM     75  C   UNL A   1      39.859  33.586  35.339  1.00  0.00     0.173 A 
ATOM     76  F   UNL A   1      38.162  30.446  36.019  1.00  0.00    -0.203 F 
ATOM     77  C   UNL A   1      38.159  32.474  37.223  1.00  0.00     0.198 A 
ATOM     78  C   UNL A   1      39.451  34.336  36.436  1.00  0.00     0.198 A 
ATOM     79  F   UNL A   1      40.685  34.149  34.444  1.00  0.00    -0.203 F 
ATOM     80  F   UNL A   1      37.315  31.944  38.117  1.00  0.00    -0.200 F 
ATOM     81  C   UNL A   1      38.599  33.781  37.377  1.00  0.00     0.200 A 
ATOM     82  F   UNL A   1      39.897  35.591  36.591  1.00  0.00    -0.200 F 
ATOM     83  F   UNL A   1      38.202  34.504  38.432  1.00  0.00    -0.200 F 
ENDBRANCH  49  73
BRANCH  61  84
ATOM     84  C   UNL A   1      44.422  27.379  34.680  1.00  0.00     0.064 A 
ATOM     85  C   UNL A   1      44.134  26.271  35.487  1.00  0.00     0.173 A 
ATOM     86  C   UNL A   1      45.692  27.967  34.785  1.00  0.00     0.173 A 
ATOM     87  F   UNL A   1      42.927  25.687  35.426  1.00  0.00    -0.203 F 
ATOM     88  C   UNL A   1      45.076  25.782  36.386  1.00  0.00     0.198 A 
ATOM     89  C   UNL A   1      46.638  27.461  35.671  1.00  0.00     0.198 A 
ATOM     90  F   UNL A   1      46.013  29.024  34.026  1.00  0.00    -0.203 F 
ATOM     91  F   UNL A   1      44.769  24.745  37.178  1.00  0.00    -0.200 F 
ATOM     92  C   UNL A   1      46.328  26.374  36.474  1.00  0.00     0.200 A 
ATOM     93  F   UNL A   1      47.850  28.028  35.749  1.00  0.00    -0.200 F 
ATOM     94  F   UNL A   1      47.234  25.901  37.340  1.00  0.00    -0.200 F 
ENDBRANCH  61  84
ENDBRANCH  35  36
ENDBRANCH  28  30
ENDBRANCH  27  28
ENDBRANCH  26  27
ENDBRANCH  25  26
ENDBRANCH  24  25
ENDBRANCH  23  24
ENDBRANCH   1  23
TORSDOF 20
ENDMDL
