MODEL 1
REMARK VINA RESULT:     -10.8      0.000      0.000
REMARK SMILES O=C(OCCOCCOCCOC(=O)c1ccc(NC(=O)c2ccc([N+](=O)[O-])cc2Cl)cc1Cl)c1ccc(-c2c3nc(c(-c4c(F)c(F)c(F)c(F)c4F)c4ccc([nH]4)c(-c4c(F)c(F)c(F)c(F)c4F)c4nc(c(-c5c(F)c(F)c(F)c(F)c5F)c5ccc2[nH]5)C=C4)C=C3)cc1
REMARK SMILES IDX 8 1 7 2 6 3 5 4 4 5 3 6 2 7 1 8 35 9 36 10 97 11 37 12 96 13
REMARK SMILES IDX 38 14 39 15 40 16 90 17 41 18 95 19 89 20 91 21 42 22 94 23
REMARK SMILES IDX 88 24 87 25 43 27 75 28 55 29 74 30 56 31 59 32 73 33 92 34
REMARK SMILES IDX 57 35 58 36 72 38 93 39 60 40 44 41 45 42 53 43 46 44 47 45
REMARK SMILES IDX 51 46 54 47 48 48 49 49 52 50 50 51 76 52 77 53 85 54 78 55
REMARK SMILES IDX 79 56 83 57 86 58 80 59 81 60 84 61 82 62 61 63 62 64 70 65
REMARK SMILES IDX 63 66 64 67 68 68 71 69 65 70 66 71 69 72 67 73 9 74 10 75
REMARK SMILES IDX 11 76 12 77 13 78 14 79 15 80 16 81 33 82 17 83 32 84 34 85
REMARK SMILES IDX 18 86 19 87 20 88 21 90 22 91 23 92 30 93 24 94 29 95 31 96
REMARK SMILES IDX 25 97 26 98 27 99 28 100
REMARK H PARENT 91 26 59 37 19 89
REMARK Flexibility Score: inf
ROOT
ATOM      1  C   UNL A   1      41.796  21.852  27.993  1.00  0.00     0.188 C 
ENDROOT
BRANCH   1   2
ATOM      2  C   UNL A   1      42.106  20.768  26.955  1.00  0.00     0.188 C 
BRANCH   2   3
ATOM      3  O   UNL A   1      42.131  19.479  27.584  1.00  0.00    -0.376 OA
BRANCH   3   4
ATOM      4  C   UNL A   1      42.841  18.487  26.839  1.00  0.00     0.202 C 
BRANCH   4   5
ATOM      5  C   UNL A   1      42.893  18.766  25.333  1.00  0.00     0.261 C 
BRANCH   5   6
ATOM      6  O   UNL A   1      44.193  18.480  24.790  1.00  0.00    -0.460 OA
BRANCH   6   7
ATOM      7  C   UNL A   1      45.040  19.363  24.205  1.00  0.00     0.338 C 
ATOM      8  O   UNL A   1      45.740  19.007  23.260  1.00  0.00    -0.246 OA
BRANCH   7   9
ATOM      9  C   UNL A   1      45.106  20.794  24.611  1.00  0.00     0.060 A 
ATOM     10  C   UNL A   1      44.641  21.853  23.830  1.00  0.00     0.016 A 
ATOM     11  C   UNL A   1      45.589  21.073  25.896  1.00  0.00     0.016 A 
ATOM     12  C   UNL A   1      44.767  23.171  24.260  1.00  0.00     0.010 A 
ATOM     13  C   UNL A   1      45.641  22.389  26.363  1.00  0.00     0.010 A 
ATOM     14  C   UNL A   1      45.255  23.455  25.536  1.00  0.00    -0.014 A 
BRANCH  14  15
ATOM     15  C   UNL A   1      45.415  24.866  25.969  1.00  0.00     0.031 A 
ATOM     16  C   UNL A   1      46.750  25.533  25.809  1.00  0.00     0.074 A 
ATOM     17  C   UNL A   1      44.366  25.562  26.451  1.00  0.00     0.049 A 
ATOM     18  N   UNL A   1      47.144  26.715  26.207  1.00  0.00    -0.248 NA
ATOM     19  C   UNL A   1      47.785  24.760  25.102  1.00  0.00     0.031 C 
ATOM     20  C   UNL A   1      43.001  25.050  26.585  1.00  0.00     0.029 A 
ATOM     21  N   UNL A   1      44.280  26.853  26.910  1.00  0.00    -0.354 N 
ATOM     22  C   UNL A   1      48.474  26.814  25.824  1.00  0.00     0.074 A 
ATOM     23  C   UNL A   1      48.832  25.563  25.193  1.00  0.00     0.031 C 
ATOM     24  C   UNL A   1      42.214  26.023  27.068  1.00  0.00     0.029 A 
ATOM     25  C   UNL A   1      43.027  27.196  27.353  1.00  0.00     0.049 A 
ATOM     26  H   UNL A   1      45.044  27.474  26.918  1.00  0.00     0.167 HD
ATOM     27  C   UNL A   1      49.317  27.864  25.969  1.00  0.00     0.037 A 
ATOM     28  C   UNL A   1      42.586  28.318  27.954  1.00  0.00     0.037 A 
ATOM     29  C   UNL A   1      48.945  29.116  26.567  1.00  0.00     0.049 A 
ATOM     30  C   UNL A   1      43.556  29.444  28.171  1.00  0.00     0.074 A 
ATOM     31  C   UNL A   1      49.721  30.239  26.782  1.00  0.00     0.029 A 
ATOM     32  N   UNL A   1      47.672  29.409  27.037  1.00  0.00    -0.354 N 
ATOM     33  N   UNL A   1      44.822  29.516  27.836  1.00  0.00    -0.248 NA
ATOM     34  C   UNL A   1      43.044  30.644  28.844  1.00  0.00     0.031 C 
ATOM     35  C   UNL A   1      48.922  31.207  27.403  1.00  0.00     0.029 A 
ATOM     36  C   UNL A   1      47.641  30.696  27.546  1.00  0.00     0.049 A 
ATOM     37  H   UNL A   1      46.905  28.793  27.013  1.00  0.00     0.167 HD
ATOM     38  C   UNL A   1      45.251  30.774  28.228  1.00  0.00     0.074 A 
ATOM     39  C   UNL A   1      44.106  31.437  28.823  1.00  0.00     0.031 C 
ATOM     40  C   UNL A   1      46.479  31.333  28.110  1.00  0.00     0.037 A 
BRANCH  27  41
ATOM     41  C   UNL A   1      50.724  27.669  25.490  1.00  0.00     0.064 A 
ATOM     42  C   UNL A   1      51.071  27.835  24.139  1.00  0.00     0.173 A 
ATOM     43  C   UNL A   1      51.726  27.262  26.382  1.00  0.00     0.173 A 
ATOM     44  F   UNL A   1      50.140  28.195  23.244  1.00  0.00    -0.203 F 
ATOM     45  C   UNL A   1      52.361  27.561  23.694  1.00  0.00     0.198 A 
ATOM     46  C   UNL A   1      53.022  27.013  25.936  1.00  0.00     0.198 A 
ATOM     47  F   UNL A   1      51.445  27.085  27.681  1.00  0.00    -0.203 F 
ATOM     48  F   UNL A   1      52.652  27.659  22.389  1.00  0.00    -0.200 F 
ATOM     49  C   UNL A   1      53.335  27.150  24.592  1.00  0.00     0.200 A 
ATOM     50  F   UNL A   1      53.963  26.618  26.805  1.00  0.00    -0.200 F 
ATOM     51  F   UNL A   1      54.572  26.870  24.159  1.00  0.00    -0.200 F 
ENDBRANCH  27  41
BRANCH  28  52
ATOM     52  C   UNL A   1      41.170  28.417  28.403  1.00  0.00     0.064 A 
ATOM     53  C   UNL A   1      40.782  28.000  29.684  1.00  0.00     0.173 A 
ATOM     54  C   UNL A   1      40.174  28.941  27.563  1.00  0.00     0.173 A 
ATOM     55  F   UNL A   1      41.692  27.482  30.522  1.00  0.00    -0.203 F 
ATOM     56  C   UNL A   1      39.454  28.083  30.099  1.00  0.00     0.198 A 
ATOM     57  C   UNL A   1      38.852  29.048  27.989  1.00  0.00     0.198 A 
ATOM     58  F   UNL A   1      40.488  29.380  26.335  1.00  0.00    -0.203 F 
ATOM     59  F   UNL A   1      39.106  27.641  31.315  1.00  0.00    -0.200 F 
ATOM     60  C   UNL A   1      38.490  28.610  29.253  1.00  0.00     0.200 A 
ATOM     61  F   UNL A   1      37.933  29.589  27.176  1.00  0.00    -0.200 F 
ATOM     62  F   UNL A   1      37.215  28.696  29.654  1.00  0.00    -0.200 F 
ENDBRANCH  28  52
BRANCH  40  63
ATOM     63  C   UNL A   1      46.632  32.744  28.590  1.00  0.00     0.064 A 
ATOM     64  C   UNL A   1      46.396  33.835  27.744  1.00  0.00     0.173 A 
ATOM     65  C   UNL A   1      46.974  33.001  29.926  1.00  0.00     0.173 A 
ATOM     66  F   UNL A   1      46.085  33.635  26.455  1.00  0.00    -0.203 F 
ATOM     67  C   UNL A   1      46.513  35.139  28.216  1.00  0.00     0.198 A 
ATOM     68  C   UNL A   1      47.068  34.305  30.399  1.00  0.00     0.198 A 
ATOM     69  F   UNL A   1      47.206  31.985  30.771  1.00  0.00    -0.203 F 
ATOM     70  F   UNL A   1      46.318  36.170  27.382  1.00  0.00    -0.200 F 
ATOM     71  C   UNL A   1      46.842  35.373  29.543  1.00  0.00     0.200 A 
ATOM     72  F   UNL A   1      47.379  34.529  31.683  1.00  0.00    -0.200 F 
ATOM     73  F   UNL A   1      46.947  36.629  29.997  1.00  0.00    -0.200 F 
ENDBRANCH  40  63
ENDBRANCH  14  15
ENDBRANCH   7   9
ENDBRANCH   6   7
ENDBRANCH   5   6
ENDBRANCH   4   5
ENDBRANCH   3   4
ENDBRANCH   2   3
ENDBRANCH   1   2
BRANCH   1  74
ATOM     74  O   UNL A   1      40.489  22.422  27.884  1.00  0.00    -0.376 OA
BRANCH  74  75
ATOM     75  C   UNL A   1      40.045  22.749  26.569  1.00  0.00     0.202 C 
BRANCH  75  76
ATOM     76  C   UNL A   1      38.806  21.994  26.079  1.00  0.00     0.261 C 
BRANCH  76  77
ATOM     77  O   UNL A   1      37.636  22.814  25.895  1.00  0.00    -0.460 OA
BRANCH  77  78
ATOM     78  C   UNL A   1      36.493  22.117  25.680  1.00  0.00     0.339 C 
ATOM     79  O   UNL A   1      36.333  20.910  25.721  1.00  0.00    -0.246 OA
BRANCH  78  80
ATOM     80  C   UNL A   1      35.385  23.023  25.350  1.00  0.00     0.078 A 
ATOM     81  C   UNL A   1      34.454  23.349  26.339  1.00  0.00     0.019 A 
ATOM     82  C   UNL A   1      35.138  23.383  24.027  1.00  0.00     0.057 A 
ATOM     83  C   UNL A   1      33.275  24.033  26.003  1.00  0.00     0.027 A 
ATOM     84  C   UNL A   1      33.951  24.053  23.699  1.00  0.00     0.047 A 
ATOM     85  Cl  UNL A   1      36.246  23.032  22.750  1.00  0.00    -0.083 Cl
ATOM     86  C   UNL A   1      33.010  24.393  24.680  1.00  0.00     0.043 A 
BRANCH  86  87
ATOM     87  N   UNL A   1      31.832  25.018  24.224  1.00  0.00    -0.322 N 
ATOM     88  C   UNL A   1      31.220  26.217  24.508  1.00  0.00     0.257 C 
ATOM     89  H   UNL A   1      31.342  24.482  23.558  1.00  0.00     0.170 HD
ATOM     90  O   UNL A   1      30.070  26.433  24.132  1.00  0.00    -0.269 OA
BRANCH  88  91
ATOM     91  C   UNL A   1      31.912  27.287  25.235  1.00  0.00     0.059 A 
ATOM     92  C   UNL A   1      31.461  27.603  26.524  1.00  0.00     0.022 A 
ATOM     93  C   UNL A   1      32.958  28.010  24.653  1.00  0.00     0.060 A 
ATOM     94  C   UNL A   1      32.120  28.585  27.268  1.00  0.00     0.086 A 
ATOM     95  C   UNL A   1      33.635  28.978  25.399  1.00  0.00     0.107 A 
ATOM     96  Cl  UNL A   1      33.419  27.776  23.011  1.00  0.00    -0.083 Cl
ATOM     97  C   UNL A   1      33.221  29.252  26.710  1.00  0.00     0.270 A 
BRANCH  97  98
ATOM     98  N   UNL A   1      33.941  30.259  27.500  1.00  0.00     0.062 N 
ATOM     99  O   UNL A   1      33.402  31.364  27.648  1.00  0.00    -0.258 OA
ATOM    100  O   UNL A   1      35.045  29.942  27.962  1.00  0.00    -0.258 OA
ENDBRANCH  97  98
ENDBRANCH  88  91
ENDBRANCH  86  87
ENDBRANCH  78  80
ENDBRANCH  77  78
ENDBRANCH  76  77
ENDBRANCH  75  76
ENDBRANCH  74  75
ENDBRANCH   1  74
TORSDOF 20
ENDMDL
MODEL 2
REMARK VINA RESULT:     -10.8      6.401     12.484
REMARK SMILES O=C(OCCOCCOCCOC(=O)c1ccc(NC(=O)c2ccc([N+](=O)[O-])cc2Cl)cc1Cl)c1ccc(-c2c3nc(c(-c4c(F)c(F)c(F)c(F)c4F)c4ccc([nH]4)c(-c4c(F)c(F)c(F)c(F)c4F)c4nc(c(-c5c(F)c(F)c(F)c(F)c5F)c5ccc2[nH]5)C=C4)C=C3)cc1
REMARK SMILES IDX 8 1 7 2 6 3 5 4 4 5 3 6 2 7 1 8 35 9 36 10 97 11 37 12 96 13
REMARK SMILES IDX 38 14 39 15 40 16 90 17 41 18 95 19 89 20 91 21 42 22 94 23
REMARK SMILES IDX 88 24 87 25 43 27 75 28 55 29 74 30 56 31 59 32 73 33 92 34
REMARK SMILES IDX 57 35 58 36 72 38 93 39 60 40 44 41 45 42 53 43 46 44 47 45
REMARK SMILES IDX 51 46 54 47 48 48 49 49 52 50 50 51 76 52 77 53 85 54 78 55
REMARK SMILES IDX 79 56 83 57 86 58 80 59 81 60 84 61 82 62 61 63 62 64 70 65
REMARK SMILES IDX 63 66 64 67 68 68 71 69 65 70 66 71 69 72 67 73 9 74 10 75
REMARK SMILES IDX 11 76 12 77 13 78 14 79 15 80 16 81 33 82 17 83 32 84 34 85
REMARK SMILES IDX 18 86 19 87 20 88 21 90 22 91 23 92 30 93 24 94 29 95 31 96
REMARK SMILES IDX 25 97 26 98 27 99 28 100
REMARK H PARENT 91 26 59 37 19 89
REMARK Flexibility Score: inf
ROOT
ATOM      1  C   UNL A   1      35.348  32.345  27.920  1.00  0.00     0.188 C 
ENDROOT
BRANCH   1   2
ATOM      2  C   UNL A   1      35.357  33.517  28.909  1.00  0.00     0.188 C 
BRANCH   2   3
ATOM      3  O   UNL A   1      34.615  34.620  28.369  1.00  0.00    -0.376 OA
BRANCH   3   4
ATOM      4  C   UNL A   1      33.258  34.677  28.817  1.00  0.00     0.202 C 
BRANCH   4   5
ATOM      5  C   UNL A   1      32.911  35.968  29.566  1.00  0.00     0.261 C 
BRANCH   5   6
ATOM      6  O   UNL A   1      32.133  35.697  30.745  1.00  0.00    -0.460 OA
BRANCH   6   7
ATOM      7  C   UNL A   1      32.578  35.684  32.026  1.00  0.00     0.338 C 
ATOM      8  O   UNL A   1      31.895  36.184  32.916  1.00  0.00    -0.246 OA
BRANCH   7   9
ATOM      9  C   UNL A   1      33.843  35.009  32.424  1.00  0.00     0.060 A 
ATOM     10  C   UNL A   1      35.097  35.621  32.409  1.00  0.00     0.016 A 
ATOM     11  C   UNL A   1      33.742  33.704  32.924  1.00  0.00     0.016 A 
ATOM     12  C   UNL A   1      36.244  34.916  32.762  1.00  0.00     0.010 A 
ATOM     13  C   UNL A   1      34.882  33.021  33.357  1.00  0.00     0.010 A 
ATOM     14  C   UNL A   1      36.150  33.613  33.254  1.00  0.00    -0.014 A 
BRANCH  14  15
ATOM     15  C   UNL A   1      37.383  32.861  33.596  1.00  0.00     0.031 A 
ATOM     16  C   UNL A   1      38.064  33.131  34.907  1.00  0.00     0.074 A 
ATOM     17  C   UNL A   1      37.861  31.909  32.771  1.00  0.00     0.049 A 
ATOM     18  N   UNL A   1      39.198  32.669  35.367  1.00  0.00    -0.248 NA
ATOM     19  C   UNL A   1      37.370  34.048  35.826  1.00  0.00     0.031 C 
ATOM     20  C   UNL A   1      37.248  31.501  31.506  1.00  0.00     0.029 A 
ATOM     21  N   UNL A   1      38.968  31.103  32.876  1.00  0.00    -0.354 N 
ATOM     22  C   UNL A   1      39.364  33.261  36.612  1.00  0.00     0.074 A 
ATOM     23  C   UNL A   1      38.235  34.139  36.823  1.00  0.00     0.031 C 
ATOM     24  C   UNL A   1      37.973  30.509  30.967  1.00  0.00     0.029 A 
ATOM     25  C   UNL A   1      39.141  30.266  31.802  1.00  0.00     0.049 A 
ATOM     26  H   UNL A   1      39.578  31.123  33.647  1.00  0.00     0.167 HD
ATOM     27  C   UNL A   1      40.362  33.072  37.507  1.00  0.00     0.037 A 
ATOM     28  C   UNL A   1      40.144  29.418  31.503  1.00  0.00     0.037 A 
ATOM     29  C   UNL A   1      41.464  32.174  37.305  1.00  0.00     0.049 A 
ATOM     30  C   UNL A   1      41.279  29.279  32.478  1.00  0.00     0.074 A 
ATOM     31  C   UNL A   1      42.538  31.918  38.137  1.00  0.00     0.029 A 
ATOM     32  N   UNL A   1      41.620  31.369  36.185  1.00  0.00    -0.354 N 
ATOM     33  N   UNL A   1      41.445  29.867  33.638  1.00  0.00    -0.248 NA
ATOM     34  C   UNL A   1      42.363  28.359  32.111  1.00  0.00     0.031 C 
ATOM     35  C   UNL A   1      43.358  30.972  37.508  1.00  0.00     0.029 A 
ATOM     36  C   UNL A   1      42.777  30.618  36.299  1.00  0.00     0.049 A 
ATOM     37  H   UNL A   1      41.000  31.338  35.421  1.00  0.00     0.167 HD
ATOM     38  C   UNL A   1      42.632  29.371  34.152  1.00  0.00     0.074 A 
ATOM     39  C   UNL A   1      43.144  28.425  33.180  1.00  0.00     0.031 C 
ATOM     40  C   UNL A   1      43.246  29.669  35.323  1.00  0.00     0.037 A 
BRANCH  27  41
ATOM     41  C   UNL A   1      40.298  33.884  38.766  1.00  0.00     0.064 A 
ATOM     42  C   UNL A   1      39.564  33.454  39.883  1.00  0.00     0.173 A 
ATOM     43  C   UNL A   1      40.938  35.130  38.839  1.00  0.00     0.173 A 
ATOM     44  F   UNL A   1      38.912  32.283  39.850  1.00  0.00    -0.203 F 
ATOM     45  C   UNL A   1      39.439  34.262  41.010  1.00  0.00     0.198 A 
ATOM     46  C   UNL A   1      40.830  35.924  39.979  1.00  0.00     0.198 A 
ATOM     47  F   UNL A   1      41.648  35.588  37.797  1.00  0.00    -0.203 F 
ATOM     48  F   UNL A   1      38.676  33.861  42.037  1.00  0.00    -0.200 F 
ATOM     49  C   UNL A   1      40.072  35.495  41.057  1.00  0.00     0.200 A 
ATOM     50  F   UNL A   1      41.444  37.114  40.024  1.00  0.00    -0.200 F 
ATOM     51  F   UNL A   1      39.937  36.278  42.136  1.00  0.00    -0.200 F 
ENDBRANCH  27  41
BRANCH  28  52
ATOM     52  C   UNL A   1      40.124  28.659  30.223  1.00  0.00     0.064 A 
ATOM     53  C   UNL A   1      39.487  27.415  30.125  1.00  0.00     0.173 A 
ATOM     54  C   UNL A   1      40.735  29.167  29.065  1.00  0.00     0.173 A 
ATOM     55  F   UNL A   1      38.897  26.879  31.203  1.00  0.00    -0.203 F 
ATOM     56  C   UNL A   1      39.479  26.699  28.928  1.00  0.00     0.198 A 
ATOM     57  C   UNL A   1      40.704  28.463  27.863  1.00  0.00     0.198 A 
ATOM     58  F   UNL A   1      41.339  30.364  29.089  1.00  0.00    -0.203 F 
ATOM     59  F   UNL A   1      38.896  25.494  28.874  1.00  0.00    -0.200 F 
ATOM     60  C   UNL A   1      40.084  27.225  27.797  1.00  0.00     0.200 A 
ATOM     61  F   UNL A   1      41.263  28.995  26.766  1.00  0.00    -0.200 F 
ATOM     62  F   UNL A   1      40.072  26.541  26.645  1.00  0.00    -0.200 F 
ENDBRANCH  28  52
BRANCH  40  63
ATOM     63  C   UNL A   1      44.511  28.930  35.632  1.00  0.00     0.064 A 
ATOM     64  C   UNL A   1      45.765  29.442  35.272  1.00  0.00     0.173 A 
ATOM     65  C   UNL A   1      44.466  27.717  36.337  1.00  0.00     0.173 A 
ATOM     66  F   UNL A   1      45.853  30.588  34.581  1.00  0.00    -0.203 F 
ATOM     67  C   UNL A   1      46.932  28.756  35.595  1.00  0.00     0.198 A 
ATOM     68  C   UNL A   1      45.636  27.047  36.677  1.00  0.00     0.198 A 
ATOM     69  F   UNL A   1      43.287  27.193  36.703  1.00  0.00    -0.203 F 
ATOM     70  F   UNL A   1      48.120  29.244  35.211  1.00  0.00    -0.200 F 
ATOM     71  C   UNL A   1      46.867  27.564  36.301  1.00  0.00     0.200 A 
ATOM     72  F   UNL A   1      45.572  25.900  37.365  1.00  0.00    -0.200 F 
ATOM     73  F   UNL A   1      47.993  26.909  36.617  1.00  0.00    -0.200 F 
ENDBRANCH  40  63
ENDBRANCH  14  15
ENDBRANCH   7   9
ENDBRANCH   6   7
ENDBRANCH   5   6
ENDBRANCH   4   5
ENDBRANCH   3   4
ENDBRANCH   2   3
ENDBRANCH   1   2
BRANCH   1  74
ATOM     74  O   UNL A   1      36.451  31.446  28.056  1.00  0.00    -0.376 OA
BRANCH  74  75
ATOM     75  C   UNL A   1      36.230  30.099  27.644  1.00  0.00     0.202 C 
BRANCH  75  76
ATOM     76  C   UNL A   1      34.767  29.702  27.424  1.00  0.00     0.261 C 
BRANCH  76  77
ATOM     77  O   UNL A   1      34.536  28.879  26.265  1.00  0.00    -0.460 OA
BRANCH  77  78
ATOM     78  C   UNL A   1      33.327  29.063  25.680  1.00  0.00     0.339 C 
ATOM     79  O   UNL A   1      32.658  30.081  25.650  1.00  0.00    -0.246 OA
BRANCH  78  80
ATOM     80  C   UNL A   1      32.855  27.820  25.055  1.00  0.00     0.078 A 
ATOM     81  C   UNL A   1      32.175  26.881  25.835  1.00  0.00     0.019 A 
ATOM     82  C   UNL A   1      33.261  27.480  23.766  1.00  0.00     0.057 A 
ATOM     83  C   UNL A   1      31.904  25.603  25.325  1.00  0.00     0.027 A 
ATOM     84  C   UNL A   1      32.997  26.195  23.271  1.00  0.00     0.047 A 
ATOM     85  Cl  UNL A   1      34.090  28.589  22.734  1.00  0.00    -0.083 Cl
ATOM     86  C   UNL A   1      32.311  25.244  24.039  1.00  0.00     0.043 A 
BRANCH  86  87
ATOM     87  N   UNL A   1      32.151  23.971  23.455  1.00  0.00    -0.322 N 
ATOM     88  C   UNL A   1      32.994  22.901  23.262  1.00  0.00     0.257 C 
ATOM     89  H   UNL A   1      31.241  23.813  23.114  1.00  0.00     0.170 HD
ATOM     90  O   UNL A   1      32.666  21.977  22.522  1.00  0.00    -0.269 OA
BRANCH  88  91
ATOM     91  C   UNL A   1      34.290  22.802  23.942  1.00  0.00     0.059 A 
ATOM     92  C   UNL A   1      35.449  23.013  23.182  1.00  0.00     0.022 A 
ATOM     93  C   UNL A   1      34.382  22.460  25.296  1.00  0.00     0.060 A 
ATOM     94  C   UNL A   1      36.701  22.972  23.801  1.00  0.00     0.086 A 
ATOM     95  C   UNL A   1      35.629  22.439  25.925  1.00  0.00     0.107 A 
ATOM     96  Cl  UNL A   1      32.997  22.016  26.215  1.00  0.00    -0.083 Cl
ATOM     97  C   UNL A   1      36.783  22.709  25.177  1.00  0.00     0.270 A 
BRANCH  97  98
ATOM     98  N   UNL A   1      38.093  22.700  25.840  1.00  0.00     0.062 N 
ATOM     99  O   UNL A   1      38.500  23.767  26.321  1.00  0.00    -0.258 OA
ATOM    100  O   UNL A   1      38.712  21.628  25.871  1.00  0.00    -0.258 OA
ENDBRANCH  97  98
ENDBRANCH  88  91
ENDBRANCH  86  87
ENDBRANCH  78  80
ENDBRANCH  77  78
ENDBRANCH  76  77
ENDBRANCH  75  76
ENDBRANCH  74  75
ENDBRANCH   1  74
TORSDOF 20
ENDMDL
MODEL 3
REMARK VINA RESULT:     -10.7      1.497      2.344
REMARK SMILES O=C(OCCOCCOCCOC(=O)c1ccc(NC(=O)c2ccc([N+](=O)[O-])cc2Cl)cc1Cl)c1ccc(-c2c3nc(c(-c4c(F)c(F)c(F)c(F)c4F)c4ccc([nH]4)c(-c4c(F)c(F)c(F)c(F)c4F)c4nc(c(-c5c(F)c(F)c(F)c(F)c5F)c5ccc2[nH]5)C=C4)C=C3)cc1
REMARK SMILES IDX 8 1 7 2 6 3 5 4 4 5 3 6 2 7 1 8 35 9 36 10 97 11 37 12 96 13
REMARK SMILES IDX 38 14 39 15 40 16 90 17 41 18 95 19 89 20 91 21 42 22 94 23
REMARK SMILES IDX 88 24 87 25 43 27 75 28 55 29 74 30 56 31 59 32 73 33 92 34
REMARK SMILES IDX 57 35 58 36 72 38 93 39 60 40 44 41 45 42 53 43 46 44 47 45
REMARK SMILES IDX 51 46 54 47 48 48 49 49 52 50 50 51 76 52 77 53 85 54 78 55
REMARK SMILES IDX 79 56 83 57 86 58 80 59 81 60 84 61 82 62 61 63 62 64 70 65
REMARK SMILES IDX 63 66 64 67 68 68 71 69 65 70 66 71 69 72 67 73 9 74 10 75
REMARK SMILES IDX 11 76 12 77 13 78 14 79 15 80 16 81 33 82 17 83 32 84 34 85
REMARK SMILES IDX 18 86 19 87 20 88 21 90 22 91 23 92 30 93 24 94 29 95 31 96
REMARK SMILES IDX 25 97 26 98 27 99 28 100
REMARK H PARENT 91 26 59 37 19 89
REMARK Flexibility Score: inf
ROOT
ATOM      1  C   UNL A   1      41.092  21.891  27.775  1.00  0.00     0.188 C 
ENDROOT
BRANCH   1   2
ATOM      2  C   UNL A   1      41.700  20.839  26.841  1.00  0.00     0.188 C 
BRANCH   2   3
ATOM      3  O   UNL A   1      42.333  19.807  27.611  1.00  0.00    -0.376 OA
BRANCH   3   4
ATOM      4  C   UNL A   1      42.653  18.637  26.855  1.00  0.00     0.202 C 
BRANCH   4   5
ATOM      5  C   UNL A   1      42.734  18.882  25.344  1.00  0.00     0.261 C 
BRANCH   5   6
ATOM      6  O   UNL A   1      44.024  18.520  24.822  1.00  0.00    -0.460 OA
BRANCH   6   7
ATOM      7  C   UNL A   1      44.969  19.364  24.338  1.00  0.00     0.338 C 
ATOM      8  O   UNL A   1      45.769  18.968  23.493  1.00  0.00    -0.246 OA
BRANCH   7   9
ATOM      9  C   UNL A   1      45.034  20.798  24.730  1.00  0.00     0.060 A 
ATOM     10  C   UNL A   1      44.687  21.858  23.890  1.00  0.00     0.016 A 
ATOM     11  C   UNL A   1      45.386  21.084  26.055  1.00  0.00     0.016 A 
ATOM     12  C   UNL A   1      44.806  23.178  24.313  1.00  0.00     0.010 A 
ATOM     13  C   UNL A   1      45.427  22.406  26.508  1.00  0.00     0.010 A 
ATOM     14  C   UNL A   1      45.163  23.469  25.631  1.00  0.00    -0.014 A 
BRANCH  14  15
ATOM     15  C   UNL A   1      45.318  24.881  26.061  1.00  0.00     0.031 A 
ATOM     16  C   UNL A   1      46.656  25.546  25.917  1.00  0.00     0.074 A 
ATOM     17  C   UNL A   1      44.263  25.580  26.525  1.00  0.00     0.049 A 
ATOM     18  N   UNL A   1      47.045  26.730  26.315  1.00  0.00    -0.248 NA
ATOM     19  C   UNL A   1      47.700  24.769  25.228  1.00  0.00     0.031 C 
ATOM     20  C   UNL A   1      42.897  25.070  26.641  1.00  0.00     0.029 A 
ATOM     21  N   UNL A   1      44.172  26.873  26.977  1.00  0.00    -0.354 N 
ATOM     22  C   UNL A   1      48.381  26.826  25.950  1.00  0.00     0.074 A 
ATOM     23  C   UNL A   1      48.747  25.572  25.329  1.00  0.00     0.031 C 
ATOM     24  C   UNL A   1      42.103  26.045  27.110  1.00  0.00     0.029 A 
ATOM     25  C   UNL A   1      42.913  27.219  27.401  1.00  0.00     0.049 A 
ATOM     26  H   UNL A   1      44.936  27.494  26.994  1.00  0.00     0.167 HD
ATOM     27  C   UNL A   1      49.222  27.876  26.103  1.00  0.00     0.037 A 
ATOM     28  C   UNL A   1      42.465  28.343  27.991  1.00  0.00     0.037 A 
ATOM     29  C   UNL A   1      48.844  29.130  26.691  1.00  0.00     0.049 A 
ATOM     30  C   UNL A   1      43.433  29.470  28.217  1.00  0.00     0.074 A 
ATOM     31  C   UNL A   1      49.618  30.254  26.912  1.00  0.00     0.029 A 
ATOM     32  N   UNL A   1      47.565  29.427  27.142  1.00  0.00    -0.354 N 
ATOM     33  N   UNL A   1      44.704  29.540  27.899  1.00  0.00    -0.248 NA
ATOM     34  C   UNL A   1      42.912  30.673  28.878  1.00  0.00     0.031 C 
ATOM     35  C   UNL A   1      48.811  31.225  27.517  1.00  0.00     0.029 A 
ATOM     36  C   UNL A   1      47.527  30.716  27.645  1.00  0.00     0.049 A 
ATOM     37  H   UNL A   1      46.797  28.811  27.109  1.00  0.00     0.167 HD
ATOM     38  C   UNL A   1      45.128  30.799  28.293  1.00  0.00     0.074 A 
ATOM     39  C   UNL A   1      43.975  31.465  28.869  1.00  0.00     0.031 C 
ATOM     40  C   UNL A   1      46.358  31.357  28.190  1.00  0.00     0.037 A 
BRANCH  27  41
ATOM     41  C   UNL A   1      50.636  27.677  25.644  1.00  0.00     0.064 A 
ATOM     42  C   UNL A   1      51.661  27.344  26.544  1.00  0.00     0.173 A 
ATOM     43  C   UNL A   1      50.979  27.871  24.299  1.00  0.00     0.173 A 
ATOM     44  F   UNL A   1      51.387  27.177  27.846  1.00  0.00    -0.203 F 
ATOM     45  C   UNL A   1      52.984  27.254  26.119  1.00  0.00     0.198 A 
ATOM     46  C   UNL A   1      52.300  27.755  23.873  1.00  0.00     0.198 A 
ATOM     47  F   UNL A   1      50.037  28.195  23.400  1.00  0.00    -0.203 F 
ATOM     48  F   UNL A   1      53.955  27.004  27.009  1.00  0.00    -0.200 F 
ATOM     49  C   UNL A   1      53.302  27.459  24.785  1.00  0.00     0.200 A 
ATOM     50  F   UNL A   1      52.607  27.952  22.584  1.00  0.00    -0.200 F 
ATOM     51  F   UNL A   1      54.578  27.388  24.381  1.00  0.00    -0.200 F 
ENDBRANCH  27  41
BRANCH  28  52
ATOM     52  C   UNL A   1      41.043  28.446  28.420  1.00  0.00     0.064 A 
ATOM     53  C   UNL A   1      40.062  28.971  27.568  1.00  0.00     0.173 A 
ATOM     54  C   UNL A   1      40.633  28.011  29.691  1.00  0.00     0.173 A 
ATOM     55  F   UNL A   1      40.402  29.410  26.347  1.00  0.00    -0.203 F 
ATOM     56  C   UNL A   1      38.733  29.077  27.976  1.00  0.00     0.198 A 
ATOM     57  C   UNL A   1      39.299  28.093  30.087  1.00  0.00     0.198 A 
ATOM     58  F   UNL A   1      41.521  27.476  30.541  1.00  0.00    -0.203 F 
ATOM     59  F   UNL A   1      37.823  29.618  27.155  1.00  0.00    -0.200 F 
ATOM     60  C   UNL A   1      38.351  28.634  29.234  1.00  0.00     0.200 A 
ATOM     61  F   UNL A   1      38.934  27.633  31.292  1.00  0.00    -0.200 F 
ATOM     62  F   UNL A   1      37.073  28.730  29.623  1.00  0.00    -0.200 F 
ENDBRANCH  28  52
BRANCH  40  63
ATOM     63  C   UNL A   1      46.505  32.769  28.666  1.00  0.00     0.064 A 
ATOM     64  C   UNL A   1      46.258  33.857  27.819  1.00  0.00     0.173 A 
ATOM     65  C   UNL A   1      46.855  33.030  30.000  1.00  0.00     0.173 A 
ATOM     66  F   UNL A   1      45.940  33.652  26.533  1.00  0.00    -0.203 F 
ATOM     67  C   UNL A   1      46.370  35.163  28.288  1.00  0.00     0.198 A 
ATOM     68  C   UNL A   1      46.944  34.336  30.470  1.00  0.00     0.198 A 
ATOM     69  F   UNL A   1      47.098  32.018  30.845  1.00  0.00    -0.203 F 
ATOM     70  F   UNL A   1      46.164  36.191  27.454  1.00  0.00    -0.200 F 
ATOM     71  C   UNL A   1      46.706  35.401  29.613  1.00  0.00     0.200 A 
ATOM     72  F   UNL A   1      47.261  34.564  31.751  1.00  0.00    -0.200 F 
ATOM     73  F   UNL A   1      46.806  36.658  30.063  1.00  0.00    -0.200 F 
ENDBRANCH  40  63
ENDBRANCH  14  15
ENDBRANCH   7   9
ENDBRANCH   6   7
ENDBRANCH   5   6
ENDBRANCH   4   5
ENDBRANCH   3   4
ENDBRANCH   2   3
ENDBRANCH   1   2
BRANCH   1  74
ATOM     74  O   UNL A   1      39.874  22.471  27.302  1.00  0.00    -0.376 OA
BRANCH  74  75
ATOM     75  C   UNL A   1      39.530  22.213  25.943  1.00  0.00     0.202 C 
BRANCH  75  76
ATOM     76  C   UNL A   1      38.210  21.469  25.721  1.00  0.00     0.261 C 
BRANCH  76  77
ATOM     77  O   UNL A   1      37.032  22.289  25.833  1.00  0.00    -0.460 OA
BRANCH  77  78
ATOM     78  C   UNL A   1      36.381  22.496  24.661  1.00  0.00     0.339 C 
ATOM     79  O   UNL A   1      36.826  22.403  23.531  1.00  0.00    -0.246 OA
BRANCH  78  80
ATOM     80  C   UNL A   1      34.986  22.891  24.902  1.00  0.00     0.078 A 
ATOM     81  C   UNL A   1      34.705  24.212  25.258  1.00  0.00     0.019 A 
ATOM     82  C   UNL A   1      33.984  21.926  24.987  1.00  0.00     0.057 A 
ATOM     83  C   UNL A   1      33.421  24.567  25.701  1.00  0.00     0.027 A 
ATOM     84  C   UNL A   1      32.709  22.288  25.445  1.00  0.00     0.047 A 
ATOM     85  Cl  UNL A   1      34.248  20.277  24.550  1.00  0.00    -0.083 Cl
ATOM     86  C   UNL A   1      32.409  23.610  25.800  1.00  0.00     0.043 A 
BRANCH  86  87
ATOM     87  N   UNL A   1      31.110  23.843  26.295  1.00  0.00    -0.322 N 
ATOM     88  C   UNL A   1      30.224  24.890  26.186  1.00  0.00     0.257 C 
ATOM     89  H   UNL A   1      30.761  23.095  26.833  1.00  0.00     0.170 HD
ATOM     90  O   UNL A   1      29.227  24.938  26.903  1.00  0.00    -0.269 OA
BRANCH  88  91
ATOM     91  C   UNL A   1      30.410  25.964  25.204  1.00  0.00     0.059 A 
ATOM     92  C   UNL A   1      30.021  25.717  23.880  1.00  0.00     0.022 A 
ATOM     93  C   UNL A   1      30.998  27.183  25.555  1.00  0.00     0.060 A 
ATOM     94  C   UNL A   1      30.139  26.728  22.922  1.00  0.00     0.086 A 
ATOM     95  C   UNL A   1      31.099  28.205  24.607  1.00  0.00     0.107 A 
ATOM     96  Cl  UNL A   1      31.652  27.457  27.122  1.00  0.00    -0.083 Cl
ATOM     97  C   UNL A   1      30.656  27.977  23.297  1.00  0.00     0.270 A 
BRANCH  97  98
ATOM     98  N   UNL A   1      30.748  29.055  22.305  1.00  0.00     0.062 N 
ATOM     99  O   UNL A   1      31.822  29.667  22.221  1.00  0.00    -0.258 OA
ATOM    100  O   UNL A   1      29.744  29.290  21.619  1.00  0.00    -0.258 OA
ENDBRANCH  97  98
ENDBRANCH  88  91
ENDBRANCH  86  87
ENDBRANCH  78  80
ENDBRANCH  77  78
ENDBRANCH  76  77
ENDBRANCH  75  76
ENDBRANCH  74  75
ENDBRANCH   1  74
TORSDOF 20
ENDMDL
