MODEL 1
REMARK VINA RESULT:     -12.8      0.000      0.000
REMARK SMILES Cc1cccc(NC(=O)[C@H]2C[C@H]2C(=O)OCCOCCOCCOC(=O)c2ccc(-c3c4nc(c(-c5c(F)c(F)c(F)c(F)c5F)c5ccc([nH]5)c(-c5c(F)c(F)c(F)c(F)c5F)c5nc(c(-c6c(F)c(F)c(F)c(F)c6F)c6ccc3[nH]6)C=C5)C=C4)cc2)c1
REMARK SMILES IDX 19 1 18 2 17 3 16 4 15 5 13 6 14 7 12 8 10 9 11 10 8 11 7 12
REMARK SMILES IDX 9 14 6 15 1 16 2 17 3 18 90 19 4 20 5 21 20 22 21 23 22 24
REMARK SMILES IDX 23 25 24 26 25 27 26 28 27 29 28 30 89 31 29 32 88 33 30 34
REMARK SMILES IDX 31 35 32 36 82 37 33 38 87 39 81 40 83 41 34 42 86 43 80 44
REMARK SMILES IDX 79 45 35 47 67 48 47 49 66 50 48 51 51 52 65 53 84 54 49 55
REMARK SMILES IDX 50 56 64 58 85 59 52 60 36 61 37 62 45 63 38 64 39 65 43 66
REMARK SMILES IDX 46 67 40 68 41 69 44 70 42 71 68 72 69 73 77 74 70 75 71 76
REMARK SMILES IDX 75 77 78 78 72 79 73 80 76 81 74 82 53 83 54 84 62 85 55 86
REMARK SMILES IDX 56 87 60 88 63 89 57 90 58 91 61 92 59 93
REMARK H PARENT 7 13 83 46 51 57
REMARK Flexibility Score: inf
ROOT
ATOM      1  C   UNL A   1      40.354  22.072  27.001  1.00  0.00     0.188 C 
ENDROOT
BRANCH   1   2
ATOM      2  O   UNL A   1      39.142  21.700  26.301  1.00  0.00    -0.376 OA
BRANCH   2   3
ATOM      3  C   UNL A   1      38.203  22.624  25.744  1.00  0.00     0.202 C 
BRANCH   3   4
ATOM      4  C   UNL A   1      36.533  22.634  26.010  1.00  0.00     0.261 C 
BRANCH   4   5
ATOM      5  O   UNL A   1      35.215  23.233  25.071  1.00  0.00    -0.463 OA
BRANCH   5   6
ATOM      6  C   UNL A   1      34.670  23.141  23.741  1.00  0.00     0.309 C 
ATOM      7  O   UNL A   1      35.094  23.628  22.708  1.00  0.00    -0.252 OA
BRANCH   6   8
ATOM      8  C   UNL A   1      33.546  22.270  23.317  1.00  0.00     0.112 C 
ATOM      9  C   UNL A   1      32.165  21.917  23.772  1.00  0.00     0.094 C 
ATOM     10  C   UNL A   1      32.331  23.232  23.146  1.00  0.00     0.030 C 
BRANCH   9  11
ATOM     11  C   UNL A   1      32.149  21.508  25.157  1.00  0.00     0.228 C 
ATOM     12  N   UNL A   1      32.414  20.188  25.411  1.00  0.00    -0.326 N 
ATOM     13  H   UNL A   1      32.360  19.961  26.367  1.00  0.00     0.169 HD
ATOM     14  O   UNL A   1      31.954  22.322  26.050  1.00  0.00    -0.274 OA
BRANCH  12  15
ATOM     15  C   UNL A   1      32.749  19.078  24.592  1.00  0.00     0.041 A 
ATOM     16  C   UNL A   1      35.057  16.106  25.164  1.00  0.00     0.044 C 
ATOM     17  C   UNL A   1      34.087  17.032  24.499  1.00  0.00    -0.049 A 
ATOM     18  C   UNL A   1      33.685  16.808  23.183  1.00  0.00     0.003 A 
ATOM     19  C   UNL A   1      33.626  18.166  25.183  1.00  0.00     0.029 A 
ATOM     20  C   UNL A   1      32.804  17.691  22.577  1.00  0.00     0.002 A 
ATOM     21  C   UNL A   1      32.336  18.810  23.279  1.00  0.00     0.026 A 
ENDBRANCH  12  15
ENDBRANCH   9  11
ENDBRANCH   6   8
ENDBRANCH   5   6
ENDBRANCH   4   5
ENDBRANCH   3   4
ENDBRANCH   2   3
ENDBRANCH   1   2
BRANCH   1  22
ATOM     22  C   UNL A   1      41.669  21.318  26.823  1.00  0.00     0.188 C 
BRANCH  22  23
ATOM     23  O   UNL A   1      41.392  19.933  26.876  1.00  0.00    -0.376 OA
BRANCH  23  24
ATOM     24  C   UNL A   1      41.869  19.160  25.794  1.00  0.00     0.202 C 
BRANCH  24  25
ATOM     25  C   UNL A   1      43.397  19.270  25.678  1.00  0.00     0.261 C 
BRANCH  25  26
ATOM     26  O   UNL A   1      43.766  19.713  24.344  1.00  0.00    -0.460 OA
BRANCH  26  27
ATOM     27  C   UNL A   1      45.078  20.064  24.122  1.00  0.00     0.338 C 
ATOM     28  O   UNL A   1      45.996  19.264  24.012  1.00  0.00    -0.246 OA
BRANCH  27  29
ATOM     29  C   UNL A   1      45.266  21.553  24.297  1.00  0.00     0.060 A 
ATOM     30  C   UNL A   1      46.228  22.193  25.096  1.00  0.00     0.016 A 
ATOM     31  C   UNL A   1      44.207  22.321  23.966  1.00  0.00     0.016 A 
ATOM     32  C   UNL A   1      45.989  23.515  25.703  1.00  0.00     0.010 A 
ATOM     33  C   UNL A   1      43.943  23.388  24.831  1.00  0.00     0.010 A 
ATOM     34  C   UNL A   1      44.739  24.160  25.698  1.00  0.00    -0.014 A 
BRANCH  34  35
ATOM     35  C   UNL A   1      44.210  25.324  26.781  1.00  0.00     0.031 A 
ATOM     36  C   UNL A   1      42.741  26.100  27.178  1.00  0.00     0.074 A 
ATOM     37  C   UNL A   1      45.186  25.821  27.583  1.00  0.00     0.049 A 
ATOM     38  N   UNL A   1      42.647  27.390  27.489  1.00  0.00    -0.248 NA
ATOM     39  C   UNL A   1      41.315  25.611  27.159  1.00  0.00     0.031 C 
ATOM     40  C   UNL A   1      45.021  26.635  28.788  1.00  0.00     0.029 A 
ATOM     41  N   UNL A   1      46.580  25.742  27.428  1.00  0.00    -0.354 N 
ATOM     42  C   UNL A   1      41.301  27.725  27.746  1.00  0.00     0.074 A 
ATOM     43  C   UNL A   1      40.518  26.640  27.343  1.00  0.00     0.031 C 
ATOM     44  C   UNL A   1      46.190  27.220  29.083  1.00  0.00     0.029 A 
ATOM     45  C   UNL A   1      47.114  26.898  28.017  1.00  0.00     0.049 A 
ATOM     46  H   UNL A   1      47.084  25.017  26.993  1.00  0.00     0.167 HD
ATOM     47  C   UNL A   1      40.835  28.798  28.436  1.00  0.00     0.037 A 
ATOM     48  C   UNL A   1      47.884  27.778  27.321  1.00  0.00     0.037 A 
ATOM     49  C   UNL A   1      41.938  29.550  28.936  1.00  0.00     0.049 A 
ATOM     50  C   UNL A   1      47.385  29.197  27.388  1.00  0.00     0.074 A 
ATOM     51  C   UNL A   1      42.639  29.490  30.125  1.00  0.00     0.029 A 
ATOM     52  N   UNL A   1      42.724  30.217  28.023  1.00  0.00    -0.354 N 
ATOM     53  N   UNL A   1      46.191  29.531  27.789  1.00  0.00    -0.248 NA
ATOM     54  C   UNL A   1      48.176  30.355  26.986  1.00  0.00     0.031 C 
ATOM     55  C   UNL A   1      43.870  30.156  29.923  1.00  0.00     0.029 A 
ATOM     56  C   UNL A   1      43.883  30.640  28.625  1.00  0.00     0.049 A 
ATOM     57  H   UNL A   1      42.489  30.367  27.079  1.00  0.00     0.167 HD
ATOM     58  C   UNL A   1      46.014  30.883  27.640  1.00  0.00     0.074 A 
ATOM     59  C   UNL A   1      47.300  31.357  27.176  1.00  0.00     0.031 C 
ATOM     60  C   UNL A   1      44.802  31.467  27.874  1.00  0.00     0.037 A 
BRANCH  47  61
ATOM     61  C   UNL A   1      39.391  28.876  28.928  1.00  0.00     0.064 A 
ATOM     62  C   UNL A   1      38.394  29.485  28.145  1.00  0.00     0.173 A 
ATOM     63  C   UNL A   1      38.962  28.475  30.216  1.00  0.00     0.173 A 
ATOM     64  F   UNL A   1      38.616  29.796  26.862  1.00  0.00    -0.203 F 
ATOM     65  C   UNL A   1      37.135  29.819  28.661  1.00  0.00     0.198 A 
ATOM     66  C   UNL A   1      37.736  28.883  30.760  1.00  0.00     0.198 A 
ATOM     67  F   UNL A   1      39.736  27.693  30.988  1.00  0.00    -0.203 F 
ATOM     68  F   UNL A   1      36.231  30.415  27.871  1.00  0.00    -0.200 F 
ATOM     69  C   UNL A   1      36.828  29.572  29.985  1.00  0.00     0.200 A 
ATOM     70  F   UNL A   1      37.453  28.630  32.048  1.00  0.00    -0.200 F 
ATOM     71  F   UNL A   1      35.660  29.980  30.500  1.00  0.00    -0.200 F 
ENDBRANCH  47  61
BRANCH  48  72
ATOM     72  C   UNL A   1      48.637  27.154  26.198  1.00  0.00     0.064 A 
ATOM     73  C   UNL A   1      48.095  27.262  24.899  1.00  0.00     0.173 A 
ATOM     74  C   UNL A   1      49.990  26.804  26.301  1.00  0.00     0.173 A 
ATOM     75  F   UNL A   1      46.808  27.611  24.738  1.00  0.00    -0.203 F 
ATOM     76  C   UNL A   1      48.891  27.142  23.761  1.00  0.00     0.198 A 
ATOM     77  C   UNL A   1      50.783  26.664  25.155  1.00  0.00     0.198 A 
ATOM     78  F   UNL A   1      50.579  26.726  27.501  1.00  0.00    -0.203 F 
ATOM     79  F   UNL A   1      48.369  27.382  22.551  1.00  0.00    -0.200 F 
ATOM     80  C   UNL A   1      50.240  26.863  23.891  1.00  0.00     0.200 A 
ATOM     81  F   UNL A   1      52.103  26.460  25.275  1.00  0.00    -0.200 F 
ATOM     82  F   UNL A   1      51.032  26.862  22.809  1.00  0.00    -0.200 F 
ENDBRANCH  48  72
BRANCH  60  83
ATOM     83  C   UNL A   1      44.312  32.838  27.443  1.00  0.00     0.064 A 
ATOM     84  C   UNL A   1      44.097  33.218  26.111  1.00  0.00     0.173 A 
ATOM     85  C   UNL A   1      43.856  33.776  28.413  1.00  0.00     0.173 A 
ATOM     86  F   UNL A   1      44.386  32.403  25.091  1.00  0.00    -0.203 F 
ATOM     87  C   UNL A   1      43.507  34.441  25.775  1.00  0.00     0.198 A 
ATOM     88  C   UNL A   1      43.196  34.955  28.074  1.00  0.00     0.198 A 
ATOM     89  F   UNL A   1      44.002  33.567  29.730  1.00  0.00    -0.203 F 
ATOM     90  F   UNL A   1      43.367  34.770  24.483  1.00  0.00    -0.200 F 
ATOM     91  C   UNL A   1      43.036  35.297  26.752  1.00  0.00     0.200 A 
ATOM     92  F   UNL A   1      42.698  35.742  29.039  1.00  0.00    -0.200 F 
ATOM     93  F   UNL A   1      42.415  36.435  26.418  1.00  0.00    -0.200 F 
ENDBRANCH  60  83
ENDBRANCH  34  35
ENDBRANCH  27  29
ENDBRANCH  26  27
ENDBRANCH  25  26
ENDBRANCH  24  25
ENDBRANCH  23  24
ENDBRANCH  22  23
ENDBRANCH   1  22
TORSDOF 19
ENDMDL
MODEL 2
REMARK VINA RESULT:     -12.7      1.472      3.029
REMARK SMILES Cc1cccc(NC(=O)[C@H]2C[C@H]2C(=O)OCCOCCOCCOC(=O)c2ccc(-c3c4nc(c(-c5c(F)c(F)c(F)c(F)c5F)c5ccc([nH]5)c(-c5c(F)c(F)c(F)c(F)c5F)c5nc(c(-c6c(F)c(F)c(F)c(F)c6F)c6ccc3[nH]6)C=C5)C=C4)cc2)c1
REMARK SMILES IDX 19 1 18 2 17 3 16 4 15 5 13 6 14 7 12 8 10 9 11 10 8 11 7 12
REMARK SMILES IDX 9 14 6 15 1 16 2 17 3 18 90 19 4 20 5 21 20 22 21 23 22 24
REMARK SMILES IDX 23 25 24 26 25 27 26 28 27 29 28 30 89 31 29 32 88 33 30 34
REMARK SMILES IDX 31 35 32 36 82 37 33 38 87 39 81 40 83 41 34 42 86 43 80 44
REMARK SMILES IDX 79 45 35 47 67 48 47 49 66 50 48 51 51 52 65 53 84 54 49 55
REMARK SMILES IDX 50 56 64 58 85 59 52 60 36 61 37 62 45 63 38 64 39 65 43 66
REMARK SMILES IDX 46 67 40 68 41 69 44 70 42 71 68 72 69 73 77 74 70 75 71 76
REMARK SMILES IDX 75 77 78 78 72 79 73 80 76 81 74 82 53 83 54 84 62 85 55 86
REMARK SMILES IDX 56 87 60 88 63 89 57 90 58 91 61 92 59 93
REMARK H PARENT 7 13 83 46 51 57
REMARK Flexibility Score: inf
ROOT
ATOM      1  C   UNL A   1      40.081  22.010  26.539  1.00  0.00     0.188 C 
ENDROOT
BRANCH   1   2
ATOM      2  O   UNL A   1      39.030  21.378  25.769  1.00  0.00    -0.376 OA
BRANCH   2   3
ATOM      3  C   UNL A   1      37.743  21.950  25.518  1.00  0.00     0.202 C 
BRANCH   3   4
ATOM      4  C   UNL A   1      36.269  21.123  25.494  1.00  0.00     0.261 C 
BRANCH   4   5
ATOM      5  O   UNL A   1      34.815  21.374  24.597  1.00  0.00    -0.463 OA
BRANCH   5   6
ATOM      6  C   UNL A   1      33.394  21.488  24.801  1.00  0.00     0.309 C 
ATOM      7  O   UNL A   1      32.666  20.805  25.499  1.00  0.00    -0.252 OA
BRANCH   6   8
ATOM      8  C   UNL A   1      32.530  22.597  24.323  1.00  0.00     0.112 C 
ATOM      9  C   UNL A   1      32.411  23.494  23.132  1.00  0.00     0.094 C 
ATOM     10  C   UNL A   1      31.967  22.109  22.954  1.00  0.00     0.030 C 
BRANCH   9  11
ATOM     11  C   UNL A   1      33.663  24.147  22.830  1.00  0.00     0.228 C 
ATOM     12  N   UNL A   1      33.801  25.441  23.259  1.00  0.00    -0.326 N 
ATOM     13  H   UNL A   1      34.661  25.844  23.000  1.00  0.00     0.169 HD
ATOM     14  O   UNL A   1      34.564  23.545  22.261  1.00  0.00    -0.274 OA
BRANCH  12  15
ATOM     15  C   UNL A   1      32.970  26.325  23.997  1.00  0.00     0.041 A 
ATOM     16  C   UNL A   1      33.602  28.367  27.146  1.00  0.00     0.044 C 
ATOM     17  C   UNL A   1      32.903  27.788  25.956  1.00  0.00    -0.049 A 
ATOM     18  C   UNL A   1      31.555  28.063  25.726  1.00  0.00     0.003 A 
ATOM     19  C   UNL A   1      33.590  26.917  25.100  1.00  0.00     0.029 A 
ATOM     20  C   UNL A   1      30.919  27.497  24.631  1.00  0.00     0.002 A 
ATOM     21  C   UNL A   1      31.624  26.643  23.772  1.00  0.00     0.026 A 
ENDBRANCH  12  15
ENDBRANCH   9  11
ENDBRANCH   6   8
ENDBRANCH   5   6
ENDBRANCH   4   5
ENDBRANCH   3   4
ENDBRANCH   2   3
ENDBRANCH   1   2
BRANCH   1  22
ATOM     22  C   UNL A   1      41.482  21.416  26.658  1.00  0.00     0.188 C 
BRANCH  22  23
ATOM     23  O   UNL A   1      41.352  20.023  26.860  1.00  0.00    -0.376 OA
BRANCH  23  24
ATOM     24  C   UNL A   1      41.835  19.195  25.823  1.00  0.00     0.202 C 
BRANCH  24  25
ATOM     25  C   UNL A   1      43.361  19.317  25.693  1.00  0.00     0.261 C 
BRANCH  25  26
ATOM     26  O   UNL A   1      43.721  19.654  24.326  1.00  0.00    -0.460 OA
BRANCH  26  27
ATOM     27  C   UNL A   1      45.039  19.948  24.061  1.00  0.00     0.338 C 
ATOM     28  O   UNL A   1      45.906  19.108  23.864  1.00  0.00    -0.246 OA
BRANCH  27  29
ATOM     29  C   UNL A   1      45.316  21.412  24.307  1.00  0.00     0.060 A 
ATOM     30  C   UNL A   1      46.223  21.955  25.233  1.00  0.00     0.016 A 
ATOM     31  C   UNL A   1      44.365  22.269  23.882  1.00  0.00     0.016 A 
ATOM     32  C   UNL A   1      46.013  23.276  25.853  1.00  0.00     0.010 A 
ATOM     33  C   UNL A   1      44.081  23.332  24.746  1.00  0.00     0.010 A 
ATOM     34  C   UNL A   1      44.824  24.017  25.724  1.00  0.00    -0.014 A 
BRANCH  34  35
ATOM     35  C   UNL A   1      44.260  25.192  26.778  1.00  0.00     0.031 A 
ATOM     36  C   UNL A   1      42.782  25.981  27.107  1.00  0.00     0.074 A 
ATOM     37  C   UNL A   1      45.206  25.685  27.618  1.00  0.00     0.049 A 
ATOM     38  N   UNL A   1      42.686  27.274  27.408  1.00  0.00    -0.248 NA
ATOM     39  C   UNL A   1      41.354  25.504  27.031  1.00  0.00     0.031 C 
ATOM     40  C   UNL A   1      44.996  26.507  28.811  1.00  0.00     0.029 A 
ATOM     41  N   UNL A   1      46.604  25.594  27.523  1.00  0.00    -0.354 N 
ATOM     42  C   UNL A   1      41.334  27.622  27.605  1.00  0.00     0.074 A 
ATOM     43  C   UNL A   1      40.559  26.541  27.175  1.00  0.00     0.031 C 
ATOM     44  C   UNL A   1      46.156  27.085  29.151  1.00  0.00     0.029 A 
ATOM     45  C   UNL A   1      47.122  26.749  28.127  1.00  0.00     0.049 A 
ATOM     46  H   UNL A   1      47.119  24.862  27.113  1.00  0.00     0.167 HD
ATOM     47  C   UNL A   1      40.847  28.703  28.268  1.00  0.00     0.037 A 
ATOM     48  C   UNL A   1      47.928  27.618  27.460  1.00  0.00     0.037 A 
ATOM     49  C   UNL A   1      41.935  29.449  28.811  1.00  0.00     0.049 A 
ATOM     50  C   UNL A   1      47.439  29.042  27.498  1.00  0.00     0.074 A 
ATOM     51  C   UNL A   1      42.584  29.390  30.029  1.00  0.00     0.029 A 
ATOM     52  N   UNL A   1      42.765  30.103  27.929  1.00  0.00    -0.354 N 
ATOM     53  N   UNL A   1      46.232  29.388  27.846  1.00  0.00    -0.248 NA
ATOM     54  C   UNL A   1      48.256  30.190  27.123  1.00  0.00     0.031 C 
ATOM     55  C   UNL A   1      43.828  30.045  29.875  1.00  0.00     0.029 A 
ATOM     56  C   UNL A   1      43.901  30.521  28.577  1.00  0.00     0.049 A 
ATOM     57  H   UNL A   1      42.571  30.250  26.975  1.00  0.00     0.167 HD
ATOM     58  C   UNL A   1      46.074  30.741  27.682  1.00  0.00     0.074 A 
ATOM     59  C   UNL A   1      47.381  31.201  27.271  1.00  0.00     0.031 C 
ATOM     60  C   UNL A   1      44.858  31.336  27.861  1.00  0.00     0.037 A 
BRANCH  47  61
ATOM     61  C   UNL A   1      39.384  28.796  28.699  1.00  0.00     0.064 A 
ATOM     62  C   UNL A   1      38.428  29.415  27.874  1.00  0.00     0.173 A 
ATOM     63  C   UNL A   1      38.897  28.399  29.967  1.00  0.00     0.173 A 
ATOM     64  F   UNL A   1      38.708  29.724  26.602  1.00  0.00    -0.203 F 
ATOM     65  C   UNL A   1      37.152  29.762  28.336  1.00  0.00     0.198 A 
ATOM     66  C   UNL A   1      37.653  28.820  30.458  1.00  0.00     0.198 A 
ATOM     67  F   UNL A   1      39.629  27.609  30.771  1.00  0.00    -0.203 F 
ATOM     68  F   UNL A   1      36.289  30.368  27.508  1.00  0.00    -0.200 F 
ATOM     69  C   UNL A   1      36.786  29.519  29.645  1.00  0.00     0.200 A 
ATOM     70  F   UNL A   1      37.313  28.570  31.733  1.00  0.00    -0.200 F 
ATOM     71  F   UNL A   1      35.601  29.939  30.110  1.00  0.00    -0.200 F 
ENDBRANCH  47  61
BRANCH  48  72
ATOM     72  C   UNL A   1      48.723  26.982  26.373  1.00  0.00     0.064 A 
ATOM     73  C   UNL A   1      48.243  27.095  25.050  1.00  0.00     0.173 A 
ATOM     74  C   UNL A   1      50.065  26.613  26.538  1.00  0.00     0.173 A 
ATOM     75  F   UNL A   1      46.970  27.461  24.830  1.00  0.00    -0.203 F 
ATOM     76  C   UNL A   1      49.088  26.960  23.951  1.00  0.00     0.198 A 
ATOM     77  C   UNL A   1      50.907  26.459  25.430  1.00  0.00     0.198 A 
ATOM     78  F   UNL A   1      50.598  26.529  27.765  1.00  0.00    -0.203 F 
ATOM     79  F   UNL A   1      48.626  27.206  22.717  1.00  0.00    -0.200 F 
ATOM     80  C   UNL A   1      50.426  26.663  24.143  1.00  0.00     0.200 A 
ATOM     81  F   UNL A   1      52.218  26.237  25.611  1.00  0.00    -0.200 F 
ATOM     82  F   UNL A   1      51.266  26.648  23.098  1.00  0.00    -0.200 F 
ENDBRANCH  48  72
BRANCH  60  83
ATOM     83  C   UNL A   1      44.398  32.708  27.402  1.00  0.00     0.064 A 
ATOM     84  C   UNL A   1      44.229  33.078  26.061  1.00  0.00     0.173 A 
ATOM     85  C   UNL A   1      43.924  33.661  28.348  1.00  0.00     0.173 A 
ATOM     86  F   UNL A   1      44.540  32.250  25.058  1.00  0.00    -0.203 F 
ATOM     87  C   UNL A   1      43.666  34.304  25.695  1.00  0.00     0.198 A 
ATOM     88  C   UNL A   1      43.289  34.845  27.978  1.00  0.00     0.198 A 
ATOM     89  F   UNL A   1      44.026  33.463  29.672  1.00  0.00    -0.203 F 
ATOM     90  F   UNL A   1      43.570  34.623  24.396  1.00  0.00    -0.200 F 
ATOM     91  C   UNL A   1      43.174  35.175  26.648  1.00  0.00     0.200 A 
ATOM     92  F   UNL A   1      42.770  35.647  28.920  1.00  0.00    -0.200 F 
ATOM     93  F   UNL A   1      42.578  36.318  26.285  1.00  0.00    -0.200 F 
ENDBRANCH  60  83
ENDBRANCH  34  35
ENDBRANCH  27  29
ENDBRANCH  26  27
ENDBRANCH  25  26
ENDBRANCH  24  25
ENDBRANCH  23  24
ENDBRANCH  22  23
ENDBRANCH   1  22
TORSDOF 19
ENDMDL
MODEL 3
REMARK VINA RESULT:     -12.6      5.929     11.974
REMARK SMILES Cc1cccc(NC(=O)[C@H]2C[C@H]2C(=O)OCCOCCOCCOC(=O)c2ccc(-c3c4nc(c(-c5c(F)c(F)c(F)c(F)c5F)c5ccc([nH]5)c(-c5c(F)c(F)c(F)c(F)c5F)c5nc(c(-c6c(F)c(F)c(F)c(F)c6F)c6ccc3[nH]6)C=C5)C=C4)cc2)c1
REMARK SMILES IDX 19 1 18 2 17 3 16 4 15 5 13 6 14 7 12 8 10 9 11 10 8 11 7 12
REMARK SMILES IDX 9 14 6 15 1 16 2 17 3 18 90 19 4 20 5 21 20 22 21 23 22 24
REMARK SMILES IDX 23 25 24 26 25 27 26 28 27 29 28 30 89 31 29 32 88 33 30 34
REMARK SMILES IDX 31 35 32 36 82 37 33 38 87 39 81 40 83 41 34 42 86 43 80 44
REMARK SMILES IDX 79 45 35 47 67 48 47 49 66 50 48 51 51 52 65 53 84 54 49 55
REMARK SMILES IDX 50 56 64 58 85 59 52 60 36 61 37 62 45 63 38 64 39 65 43 66
REMARK SMILES IDX 46 67 40 68 41 69 44 70 42 71 68 72 69 73 77 74 70 75 71 76
REMARK SMILES IDX 75 77 78 78 72 79 73 80 76 81 74 82 53 83 54 84 62 85 55 86
REMARK SMILES IDX 56 87 60 88 63 89 57 90 58 91 61 92 59 93
REMARK H PARENT 7 13 83 46 51 57
REMARK Flexibility Score: inf
ROOT
ATOM      1  C   UNL A   1      34.372  34.942  28.032  1.00  0.00     0.188 C 
ENDROOT
BRANCH   1   2
ATOM      2  O   UNL A   1      34.853  33.640  27.619  1.00  0.00    -0.376 OA
BRANCH   2   3
ATOM      3  C   UNL A   1      34.537  32.407  28.272  1.00  0.00     0.202 C 
BRANCH   3   4
ATOM      4  C   UNL A   1      34.603  30.865  27.582  1.00  0.00     0.261 C 
BRANCH   4   5
ATOM      5  O   UNL A   1      33.487  29.986  26.601  1.00  0.00    -0.463 OA
BRANCH   5   6
ATOM      6  C   UNL A   1      32.411  29.038  26.726  1.00  0.00     0.309 C 
ATOM      7  O   UNL A   1      31.609  28.910  27.635  1.00  0.00    -0.252 OA
BRANCH   6   8
ATOM      8  C   UNL A   1      31.936  28.111  25.669  1.00  0.00     0.112 C 
ATOM      9  C   UNL A   1      32.385  27.608  24.333  1.00  0.00     0.094 C 
ATOM     10  C   UNL A   1      33.082  27.066  25.504  1.00  0.00     0.030 C 
BRANCH   9  11
ATOM     11  C   UNL A   1      32.711  28.692  23.437  1.00  0.00     0.228 C 
ATOM     12  N   UNL A   1      31.659  29.330  22.836  1.00  0.00    -0.326 N 
ATOM     13  H   UNL A   1      31.942  30.040  22.215  1.00  0.00     0.169 HD
ATOM     14  O   UNL A   1      33.873  29.042  23.272  1.00  0.00    -0.274 OA
BRANCH  12  15
ATOM     15  C   UNL A   1      30.249  29.190  22.916  1.00  0.00     0.041 A 
ATOM     16  C   UNL A   1      27.477  31.718  23.557  1.00  0.00     0.044 C 
ATOM     17  C   UNL A   1      28.165  30.417  23.280  1.00  0.00    -0.049 A 
ATOM     18  C   UNL A   1      27.435  29.231  23.220  1.00  0.00     0.003 A 
ATOM     19  C   UNL A   1      29.559  30.383  23.140  1.00  0.00     0.029 A 
ATOM     20  C   UNL A   1      28.094  28.033  22.986  1.00  0.00     0.002 A 
ATOM     21  C   UNL A   1      29.487  28.016  22.829  1.00  0.00     0.026 A 
ENDBRANCH  12  15
ENDBRANCH   9  11
ENDBRANCH   6   8
ENDBRANCH   5   6
ENDBRANCH   4   5
ENDBRANCH   3   4
ENDBRANCH   2   3
ENDBRANCH   1   2
BRANCH   1  22
ATOM     22  C   UNL A   1      33.152  35.118  28.933  1.00  0.00     0.188 C 
BRANCH  22  23
ATOM     23  O   UNL A   1      33.538  35.898  30.046  1.00  0.00    -0.376 OA
BRANCH  23  24
ATOM     24  C   UNL A   1      32.522  36.196  30.981  1.00  0.00     0.202 C 
BRANCH  24  25
ATOM     25  C   UNL A   1      33.058  36.099  32.418  1.00  0.00     0.261 C 
BRANCH  25  26
ATOM     26  O   UNL A   1      33.410  34.725  32.729  1.00  0.00    -0.460 OA
BRANCH  26  27
ATOM     27  C   UNL A   1      34.731  34.443  32.994  1.00  0.00     0.338 C 
ATOM     28  O   UNL A   1      35.411  35.040  33.817  1.00  0.00    -0.246 OA
BRANCH  27  29
ATOM     29  C   UNL A   1      35.290  33.493  31.961  1.00  0.00     0.060 A 
ATOM     30  C   UNL A   1      35.372  32.094  32.060  1.00  0.00     0.016 A 
ATOM     31  C   UNL A   1      36.111  34.042  31.042  1.00  0.00     0.016 A 
ATOM     32  C   UNL A   1      36.426  31.321  31.377  1.00  0.00     0.010 A 
ATOM     33  C   UNL A   1      37.240  33.285  30.713  1.00  0.00     0.010 A 
ATOM     34  C   UNL A   1      37.529  31.908  30.732  1.00  0.00    -0.014 A 
BRANCH  34  35
ATOM     35  C   UNL A   1      39.012  31.187  30.433  1.00  0.00     0.031 A 
ATOM     36  C   UNL A   1      39.606  29.848  29.554  1.00  0.00     0.074 A 
ATOM     37  C   UNL A   1      40.060  31.798  31.042  1.00  0.00     0.049 A 
ATOM     38  N   UNL A   1      40.580  29.053  29.988  1.00  0.00    -0.248 NA
ATOM     39  C   UNL A   1      39.149  29.217  28.263  1.00  0.00     0.031 C 
ATOM     40  C   UNL A   1      41.486  31.591  30.782  1.00  0.00     0.029 A 
ATOM     41  N   UNL A   1      40.050  32.718  32.104  1.00  0.00    -0.354 N 
ATOM     42  C   UNL A   1      40.825  28.035  29.043  1.00  0.00     0.074 A 
ATOM     43  C   UNL A   1      39.790  28.081  28.105  1.00  0.00     0.031 C 
ATOM     44  C   UNL A   1      42.193  32.089  31.806  1.00  0.00     0.029 A 
ATOM     45  C   UNL A   1      41.246  32.526  32.810  1.00  0.00     0.049 A 
ATOM     46  H   UNL A   1      39.341  33.369  32.311  1.00  0.00     0.167 HD
ATOM     47  C   UNL A   1      41.942  27.271  28.923  1.00  0.00     0.037 A 
ATOM     48  C   UNL A   1      41.266  32.208  34.132  1.00  0.00     0.037 A 
ATOM     49  C   UNL A   1      42.903  27.690  29.889  1.00  0.00     0.049 A 
ATOM     50  C   UNL A   1      42.068  30.971  34.441  1.00  0.00     0.074 A 
ATOM     51  C   UNL A   1      43.920  28.625  29.841  1.00  0.00     0.029 A 
ATOM     52  N   UNL A   1      42.627  27.444  31.215  1.00  0.00    -0.354 N 
ATOM     53  N   UNL A   1      42.447  30.106  33.543  1.00  0.00    -0.248 NA
ATOM     54  C   UNL A   1      42.487  30.591  35.786  1.00  0.00     0.031 C 
ATOM     55  C   UNL A   1      44.274  28.930  31.175  1.00  0.00     0.029 A 
ATOM     56  C   UNL A   1      43.491  28.153  32.012  1.00  0.00     0.049 A 
ATOM     57  H   UNL A   1      41.915  26.848  31.542  1.00  0.00     0.167 HD
ATOM     58  C   UNL A   1      43.071  29.049  34.155  1.00  0.00     0.074 A 
ATOM     59  C   UNL A   1      43.109  29.422  35.551  1.00  0.00     0.031 C 
ATOM     60  C   UNL A   1      43.453  27.947  33.443  1.00  0.00     0.037 A 
BRANCH  47  61
ATOM     61  C   UNL A   1      42.221  26.442  27.671  1.00  0.00     0.064 A 
ATOM     62  C   UNL A   1      41.690  25.147  27.531  1.00  0.00     0.173 A 
ATOM     63  C   UNL A   1      43.106  26.828  26.636  1.00  0.00     0.173 A 
ATOM     64  F   UNL A   1      40.741  24.695  28.360  1.00  0.00    -0.203 F 
ATOM     65  C   UNL A   1      42.134  24.258  26.543  1.00  0.00     0.198 A 
ATOM     66  C   UNL A   1      43.613  25.915  25.701  1.00  0.00     0.198 A 
ATOM     67  F   UNL A   1      43.518  28.102  26.521  1.00  0.00    -0.203 F 
ATOM     68  F   UNL A   1      41.602  23.029  26.470  1.00  0.00    -0.200 F 
ATOM     69  C   UNL A   1      43.137  24.621  25.667  1.00  0.00     0.200 A 
ATOM     70  F   UNL A   1      44.585  26.287  24.854  1.00  0.00    -0.200 F 
ATOM     71  F   UNL A   1      43.626  23.735  24.787  1.00  0.00    -0.200 F 
ENDBRANCH  47  61
BRANCH  48  72
ATOM     72  C   UNL A   1      40.083  32.710  34.885  1.00  0.00     0.064 A 
ATOM     73  C   UNL A   1      39.150  31.761  35.357  1.00  0.00     0.173 A 
ATOM     74  C   UNL A   1      40.040  33.990  35.454  1.00  0.00     0.173 A 
ATOM     75  F   UNL A   1      39.155  30.513  34.861  1.00  0.00    -0.203 F 
ATOM     76  C   UNL A   1      38.296  32.042  36.423  1.00  0.00     0.198 A 
ATOM     77  C   UNL A   1      39.166  34.274  36.512  1.00  0.00     0.198 A 
ATOM     78  F   UNL A   1      40.924  34.925  35.084  1.00  0.00    -0.203 F 
ATOM     79  F   UNL A   1      37.519  31.075  36.930  1.00  0.00    -0.200 F 
ATOM     80  C   UNL A   1      38.320  33.293  37.013  1.00  0.00     0.200 A 
ATOM     81  F   UNL A   1      39.231  35.462  37.132  1.00  0.00    -0.200 F 
ATOM     82  F   UNL A   1      37.587  33.531  38.111  1.00  0.00    -0.200 F 
ENDBRANCH  48  72
BRANCH  60  83
ATOM     83  C   UNL A   1      43.822  26.568  33.959  1.00  0.00     0.064 A 
ATOM     84  C   UNL A   1      42.919  25.681  34.561  1.00  0.00     0.173 A 
ATOM     85  C   UNL A   1      45.106  26.016  33.682  1.00  0.00     0.173 A 
ATOM     86  F   UNL A   1      41.648  26.023  34.797  1.00  0.00    -0.203 F 
ATOM     87  C   UNL A   1      43.274  24.368  34.887  1.00  0.00     0.198 A 
ATOM     88  C   UNL A   1      45.428  24.684  33.934  1.00  0.00     0.198 A 
ATOM     89  F   UNL A   1      46.087  26.741  33.122  1.00  0.00    -0.203 F 
ATOM     90  F   UNL A   1      42.382  23.578  35.501  1.00  0.00    -0.200 F 
ATOM     91  C   UNL A   1      44.516  23.862  34.553  1.00  0.00     0.200 A 
ATOM     92  F   UNL A   1      46.619  24.202  33.550  1.00  0.00    -0.200 F 
ATOM     93  F   UNL A   1      44.823  22.585  34.811  1.00  0.00    -0.200 F 
ENDBRANCH  60  83
ENDBRANCH  34  35
ENDBRANCH  27  29
ENDBRANCH  26  27
ENDBRANCH  25  26
ENDBRANCH  24  25
ENDBRANCH  23  24
ENDBRANCH  22  23
ENDBRANCH   1  22
TORSDOF 19
ENDMDL
