MODEL 1
REMARK VINA RESULT:     -12.8      0.000      0.000
REMARK SMILES O=C(OCCOCCOCCOC(=O)[C@H]1[C@H]2CC[C@H](C2)[C@@H]1C(=O)N[C@H]1CCCc2ccccc21)c1ccc(-c2c3nc(c(-c4c(F)c(F)c(F)c(F)c4F)c4ccc([nH]4)c(-c4c(F)c(F)c(F)c(F)c4F)c4nc(c(-c5c(F)c(F)c(F)c(F)c5F)c5ccc2[nH]5)C=C4)C=C3)cc1
REMARK SMILES IDX 7 1 6 2 5 3 4 4 3 5 2 6 1 7 35 8 36 9 97 10 37 11 96 12
REMARK SMILES IDX 38 13 39 14 40 15 90 16 41 17 95 18 89 19 91 20 42 21 94 22
REMARK SMILES IDX 88 23 87 24 43 26 75 27 55 28 74 29 56 30 59 31 73 32 92 33
REMARK SMILES IDX 57 34 58 35 72 37 93 38 60 39 44 40 45 41 53 42 46 43 47 44
REMARK SMILES IDX 51 45 54 46 48 47 49 48 52 49 50 50 76 51 77 52 85 53 78 54
REMARK SMILES IDX 79 55 83 56 86 57 80 58 81 59 84 60 82 61 61 62 62 63 70 64
REMARK SMILES IDX 63 65 64 66 68 67 71 68 65 69 66 70 69 71 67 72 8 73 9 74
REMARK SMILES IDX 10 75 11 76 12 77 13 78 14 79 15 80 16 81 21 82 17 83 20 84
REMARK SMILES IDX 19 85 18 86 22 87 23 88 24 89 25 91 26 92 34 93 27 94 29 95
REMARK SMILES IDX 33 96 28 97 30 98 32 99 31 100
REMARK H PARENT 91 25 59 36 24 90
REMARK Flexibility Score: inf
ROOT
ATOM      1  C   UNL A   1      33.649  18.969  24.659  1.00  0.00     0.188 C 
ENDROOT
BRANCH   1   2
ATOM      2  O   UNL A   1      35.081  18.965  24.643  1.00  0.00    -0.376 OA
BRANCH   2   3
ATOM      3  C   UNL A   1      35.666  20.224  24.981  1.00  0.00     0.202 C 
BRANCH   3   4
ATOM      4  C   UNL A   1      37.203  20.335  24.889  1.00  0.00     0.261 C 
BRANCH   4   5
ATOM      5  O   UNL A   1      37.854  21.226  25.820  1.00  0.00    -0.460 OA
BRANCH   5   6
ATOM      6  C   UNL A   1      39.151  21.445  26.137  1.00  0.00     0.338 C 
ATOM      7  O   UNL A   1      39.936  20.502  26.038  1.00  0.00    -0.246 OA
BRANCH   6   8
ATOM      8  C   UNL A   1      39.692  22.734  26.670  1.00  0.00     0.060 A 
ATOM      9  C   UNL A   1      39.176  23.996  26.389  1.00  0.00     0.016 A 
ATOM     10  C   UNL A   1      40.734  22.659  27.616  1.00  0.00     0.016 A 
ATOM     11  C   UNL A   1      39.668  25.147  27.001  1.00  0.00     0.010 A 
ATOM     12  C   UNL A   1      41.238  23.814  28.239  1.00  0.00     0.010 A 
ATOM     13  C   UNL A   1      40.719  25.075  27.912  1.00  0.00    -0.014 A 
BRANCH  13  14
ATOM     14  C   UNL A   1      41.407  26.341  28.286  1.00  0.00     0.031 A 
ATOM     15  C   UNL A   1      42.782  26.519  27.817  1.00  0.00     0.074 A 
ATOM     16  C   UNL A   1      40.810  27.426  28.812  1.00  0.00     0.049 A 
ATOM     17  N   UNL A   1      43.493  27.603  27.897  1.00  0.00    -0.248 NA
ATOM     18  C   UNL A   1      43.407  25.395  27.112  1.00  0.00     0.031 C 
ATOM     19  C   UNL A   1      39.399  27.439  28.992  1.00  0.00     0.029 A 
ATOM     20  N   UNL A   1      41.181  28.701  29.199  1.00  0.00    -0.354 N 
ATOM     21  C   UNL A   1      44.651  27.306  27.237  1.00  0.00     0.074 A 
ATOM     22  C   UNL A   1      44.583  25.920  26.815  1.00  0.00     0.031 C 
ATOM     23  C   UNL A   1      39.033  28.597  29.537  1.00  0.00     0.029 A 
ATOM     24  C   UNL A   1      40.140  29.453  29.704  1.00  0.00     0.049 A 
ATOM     25  H   UNL A   1      42.102  29.040  29.123  1.00  0.00     0.167 HD
ATOM     26  C   UNL A   1      45.660  28.159  26.994  1.00  0.00     0.037 A 
ATOM     27  C   UNL A   1      39.926  30.702  30.165  1.00  0.00     0.037 A 
ATOM     28  C   UNL A   1      45.698  29.519  27.460  1.00  0.00     0.049 A 
ATOM     29  C   UNL A   1      41.093  31.572  30.006  1.00  0.00     0.074 A 
ATOM     30  C   UNL A   1      46.750  30.406  27.379  1.00  0.00     0.029 A 
ATOM     31  N   UNL A   1      44.657  30.191  28.100  1.00  0.00    -0.354 N 
ATOM     32  N   UNL A   1      42.215  31.248  29.426  1.00  0.00    -0.248 NA
ATOM     33  C   UNL A   1      40.999  32.939  30.502  1.00  0.00     0.031 C 
ATOM     34  C   UNL A   1      46.383  31.579  28.039  1.00  0.00     0.029 A 
ATOM     35  C   UNL A   1      45.067  31.470  28.454  1.00  0.00     0.049 A 
ATOM     36  H   UNL A   1      43.764  29.815  28.274  1.00  0.00     0.167 HD
ATOM     37  C   UNL A   1      42.987  32.369  29.492  1.00  0.00     0.074 A 
ATOM     38  C   UNL A   1      42.172  33.408  30.105  1.00  0.00     0.031 C 
ATOM     39  C   UNL A   1      44.269  32.486  29.097  1.00  0.00     0.037 A 
BRANCH  26  40
ATOM     40  C   UNL A   1      46.823  27.558  26.296  1.00  0.00     0.064 A 
ATOM     41  C   UNL A   1      47.857  26.916  26.995  1.00  0.00     0.173 A 
ATOM     42  C   UNL A   1      46.953  27.733  24.915  1.00  0.00     0.173 A 
ATOM     43  F   UNL A   1      47.805  26.805  28.333  1.00  0.00    -0.203 F 
ATOM     44  C   UNL A   1      48.997  26.489  26.328  1.00  0.00     0.198 A 
ATOM     45  C   UNL A   1      48.071  27.261  24.246  1.00  0.00     0.198 A 
ATOM     46  F   UNL A   1      46.011  28.394  24.225  1.00  0.00    -0.203 F 
ATOM     47  F   UNL A   1      50.018  25.966  27.020  1.00  0.00    -0.200 F 
ATOM     48  C   UNL A   1      49.095  26.648  24.953  1.00  0.00     0.200 A 
ATOM     49  F   UNL A   1      48.170  27.425  22.920  1.00  0.00    -0.200 F 
ATOM     50  F   UNL A   1      50.194  26.231  24.309  1.00  0.00    -0.200 F 
ENDBRANCH  26  40
BRANCH  27  51
ATOM     51  C   UNL A   1      38.626  31.199  30.755  1.00  0.00     0.064 A 
ATOM     52  C   UNL A   1      38.382  31.258  32.139  1.00  0.00     0.173 A 
ATOM     53  C   UNL A   1      37.563  31.589  29.919  1.00  0.00     0.173 A 
ATOM     54  F   UNL A   1      39.348  30.921  33.006  1.00  0.00    -0.203 F 
ATOM     55  C   UNL A   1      37.126  31.617  32.651  1.00  0.00     0.198 A 
ATOM     56  C   UNL A   1      36.328  31.997  30.431  1.00  0.00     0.198 A 
ATOM     57  F   UNL A   1      37.726  31.593  28.588  1.00  0.00    -0.203 F 
ATOM     58  F   UNL A   1      36.905  31.573  33.973  1.00  0.00    -0.200 F 
ATOM     59  C   UNL A   1      36.101  31.985  31.796  1.00  0.00     0.200 A 
ATOM     60  F   UNL A   1      35.355  32.393  29.597  1.00  0.00    -0.200 F 
ATOM     61  F   UNL A   1      34.896  32.314  32.284  1.00  0.00    -0.200 F 
ENDBRANCH  27  51
BRANCH  39  62
ATOM     62  C   UNL A   1      44.856  33.830  29.326  1.00  0.00     0.064 A 
ATOM     63  C   UNL A   1      45.475  34.164  30.539  1.00  0.00     0.173 A 
ATOM     64  C   UNL A   1      44.737  34.808  28.335  1.00  0.00     0.173 A 
ATOM     65  F   UNL A   1      45.563  33.261  31.529  1.00  0.00    -0.203 F 
ATOM     66  C   UNL A   1      45.910  35.459  30.770  1.00  0.00     0.198 A 
ATOM     67  C   UNL A   1      45.232  36.085  28.547  1.00  0.00     0.198 A 
ATOM     68  F   UNL A   1      44.131  34.527  27.171  1.00  0.00    -0.203 F 
ATOM     69  F   UNL A   1      46.398  35.793  31.972  1.00  0.00    -0.200 F 
ATOM     70  C   UNL A   1      45.801  36.414  29.769  1.00  0.00     0.200 A 
ATOM     71  F   UNL A   1      45.140  37.001  27.574  1.00  0.00    -0.200 F 
ATOM     72  F   UNL A   1      46.228  37.663  29.990  1.00  0.00    -0.200 F 
ENDBRANCH  39  62
ENDBRANCH  13  14
ENDBRANCH   6   8
ENDBRANCH   5   6
ENDBRANCH   4   5
ENDBRANCH   3   4
ENDBRANCH   2   3
ENDBRANCH   1   2
BRANCH   1  73
ATOM     73  C   UNL A   1      33.015  20.180  25.321  1.00  0.00     0.188 C 
BRANCH  73  74
ATOM     74  O   UNL A   1      32.143  20.969  24.520  1.00  0.00    -0.376 OA
BRANCH  74  75
ATOM     75  C   UNL A   1      32.521  21.200  23.173  1.00  0.00     0.202 C 
BRANCH  75  76
ATOM     76  C   UNL A   1      33.172  22.547  22.860  1.00  0.00     0.261 C 
BRANCH  76  77
ATOM     77  O   UNL A   1      32.408  23.375  21.979  1.00  0.00    -0.463 OA
BRANCH  77  78
ATOM     78  C   UNL A   1      32.571  24.710  21.725  1.00  0.00     0.310 C 
ATOM     79  O   UNL A   1      33.274  25.131  20.815  1.00  0.00    -0.252 OA
BRANCH  78  80
ATOM     80  C   UNL A   1      31.746  25.797  22.901  1.00  0.00     0.115 C 
ATOM     81  C   UNL A   1      30.890  25.382  24.965  1.00  0.00     0.004 C 
ATOM     82  C   UNL A   1      33.626  26.298  23.569  1.00  0.00     0.096 C 
ATOM     83  C   UNL A   1      31.708  23.897  25.909  1.00  0.00     0.005 C 
ATOM     84  C   UNL A   1      31.936  26.239  26.347  1.00  0.00     0.009 C 
ATOM     85  C   UNL A   1      33.603  25.902  25.569  1.00  0.00     0.002 C 
ATOM     86  C   UNL A   1      33.321  24.378  26.250  1.00  0.00     0.005 C 
BRANCH  82  87
ATOM     87  C   UNL A   1      33.652  27.923  23.010  1.00  0.00     0.224 C 
ATOM     88  O   UNL A   1      34.393  28.201  22.061  1.00  0.00    -0.275 OA
ATOM     89  N   UNL A   1      32.886  29.008  23.567  1.00  0.00    -0.349 N 
ATOM     90  H   UNL A   1      32.766  29.748  22.929  1.00  0.00     0.164 HD
BRANCH  89  91
ATOM     91  C   UNL A   1      32.202  29.284  24.941  1.00  0.00     0.112 C 
ATOM     92  C   UNL A   1      32.930  30.219  25.924  1.00  0.00     0.030 C 
ATOM     93  C   UNL A   1      30.848  29.839  24.670  1.00  0.00    -0.022 A 
ATOM     94  C   UNL A   1      31.940  30.953  26.875  1.00  0.00     0.007 C 
ATOM     95  C   UNL A   1      30.338  31.278  24.945  1.00  0.00    -0.043 A 
ATOM     96  C   UNL A   1      30.284  29.031  23.477  1.00  0.00     0.006 A 
ATOM     97  C   UNL A   1      31.013  31.950  26.125  1.00  0.00     0.036 C 
ATOM     98  C   UNL A   1      29.204  32.037  23.997  1.00  0.00     0.004 A 
ATOM     99  C   UNL A   1      28.997  29.732  22.106  1.00  0.00     0.000 A 
ATOM    100  C   UNL A   1      28.458  31.383  22.640  1.00  0.00     0.000 A 
ENDBRANCH  89  91
ENDBRANCH  82  87
ENDBRANCH  78  80
ENDBRANCH  77  78
ENDBRANCH  76  77
ENDBRANCH  75  76
ENDBRANCH  74  75
ENDBRANCH  73  74
ENDBRANCH   1  73
TORSDOF 19
ENDMDL
MODEL 2
REMARK VINA RESULT:     -12.8      1.801      2.560
REMARK SMILES O=C(OCCOCCOCCOC(=O)[C@H]1[C@H]2CC[C@H](C2)[C@@H]1C(=O)N[C@H]1CCCc2ccccc21)c1ccc(-c2c3nc(c(-c4c(F)c(F)c(F)c(F)c4F)c4ccc([nH]4)c(-c4c(F)c(F)c(F)c(F)c4F)c4nc(c(-c5c(F)c(F)c(F)c(F)c5F)c5ccc2[nH]5)C=C4)C=C3)cc1
REMARK SMILES IDX 7 1 6 2 5 3 4 4 3 5 2 6 1 7 35 8 36 9 97 10 37 11 96 12
REMARK SMILES IDX 38 13 39 14 40 15 90 16 41 17 95 18 89 19 91 20 42 21 94 22
REMARK SMILES IDX 88 23 87 24 43 26 75 27 55 28 74 29 56 30 59 31 73 32 92 33
REMARK SMILES IDX 57 34 58 35 72 37 93 38 60 39 44 40 45 41 53 42 46 43 47 44
REMARK SMILES IDX 51 45 54 46 48 47 49 48 52 49 50 50 76 51 77 52 85 53 78 54
REMARK SMILES IDX 79 55 83 56 86 57 80 58 81 59 84 60 82 61 61 62 62 63 70 64
REMARK SMILES IDX 63 65 64 66 68 67 71 68 65 69 66 70 69 71 67 72 8 73 9 74
REMARK SMILES IDX 10 75 11 76 12 77 13 78 14 79 15 80 16 81 21 82 17 83 20 84
REMARK SMILES IDX 19 85 18 86 22 87 23 88 24 89 25 91 26 92 34 93 27 94 29 95
REMARK SMILES IDX 33 96 28 97 30 98 32 99 31 100
REMARK H PARENT 91 25 59 36 24 90
REMARK Flexibility Score: inf
ROOT
ATOM      1  C   UNL A   1      37.960  23.446  25.976  1.00  0.00     0.188 C 
ENDROOT
BRANCH   1   2
ATOM      2  O   UNL A   1      38.764  22.286  26.217  1.00  0.00    -0.376 OA
BRANCH   2   3
ATOM      3  C   UNL A   1      38.493  21.199  25.330  1.00  0.00     0.202 C 
BRANCH   3   4
ATOM      4  C   UNL A   1      38.872  19.782  25.811  1.00  0.00     0.261 C 
BRANCH   4   5
ATOM      5  O   UNL A   1      40.172  19.284  25.429  1.00  0.00    -0.460 OA
BRANCH   5   6
ATOM      6  C   UNL A   1      41.405  19.403  25.974  1.00  0.00     0.338 C 
ATOM      7  O   UNL A   1      42.051  18.373  26.167  1.00  0.00    -0.246 OA
BRANCH   6   8
ATOM      8  C   UNL A   1      42.017  20.690  26.425  1.00  0.00     0.060 A 
ATOM      9  C   UNL A   1      42.327  21.010  27.745  1.00  0.00     0.016 A 
ATOM     10  C   UNL A   1      42.414  21.605  25.430  1.00  0.00     0.016 A 
ATOM     11  C   UNL A   1      42.990  22.188  28.082  1.00  0.00     0.010 A 
ATOM     12  C   UNL A   1      43.084  22.797  25.759  1.00  0.00     0.010 A 
ATOM     13  C   UNL A   1      43.354  23.107  27.100  1.00  0.00    -0.014 A 
BRANCH  13  14
ATOM     14  C   UNL A   1      43.764  24.469  27.536  1.00  0.00     0.031 A 
ATOM     15  C   UNL A   1      45.140  24.879  27.245  1.00  0.00     0.074 A 
ATOM     16  C   UNL A   1      42.930  25.436  27.959  1.00  0.00     0.049 A 
ATOM     17  N   UNL A   1      45.642  26.067  27.396  1.00  0.00    -0.248 NA
ATOM     18  C   UNL A   1      46.031  23.880  26.648  1.00  0.00     0.031 C 
ATOM     19  C   UNL A   1      41.526  25.209  27.956  1.00  0.00     0.029 A 
ATOM     20  N   UNL A   1      43.028  26.754  28.368  1.00  0.00    -0.354 N 
ATOM     21  C   UNL A   1      46.909  25.973  26.897  1.00  0.00     0.074 A 
ATOM     22  C   UNL A   1      47.130  24.597  26.496  1.00  0.00     0.031 C 
ATOM     23  C   UNL A   1      40.902  26.287  28.427  1.00  0.00     0.029 A 
ATOM     24  C   UNL A   1      41.818  27.317  28.720  1.00  0.00     0.049 A 
ATOM     25  H   UNL A   1      43.880  27.243  28.405  1.00  0.00     0.167 HD
ATOM     26  C   UNL A   1      47.783  26.985  26.771  1.00  0.00     0.037 A 
ATOM     27  C   UNL A   1      41.339  28.510  29.126  1.00  0.00     0.037 A 
ATOM     28  C   UNL A   1      47.531  28.329  27.213  1.00  0.00     0.049 A 
ATOM     29  C   UNL A   1      42.354  29.566  29.103  1.00  0.00     0.074 A 
ATOM     30  C   UNL A   1      48.421  29.382  27.252  1.00  0.00     0.029 A 
ATOM     31  N   UNL A   1      46.317  28.814  27.700  1.00  0.00    -0.354 N 
ATOM     32  N   UNL A   1      43.580  29.438  28.680  1.00  0.00    -0.248 NA
ATOM     33  C   UNL A   1      41.967  30.895  29.558  1.00  0.00     0.031 C 
ATOM     34  C   UNL A   1      47.778  30.474  27.837  1.00  0.00     0.029 A 
ATOM     35  C   UNL A   1      46.456  30.143  28.081  1.00  0.00     0.049 A 
ATOM     36  H   UNL A   1      45.485  28.291  27.764  1.00  0.00     0.167 HD
ATOM     37  C   UNL A   1      44.138  30.673  28.824  1.00  0.00     0.074 A 
ATOM     38  C   UNL A   1      43.086  31.557  29.307  1.00  0.00     0.031 C 
ATOM     39  C   UNL A   1      45.422  31.007  28.596  1.00  0.00     0.037 A 
BRANCH  26  40
ATOM     40  C   UNL A   1      49.112  26.591  26.241  1.00  0.00     0.064 A 
ATOM     41  C   UNL A   1      50.116  26.067  27.070  1.00  0.00     0.173 A 
ATOM     42  C   UNL A   1      49.416  26.855  24.902  1.00  0.00     0.173 A 
ATOM     43  F   UNL A   1      49.885  25.880  28.380  1.00  0.00    -0.203 F 
ATOM     44  C   UNL A   1      51.392  25.840  26.572  1.00  0.00     0.198 A 
ATOM     45  C   UNL A   1      50.676  26.581  24.397  1.00  0.00     0.198 A 
ATOM     46  F   UNL A   1      48.497  27.410  24.097  1.00  0.00    -0.203 F 
ATOM     47  F   UNL A   1      52.366  25.432  27.395  1.00  0.00    -0.200 F 
ATOM     48  C   UNL A   1      51.665  26.083  25.233  1.00  0.00     0.200 A 
ATOM     49  F   UNL A   1      50.943  26.826  23.107  1.00  0.00    -0.200 F 
ATOM     50  F   UNL A   1      52.896  25.861  24.752  1.00  0.00    -0.200 F 
ENDBRANCH  26  40
BRANCH  27  51
ATOM     51  C   UNL A   1      39.908  28.779  29.533  1.00  0.00     0.064 A 
ATOM     52  C   UNL A   1      39.432  28.587  30.843  1.00  0.00     0.173 A 
ATOM     53  C   UNL A   1      38.959  29.196  28.582  1.00  0.00     0.173 A 
ATOM     54  F   UNL A   1      40.274  28.206  31.815  1.00  0.00    -0.203 F 
ATOM     55  C   UNL A   1      38.075  28.736  31.163  1.00  0.00     0.198 A 
ATOM     56  C   UNL A   1      37.615  29.396  28.913  1.00  0.00     0.198 A 
ATOM     57  F   UNL A   1      39.339  29.434  27.318  1.00  0.00    -0.203 F 
ATOM     58  F   UNL A   1      37.644  28.455  32.402  1.00  0.00    -0.200 F 
ATOM     59  C   UNL A   1      37.168  29.140  30.197  1.00  0.00     0.200 A 
ATOM     60  F   UNL A   1      36.754  29.830  27.981  1.00  0.00    -0.200 F 
ATOM     61  F   UNL A   1      35.868  29.268  30.499  1.00  0.00    -0.200 F 
ENDBRANCH  27  51
BRANCH  39  62
ATOM     62  C   UNL A   1      45.740  32.429  28.874  1.00  0.00     0.064 A 
ATOM     63  C   UNL A   1      46.144  32.856  30.147  1.00  0.00     0.173 A 
ATOM     64  C   UNL A   1      45.575  33.380  27.863  1.00  0.00     0.173 A 
ATOM     65  F   UNL A   1      46.267  31.975  31.153  1.00  0.00    -0.203 F 
ATOM     66  C   UNL A   1      46.322  34.205  30.410  1.00  0.00     0.198 A 
ATOM     67  C   UNL A   1      45.816  34.721  28.114  1.00  0.00     0.198 A 
ATOM     68  F   UNL A   1      45.168  33.006  26.639  1.00  0.00    -0.203 F 
ATOM     69  F   UNL A   1      46.599  34.610  31.657  1.00  0.00    -0.200 F 
ATOM     70  C   UNL A   1      46.171  35.134  29.389  1.00  0.00     0.200 A 
ATOM     71  F   UNL A   1      45.684  35.614  27.125  1.00  0.00    -0.200 F 
ATOM     72  F   UNL A   1      46.349  36.436  29.643  1.00  0.00    -0.200 F 
ENDBRANCH  39  62
ENDBRANCH  13  14
ENDBRANCH   6   8
ENDBRANCH   5   6
ENDBRANCH   4   5
ENDBRANCH   3   4
ENDBRANCH   2   3
ENDBRANCH   1   2
BRANCH   1  73
ATOM     73  C   UNL A   1      36.599  23.170  25.361  1.00  0.00     0.188 C 
BRANCH  73  74
ATOM     74  O   UNL A   1      36.361  23.696  24.061  1.00  0.00    -0.376 OA
BRANCH  74  75
ATOM     75  C   UNL A   1      35.582  22.913  23.171  1.00  0.00     0.202 C 
BRANCH  75  76
ATOM     76  C   UNL A   1      34.121  22.681  23.554  1.00  0.00     0.261 C 
BRANCH  76  77
ATOM     77  O   UNL A   1      33.193  22.919  22.492  1.00  0.00    -0.463 OA
BRANCH  77  78
ATOM     78  C   UNL A   1      32.872  24.113  21.906  1.00  0.00     0.310 C 
ATOM     79  O   UNL A   1      33.318  24.459  20.819  1.00  0.00    -0.252 OA
BRANCH  78  80
ATOM     80  C   UNL A   1      31.820  25.176  22.910  1.00  0.00     0.115 C 
ATOM     81  C   UNL A   1      30.901  24.851  24.963  1.00  0.00     0.004 C 
ATOM     82  C   UNL A   1      33.556  26.029  23.607  1.00  0.00     0.096 C 
ATOM     83  C   UNL A   1      31.866  23.617  26.107  1.00  0.00     0.005 C 
ATOM     84  C   UNL A   1      31.715  25.998  26.288  1.00  0.00     0.009 C 
ATOM     85  C   UNL A   1      33.460  25.844  25.636  1.00  0.00     0.002 C 
ATOM     86  C   UNL A   1      33.364  24.374  26.470  1.00  0.00     0.005 C 
BRANCH  82  87
ATOM     87  C   UNL A   1      33.377  27.571  22.871  1.00  0.00     0.224 C 
ATOM     88  O   UNL A   1      33.998  27.793  21.826  1.00  0.00    -0.275 OA
ATOM     89  N   UNL A   1      32.566  28.647  23.377  1.00  0.00    -0.349 N 
ATOM     90  H   UNL A   1      32.319  29.293  22.676  1.00  0.00     0.164 HD
BRANCH  89  91
ATOM     91  C   UNL A   1      31.987  29.029  24.775  1.00  0.00     0.112 C 
ATOM     92  C   UNL A   1      32.822  29.973  25.657  1.00  0.00     0.030 C 
ATOM     93  C   UNL A   1      30.647  29.640  24.558  1.00  0.00    -0.022 A 
ATOM     94  C   UNL A   1      31.933  30.807  26.627  1.00  0.00     0.007 C 
ATOM     95  C   UNL A   1      30.227  31.116  24.785  1.00  0.00    -0.043 A 
ATOM     96  C   UNL A   1      29.967  28.803  23.448  1.00  0.00     0.006 A 
ATOM     97  C   UNL A   1      31.010  31.811  25.882  1.00  0.00     0.036 C 
ATOM     98  C   UNL A   1      29.073  31.884  23.870  1.00  0.00     0.004 A 
ATOM     99  C   UNL A   1      28.631  29.499  22.124  1.00  0.00     0.000 A 
ATOM    100  C   UNL A   1      28.209  31.201  22.599  1.00  0.00     0.000 A 
ENDBRANCH  89  91
ENDBRANCH  82  87
ENDBRANCH  78  80
ENDBRANCH  77  78
ENDBRANCH  76  77
ENDBRANCH  75  76
ENDBRANCH  74  75
ENDBRANCH  73  74
ENDBRANCH   1  73
TORSDOF 19
ENDMDL
MODEL 3
REMARK VINA RESULT:     -12.7      1.213      2.121
REMARK SMILES O=C(OCCOCCOCCOC(=O)[C@H]1[C@H]2CC[C@H](C2)[C@@H]1C(=O)N[C@H]1CCCc2ccccc21)c1ccc(-c2c3nc(c(-c4c(F)c(F)c(F)c(F)c4F)c4ccc([nH]4)c(-c4c(F)c(F)c(F)c(F)c4F)c4nc(c(-c5c(F)c(F)c(F)c(F)c5F)c5ccc2[nH]5)C=C4)C=C3)cc1
REMARK SMILES IDX 7 1 6 2 5 3 4 4 3 5 2 6 1 7 35 8 36 9 97 10 37 11 96 12
REMARK SMILES IDX 38 13 39 14 40 15 90 16 41 17 95 18 89 19 91 20 42 21 94 22
REMARK SMILES IDX 88 23 87 24 43 26 75 27 55 28 74 29 56 30 59 31 73 32 92 33
REMARK SMILES IDX 57 34 58 35 72 37 93 38 60 39 44 40 45 41 53 42 46 43 47 44
REMARK SMILES IDX 51 45 54 46 48 47 49 48 52 49 50 50 76 51 77 52 85 53 78 54
REMARK SMILES IDX 79 55 83 56 86 57 80 58 81 59 84 60 82 61 61 62 62 63 70 64
REMARK SMILES IDX 63 65 64 66 68 67 71 68 65 69 66 70 69 71 67 72 8 73 9 74
REMARK SMILES IDX 10 75 11 76 12 77 13 78 14 79 15 80 16 81 21 82 17 83 20 84
REMARK SMILES IDX 19 85 18 86 22 87 23 88 24 89 25 91 26 92 34 93 27 94 29 95
REMARK SMILES IDX 33 96 28 97 30 98 32 99 31 100
REMARK H PARENT 91 25 59 36 24 90
REMARK Flexibility Score: inf
ROOT
ATOM      1  C   UNL A   1      36.615  21.139  25.328  1.00  0.00     0.188 C 
ENDROOT
BRANCH   1   2
ATOM      2  O   UNL A   1      36.736  19.847  24.723  1.00  0.00    -0.376 OA
BRANCH   2   3
ATOM      3  C   UNL A   1      37.975  19.192  25.001  1.00  0.00     0.202 C 
BRANCH   3   4
ATOM      4  C   UNL A   1      39.071  20.023  25.702  1.00  0.00     0.261 C 
BRANCH   4   5
ATOM      5  O   UNL A   1      40.378  19.421  25.821  1.00  0.00    -0.460 OA
BRANCH   5   6
ATOM      6  C   UNL A   1      41.570  19.879  26.265  1.00  0.00     0.338 C 
ATOM      7  O   UNL A   1      42.475  19.061  26.434  1.00  0.00    -0.246 OA
BRANCH   6   8
ATOM      8  C   UNL A   1      41.854  21.299  26.635  1.00  0.00     0.060 A 
ATOM      9  C   UNL A   1      41.749  22.388  25.772  1.00  0.00     0.016 A 
ATOM     10  C   UNL A   1      42.142  21.574  27.987  1.00  0.00     0.016 A 
ATOM     11  C   UNL A   1      41.931  23.697  26.211  1.00  0.00     0.010 A 
ATOM     12  C   UNL A   1      42.327  22.892  28.440  1.00  0.00     0.010 A 
ATOM     13  C   UNL A   1      42.247  23.965  27.542  1.00  0.00    -0.014 A 
BRANCH  13  14
ATOM     14  C   UNL A   1      42.737  25.328  27.882  1.00  0.00     0.031 A 
ATOM     15  C   UNL A   1      44.044  25.721  27.350  1.00  0.00     0.074 A 
ATOM     16  C   UNL A   1      41.997  26.308  28.433  1.00  0.00     0.049 A 
ATOM     17  N   UNL A   1      44.574  26.905  27.397  1.00  0.00    -0.248 NA
ATOM     18  C   UNL A   1      44.810  24.706  26.620  1.00  0.00     0.031 C 
ATOM     19  C   UNL A   1      40.613  26.095  28.677  1.00  0.00     0.029 A 
ATOM     20  N   UNL A   1      42.176  27.629  28.801  1.00  0.00    -0.354 N 
ATOM     21  C   UNL A   1      45.734  26.793  26.685  1.00  0.00     0.074 A 
ATOM     22  C   UNL A   1      45.871  25.410  26.269  1.00  0.00     0.031 C 
ATOM     23  C   UNL A   1      40.090  27.184  29.237  1.00  0.00     0.029 A 
ATOM     24  C   UNL A   1      41.050  28.209  29.351  1.00  0.00     0.049 A 
ATOM     25  H   UNL A   1      43.025  28.110  28.682  1.00  0.00     0.167 HD
ATOM     26  C   UNL A   1      46.581  27.795  26.396  1.00  0.00     0.037 A 
ATOM     27  C   UNL A   1      40.659  29.411  29.820  1.00  0.00     0.037 A 
ATOM     28  C   UNL A   1      46.420  29.147  26.858  1.00  0.00     0.049 A 
ATOM     29  C   UNL A   1      41.663  30.456  29.606  1.00  0.00     0.074 A 
ATOM     30  C   UNL A   1      47.311  30.191  26.728  1.00  0.00     0.029 A 
ATOM     31  N   UNL A   1      45.314  29.648  27.543  1.00  0.00    -0.354 N 
ATOM     32  N   UNL A   1      42.795  30.311  28.977  1.00  0.00    -0.248 NA
ATOM     33  C   UNL A   1      41.371  31.794  30.105  1.00  0.00     0.031 C 
ATOM     34  C   UNL A   1      46.790  31.295  27.402  1.00  0.00     0.029 A 
ATOM     35  C   UNL A   1      45.528  30.980  27.877  1.00  0.00     0.049 A 
ATOM     36  H   UNL A   1      44.502  29.135  27.758  1.00  0.00     0.167 HD
ATOM     37  C   UNL A   1      43.379  31.542  29.006  1.00  0.00     0.074 A 
ATOM     38  C   UNL A   1      42.435  32.442  29.654  1.00  0.00     0.031 C 
ATOM     39  C   UNL A   1      44.606  31.860  28.553  1.00  0.00     0.037 A 
BRANCH  26  40
ATOM     40  C   UNL A   1      47.793  27.382  25.647  1.00  0.00     0.064 A 
ATOM     41  C   UNL A   1      48.970  26.985  26.301  1.00  0.00     0.173 A 
ATOM     42  C   UNL A   1      47.805  27.500  24.254  1.00  0.00     0.173 A 
ATOM     43  F   UNL A   1      49.019  26.942  27.642  1.00  0.00    -0.203 F 
ATOM     44  C   UNL A   1      50.128  26.740  25.576  1.00  0.00     0.198 A 
ATOM     45  C   UNL A   1      48.950  27.207  23.531  1.00  0.00     0.198 A 
ATOM     46  F   UNL A   1      46.715  27.933  23.602  1.00  0.00    -0.203 F 
ATOM     47  F   UNL A   1      51.269  26.457  26.219  1.00  0.00    -0.200 F 
ATOM     48  C   UNL A   1      50.113  26.837  24.192  1.00  0.00     0.200 A 
ATOM     49  F   UNL A   1      48.938  27.311  22.195  1.00  0.00    -0.200 F 
ATOM     50  F   UNL A   1      51.230  26.596  23.493  1.00  0.00    -0.200 F 
ENDBRANCH  26  40
BRANCH  27  51
ATOM     51  C   UNL A   1      39.324  29.698  30.467  1.00  0.00     0.064 A 
ATOM     52  C   UNL A   1      38.236  30.256  29.772  1.00  0.00     0.173 A 
ATOM     53  C   UNL A   1      39.126  29.455  31.840  1.00  0.00     0.173 A 
ATOM     54  F   UNL A   1      38.334  30.503  28.458  1.00  0.00    -0.203 F 
ATOM     55  C   UNL A   1      37.049  30.616  30.427  1.00  0.00     0.198 A 
ATOM     56  C   UNL A   1      37.923  29.765  32.482  1.00  0.00     0.198 A 
ATOM     57  F   UNL A   1      40.103  28.894  32.566  1.00  0.00    -0.203 F 
ATOM     58  F   UNL A   1      36.069  31.230  29.749  1.00  0.00    -0.200 F 
ATOM     59  C   UNL A   1      36.894  30.370  31.782  1.00  0.00     0.200 A 
ATOM     60  F   UNL A   1      37.769  29.483  33.784  1.00  0.00    -0.200 F 
ATOM     61  F   UNL A   1      35.766  30.726  32.412  1.00  0.00    -0.200 F 
ENDBRANCH  27  51
BRANCH  39  62
ATOM     62  C   UNL A   1      44.979  33.282  28.753  1.00  0.00     0.064 A 
ATOM     63  C   UNL A   1      44.650  34.268  27.812  1.00  0.00     0.173 A 
ATOM     64  C   UNL A   1      45.729  33.644  29.876  1.00  0.00     0.173 A 
ATOM     65  F   UNL A   1      43.971  33.946  26.699  1.00  0.00    -0.203 F 
ATOM     66  C   UNL A   1      45.111  35.566  27.965  1.00  0.00     0.198 A 
ATOM     67  C   UNL A   1      46.133  34.956  30.058  1.00  0.00     0.198 A 
ATOM     68  F   UNL A   1      46.078  32.719  30.785  1.00  0.00    -0.203 F 
ATOM     69  F   UNL A   1      44.885  36.471  27.004  1.00  0.00    -0.200 F 
ATOM     70  C   UNL A   1      45.840  35.911  29.096  1.00  0.00     0.200 A 
ATOM     71  F   UNL A   1      46.823  35.291  31.156  1.00  0.00    -0.200 F 
ATOM     72  F   UNL A   1      46.279  37.167  29.247  1.00  0.00    -0.200 F 
ENDBRANCH  39  62
ENDBRANCH  13  14
ENDBRANCH   6   8
ENDBRANCH   5   6
ENDBRANCH   4   5
ENDBRANCH   3   4
ENDBRANCH   2   3
ENDBRANCH   1   2
BRANCH   1  73
ATOM     73  C   UNL A   1      35.224  21.747  25.279  1.00  0.00     0.188 C 
BRANCH  73  74
ATOM     74  O   UNL A   1      34.751  22.170  24.006  1.00  0.00    -0.376 OA
BRANCH  74  75
ATOM     75  C   UNL A   1      33.458  21.739  23.611  1.00  0.00     0.202 C 
BRANCH  75  76
ATOM     76  C   UNL A   1      32.791  22.509  22.472  1.00  0.00     0.261 C 
BRANCH  76  77
ATOM     77  O   UNL A   1      33.405  23.767  22.178  1.00  0.00    -0.463 OA
BRANCH  77  78
ATOM     78  C   UNL A   1      32.858  24.839  21.525  1.00  0.00     0.310 C 
ATOM     79  O   UNL A   1      33.109  25.100  20.355  1.00  0.00    -0.252 OA
BRANCH  78  80
ATOM     80  C   UNL A   1      31.819  25.888  22.557  1.00  0.00     0.115 C 
ATOM     81  C   UNL A   1      30.659  25.428  24.456  1.00  0.00     0.004 C 
ATOM     82  C   UNL A   1      33.550  26.447  23.517  1.00  0.00     0.096 C 
ATOM     83  C   UNL A   1      31.367  23.964  25.515  1.00  0.00     0.005 C 
ATOM     84  C   UNL A   1      31.441  26.309  25.989  1.00  0.00     0.009 C 
ATOM     85  C   UNL A   1      33.221  26.035  25.487  1.00  0.00     0.002 C 
ATOM     86  C   UNL A   1      32.887  24.497  26.111  1.00  0.00     0.005 C 
BRANCH  82  87
ATOM     87  C   UNL A   1      33.608  28.076  22.974  1.00  0.00     0.224 C 
ATOM     88  O   UNL A   1      34.365  28.350  22.036  1.00  0.00    -0.275 OA
ATOM     89  N   UNL A   1      32.852  29.167  23.529  1.00  0.00    -0.349 N 
ATOM     90  H   UNL A   1      32.752  29.916  22.897  1.00  0.00     0.164 HD
BRANCH  89  91
ATOM     91  C   UNL A   1      32.155  29.443  24.898  1.00  0.00     0.112 C 
ATOM     92  C   UNL A   1      32.849  30.414  25.868  1.00  0.00     0.030 C 
ATOM     93  C   UNL A   1      30.785  29.952  24.613  1.00  0.00    -0.022 A 
ATOM     94  C   UNL A   1      31.833  31.131  26.805  1.00  0.00     0.007 C 
ATOM     95  C   UNL A   1      30.230  31.377  24.865  1.00  0.00    -0.043 A 
ATOM     96  C   UNL A   1      30.250  29.109  23.431  1.00  0.00     0.006 A 
ATOM     97  C   UNL A   1      30.879  32.088  26.037  1.00  0.00     0.036 C 
ATOM     98  C   UNL A   1      29.076  32.087  23.903  1.00  0.00     0.004 A 
ATOM     99  C   UNL A   1      28.948  29.749  22.045  1.00  0.00     0.000 A 
ATOM    100  C   UNL A   1      28.356  31.390  22.553  1.00  0.00     0.000 A 
ENDBRANCH  89  91
ENDBRANCH  82  87
ENDBRANCH  78  80
ENDBRANCH  77  78
ENDBRANCH  76  77
ENDBRANCH  75  76
ENDBRANCH  74  75
ENDBRANCH  73  74
ENDBRANCH   1  73
TORSDOF 19
ENDMDL
