MODEL 1
REMARK VINA RESULT:     -10.9      0.000      0.000
REMARK SMILES CCOC(=O)C1=C(C)N(c2ccccc2)C(=O)[C@@H]1CC(=O)OCCOCCOCCOC(=O)c1ccc(-c2c3nc(c(-c4c(F)c(F)c(F)c(F)c4F)c4ccc([nH]4)c(-c4c(F)c(F)c(F)c(F)c4F)c4nc(c(-c5c(F)c(F)c(F)c(F)c5F)c5ccc2[nH]5)C=C4)C=C3)cc1
REMARK SMILES IDX 26 1 25 2 24 3 23 4 22 5 20 6 21 7 19 8 18 9 6 10 7 11 8 12
REMARK SMILES IDX 9 13 16 14 17 15 4 16 5 17 3 18 2 19 1 20 10 21 11 22 15 23
REMARK SMILES IDX 12 24 14 25 13 26 27 27 28 28 29 29 30 30 31 31 32 32 33 33
REMARK SMILES IDX 34 34 35 35 96 36 36 37 95 38 37 39 38 40 39 41 89 42 40 43
REMARK SMILES IDX 94 44 88 45 90 46 41 47 93 48 87 49 86 50 42 52 74 53 54 54
REMARK SMILES IDX 73 55 55 56 58 57 72 58 91 59 56 60 57 61 71 63 92 64 59 65
REMARK SMILES IDX 43 66 44 67 52 68 45 69 46 70 50 71 53 72 47 73 48 74 51 75
REMARK SMILES IDX 49 76 75 77 76 78 84 79 77 80 78 81 82 82 85 83 79 84 80 85
REMARK SMILES IDX 83 86 81 87 60 88 61 89 69 90 62 91 63 92 67 93 70 94 64 95
REMARK SMILES IDX 65 96 68 97 66 98
REMARK H PARENT 90 51 58 62
REMARK Flexibility Score: inf
ROOT
ATOM      1  C   UNL A   1      31.710  29.473  24.710  1.00  0.00     0.188 C 
ENDROOT
BRANCH   1   2
ATOM      2  O   UNL A   1      30.848  28.458  24.205  1.00  0.00    -0.376 OA
BRANCH   2   3
ATOM      3  C   UNL A   1      30.783  28.333  22.782  1.00  0.00     0.202 C 
BRANCH   3   4
ATOM      4  C   UNL A   1      31.444  27.082  22.189  1.00  0.00     0.261 C 
BRANCH   4   5
ATOM      5  O   UNL A   1      32.713  26.766  22.795  1.00  0.00    -0.463 OA
BRANCH   5   6
ATOM      6  C   UNL A   1      33.343  25.665  22.323  1.00  0.00     0.307 C 
ATOM      7  O   UNL A   1      33.323  25.296  21.153  1.00  0.00    -0.252 OA
BRANCH   6   8
ATOM      8  C   UNL A   1      34.203  24.949  23.344  1.00  0.00     0.141 C 
BRANCH   8   9
ATOM      9  C   UNL A   1      34.378  23.440  23.235  1.00  0.00     0.130 C 
ATOM     10  C   UNL A   1      33.731  22.701  24.380  1.00  0.00     0.070 C 
ATOM     11  C   UNL A   1      34.601  21.960  25.083  1.00  0.00     0.034 C 
ATOM     12  C   UNL A   1      34.347  21.237  26.368  1.00  0.00     0.065 C 
ATOM     13  N   UNL A   1      35.866  22.118  24.544  1.00  0.00    -0.284 N 
ATOM     14  C   UNL A   1      35.828  23.015  23.456  1.00  0.00     0.239 C 
ATOM     15  O   UNL A   1      36.768  23.388  22.767  1.00  0.00    -0.273 OA
BRANCH  10  16
ATOM     16  C   UNL A   1      32.369  22.976  24.842  1.00  0.00     0.336 C 
ATOM     17  O   UNL A   1      31.378  22.662  24.203  1.00  0.00    -0.246 OA
BRANCH  16  18
ATOM     18  O   UNL A   1      32.396  23.605  26.040  1.00  0.00    -0.463 OA
BRANCH  18  19
ATOM     19  C   UNL A   1      31.134  24.164  26.447  1.00  0.00     0.230 C 
ATOM     20  C   UNL A   1      31.024  25.629  26.054  1.00  0.00     0.049 C 
ENDBRANCH  18  19
ENDBRANCH  16  18
ENDBRANCH  10  16
BRANCH  13  21
ATOM     21  C   UNL A   1      37.095  21.567  25.002  1.00  0.00     0.049 A 
ATOM     22  C   UNL A   1      37.440  20.235  24.743  1.00  0.00     0.027 A 
ATOM     23  C   UNL A   1      38.000  22.362  25.720  1.00  0.00     0.027 A 
ATOM     24  C   UNL A   1      38.657  19.713  25.196  1.00  0.00     0.002 A 
ATOM     25  C   UNL A   1      39.205  21.839  26.188  1.00  0.00     0.002 A 
ATOM     26  C   UNL A   1      39.534  20.514  25.925  1.00  0.00     0.000 A 
ENDBRANCH  13  21
ENDBRANCH   8   9
ENDBRANCH   6   8
ENDBRANCH   5   6
ENDBRANCH   4   5
ENDBRANCH   3   4
ENDBRANCH   2   3
ENDBRANCH   1   2
BRANCH   1  27
ATOM     27  C   UNL A   1      32.190  29.296  26.151  1.00  0.00     0.188 C 
BRANCH  27  28
ATOM     28  O   UNL A   1      32.123  30.456  26.967  1.00  0.00    -0.376 OA
BRANCH  28  29
ATOM     29  C   UNL A   1      31.445  31.587  26.407  1.00  0.00     0.202 C 
BRANCH  29  30
ATOM     30  C   UNL A   1      31.714  32.947  27.084  1.00  0.00     0.261 C 
BRANCH  30  31
ATOM     31  O   UNL A   1      33.102  33.351  27.095  1.00  0.00    -0.460 OA
BRANCH  31  32
ATOM     32  C   UNL A   1      33.598  33.846  28.249  1.00  0.00     0.338 C 
ATOM     33  O   UNL A   1      33.031  34.615  29.016  1.00  0.00    -0.246 OA
BRANCH  32  34
ATOM     34  C   UNL A   1      34.841  33.105  28.590  1.00  0.00     0.060 A 
ATOM     35  C   UNL A   1      34.745  31.722  28.803  1.00  0.00     0.016 A 
ATOM     36  C   UNL A   1      36.092  33.729  28.633  1.00  0.00     0.016 A 
ATOM     37  C   UNL A   1      35.882  30.975  29.117  1.00  0.00     0.010 A 
ATOM     38  C   UNL A   1      37.232  32.982  28.957  1.00  0.00     0.010 A 
ATOM     39  C   UNL A   1      37.124  31.609  29.245  1.00  0.00    -0.014 A 
BRANCH  39  40
ATOM     40  C   UNL A   1      38.242  30.894  29.917  1.00  0.00     0.031 A 
ATOM     41  C   UNL A   1      38.497  31.202  31.369  1.00  0.00     0.074 A 
ATOM     42  C   UNL A   1      38.992  29.972  29.286  1.00  0.00     0.049 A 
ATOM     43  N   UNL A   1      39.409  30.724  32.177  1.00  0.00    -0.248 NA
ATOM     44  C   UNL A   1      37.597  32.187  31.997  1.00  0.00     0.031 C 
ATOM     45  C   UNL A   1      38.838  29.555  27.894  1.00  0.00     0.029 A 
ATOM     46  N   UNL A   1      40.048  29.222  29.747  1.00  0.00    -0.354 N 
ATOM     47  C   UNL A   1      39.199  31.353  33.397  1.00  0.00     0.074 A 
ATOM     48  C   UNL A   1      38.091  32.264  33.224  1.00  0.00     0.031 C 
ATOM     49  C   UNL A   1      39.777  28.634  27.610  1.00  0.00     0.029 A 
ATOM     50  C   UNL A   1      40.613  28.413  28.791  1.00  0.00     0.049 A 
ATOM     51  H   UNL A   1      40.370  29.261  30.678  1.00  0.00     0.167 HD
ATOM     52  C   UNL A   1      39.863  31.183  34.563  1.00  0.00     0.037 A 
ATOM     53  C   UNL A   1      41.691  27.605  28.860  1.00  0.00     0.037 A 
ATOM     54  C   UNL A   1      40.956  30.269  34.752  1.00  0.00     0.049 A 
ATOM     55  C   UNL A   1      42.443  27.471  30.165  1.00  0.00     0.074 A 
ATOM     56  C   UNL A   1      41.666  30.006  35.911  1.00  0.00     0.029 A 
ATOM     57  N   UNL A   1      41.501  29.475  33.757  1.00  0.00    -0.354 N 
ATOM     58  N   UNL A   1      42.203  28.030  31.325  1.00  0.00    -0.248 NA
ATOM     59  C   UNL A   1      43.616  26.580  30.168  1.00  0.00     0.031 C 
ATOM     60  C   UNL A   1      42.677  29.091  35.604  1.00  0.00     0.029 A 
ATOM     61  C   UNL A   1      42.557  28.739  34.270  1.00  0.00     0.049 A 
ATOM     62  H   UNL A   1      41.187  29.439  32.825  1.00  0.00     0.167 HD
ATOM     63  C   UNL A   1      43.162  27.530  32.199  1.00  0.00     0.074 A 
ATOM     64  C   UNL A   1      43.983  26.613  31.440  1.00  0.00     0.031 C 
ATOM     65  C   UNL A   1      43.347  27.805  33.514  1.00  0.00     0.037 A 
BRANCH  52  66
ATOM     66  C   UNL A   1      39.441  32.017  35.734  1.00  0.00     0.064 A 
ATOM     67  C   UNL A   1      39.968  33.297  35.954  1.00  0.00     0.173 A 
ATOM     68  C   UNL A   1      38.447  31.552  36.607  1.00  0.00     0.173 A 
ATOM     69  F   UNL A   1      40.934  33.776  35.158  1.00  0.00    -0.203 F 
ATOM     70  C   UNL A   1      39.518  34.080  37.014  1.00  0.00     0.198 A 
ATOM     71  C   UNL A   1      37.981  32.348  37.649  1.00  0.00     0.198 A 
ATOM     72  F   UNL A   1      37.913  30.333  36.436  1.00  0.00    -0.203 F 
ATOM     73  F   UNL A   1      40.055  35.290  37.226  1.00  0.00    -0.200 F 
ATOM     74  C   UNL A   1      38.518  33.610  37.853  1.00  0.00     0.200 A 
ATOM     75  F   UNL A   1      37.007  31.895  38.452  1.00  0.00    -0.200 F 
ATOM     76  F   UNL A   1      38.073  34.372  38.861  1.00  0.00    -0.200 F 
ENDBRANCH  52  66
BRANCH  53  77
ATOM     77  C   UNL A   1      42.161  26.864  27.656  1.00  0.00     0.064 A 
ATOM     78  C   UNL A   1      41.754  25.546  27.407  1.00  0.00     0.173 A 
ATOM     79  C   UNL A   1      43.096  27.433  26.779  1.00  0.00     0.173 A 
ATOM     80  F   UNL A   1      40.887  24.945  28.236  1.00  0.00    -0.203 F 
ATOM     81  C   UNL A   1      42.293  24.812  26.350  1.00  0.00     0.198 A 
ATOM     82  C   UNL A   1      43.608  26.710  25.703  1.00  0.00     0.198 A 
ATOM     83  F   UNL A   1      43.525  28.688  26.975  1.00  0.00    -0.203 F 
ATOM     84  F   UNL A   1      41.943  23.529  26.182  1.00  0.00    -0.200 F 
ATOM     85  C   UNL A   1      43.217  25.396  25.498  1.00  0.00     0.200 A 
ATOM     86  F   UNL A   1      44.498  27.280  24.879  1.00  0.00    -0.200 F 
ATOM     87  F   UNL A   1      43.746  24.686  24.492  1.00  0.00    -0.200 F 
ENDBRANCH  53  77
BRANCH  65  88
ATOM     88  C   UNL A   1      44.434  27.062  34.239  1.00  0.00     0.064 A 
ATOM     89  C   UNL A   1      44.215  25.800  34.811  1.00  0.00     0.173 A 
ATOM     90  C   UNL A   1      45.728  27.601  34.318  1.00  0.00     0.173 A 
ATOM     91  F   UNL A   1      42.994  25.243  34.771  1.00  0.00    -0.203 F 
ATOM     92  C   UNL A   1      45.242  25.121  35.461  1.00  0.00     0.198 A 
ATOM     93  C   UNL A   1      46.760  26.906  34.940  1.00  0.00     0.198 A 
ATOM     94  F   UNL A   1      45.994  28.799  33.776  1.00  0.00    -0.203 F 
ATOM     95  F   UNL A   1      44.998  23.939  36.043  1.00  0.00    -0.200 F 
ATOM     96  C   UNL A   1      46.515  25.670  35.518  1.00  0.00     0.200 A 
ATOM     97  F   UNL A   1      47.992  27.430  34.978  1.00  0.00    -0.200 F 
ATOM     98  F   UNL A   1      47.504  25.010  36.137  1.00  0.00    -0.200 F 
ENDBRANCH  65  88
ENDBRANCH  39  40
ENDBRANCH  32  34
ENDBRANCH  31  32
ENDBRANCH  30  31
ENDBRANCH  29  30
ENDBRANCH  28  29
ENDBRANCH  27  28
ENDBRANCH   1  27
TORSDOF 22
ENDMDL
MODEL 2
REMARK VINA RESULT:     -10.8      1.297      2.368
REMARK SMILES CCOC(=O)C1=C(C)N(c2ccccc2)C(=O)[C@@H]1CC(=O)OCCOCCOCCOC(=O)c1ccc(-c2c3nc(c(-c4c(F)c(F)c(F)c(F)c4F)c4ccc([nH]4)c(-c4c(F)c(F)c(F)c(F)c4F)c4nc(c(-c5c(F)c(F)c(F)c(F)c5F)c5ccc2[nH]5)C=C4)C=C3)cc1
REMARK SMILES IDX 26 1 25 2 24 3 23 4 22 5 20 6 21 7 19 8 18 9 6 10 7 11 8 12
REMARK SMILES IDX 9 13 16 14 17 15 4 16 5 17 3 18 2 19 1 20 10 21 11 22 15 23
REMARK SMILES IDX 12 24 14 25 13 26 27 27 28 28 29 29 30 30 31 31 32 32 33 33
REMARK SMILES IDX 34 34 35 35 96 36 36 37 95 38 37 39 38 40 39 41 89 42 40 43
REMARK SMILES IDX 94 44 88 45 90 46 41 47 93 48 87 49 86 50 42 52 74 53 54 54
REMARK SMILES IDX 73 55 55 56 58 57 72 58 91 59 56 60 57 61 71 63 92 64 59 65
REMARK SMILES IDX 43 66 44 67 52 68 45 69 46 70 50 71 53 72 47 73 48 74 51 75
REMARK SMILES IDX 49 76 75 77 76 78 84 79 77 80 78 81 82 82 85 83 79 84 80 85
REMARK SMILES IDX 83 86 81 87 60 88 61 89 69 90 62 91 63 92 67 93 70 94 64 95
REMARK SMILES IDX 65 96 68 97 66 98
REMARK H PARENT 90 51 58 62
REMARK Flexibility Score: inf
ROOT
ATOM      1  C   UNL A   1      31.653  28.407  25.010  1.00  0.00     0.188 C 
ENDROOT
BRANCH   1   2
ATOM      2  O   UNL A   1      30.762  27.359  24.641  1.00  0.00    -0.376 OA
BRANCH   2   3
ATOM      3  C   UNL A   1      30.372  27.314  23.266  1.00  0.00     0.202 C 
BRANCH   3   4
ATOM      4  C   UNL A   1      31.399  26.711  22.299  1.00  0.00     0.261 C 
BRANCH   4   5
ATOM      5  O   UNL A   1      31.709  25.332  22.584  1.00  0.00    -0.463 OA
BRANCH   5   6
ATOM      6  C   UNL A   1      32.945  24.911  22.228  1.00  0.00     0.307 C 
ATOM      7  O   UNL A   1      33.846  25.644  21.832  1.00  0.00    -0.252 OA
BRANCH   6   8
ATOM      8  C   UNL A   1      33.196  23.436  22.463  1.00  0.00     0.141 C 
BRANCH   8   9
ATOM      9  C   UNL A   1      32.487  22.740  23.619  1.00  0.00     0.130 C 
ATOM     10  C   UNL A   1      33.214  22.914  24.929  1.00  0.00     0.070 C 
ATOM     11  C   UNL A   1      33.578  21.748  25.484  1.00  0.00     0.034 C 
ATOM     12  C   UNL A   1      34.450  21.547  26.683  1.00  0.00     0.065 C 
ATOM     13  N   UNL A   1      33.186  20.712  24.655  1.00  0.00    -0.284 N 
ATOM     14  C   UNL A   1      32.557  21.218  23.499  1.00  0.00     0.239 C 
ATOM     15  O   UNL A   1      32.106  20.581  22.557  1.00  0.00    -0.273 OA
BRANCH  10  16
ATOM     16  C   UNL A   1      33.709  24.207  25.403  1.00  0.00     0.336 C 
ATOM     17  O   UNL A   1      34.896  24.487  25.445  1.00  0.00    -0.246 OA
BRANCH  16  18
ATOM     18  O   UNL A   1      32.675  25.002  25.769  1.00  0.00    -0.463 OA
BRANCH  18  19
ATOM     19  C   UNL A   1      31.796  24.422  26.750  1.00  0.00     0.230 C 
ATOM     20  C   UNL A   1      30.344  24.494  26.304  1.00  0.00     0.049 C 
ENDBRANCH  18  19
ENDBRANCH  16  18
ENDBRANCH  10  16
BRANCH  13  21
ATOM     21  C   UNL A   1      33.413  19.317  24.817  1.00  0.00     0.049 A 
ATOM     22  C   UNL A   1      32.494  18.499  25.485  1.00  0.00     0.027 A 
ATOM     23  C   UNL A   1      34.574  18.727  24.296  1.00  0.00     0.027 A 
ATOM     24  C   UNL A   1      32.733  17.128  25.629  1.00  0.00     0.002 A 
ATOM     25  C   UNL A   1      34.823  17.364  24.454  1.00  0.00     0.002 A 
ATOM     26  C   UNL A   1      33.901  16.564  25.120  1.00  0.00     0.000 A 
ENDBRANCH  13  21
ENDBRANCH   8   9
ENDBRANCH   6   8
ENDBRANCH   5   6
ENDBRANCH   4   5
ENDBRANCH   3   4
ENDBRANCH   2   3
ENDBRANCH   1   2
BRANCH   1  27
ATOM     27  C   UNL A   1      32.075  28.448  26.480  1.00  0.00     0.188 C 
BRANCH  27  28
ATOM     28  O   UNL A   1      31.902  29.697  27.134  1.00  0.00    -0.376 OA
BRANCH  28  29
ATOM     29  C   UNL A   1      31.645  30.824  26.287  1.00  0.00     0.202 C 
BRANCH  29  30
ATOM     30  C   UNL A   1      31.750  32.213  26.953  1.00  0.00     0.261 C 
BRANCH  30  31
ATOM     31  O   UNL A   1      33.056  32.826  26.866  1.00  0.00    -0.460 OA
BRANCH  31  32
ATOM     32  C   UNL A   1      33.540  33.419  27.978  1.00  0.00     0.338 C 
ATOM     33  O   UNL A   1      32.957  34.231  28.686  1.00  0.00    -0.246 OA
BRANCH  32  34
ATOM     34  C   UNL A   1      34.800  32.734  28.372  1.00  0.00     0.060 A 
ATOM     35  C   UNL A   1      34.746  31.356  28.630  1.00  0.00     0.016 A 
ATOM     36  C   UNL A   1      36.027  33.402  28.422  1.00  0.00     0.016 A 
ATOM     37  C   UNL A   1      35.901  30.660  28.994  1.00  0.00     0.010 A 
ATOM     38  C   UNL A   1      37.184  32.707  28.797  1.00  0.00     0.010 A 
ATOM     39  C   UNL A   1      37.117  31.341  29.128  1.00  0.00    -0.014 A 
BRANCH  39  40
ATOM     40  C   UNL A   1      38.243  30.689  29.849  1.00  0.00     0.031 A 
ATOM     41  C   UNL A   1      38.473  31.078  31.286  1.00  0.00     0.074 A 
ATOM     42  C   UNL A   1      39.021  29.753  29.276  1.00  0.00     0.049 A 
ATOM     43  N   UNL A   1      39.385  30.664  32.128  1.00  0.00    -0.248 NA
ATOM     44  C   UNL A   1      37.543  32.072  31.852  1.00  0.00     0.031 C 
ATOM     45  C   UNL A   1      38.894  29.261  27.907  1.00  0.00     0.029 A 
ATOM     46  N   UNL A   1      40.088  29.052  29.787  1.00  0.00    -0.354 N 
ATOM     47  C   UNL A   1      39.146  31.351  33.311  1.00  0.00     0.074 A 
ATOM     48  C   UNL A   1      38.020  32.225  33.078  1.00  0.00     0.031 C 
ATOM     49  C   UNL A   1      39.857  28.348  27.681  1.00  0.00     0.029 A 
ATOM     50  C   UNL A   1      40.683  28.208  28.882  1.00  0.00     0.049 A 
ATOM     51  H   UNL A   1      40.398  29.147  30.718  1.00  0.00     0.167 HD
ATOM     52  C   UNL A   1      39.799  31.257  34.491  1.00  0.00     0.037 A 
ATOM     53  C   UNL A   1      41.778  27.431  29.004  1.00  0.00     0.037 A 
ATOM     54  C   UNL A   1      40.911  30.380  34.741  1.00  0.00     0.049 A 
ATOM     55  C   UNL A   1      42.517  27.382  30.323  1.00  0.00     0.074 A 
ATOM     56  C   UNL A   1      41.613  30.195  35.919  1.00  0.00     0.029 A 
ATOM     57  N   UNL A   1      41.486  29.548  33.794  1.00  0.00    -0.354 N 
ATOM     58  N   UNL A   1      42.250  27.995  31.449  1.00  0.00    -0.248 NA
ATOM     59  C   UNL A   1      43.710  26.521  30.385  1.00  0.00     0.031 C 
ATOM     60  C   UNL A   1      42.647  29.289  35.672  1.00  0.00     0.029 A 
ATOM     61  C   UNL A   1      42.552  28.864  34.357  1.00  0.00     0.049 A 
ATOM     62  H   UNL A   1      41.184  29.456  32.862  1.00  0.00     0.167 HD
ATOM     63  C   UNL A   1      43.209  27.563  32.359  1.00  0.00     0.074 A 
ATOM     64  C   UNL A   1      44.061  26.628  31.658  1.00  0.00     0.031 C 
ATOM     65  C   UNL A   1      43.373  27.912  33.659  1.00  0.00     0.037 A 
BRANCH  52  66
ATOM     66  C   UNL A   1      39.344  32.141  35.612  1.00  0.00     0.064 A 
ATOM     67  C   UNL A   1      39.788  33.465  35.733  1.00  0.00     0.173 A 
ATOM     68  C   UNL A   1      38.400  31.673  36.538  1.00  0.00     0.173 A 
ATOM     69  F   UNL A   1      40.704  33.950  34.883  1.00  0.00    -0.203 F 
ATOM     70  C   UNL A   1      39.306  34.289  36.747  1.00  0.00     0.198 A 
ATOM     71  C   UNL A   1      37.901  32.507  37.534  1.00  0.00     0.198 A 
ATOM     72  F   UNL A   1      37.947  30.412  36.463  1.00  0.00    -0.203 F 
ATOM     73  F   UNL A   1      39.764  35.543  36.863  1.00  0.00    -0.200 F 
ATOM     74  C   UNL A   1      38.356  33.813  37.639  1.00  0.00     0.200 A 
ATOM     75  F   UNL A   1      36.976  32.048  38.389  1.00  0.00    -0.200 F 
ATOM     76  F   UNL A   1      37.880  34.613  38.603  1.00  0.00    -0.200 F 
ENDBRANCH  52  66
BRANCH  53  77
ATOM     77  C   UNL A   1      42.280  26.639  27.846  1.00  0.00     0.064 A 
ATOM     78  C   UNL A   1      43.230  27.167  26.961  1.00  0.00     0.173 A 
ATOM     79  C   UNL A   1      41.754  25.373  27.556  1.00  0.00     0.173 A 
ATOM     80  F   UNL A   1      43.740  28.390  27.176  1.00  0.00    -0.203 F 
ATOM     81  C   UNL A   1      43.606  26.476  25.809  1.00  0.00     0.198 A 
ATOM     82  C   UNL A   1      42.154  24.668  26.422  1.00  0.00     0.198 A 
ATOM     83  F   UNL A   1      40.837  24.824  28.365  1.00  0.00    -0.203 F 
ATOM     84  F   UNL A   1      44.458  27.039  24.941  1.00  0.00    -0.200 F 
ATOM     85  C   UNL A   1      43.069  25.226  25.542  1.00  0.00     0.200 A 
ATOM     86  F   UNL A   1      41.637  23.457  26.170  1.00  0.00    -0.200 F 
ATOM     87  F   UNL A   1      43.418  24.569  24.427  1.00  0.00    -0.200 F 
ENDBRANCH  53  77
BRANCH  65  88
ATOM     88  C   UNL A   1      44.466  27.233  34.434  1.00  0.00     0.064 A 
ATOM     89  C   UNL A   1      45.742  27.799  34.570  1.00  0.00     0.173 A 
ATOM     90  C   UNL A   1      44.215  26.019  35.094  1.00  0.00     0.173 A 
ATOM     91  F   UNL A   1      46.037  28.953  33.952  1.00  0.00    -0.203 F 
ATOM     92  C   UNL A   1      46.734  27.161  35.310  1.00  0.00     0.198 A 
ATOM     93  C   UNL A   1      45.199  25.400  35.860  1.00  0.00     0.198 A 
ATOM     94  F   UNL A   1      43.008  25.440  35.009  1.00  0.00    -0.203 F 
ATOM     95  F   UNL A   1      47.961  27.695  35.384  1.00  0.00    -0.200 F 
ATOM     96  C   UNL A   1      46.460  25.966  35.960  1.00  0.00     0.200 A 
ATOM     97  F   UNL A   1      44.926  24.256  36.502  1.00  0.00    -0.200 F 
ATOM     98  F   UNL A   1      47.414  25.359  36.679  1.00  0.00    -0.200 F 
ENDBRANCH  65  88
ENDBRANCH  39  40
ENDBRANCH  32  34
ENDBRANCH  31  32
ENDBRANCH  30  31
ENDBRANCH  29  30
ENDBRANCH  28  29
ENDBRANCH  27  28
ENDBRANCH   1  27
TORSDOF 22
ENDMDL
MODEL 3
REMARK VINA RESULT:     -10.6      4.125     10.622
REMARK SMILES CCOC(=O)C1=C(C)N(c2ccccc2)C(=O)[C@@H]1CC(=O)OCCOCCOCCOC(=O)c1ccc(-c2c3nc(c(-c4c(F)c(F)c(F)c(F)c4F)c4ccc([nH]4)c(-c4c(F)c(F)c(F)c(F)c4F)c4nc(c(-c5c(F)c(F)c(F)c(F)c5F)c5ccc2[nH]5)C=C4)C=C3)cc1
REMARK SMILES IDX 26 1 25 2 24 3 23 4 22 5 20 6 21 7 19 8 18 9 6 10 7 11 8 12
REMARK SMILES IDX 9 13 16 14 17 15 4 16 5 17 3 18 2 19 1 20 10 21 11 22 15 23
REMARK SMILES IDX 12 24 14 25 13 26 27 27 28 28 29 29 30 30 31 31 32 32 33 33
REMARK SMILES IDX 34 34 35 35 96 36 36 37 95 38 37 39 38 40 39 41 89 42 40 43
REMARK SMILES IDX 94 44 88 45 90 46 41 47 93 48 87 49 86 50 42 52 74 53 54 54
REMARK SMILES IDX 73 55 55 56 58 57 72 58 91 59 56 60 57 61 71 63 92 64 59 65
REMARK SMILES IDX 43 66 44 67 52 68 45 69 46 70 50 71 53 72 47 73 48 74 51 75
REMARK SMILES IDX 49 76 75 77 76 78 84 79 77 80 78 81 82 82 85 83 79 84 80 85
REMARK SMILES IDX 83 86 81 87 60 88 61 89 69 90 62 91 63 92 67 93 70 94 64 95
REMARK SMILES IDX 65 96 68 97 66 98
REMARK H PARENT 90 51 58 62
REMARK Flexibility Score: inf
ROOT
ATOM      1  C   UNL A   1      35.421  21.146  24.982  1.00  0.00     0.188 C 
ENDROOT
BRANCH   1   2
ATOM      2  O   UNL A   1      34.246  21.927  25.171  1.00  0.00    -0.376 OA
BRANCH   2   3
ATOM      3  C   UNL A   1      33.179  21.698  24.247  1.00  0.00     0.202 C 
BRANCH   3   4
ATOM      4  C   UNL A   1      31.763  21.950  24.783  1.00  0.00     0.261 C 
BRANCH   4   5
ATOM      5  O   UNL A   1      31.277  23.279  24.507  1.00  0.00    -0.463 OA
BRANCH   5   6
ATOM      6  C   UNL A   1      30.902  24.013  25.580  1.00  0.00     0.307 C 
ATOM      7  O   UNL A   1      30.793  23.576  26.722  1.00  0.00    -0.252 OA
BRANCH   6   8
ATOM      8  C   UNL A   1      30.728  25.491  25.299  1.00  0.00     0.141 C 
BRANCH   8   9
ATOM      9  C   UNL A   1      30.709  25.971  23.853  1.00  0.00     0.130 C 
ATOM     10  C   UNL A   1      31.970  26.705  23.472  1.00  0.00     0.070 C 
ATOM     11  C   UNL A   1      31.742  27.963  23.068  1.00  0.00     0.034 C 
ATOM     12  C   UNL A   1      32.758  29.022  22.778  1.00  0.00     0.065 C 
ATOM     13  N   UNL A   1      30.384  28.222  23.143  1.00  0.00    -0.284 N 
ATOM     14  C   UNL A   1      29.696  27.094  23.637  1.00  0.00     0.239 C 
ATOM     15  O   UNL A   1      28.495  26.987  23.842  1.00  0.00    -0.273 OA
BRANCH  10  16
ATOM     16  C   UNL A   1      33.311  26.199  23.773  1.00  0.00     0.336 C 
ATOM     17  O   UNL A   1      33.749  25.162  23.301  1.00  0.00    -0.246 OA
BRANCH  16  18
ATOM     18  O   UNL A   1      33.952  27.039  24.620  1.00  0.00    -0.463 OA
BRANCH  18  19
ATOM     19  C   UNL A   1      33.646  26.829  26.011  1.00  0.00     0.230 C 
ATOM     20  C   UNL A   1      33.226  28.124  26.687  1.00  0.00     0.049 C 
ENDBRANCH  18  19
ENDBRANCH  16  18
ENDBRANCH  10  16
BRANCH  13  21
ATOM     21  C   UNL A   1      29.701  29.438  22.866  1.00  0.00     0.049 A 
ATOM     22  C   UNL A   1      29.140  29.692  21.609  1.00  0.00     0.027 A 
ATOM     23  C   UNL A   1      29.566  30.413  23.865  1.00  0.00     0.027 A 
ATOM     24  C   UNL A   1      28.466  30.892  21.359  1.00  0.00     0.002 A 
ATOM     25  C   UNL A   1      28.911  31.618  23.612  1.00  0.00     0.002 A 
ATOM     26  C   UNL A   1      28.359  31.857  22.358  1.00  0.00     0.000 A 
ENDBRANCH  13  21
ENDBRANCH   8   9
ENDBRANCH   6   8
ENDBRANCH   5   6
ENDBRANCH   4   5
ENDBRANCH   3   4
ENDBRANCH   2   3
ENDBRANCH   1   2
BRANCH   1  27
ATOM     27  C   UNL A   1      36.675  21.907  24.548  1.00  0.00     0.188 C 
BRANCH  27  28
ATOM     28  O   UNL A   1      37.911  21.323  24.931  1.00  0.00    -0.376 OA
BRANCH  28  29
ATOM     29  C   UNL A   1      37.935  19.893  25.024  1.00  0.00     0.202 C 
BRANCH  29  30
ATOM     30  C   UNL A   1      39.190  19.273  25.673  1.00  0.00     0.261 C 
BRANCH  30  31
ATOM     31  O   UNL A   1      40.366  20.112  25.632  1.00  0.00    -0.460 OA
BRANCH  31  32
ATOM     32  C   UNL A   1      41.135  20.160  26.741  1.00  0.00     0.338 C 
ATOM     33  O   UNL A   1      41.792  19.242  27.214  1.00  0.00    -0.246 OA
BRANCH  32  34
ATOM     34  C   UNL A   1      41.280  21.580  27.158  1.00  0.00     0.060 A 
ATOM     35  C   UNL A   1      40.732  22.569  26.327  1.00  0.00     0.016 A 
ATOM     36  C   UNL A   1      41.874  21.944  28.371  1.00  0.00     0.016 A 
ATOM     37  C   UNL A   1      40.830  23.918  26.675  1.00  0.00     0.010 A 
ATOM     38  C   UNL A   1      41.982  23.297  28.715  1.00  0.00     0.010 A 
ATOM     39  C   UNL A   1      41.499  24.293  27.847  1.00  0.00    -0.014 A 
BRANCH  39  40
ATOM     40  C   UNL A   1      41.910  25.710  28.029  1.00  0.00     0.031 A 
ATOM     41  C   UNL A   1      43.240  26.133  27.460  1.00  0.00     0.074 A 
ATOM     42  C   UNL A   1      41.127  26.615  28.644  1.00  0.00     0.049 A 
ATOM     43  N   UNL A   1      43.828  27.301  27.491  1.00  0.00    -0.248 NA
ATOM     44  C   UNL A   1      44.011  25.092  26.759  1.00  0.00     0.031 C 
ATOM     45  C   UNL A   1      39.808  26.354  29.215  1.00  0.00     0.029 A 
ATOM     46  N   UNL A   1      41.342  27.950  28.895  1.00  0.00    -0.354 N 
ATOM     47  C   UNL A   1      45.035  27.133  26.826  1.00  0.00     0.074 A 
ATOM     48  C   UNL A   1      45.111  25.748  26.420  1.00  0.00     0.031 C 
ATOM     49  C   UNL A   1      39.338  27.489  29.764  1.00  0.00     0.029 A 
ATOM     50  C   UNL A   1      40.331  28.552  29.604  1.00  0.00     0.049 A 
ATOM     51  H   UNL A   1      42.148  28.431  28.593  1.00  0.00     0.167 HD
ATOM     52  C   UNL A   1      45.994  28.051  26.566  1.00  0.00     0.037 A 
ATOM     53  C   UNL A   1      40.232  29.808  30.083  1.00  0.00     0.037 A 
ATOM     54  C   UNL A   1      45.924  29.434  26.950  1.00  0.00     0.049 A 
ATOM     55  C   UNL A   1      41.342  30.801  29.818  1.00  0.00     0.074 A 
ATOM     56  C   UNL A   1      46.836  30.444  26.697  1.00  0.00     0.029 A 
ATOM     57  N   UNL A   1      44.886  30.000  27.673  1.00  0.00    -0.354 N 
ATOM     58  N   UNL A   1      42.454  30.644  29.142  1.00  0.00    -0.248 NA
ATOM     59  C   UNL A   1      41.174  32.152  30.378  1.00  0.00     0.031 C 
ATOM     60  C   UNL A   1      46.376  31.610  27.313  1.00  0.00     0.029 A 
ATOM     61  C   UNL A   1      45.149  31.342  27.897  1.00  0.00     0.049 A 
ATOM     62  H   UNL A   1      44.084  29.521  27.982  1.00  0.00     0.167 HD
ATOM     63  C   UNL A   1      43.092  31.880  29.161  1.00  0.00     0.074 A 
ATOM     64  C   UNL A   1      42.241  32.780  29.905  1.00  0.00     0.031 C 
ATOM     65  C   UNL A   1      44.279  32.237  28.612  1.00  0.00     0.037 A 
BRANCH  52  66
ATOM     66  C   UNL A   1      47.223  27.589  25.843  1.00  0.00     0.064 A 
ATOM     67  C   UNL A   1      47.316  27.637  24.445  1.00  0.00     0.173 A 
ATOM     68  C   UNL A   1      48.344  27.157  26.566  1.00  0.00     0.173 A 
ATOM     69  F   UNL A   1      46.264  28.025  23.710  1.00  0.00    -0.203 F 
ATOM     70  C   UNL A   1      48.490  27.261  23.796  1.00  0.00     0.198 A 
ATOM     71  C   UNL A   1      49.523  26.807  25.916  1.00  0.00     0.198 A 
ATOM     72  F   UNL A   1      48.301  27.094  27.906  1.00  0.00    -0.203 F 
ATOM     73  F   UNL A   1      48.550  27.285  22.457  1.00  0.00    -0.200 F 
ATOM     74  C   UNL A   1      49.595  26.857  24.532  1.00  0.00     0.200 A 
ATOM     75  F   UNL A   1      50.592  26.427  26.629  1.00  0.00    -0.200 F 
ATOM     76  F   UNL A   1      50.728  26.513  23.906  1.00  0.00    -0.200 F 
ENDBRANCH  52  66
BRANCH  53  77
ATOM     77  C   UNL A   1      39.051  30.220  30.892  1.00  0.00     0.064 A 
ATOM     78  C   UNL A   1      37.945  30.847  30.300  1.00  0.00     0.173 A 
ATOM     79  C   UNL A   1      39.045  30.072  32.287  1.00  0.00     0.173 A 
ATOM     80  F   UNL A   1      37.918  31.044  28.974  1.00  0.00    -0.203 F 
ATOM     81  C   UNL A   1      36.898  31.345  31.076  1.00  0.00     0.198 A 
ATOM     82  C   UNL A   1      37.982  30.539  33.058  1.00  0.00     0.198 A 
ATOM     83  F   UNL A   1      40.080  29.486  32.905  1.00  0.00    -0.203 F 
ATOM     84  F   UNL A   1      35.891  32.008  30.490  1.00  0.00    -0.200 F 
ATOM     85  C   UNL A   1      36.916  31.188  32.453  1.00  0.00     0.200 A 
ATOM     86  F   UNL A   1      38.001  30.381  34.388  1.00  0.00    -0.200 F 
ATOM     87  F   UNL A   1      35.917  31.679  33.199  1.00  0.00    -0.200 F 
ENDBRANCH  53  77
BRANCH  65  88
ATOM     88  C   UNL A   1      44.702  33.674  28.730  1.00  0.00     0.064 A 
ATOM     89  C   UNL A   1      45.515  34.125  29.781  1.00  0.00     0.173 A 
ATOM     90  C   UNL A   1      44.327  34.604  27.746  1.00  0.00     0.173 A 
ATOM     91  F   UNL A   1      45.893  33.279  30.751  1.00  0.00    -0.203 F 
ATOM     92  C   UNL A   1      45.910  35.457  29.859  1.00  0.00     0.198 A 
ATOM     93  C   UNL A   1      44.751  35.928  27.810  1.00  0.00     0.198 A 
ATOM     94  F   UNL A   1      43.561  34.223  26.714  1.00  0.00    -0.203 F 
ATOM     95  F   UNL A   1      46.645  35.877  30.898  1.00  0.00    -0.200 F 
ATOM     96  C   UNL A   1      45.534  36.356  28.870  1.00  0.00     0.200 A 
ATOM     97  F   UNL A   1      44.402  36.789  26.845  1.00  0.00    -0.200 F 
ATOM     98  F   UNL A   1      45.924  37.636  28.943  1.00  0.00    -0.200 F 
ENDBRANCH  65  88
ENDBRANCH  39  40
ENDBRANCH  32  34
ENDBRANCH  31  32
ENDBRANCH  30  31
ENDBRANCH  29  30
ENDBRANCH  28  29
ENDBRANCH  27  28
ENDBRANCH   1  27
TORSDOF 22
ENDMDL
