MODEL 1
REMARK VINA RESULT:     -10.6      0.000      0.000
REMARK SMILES C=CC[N@H+](CC(=O)OCCOCCOCCOC(=O)c1ccc(-c2c3nc(c(-c4c(F)c(F)c(F)c(F)c4F)c4ccc([nH]4)c(-c4c(F)c(F)c(F)c(F)c4F)c4nc(c(-c5c(F)c(F)c(F)c(F)c5F)c5ccc2[nH]5)C=C4)C=C3)cc1)[C@H]1CC(=O)N(c2ccccc2)C1=O
REMARK SMILES IDX 12 1 11 2 10 3 9 4 8 5 6 6 7 7 5 8 4 9 3 11 2 12 1 13 83 14
REMARK SMILES IDX 84 15 94 16 85 17 87 18 95 19 86 20 88 21 89 22 93 23 90 24
REMARK SMILES IDX 92 25 91 26 13 27 14 28 15 29 16 30 17 31 18 32 19 33 20 34
REMARK SMILES IDX 21 35 82 36 22 37 81 38 23 39 24 40 25 41 75 42 26 43 80 44
REMARK SMILES IDX 74 45 76 46 27 47 79 48 73 49 72 50 28 52 60 53 40 54 59 55
REMARK SMILES IDX 41 56 44 57 58 58 77 59 42 60 43 61 57 63 78 64 45 65 29 66
REMARK SMILES IDX 30 67 38 68 31 69 32 70 36 71 39 72 33 73 34 74 37 75 35 76
REMARK SMILES IDX 61 77 62 78 70 79 63 80 64 81 68 82 71 83 65 84 66 85 69 86
REMARK SMILES IDX 67 87 46 88 47 89 55 90 48 91 49 92 53 93 56 94 50 95 51 96
REMARK SMILES IDX 54 97 52 98
REMARK H PARENT 4 10 76 51 44 62
REMARK Flexibility Score: inf
ROOT
ATOM      1  C   UNL A   1      40.786  22.198  27.563  1.00  0.00     0.188 C 
ENDROOT
BRANCH   1   2
ATOM      2  O   UNL A   1      39.617  22.896  27.148  1.00  0.00    -0.376 OA
BRANCH   2   3
ATOM      3  C   UNL A   1      38.799  22.337  26.126  1.00  0.00     0.202 C 
BRANCH   3   4
ATOM      4  C   UNL A   1      37.770  23.233  25.416  1.00  0.00     0.261 C 
BRANCH   4   5
ATOM      5  O   UNL A   1      36.589  22.556  24.925  1.00  0.00    -0.459 OA
BRANCH   5   6
ATOM      6  C   UNL A   1      35.973  23.144  23.881  1.00  0.00     0.361 C 
ATOM      7  O   UNL A   1      36.461  23.193  22.750  1.00  0.00    -0.245 OA
BRANCH   6   8
ATOM      8  C   UNL A   1      34.602  23.769  24.095  1.00  0.00     0.387 C 
BRANCH   8   9
ATOM      9  N   UNL A   1      33.726  23.616  25.300  1.00  0.00    -0.312 N 
ATOM     10  H   UNL A   1      34.327  23.530  26.119  1.00  0.00     0.349 HD
BRANCH   9  11
ATOM     11  C   UNL A   1      32.863  24.809  25.492  1.00  0.00     0.291 C 
BRANCH  11  12
ATOM     12  C   UNL A   1      31.534  24.516  26.144  1.00  0.00     0.025 C 
ATOM     13  C   UNL A   1      30.379  25.117  25.820  1.00  0.00     0.010 C 
ENDBRANCH  11  12
ENDBRANCH   9  11
BRANCH   9  14
ATOM     14  C   UNL A   1      32.872  22.362  25.173  1.00  0.00     0.285 C 
ATOM     15  C   UNL A   1      32.373  21.955  23.777  1.00  0.00     0.176 C 
ATOM     16  C   UNL A   1      33.538  21.069  25.692  1.00  0.00     0.292 C 
ATOM     17  C   UNL A   1      32.563  20.483  23.694  1.00  0.00     0.240 C 
ATOM     18  N   UNL A   1      33.248  20.056  24.798  1.00  0.00    -0.245 N 
ATOM     19  O   UNL A   1      34.156  20.958  26.742  1.00  0.00    -0.267 OA
ATOM     20  O   UNL A   1      32.153  19.823  22.749  1.00  0.00    -0.274 OA
BRANCH  18  21
ATOM     21  C   UNL A   1      33.461  18.677  25.001  1.00  0.00     0.052 A 
ATOM     22  C   UNL A   1      32.528  17.930  25.729  1.00  0.00     0.027 A 
ATOM     23  C   UNL A   1      34.439  18.011  24.250  1.00  0.00     0.027 A 
ATOM     24  C   UNL A   1      32.547  16.532  25.661  1.00  0.00     0.002 A 
ATOM     25  C   UNL A   1      34.480  16.616  24.216  1.00  0.00     0.002 A 
ATOM     26  C   UNL A   1      33.519  15.878  24.903  1.00  0.00     0.000 A 
ENDBRANCH  18  21
ENDBRANCH   9  14
ENDBRANCH   8   9
ENDBRANCH   6   8
ENDBRANCH   5   6
ENDBRANCH   4   5
ENDBRANCH   3   4
ENDBRANCH   2   3
ENDBRANCH   1   2
BRANCH   1  27
ATOM     27  C   UNL A   1      41.678  21.508  26.511  1.00  0.00     0.188 C 
BRANCH  27  28
ATOM     28  O   UNL A   1      42.456  20.450  27.026  1.00  0.00    -0.376 OA
BRANCH  28  29
ATOM     29  C   UNL A   1      42.254  19.156  26.492  1.00  0.00     0.202 C 
BRANCH  29  30
ATOM     30  C   UNL A   1      43.377  18.457  25.703  1.00  0.00     0.261 C 
BRANCH  30  31
ATOM     31  O   UNL A   1      43.678  18.968  24.395  1.00  0.00    -0.460 OA
BRANCH  31  32
ATOM     32  C   UNL A   1      44.941  19.395  24.159  1.00  0.00     0.338 C 
ATOM     33  O   UNL A   1      45.842  18.776  23.616  1.00  0.00    -0.246 OA
BRANCH  32  34
ATOM     34  C   UNL A   1      44.994  20.826  24.530  1.00  0.00     0.060 A 
ATOM     35  C   UNL A   1      44.436  21.794  23.681  1.00  0.00     0.016 A 
ATOM     36  C   UNL A   1      45.555  21.202  25.751  1.00  0.00     0.016 A 
ATOM     37  C   UNL A   1      44.420  23.140  24.065  1.00  0.00     0.010 A 
ATOM     38  C   UNL A   1      45.564  22.550  26.119  1.00  0.00     0.010 A 
ATOM     39  C   UNL A   1      45.000  23.528  25.279  1.00  0.00    -0.014 A 
BRANCH  39  40
ATOM     40  C   UNL A   1      45.129  24.959  25.656  1.00  0.00     0.031 A 
ATOM     41  C   UNL A   1      46.480  25.608  25.582  1.00  0.00     0.074 A 
ATOM     42  C   UNL A   1      44.073  25.651  26.121  1.00  0.00     0.049 A 
ATOM     43  N   UNL A   1      46.868  26.776  26.026  1.00  0.00    -0.248 NA
ATOM     44  C   UNL A   1      47.540  24.827  24.926  1.00  0.00     0.031 C 
ATOM     45  C   UNL A   1      42.705  25.150  26.204  1.00  0.00     0.029 A 
ATOM     46  N   UNL A   1      44.002  26.920  26.646  1.00  0.00    -0.354 N 
ATOM     47  C   UNL A   1      48.220  26.863  25.720  1.00  0.00     0.074 A 
ATOM     48  C   UNL A   1      48.588  25.624  25.069  1.00  0.00     0.031 C 
ATOM     49  C   UNL A   1      41.932  26.089  26.777  1.00  0.00     0.029 A 
ATOM     50  C   UNL A   1      42.761  27.236  27.146  1.00  0.00     0.049 A 
ATOM     51  H   UNL A   1      44.766  27.542  26.662  1.00  0.00     0.167 HD
ATOM     52  C   UNL A   1      49.073  27.886  25.962  1.00  0.00     0.037 A 
ATOM     53  C   UNL A   1      42.357  28.306  27.860  1.00  0.00     0.037 A 
ATOM     54  C   UNL A   1      48.703  29.116  26.615  1.00  0.00     0.049 A 
ATOM     55  C   UNL A   1      43.349  29.390  28.202  1.00  0.00     0.074 A 
ATOM     56  C   UNL A   1      49.487  30.226  26.872  1.00  0.00     0.029 A 
ATOM     57  N   UNL A   1      47.444  29.389  27.128  1.00  0.00    -0.354 N 
ATOM     58  N   UNL A   1      44.617  29.486  27.880  1.00  0.00    -0.248 NA
ATOM     59  C   UNL A   1      42.855  30.512  29.016  1.00  0.00     0.031 C 
ATOM     60  C   UNL A   1      48.724  31.142  27.602  1.00  0.00     0.029 A 
ATOM     61  C   UNL A   1      47.443  30.633  27.742  1.00  0.00     0.049 A 
ATOM     62  H   UNL A   1      46.665  28.789  27.066  1.00  0.00     0.167 HD
ATOM     63  C   UNL A   1      45.063  30.683  28.430  1.00  0.00     0.074 A 
ATOM     64  C   UNL A   1      43.927  31.289  29.089  1.00  0.00     0.031 C 
ATOM     65  C   UNL A   1      46.305  31.228  28.395  1.00  0.00     0.037 A 
BRANCH  52  66
ATOM     66  C   UNL A   1      50.507  27.710  25.553  1.00  0.00     0.064 A 
ATOM     67  C   UNL A   1      51.502  27.355  26.475  1.00  0.00     0.173 A 
ATOM     68  C   UNL A   1      50.881  27.854  24.207  1.00  0.00     0.173 A 
ATOM     69  F   UNL A   1      51.201  27.215  27.775  1.00  0.00    -0.203 F 
ATOM     70  C   UNL A   1      52.823  27.176  26.070  1.00  0.00     0.198 A 
ATOM     71  C   UNL A   1      52.194  27.642  23.801  1.00  0.00     0.198 A 
ATOM     72  F   UNL A   1      49.967  28.186  23.283  1.00  0.00    -0.203 F 
ATOM     73  F   UNL A   1      53.766  26.882  26.976  1.00  0.00    -0.200 F 
ATOM     74  C   UNL A   1      53.166  27.310  24.732  1.00  0.00     0.200 A 
ATOM     75  F   UNL A   1      52.521  27.756  22.505  1.00  0.00    -0.200 F 
ATOM     76  F   UNL A   1      54.435  27.125  24.343  1.00  0.00    -0.200 F 
ENDBRANCH  52  66
BRANCH  53  77
ATOM     77  C   UNL A   1      40.950  28.394  28.341  1.00  0.00     0.064 A 
ATOM     78  C   UNL A   1      39.943  28.940  27.533  1.00  0.00     0.173 A 
ATOM     79  C   UNL A   1      40.591  27.965  29.628  1.00  0.00     0.173 A 
ATOM     80  F   UNL A   1      40.242  29.396  26.307  1.00  0.00    -0.203 F 
ATOM     81  C   UNL A   1      38.637  29.072  28.001  1.00  0.00     0.198 A 
ATOM     82  C   UNL A   1      39.277  28.067  30.081  1.00  0.00     0.198 A 
ATOM     83  F   UNL A   1      41.516  27.444  30.447  1.00  0.00    -0.203 F 
ATOM     84  F   UNL A   1      37.708  29.650  27.228  1.00  0.00    -0.200 F 
ATOM     85  C   UNL A   1      38.303  28.628  29.271  1.00  0.00     0.200 A 
ATOM     86  F   UNL A   1      38.958  27.627  31.307  1.00  0.00    -0.200 F 
ATOM     87  F   UNL A   1      37.047  28.754  29.719  1.00  0.00    -0.200 F 
ENDBRANCH  53  77
BRANCH  65  88
ATOM     88  C   UNL A   1      46.502  32.558  29.068  1.00  0.00     0.064 A 
ATOM     89  C   UNL A   1      46.261  33.766  28.397  1.00  0.00     0.173 A 
ATOM     90  C   UNL A   1      46.880  32.623  30.419  1.00  0.00     0.173 A 
ATOM     91  F   UNL A   1      45.912  33.760  27.102  1.00  0.00    -0.203 F 
ATOM     92  C   UNL A   1      46.408  34.989  29.048  1.00  0.00     0.198 A 
ATOM     93  C   UNL A   1      46.993  33.846  31.074  1.00  0.00     0.198 A 
ATOM     94  F   UNL A   1      47.116  31.499  31.111  1.00  0.00    -0.203 F 
ATOM     95  F   UNL A   1      46.215  36.131  28.374  1.00  0.00    -0.200 F 
ATOM     96  C   UNL A   1      46.764  35.028  30.387  1.00  0.00     0.200 A 
ATOM     97  F   UNL A   1      47.320  33.881  32.374  1.00  0.00    -0.200 F 
ATOM     98  F   UNL A   1      46.892  36.205  31.015  1.00  0.00    -0.200 F 
ENDBRANCH  65  88
ENDBRANCH  39  40
ENDBRANCH  32  34
ENDBRANCH  31  32
ENDBRANCH  30  31
ENDBRANCH  29  30
ENDBRANCH  28  29
ENDBRANCH  27  28
ENDBRANCH   1  27
TORSDOF 22
ENDMDL
MODEL 2
REMARK VINA RESULT:     -10.3      3.983      8.925
REMARK SMILES C=CC[N@H+](CC(=O)OCCOCCOCCOC(=O)c1ccc(-c2c3nc(c(-c4c(F)c(F)c(F)c(F)c4F)c4ccc([nH]4)c(-c4c(F)c(F)c(F)c(F)c4F)c4nc(c(-c5c(F)c(F)c(F)c(F)c5F)c5ccc2[nH]5)C=C4)C=C3)cc1)[C@H]1CC(=O)N(c2ccccc2)C1=O
REMARK SMILES IDX 12 1 11 2 10 3 9 4 8 5 6 6 7 7 5 8 4 9 3 11 2 12 1 13 83 14
REMARK SMILES IDX 84 15 94 16 85 17 87 18 95 19 86 20 88 21 89 22 93 23 90 24
REMARK SMILES IDX 92 25 91 26 13 27 14 28 15 29 16 30 17 31 18 32 19 33 20 34
REMARK SMILES IDX 21 35 82 36 22 37 81 38 23 39 24 40 25 41 75 42 26 43 80 44
REMARK SMILES IDX 74 45 76 46 27 47 79 48 73 49 72 50 28 52 60 53 40 54 59 55
REMARK SMILES IDX 41 56 44 57 58 58 77 59 42 60 43 61 57 63 78 64 45 65 29 66
REMARK SMILES IDX 30 67 38 68 31 69 32 70 36 71 39 72 33 73 34 74 37 75 35 76
REMARK SMILES IDX 61 77 62 78 70 79 63 80 64 81 68 82 71 83 65 84 66 85 69 86
REMARK SMILES IDX 67 87 46 88 47 89 55 90 48 91 49 92 53 93 56 94 50 95 51 96
REMARK SMILES IDX 54 97 52 98
REMARK H PARENT 4 10 76 51 44 62
REMARK Flexibility Score: inf
ROOT
ATOM      1  C   UNL A   1      34.395  31.890  27.749  1.00  0.00     0.188 C 
ENDROOT
BRANCH   1   2
ATOM      2  O   UNL A   1      34.810  30.531  27.842  1.00  0.00    -0.376 OA
BRANCH   2   3
ATOM      3  C   UNL A   1      33.880  29.498  27.534  1.00  0.00     0.202 C 
BRANCH   3   4
ATOM      4  C   UNL A   1      33.878  28.890  26.122  1.00  0.00     0.261 C 
BRANCH   4   5
ATOM      5  O   UNL A   1      33.264  29.703  25.094  1.00  0.00    -0.459 OA
BRANCH   5   6
ATOM      6  C   UNL A   1      31.939  29.527  24.927  1.00  0.00     0.361 C 
ATOM      7  O   UNL A   1      31.098  30.356  25.282  1.00  0.00    -0.245 OA
BRANCH   6   8
ATOM      8  C   UNL A   1      31.447  28.253  24.254  1.00  0.00     0.387 C 
BRANCH   8   9
ATOM      9  N   UNL A   1      30.083  27.647  24.373  1.00  0.00    -0.312 N 
ATOM     10  H   UNL A   1      29.587  28.128  25.123  1.00  0.00     0.349 HD
BRANCH   9  11
ATOM     11  C   UNL A   1      29.304  27.827  23.123  1.00  0.00     0.291 C 
BRANCH  11  12
ATOM     12  C   UNL A   1      28.594  29.154  23.018  1.00  0.00     0.025 C 
ATOM     13  C   UNL A   1      28.899  30.112  22.129  1.00  0.00     0.010 C 
ENDBRANCH  11  12
ENDBRANCH   9  11
BRANCH   9  14
ATOM     14  C   UNL A   1      30.195  26.168  24.717  1.00  0.00     0.285 C 
ATOM     15  C   UNL A   1      30.547  25.179  23.593  1.00  0.00     0.176 C 
ATOM     16  C   UNL A   1      31.235  25.833  25.809  1.00  0.00     0.292 C 
ATOM     17  C   UNL A   1      31.544  24.245  24.176  1.00  0.00     0.240 C 
ATOM     18  N   UNL A   1      31.905  24.689  25.418  1.00  0.00    -0.245 N 
ATOM     19  O   UNL A   1      31.387  26.442  26.859  1.00  0.00    -0.267 OA
ATOM     20  O   UNL A   1      31.944  23.257  23.575  1.00  0.00    -0.274 OA
BRANCH  18  21
ATOM     21  C   UNL A   1      32.767  23.912  26.218  1.00  0.00     0.052 A 
ATOM     22  C   UNL A   1      32.231  22.974  27.109  1.00  0.00     0.027 A 
ATOM     23  C   UNL A   1      34.137  23.876  25.924  1.00  0.00     0.027 A 
ATOM     24  C   UNL A   1      33.053  21.982  27.656  1.00  0.00     0.002 A 
ATOM     25  C   UNL A   1      34.962  22.910  26.503  1.00  0.00     0.002 A 
ATOM     26  C   UNL A   1      34.414  21.949  27.351  1.00  0.00     0.000 A 
ENDBRANCH  18  21
ENDBRANCH   9  14
ENDBRANCH   8   9
ENDBRANCH   6   8
ENDBRANCH   5   6
ENDBRANCH   4   5
ENDBRANCH   3   4
ENDBRANCH   2   3
ENDBRANCH   1   2
BRANCH   1  27
ATOM     27  C   UNL A   1      35.450  33.015  27.775  1.00  0.00     0.188 C 
BRANCH  27  28
ATOM     28  O   UNL A   1      35.082  34.126  28.561  1.00  0.00    -0.376 OA
BRANCH  28  29
ATOM     29  C   UNL A   1      34.056  33.952  29.518  1.00  0.00     0.202 C 
BRANCH  29  30
ATOM     30  C   UNL A   1      34.405  33.587  30.973  1.00  0.00     0.261 C 
BRANCH  30  31
ATOM     31  O   UNL A   1      34.946  32.278  31.211  1.00  0.00    -0.460 OA
BRANCH  31  32
ATOM     32  C   UNL A   1      35.836  32.136  32.222  1.00  0.00     0.338 C 
ATOM     33  O   UNL A   1      35.640  32.326  33.411  1.00  0.00    -0.246 OA
BRANCH  32  34
ATOM     34  C   UNL A   1      37.061  31.541  31.644  1.00  0.00     0.060 A 
ATOM     35  C   UNL A   1      37.998  30.913  32.478  1.00  0.00     0.016 A 
ATOM     36  C   UNL A   1      37.254  31.564  30.262  1.00  0.00     0.016 A 
ATOM     37  C   UNL A   1      39.121  30.286  31.926  1.00  0.00     0.010 A 
ATOM     38  C   UNL A   1      38.390  30.963  29.716  1.00  0.00     0.010 A 
ATOM     39  C   UNL A   1      39.332  30.322  30.541  1.00  0.00    -0.014 A 
BRANCH  39  40
ATOM     40  C   UNL A   1      40.579  29.793  29.932  1.00  0.00     0.031 A 
ATOM     41  C   UNL A   1      41.722  30.735  29.689  1.00  0.00     0.074 A 
ATOM     42  C   UNL A   1      40.668  28.510  29.539  1.00  0.00     0.049 A 
ATOM     43  N   UNL A   1      42.827  30.546  29.014  1.00  0.00    -0.248 NA
ATOM     44  C   UNL A   1      41.595  32.076  30.281  1.00  0.00     0.031 C 
ATOM     45  C   UNL A   1      39.648  27.488  29.753  1.00  0.00     0.029 A 
ATOM     46  N   UNL A   1      41.659  27.859  28.843  1.00  0.00    -0.354 N 
ATOM     47  C   UNL A   1      43.519  31.749  29.084  1.00  0.00     0.074 A 
ATOM     48  C   UNL A   1      42.702  32.664  29.852  1.00  0.00     0.031 C 
ATOM     49  C   UNL A   1      40.050  26.344  29.172  1.00  0.00     0.029 A 
ATOM     50  C   UNL A   1      41.331  26.568  28.503  1.00  0.00     0.049 A 
ATOM     51  H   UNL A   1      42.520  28.277  28.610  1.00  0.00     0.167 HD
ATOM     52  C   UNL A   1      44.726  32.058  28.555  1.00  0.00     0.037 A 
ATOM     53  C   UNL A   1      41.970  25.688  27.706  1.00  0.00     0.037 A 
ATOM     54  C   UNL A   1      45.533  31.144  27.787  1.00  0.00     0.049 A 
ATOM     55  C   UNL A   1      43.267  26.087  27.047  1.00  0.00     0.074 A 
ATOM     56  C   UNL A   1      46.787  31.352  27.240  1.00  0.00     0.029 A 
ATOM     57  N   UNL A   1      45.157  29.854  27.444  1.00  0.00    -0.354 N 
ATOM     58  N   UNL A   1      43.936  27.211  27.144  1.00  0.00    -0.248 NA
ATOM     59  C   UNL A   1      43.895  25.097  26.158  1.00  0.00     0.031 C 
ATOM     60  C   UNL A   1      47.139  30.214  26.508  1.00  0.00     0.029 A 
ATOM     61  C   UNL A   1      46.136  29.271  26.654  1.00  0.00     0.049 A 
ATOM     62  H   UNL A   1      44.319  29.417  27.721  1.00  0.00     0.167 HD
ATOM     63  C   UNL A   1      45.068  27.055  26.353  1.00  0.00     0.074 A 
ATOM     64  C   UNL A   1      45.008  25.721  25.797  1.00  0.00     0.031 C 
ATOM     65  C   UNL A   1      46.066  27.940  26.105  1.00  0.00     0.037 A 
BRANCH  52  66
ATOM     66  C   UNL A   1      45.238  33.455  28.753  1.00  0.00     0.064 A 
ATOM     67  C   UNL A   1      46.070  33.793  29.829  1.00  0.00     0.173 A 
ATOM     68  C   UNL A   1      44.925  34.460  27.824  1.00  0.00     0.173 A 
ATOM     69  F   UNL A   1      46.392  32.873  30.751  1.00  0.00    -0.203 F 
ATOM     70  C   UNL A   1      46.551  35.092  29.983  1.00  0.00     0.198 A 
ATOM     71  C   UNL A   1      45.433  35.748  27.963  1.00  0.00     0.198 A 
ATOM     72  F   UNL A   1      44.137  34.189  26.773  1.00  0.00    -0.203 F 
ATOM     73  F   UNL A   1      47.308  35.403  31.044  1.00  0.00    -0.200 F 
ATOM     74  C   UNL A   1      46.239  36.066  29.045  1.00  0.00     0.200 A 
ATOM     75  F   UNL A   1      45.144  36.684  27.046  1.00  0.00    -0.200 F 
ATOM     76  F   UNL A   1      46.713  37.311  29.187  1.00  0.00    -0.200 F 
ENDBRANCH  52  66
BRANCH  53  77
ATOM     77  C   UNL A   1      41.375  24.348  27.447  1.00  0.00     0.064 A 
ATOM     78  C   UNL A   1      40.225  24.208  26.659  1.00  0.00     0.173 A 
ATOM     79  C   UNL A   1      41.924  23.184  28.009  1.00  0.00     0.173 A 
ATOM     80  F   UNL A   1      39.642  25.293  26.128  1.00  0.00    -0.203 F 
ATOM     81  C   UNL A   1      39.634  22.961  26.459  1.00  0.00     0.198 A 
ATOM     82  C   UNL A   1      41.352  21.934  27.780  1.00  0.00     0.198 A 
ATOM     83  F   UNL A   1      43.018  23.260  28.780  1.00  0.00    -0.203 F 
ATOM     84  F   UNL A   1      38.503  22.866  25.749  1.00  0.00    -0.200 F 
ATOM     85  C   UNL A   1      40.203  21.824  27.013  1.00  0.00     0.200 A 
ATOM     86  F   UNL A   1      41.911  20.837  28.310  1.00  0.00    -0.200 F 
ATOM     87  F   UNL A   1      39.636  20.627  26.819  1.00  0.00    -0.200 F 
ENDBRANCH  53  77
BRANCH  65  88
ATOM     88  C   UNL A   1      47.190  27.493  25.212  1.00  0.00     0.064 A 
ATOM     89  C   UNL A   1      47.234  27.841  23.854  1.00  0.00     0.173 A 
ATOM     90  C   UNL A   1      48.266  26.758  25.734  1.00  0.00     0.173 A 
ATOM     91  F   UNL A   1      46.225  28.530  23.301  1.00  0.00    -0.203 F 
ATOM     92  C   UNL A   1      48.303  27.453  23.049  1.00  0.00     0.198 A 
ATOM     93  C   UNL A   1      49.348  26.401  24.935  1.00  0.00     0.198 A 
ATOM     94  F   UNL A   1      48.279  26.404  27.029  1.00  0.00    -0.203 F 
ATOM     95  F   UNL A   1      48.302  27.760  21.744  1.00  0.00    -0.200 F 
ATOM     96  C   UNL A   1      49.363  26.744  23.591  1.00  0.00     0.200 A 
ATOM     97  F   UNL A   1      50.380  25.731  25.466  1.00  0.00    -0.200 F 
ATOM     98  F   UNL A   1      50.397  26.385  22.819  1.00  0.00    -0.200 F 
ENDBRANCH  65  88
ENDBRANCH  39  40
ENDBRANCH  32  34
ENDBRANCH  31  32
ENDBRANCH  30  31
ENDBRANCH  29  30
ENDBRANCH  28  29
ENDBRANCH  27  28
ENDBRANCH   1  27
TORSDOF 22
ENDMDL
MODEL 3
REMARK VINA RESULT:     -10.1      1.299      3.640
REMARK SMILES C=CC[N@H+](CC(=O)OCCOCCOCCOC(=O)c1ccc(-c2c3nc(c(-c4c(F)c(F)c(F)c(F)c4F)c4ccc([nH]4)c(-c4c(F)c(F)c(F)c(F)c4F)c4nc(c(-c5c(F)c(F)c(F)c(F)c5F)c5ccc2[nH]5)C=C4)C=C3)cc1)[C@H]1CC(=O)N(c2ccccc2)C1=O
REMARK SMILES IDX 12 1 11 2 10 3 9 4 8 5 6 6 7 7 5 8 4 9 3 11 2 12 1 13 83 14
REMARK SMILES IDX 84 15 94 16 85 17 87 18 95 19 86 20 88 21 89 22 93 23 90 24
REMARK SMILES IDX 92 25 91 26 13 27 14 28 15 29 16 30 17 31 18 32 19 33 20 34
REMARK SMILES IDX 21 35 82 36 22 37 81 38 23 39 24 40 25 41 75 42 26 43 80 44
REMARK SMILES IDX 74 45 76 46 27 47 79 48 73 49 72 50 28 52 60 53 40 54 59 55
REMARK SMILES IDX 41 56 44 57 58 58 77 59 42 60 43 61 57 63 78 64 45 65 29 66
REMARK SMILES IDX 30 67 38 68 31 69 32 70 36 71 39 72 33 73 34 74 37 75 35 76
REMARK SMILES IDX 61 77 62 78 70 79 63 80 64 81 68 82 71 83 65 84 66 85 69 86
REMARK SMILES IDX 67 87 46 88 47 89 55 90 48 91 49 92 53 93 56 94 50 95 51 96
REMARK SMILES IDX 54 97 52 98
REMARK H PARENT 4 10 76 51 44 62
REMARK Flexibility Score: inf
ROOT
ATOM      1  C   UNL A   1      40.530  22.214  26.981  1.00  0.00     0.188 C 
ENDROOT
BRANCH   1   2
ATOM      2  O   UNL A   1      39.293  22.844  26.669  1.00  0.00    -0.376 OA
BRANCH   2   3
ATOM      3  C   UNL A   1      38.404  22.215  25.751  1.00  0.00     0.202 C 
BRANCH   3   4
ATOM      4  C   UNL A   1      36.991  22.793  25.562  1.00  0.00     0.261 C 
BRANCH   4   5
ATOM      5  O   UNL A   1      35.905  21.855  25.747  1.00  0.00    -0.459 OA
BRANCH   5   6
ATOM      6  C   UNL A   1      34.670  22.391  25.766  1.00  0.00     0.361 C 
ATOM      7  O   UNL A   1      34.155  22.864  26.781  1.00  0.00    -0.245 OA
BRANCH   6   8
ATOM      8  C   UNL A   1      33.868  22.434  24.473  1.00  0.00     0.387 C 
BRANCH   8   9
ATOM      9  N   UNL A   1      32.619  21.667  24.167  1.00  0.00    -0.312 N 
ATOM     10  H   UNL A   1      32.655  21.381  23.189  1.00  0.00     0.349 HD
BRANCH   9  11
ATOM     11  C   UNL A   1      32.525  20.441  24.998  1.00  0.00     0.291 C 
BRANCH  11  12
ATOM     12  C   UNL A   1      33.112  19.208  24.357  1.00  0.00     0.025 C 
ATOM     13  C   UNL A   1      32.529  18.513  23.368  1.00  0.00     0.010 C 
ENDBRANCH  11  12
ENDBRANCH   9  11
BRANCH   9  14
ATOM     14  C   UNL A   1      31.396  22.548  24.385  1.00  0.00     0.285 C 
ATOM     15  C   UNL A   1      30.925  22.803  25.826  1.00  0.00     0.176 C 
ATOM     16  C   UNL A   1      31.512  23.974  23.803  1.00  0.00     0.292 C 
ATOM     17  C   UNL A   1      30.593  24.250  25.891  1.00  0.00     0.240 C 
ATOM     18  N   UNL A   1      30.974  24.851  24.724  1.00  0.00    -0.245 N 
ATOM     19  O   UNL A   1      31.947  24.258  22.695  1.00  0.00    -0.267 OA
ATOM     20  O   UNL A   1      30.071  24.757  26.875  1.00  0.00    -0.274 OA
BRANCH  18  21
ATOM     21  C   UNL A   1      30.669  26.210  24.504  1.00  0.00     0.052 A 
ATOM     22  C   UNL A   1      31.648  27.186  24.724  1.00  0.00     0.027 A 
ATOM     23  C   UNL A   1      29.501  26.552  23.809  1.00  0.00     0.027 A 
ATOM     24  C   UNL A   1      31.476  28.475  24.206  1.00  0.00     0.002 A 
ATOM     25  C   UNL A   1      29.315  27.850  23.330  1.00  0.00     0.002 A 
ATOM     26  C   UNL A   1      30.314  28.805  23.508  1.00  0.00     0.000 A 
ENDBRANCH  18  21
ENDBRANCH   9  14
ENDBRANCH   8   9
ENDBRANCH   6   8
ENDBRANCH   5   6
ENDBRANCH   4   5
ENDBRANCH   3   4
ENDBRANCH   2   3
ENDBRANCH   1   2
BRANCH   1  27
ATOM     27  C   UNL A   1      40.922  20.903  26.269  1.00  0.00     0.188 C 
BRANCH  27  28
ATOM     28  O   UNL A   1      42.106  20.316  26.762  1.00  0.00    -0.376 OA
BRANCH  28  29
ATOM     29  C   UNL A   1      42.278  18.923  26.589  1.00  0.00     0.202 C 
BRANCH  29  30
ATOM     30  C   UNL A   1      43.447  18.385  25.742  1.00  0.00     0.261 C 
BRANCH  30  31
ATOM     31  O   UNL A   1      43.644  18.970  24.446  1.00  0.00    -0.460 OA
BRANCH  31  32
ATOM     32  C   UNL A   1      44.888  19.400  24.128  1.00  0.00     0.338 C 
ATOM     33  O   UNL A   1      45.751  18.784  23.524  1.00  0.00    -0.246 OA
BRANCH  32  34
ATOM     34  C   UNL A   1      44.965  20.829  24.502  1.00  0.00     0.060 A 
ATOM     35  C   UNL A   1      44.524  21.815  23.607  1.00  0.00     0.016 A 
ATOM     36  C   UNL A   1      45.430  21.187  25.768  1.00  0.00     0.016 A 
ATOM     37  C   UNL A   1      44.527  23.162  23.988  1.00  0.00     0.010 A 
ATOM     38  C   UNL A   1      45.460  22.534  26.135  1.00  0.00     0.010 A 
ATOM     39  C   UNL A   1      45.012  23.531  25.249  1.00  0.00    -0.014 A 
BRANCH  39  40
ATOM     40  C   UNL A   1      45.164  24.957  25.635  1.00  0.00     0.031 A 
ATOM     41  C   UNL A   1      46.524  25.587  25.560  1.00  0.00     0.074 A 
ATOM     42  C   UNL A   1      44.121  25.661  26.110  1.00  0.00     0.049 A 
ATOM     43  N   UNL A   1      46.931  26.745  26.011  1.00  0.00    -0.248 NA
ATOM     44  C   UNL A   1      47.569  24.794  24.894  1.00  0.00     0.031 C 
ATOM     45  C   UNL A   1      42.745  25.180  26.195  1.00  0.00     0.029 A 
ATOM     46  N   UNL A   1      44.070  26.927  26.644  1.00  0.00    -0.354 N 
ATOM     47  C   UNL A   1      48.283  26.814  25.699  1.00  0.00     0.074 A 
ATOM     48  C   UNL A   1      48.630  25.575  25.038  1.00  0.00     0.031 C 
ATOM     49  C   UNL A   1      41.989  26.126  26.779  1.00  0.00     0.029 A 
ATOM     50  C   UNL A   1      42.837  27.258  27.152  1.00  0.00     0.049 A 
ATOM     51  H   UNL A   1      44.843  27.537  26.662  1.00  0.00     0.167 HD
ATOM     52  C   UNL A   1      49.153  27.823  25.945  1.00  0.00     0.037 A 
ATOM     53  C   UNL A   1      42.451  28.329  27.875  1.00  0.00     0.037 A 
ATOM     54  C   UNL A   1      48.803  29.053  26.609  1.00  0.00     0.049 A 
ATOM     55  C   UNL A   1      43.461  29.395  28.222  1.00  0.00     0.074 A 
ATOM     56  C   UNL A   1      49.605  30.149  26.871  1.00  0.00     0.029 A 
ATOM     57  N   UNL A   1      47.551  29.342  27.129  1.00  0.00    -0.354 N 
ATOM     58  N   UNL A   1      44.729  29.475  27.895  1.00  0.00    -0.248 NA
ATOM     59  C   UNL A   1      42.988  30.518  29.045  1.00  0.00     0.031 C 
ATOM     60  C   UNL A   1      48.859  31.071  27.610  1.00  0.00     0.029 A 
ATOM     61  C   UNL A   1      47.571  30.581  27.752  1.00  0.00     0.049 A 
ATOM     62  H   UNL A   1      46.763  28.754  27.066  1.00  0.00     0.167 HD
ATOM     63  C   UNL A   1      45.195  30.661  28.451  1.00  0.00     0.074 A 
ATOM     64  C   UNL A   1      44.071  31.279  29.119  1.00  0.00     0.031 C 
ATOM     65  C   UNL A   1      46.445  31.187  28.414  1.00  0.00     0.037 A 
BRANCH  52  66
ATOM     66  C   UNL A   1      50.582  27.628  25.529  1.00  0.00     0.064 A 
ATOM     67  C   UNL A   1      51.006  27.849  24.211  1.00  0.00     0.173 A 
ATOM     68  C   UNL A   1      51.550  27.257  26.476  1.00  0.00     0.173 A 
ATOM     69  F   UNL A   1      50.121  28.195  23.264  1.00  0.00    -0.203 F 
ATOM     70  C   UNL A   1      52.342  27.682  23.850  1.00  0.00     0.198 A 
ATOM     71  C   UNL A   1      52.888  27.124  26.120  1.00  0.00     0.198 A 
ATOM     72  F   UNL A   1      51.199  27.040  27.753  1.00  0.00    -0.203 F 
ATOM     73  F   UNL A   1      52.716  27.855  22.575  1.00  0.00    -0.200 F 
ATOM     74  C   UNL A   1      53.282  27.329  24.807  1.00  0.00     0.200 A 
ATOM     75  F   UNL A   1      53.798  26.798  27.049  1.00  0.00    -0.200 F 
ATOM     76  F   UNL A   1      54.569  27.181  24.461  1.00  0.00    -0.200 F 
ENDBRANCH  52  66
BRANCH  53  77
ATOM     77  C   UNL A   1      41.048  28.434  28.363  1.00  0.00     0.064 A 
ATOM     78  C   UNL A   1      40.694  27.990  29.644  1.00  0.00     0.173 A 
ATOM     79  C   UNL A   1      40.028  28.946  27.547  1.00  0.00     0.173 A 
ATOM     80  F   UNL A   1      41.626  27.460  30.451  1.00  0.00    -0.203 F 
ATOM     81  C   UNL A   1      39.372  28.037  30.084  1.00  0.00     0.198 A 
ATOM     82  C   UNL A   1      38.712  29.024  28.000  1.00  0.00     0.198 A 
ATOM     83  F   UNL A   1      40.308  29.375  26.308  1.00  0.00    -0.203 F 
ATOM     84  F   UNL A   1      39.053  27.554  31.292  1.00  0.00    -0.200 F 
ATOM     85  C   UNL A   1      38.384  28.561  29.265  1.00  0.00     0.200 A 
ATOM     86  F   UNL A   1      37.762  29.541  27.208  1.00  0.00    -0.200 F 
ATOM     87  F   UNL A   1      37.114  28.608  29.689  1.00  0.00    -0.200 F 
ENDBRANCH  53  77
BRANCH  65  88
ATOM     88  C   UNL A   1      46.665  32.509  29.096  1.00  0.00     0.064 A 
ATOM     89  C   UNL A   1      46.433  33.726  28.437  1.00  0.00     0.173 A 
ATOM     90  C   UNL A   1      47.054  32.559  30.444  1.00  0.00     0.173 A 
ATOM     91  F   UNL A   1      46.073  33.735  27.145  1.00  0.00    -0.203 F 
ATOM     92  C   UNL A   1      46.602  34.942  29.096  1.00  0.00     0.198 A 
ATOM     93  C   UNL A   1      47.189  33.775  31.108  1.00  0.00     0.198 A 
ATOM     94  F   UNL A   1      47.282  31.426  31.126  1.00  0.00    -0.203 F 
ATOM     95  F   UNL A   1      46.418  36.091  28.432  1.00  0.00    -0.200 F 
ATOM     96  C   UNL A   1      46.969  34.966  30.432  1.00  0.00     0.200 A 
ATOM     97  F   UNL A   1      47.527  33.795  32.406  1.00  0.00    -0.200 F 
ATOM     98  F   UNL A   1      47.117  36.136  31.068  1.00  0.00    -0.200 F 
ENDBRANCH  65  88
ENDBRANCH  39  40
ENDBRANCH  32  34
ENDBRANCH  31  32
ENDBRANCH  30  31
ENDBRANCH  29  30
ENDBRANCH  28  29
ENDBRANCH  27  28
ENDBRANCH   1  27
TORSDOF 22
ENDMDL
