MODEL 1
REMARK VINA RESULT:     -11.9      0.000      0.000
REMARK SMILES C[C@H](NC(=O)C1=Cc2cc(Br)ccc2OC1)C(=O)OCCOCCOCCOC(=O)c1ccc(-c2c3nc(c(-c4c(F)c(F)c(F)c(F)c4F)c4ccc([nH]4)c(-c4c(F)c(F)c(F)c(F)c4F)c4nc(c(-c5c(F)c(F)c(F)c(F)c5F)c5ccc2[nH]5)C=C4)C=C3)cc1
REMARK SMILES IDX 23 1 22 2 21 3 20 4 19 5 17 6 18 7 2 8 1 9 3 10 4 11 5 13
REMARK SMILES IDX 6 14 7 15 16 16 8 17 15 18 9 19 14 20 10 21 13 22 11 23
REMARK SMILES IDX 12 24 24 25 25 26 26 27 27 28 28 29 29 30 30 31 31 32 32 33
REMARK SMILES IDX 93 34 33 35 92 36 34 37 35 38 36 39 86 40 37 41 91 42 85 43
REMARK SMILES IDX 87 44 38 45 90 46 84 47 83 48 39 50 71 51 51 52 70 53 52 54
REMARK SMILES IDX 55 55 69 56 88 57 53 58 54 59 68 61 89 62 56 63 40 64 41 65
REMARK SMILES IDX 49 66 42 67 43 68 47 69 50 70 44 71 45 72 48 73 46 74 72 75
REMARK SMILES IDX 73 76 81 77 74 78 75 79 79 80 82 81 76 82 77 83 80 84 78 85
REMARK SMILES IDX 57 86 58 87 66 88 59 89 60 90 64 91 67 92 61 93 62 94 65 95
REMARK SMILES IDX 63 96
REMARK H PARENT 3 12 87 49 55 60
REMARK Flexibility Score: inf
ROOT
ATOM      1  C   UNL A   1      37.835  21.484  25.082  1.00  0.00     0.188 C 
ENDROOT
BRANCH   1   2
ATOM      2  O   UNL A   1      36.862  22.494  24.833  1.00  0.00    -0.376 OA
BRANCH   2   3
ATOM      3  C   UNL A   1      36.567  22.870  23.494  1.00  0.00     0.202 C 
BRANCH   3   4
ATOM      4  C   UNL A   1      35.117  23.253  23.169  1.00  0.00     0.261 C 
BRANCH   4   5
ATOM      5  O   UNL A   1      34.536  24.211  24.077  1.00  0.00    -0.462 OA
BRANCH   5   6
ATOM      6  C   UNL A   1      33.238  23.992  24.414  1.00  0.00     0.328 C 
ATOM      7  O   UNL A   1      32.772  24.205  25.530  1.00  0.00    -0.250 OA
BRANCH   6   8
ATOM      8  C   UNL A   1      32.334  23.645  23.207  1.00  0.00     0.189 C 
ATOM      9  C   UNL A   1      31.892  22.191  23.297  1.00  0.00     0.043 C 
BRANCH   8  10
ATOM     10  N   UNL A   1      32.639  24.087  21.835  1.00  0.00    -0.339 N 
ATOM     11  C   UNL A   1      32.747  25.301  21.240  1.00  0.00     0.251 C 
ATOM     12  H   UNL A   1      32.797  23.339  21.216  1.00  0.00     0.164 HD
ATOM     13  O   UNL A   1      33.091  25.374  20.064  1.00  0.00    -0.270 OA
BRANCH  11  14
ATOM     14  C   UNL A   1      32.446  26.511  22.001  1.00  0.00     0.055 C 
ATOM     15  C   UNL A   1      31.198  26.998  22.009  1.00  0.00     0.025 C 
ATOM     16  C   UNL A   1      33.567  27.277  22.619  1.00  0.00     0.271 C 
ATOM     17  C   UNL A   1      30.993  28.206  22.807  1.00  0.00     0.018 A 
ATOM     18  O   UNL A   1      33.171  27.897  23.855  1.00  0.00    -0.488 OA
ATOM     19  C   UNL A   1      29.827  28.965  22.708  1.00  0.00     0.027 A 
ATOM     20  C   UNL A   1      31.970  28.562  23.754  1.00  0.00     0.127 A 
ATOM     21  C   UNL A   1      29.628  30.034  23.587  1.00  0.00     0.018 A 
ATOM     22  C   UNL A   1      31.743  29.592  24.661  1.00  0.00     0.048 A 
ATOM     23  Br  UNL A   1      28.059  31.080  23.446  1.00  0.00    -0.051 Br
ATOM     24  C   UNL A   1      30.566  30.333  24.576  1.00  0.00     0.019 A 
ENDBRANCH  11  14
ENDBRANCH   8  10
ENDBRANCH   6   8
ENDBRANCH   5   6
ENDBRANCH   4   5
ENDBRANCH   3   4
ENDBRANCH   2   3
ENDBRANCH   1   2
BRANCH   1  25
ATOM     25  C   UNL A   1      38.979  21.730  26.089  1.00  0.00     0.188 C 
BRANCH  25  26
ATOM     26  O   UNL A   1      39.997  20.752  26.041  1.00  0.00    -0.376 OA
BRANCH  26  27
ATOM     27  C   UNL A   1      41.138  20.985  26.845  1.00  0.00     0.202 C 
BRANCH  27  28
ATOM     28  C   UNL A   1      42.356  21.529  26.088  1.00  0.00     0.261 C 
BRANCH  28  29
ATOM     29  O   UNL A   1      42.106  22.677  25.258  1.00  0.00    -0.460 OA
BRANCH  29  30
ATOM     30  C   UNL A   1      43.016  23.677  25.287  1.00  0.00     0.338 C 
ATOM     31  O   UNL A   1      44.016  23.778  24.597  1.00  0.00    -0.246 OA
BRANCH  30  32
ATOM     32  C   UNL A   1      42.484  24.748  26.164  1.00  0.00     0.060 A 
ATOM     33  C   UNL A   1      41.375  24.515  26.981  1.00  0.00     0.016 A 
ATOM     34  C   UNL A   1      43.092  26.011  26.150  1.00  0.00     0.016 A 
ATOM     35  C   UNL A   1      40.902  25.534  27.813  1.00  0.00     0.010 A 
ATOM     36  C   UNL A   1      42.613  27.032  26.980  1.00  0.00     0.010 A 
ATOM     37  C   UNL A   1      41.533  26.792  27.841  1.00  0.00    -0.014 A 
BRANCH  37  38
ATOM     38  C   UNL A   1      41.193  27.744  28.930  1.00  0.00     0.031 A 
ATOM     39  C   UNL A   1      40.035  28.690  28.854  1.00  0.00     0.074 A 
ATOM     40  C   UNL A   1      41.966  27.721  30.034  1.00  0.00     0.049 A 
ATOM     41  N   UNL A   1      39.528  29.440  29.802  1.00  0.00    -0.248 NA
ATOM     42  C   UNL A   1      39.364  28.828  27.555  1.00  0.00     0.031 C 
ATOM     43  C   UNL A   1      43.158  26.887  30.198  1.00  0.00     0.029 A 
ATOM     44  N   UNL A   1      41.859  28.390  31.227  1.00  0.00    -0.354 N 
ATOM     45  C   UNL A   1      38.460  30.116  29.227  1.00  0.00     0.074 A 
ATOM     46  C   UNL A   1      38.427  29.729  27.830  1.00  0.00     0.031 C 
ATOM     47  C   UNL A   1      43.647  27.059  31.434  1.00  0.00     0.029 A 
ATOM     48  C   UNL A   1      42.811  28.022  32.147  1.00  0.00     0.049 A 
ATOM     49  H   UNL A   1      41.168  29.068  31.407  1.00  0.00     0.167 HD
ATOM     50  C   UNL A   1      37.582  30.957  29.824  1.00  0.00     0.037 A 
ATOM     51  C   UNL A   1      42.981  28.394  33.429  1.00  0.00     0.037 A 
ATOM     52  C   UNL A   1      37.631  31.341  31.214  1.00  0.00     0.049 A 
ATOM     53  C   UNL A   1      41.998  29.340  34.060  1.00  0.00     0.074 A 
ATOM     54  C   UNL A   1      36.740  32.134  31.919  1.00  0.00     0.029 A 
ATOM     55  N   UNL A   1      38.626  30.973  32.106  1.00  0.00    -0.354 N 
ATOM     56  N   UNL A   1      40.920  29.874  33.541  1.00  0.00    -0.248 NA
ATOM     57  C   UNL A   1      42.248  29.726  35.456  1.00  0.00     0.031 C 
ATOM     58  C   UNL A   1      37.226  32.292  33.221  1.00  0.00     0.029 A 
ATOM     59  C   UNL A   1      38.391  31.553  33.344  1.00  0.00     0.049 A 
ATOM     60  H   UNL A   1      39.388  30.387  31.893  1.00  0.00     0.167 HD
ATOM     61  C   UNL A   1      40.351  30.639  34.550  1.00  0.00     0.074 A 
ATOM     62  C   UNL A   1      41.195  30.490  35.716  1.00  0.00     0.031 C 
ATOM     63  C   UNL A   1      39.230  31.397  34.504  1.00  0.00     0.037 A 
BRANCH  50  64
ATOM     64  C   UNL A   1      36.453  31.511  29.003  1.00  0.00     0.064 A 
ATOM     65  C   UNL A   1      35.361  30.706  28.643  1.00  0.00     0.173 A 
ATOM     66  C   UNL A   1      36.387  32.879  28.698  1.00  0.00     0.173 A 
ATOM     67  F   UNL A   1      35.371  29.393  28.915  1.00  0.00    -0.203 F 
ATOM     68  C   UNL A   1      34.249  31.251  28.006  1.00  0.00     0.198 A 
ATOM     69  C   UNL A   1      35.263  33.424  28.083  1.00  0.00     0.198 A 
ATOM     70  F   UNL A   1      37.396  33.696  29.037  1.00  0.00    -0.203 F 
ATOM     71  F   UNL A   1      33.222  30.461  27.663  1.00  0.00    -0.200 F 
ATOM     72  C   UNL A   1      34.195  32.610  27.737  1.00  0.00     0.200 A 
ATOM     73  F   UNL A   1      35.204  34.741  27.843  1.00  0.00    -0.200 F 
ATOM     74  F   UNL A   1      33.111  33.137  27.152  1.00  0.00    -0.200 F 
ENDBRANCH  50  64
BRANCH  51  75
ATOM     75  C   UNL A   1      44.096  27.810  34.216  1.00  0.00     0.064 A 
ATOM     76  C   UNL A   1      45.329  28.469  34.312  1.00  0.00     0.173 A 
ATOM     77  C   UNL A   1      43.942  26.604  34.915  1.00  0.00     0.173 A 
ATOM     78  F   UNL A   1      45.527  29.619  33.651  1.00  0.00    -0.203 F 
ATOM     79  C   UNL A   1      46.371  27.939  35.070  1.00  0.00     0.198 A 
ATOM     80  C   UNL A   1      44.975  26.088  35.694  1.00  0.00     0.198 A 
ATOM     81  F   UNL A   1      42.777  25.941  34.862  1.00  0.00    -0.203 F 
ATOM     82  F   UNL A   1      47.549  28.573  35.119  1.00  0.00    -0.200 F 
ATOM     83  C   UNL A   1      46.190  26.753  35.767  1.00  0.00     0.200 A 
ATOM     84  F   UNL A   1      44.791  24.952  36.380  1.00  0.00    -0.200 F 
ATOM     85  F   UNL A   1      47.187  26.249  36.505  1.00  0.00    -0.200 F 
ENDBRANCH  51  75
BRANCH  63  86
ATOM     86  C   UNL A   1      38.828  32.131  35.750  1.00  0.00     0.064 A 
ATOM     87  C   UNL A   1      38.156  31.481  36.794  1.00  0.00     0.173 A 
ATOM     88  C   UNL A   1      39.209  33.468  35.943  1.00  0.00     0.173 A 
ATOM     89  F   UNL A   1      37.758  30.207  36.651  1.00  0.00    -0.203 F 
ATOM     90  C   UNL A   1      37.880  32.142  37.988  1.00  0.00     0.198 A 
ATOM     91  C   UNL A   1      38.954  34.118  37.148  1.00  0.00     0.198 A 
ATOM     92  F   UNL A   1      39.859  34.133  34.976  1.00  0.00    -0.203 F 
ATOM     93  F   UNL A   1      37.220  31.506  38.967  1.00  0.00    -0.200 F 
ATOM     94  C   UNL A   1      38.291  33.455  38.169  1.00  0.00     0.200 A 
ATOM     95  F   UNL A   1      39.365  35.381  37.326  1.00  0.00    -0.200 F 
ATOM     96  F   UNL A   1      38.049  34.080  39.330  1.00  0.00    -0.200 F 
ENDBRANCH  63  86
ENDBRANCH  37  38
ENDBRANCH  30  32
ENDBRANCH  29  30
ENDBRANCH  28  29
ENDBRANCH  27  28
ENDBRANCH  26  27
ENDBRANCH  25  26
ENDBRANCH   1  25
TORSDOF 19
ENDMDL
MODEL 2
REMARK VINA RESULT:     -11.8      1.364      2.525
REMARK SMILES C[C@H](NC(=O)C1=Cc2cc(Br)ccc2OC1)C(=O)OCCOCCOCCOC(=O)c1ccc(-c2c3nc(c(-c4c(F)c(F)c(F)c(F)c4F)c4ccc([nH]4)c(-c4c(F)c(F)c(F)c(F)c4F)c4nc(c(-c5c(F)c(F)c(F)c(F)c5F)c5ccc2[nH]5)C=C4)C=C3)cc1
REMARK SMILES IDX 23 1 22 2 21 3 20 4 19 5 17 6 18 7 2 8 1 9 3 10 4 11 5 13
REMARK SMILES IDX 6 14 7 15 16 16 8 17 15 18 9 19 14 20 10 21 13 22 11 23
REMARK SMILES IDX 12 24 24 25 25 26 26 27 27 28 28 29 29 30 30 31 31 32 32 33
REMARK SMILES IDX 93 34 33 35 92 36 34 37 35 38 36 39 86 40 37 41 91 42 85 43
REMARK SMILES IDX 87 44 38 45 90 46 84 47 83 48 39 50 71 51 51 52 70 53 52 54
REMARK SMILES IDX 55 55 69 56 88 57 53 58 54 59 68 61 89 62 56 63 40 64 41 65
REMARK SMILES IDX 49 66 42 67 43 68 47 69 50 70 44 71 45 72 48 73 46 74 72 75
REMARK SMILES IDX 73 76 81 77 74 78 75 79 79 80 82 81 76 82 77 83 80 84 78 85
REMARK SMILES IDX 57 86 58 87 66 88 59 89 60 90 64 91 67 92 61 93 62 94 65 95
REMARK SMILES IDX 63 96
REMARK H PARENT 3 12 87 49 55 60
REMARK Flexibility Score: inf
ROOT
ATOM      1  C   UNL A   1      38.138  21.327  25.400  1.00  0.00     0.188 C 
ENDROOT
BRANCH   1   2
ATOM      2  O   UNL A   1      37.036  22.229  25.374  1.00  0.00    -0.376 OA
BRANCH   2   3
ATOM      3  C   UNL A   1      36.263  22.360  24.188  1.00  0.00     0.202 C 
BRANCH   3   4
ATOM      4  C   UNL A   1      34.813  22.838  24.337  1.00  0.00     0.261 C 
BRANCH   4   5
ATOM      5  O   UNL A   1      33.834  21.780  24.331  1.00  0.00    -0.462 OA
BRANCH   5   6
ATOM      6  C   UNL A   1      33.510  21.270  25.550  1.00  0.00     0.328 C 
ATOM      7  O   UNL A   1      33.619  20.085  25.849  1.00  0.00    -0.250 OA
BRANCH   6   8
ATOM      8  C   UNL A   1      33.185  22.352  26.608  1.00  0.00     0.189 C 
ATOM      9  C   UNL A   1      34.315  22.431  27.625  1.00  0.00     0.043 C 
BRANCH   8  10
ATOM     10  N   UNL A   1      31.845  22.505  27.199  1.00  0.00    -0.339 N 
ATOM     11  C   UNL A   1      30.723  23.171  26.828  1.00  0.00     0.251 C 
ATOM     12  H   UNL A   1      31.741  22.020  28.049  1.00  0.00     0.164 HD
ATOM     13  O   UNL A   1      29.701  23.061  27.498  1.00  0.00    -0.270 OA
BRANCH  11  14
ATOM     14  C   UNL A   1      30.743  24.019  25.639  1.00  0.00     0.055 C 
ATOM     15  C   UNL A   1      30.481  25.328  25.751  1.00  0.00     0.025 C 
ATOM     16  C   UNL A   1      30.892  23.383  24.298  1.00  0.00     0.271 C 
ATOM     17  C   UNL A   1      30.535  26.095  24.507  1.00  0.00     0.018 A 
ATOM     18  O   UNL A   1      31.624  24.224  23.387  1.00  0.00    -0.488 OA
ATOM     19  C   UNL A   1      30.041  27.397  24.422  1.00  0.00     0.027 A 
ATOM     20  C   UNL A   1      31.176  25.525  23.391  1.00  0.00     0.127 A 
ATOM     21  C   UNL A   1      30.237  28.129  23.248  1.00  0.00     0.018 A 
ATOM     22  C   UNL A   1      31.415  26.277  22.246  1.00  0.00     0.048 A 
ATOM     23  Br  UNL A   1      29.552  29.887  23.118  1.00  0.00    -0.051 Br
ATOM     24  C   UNL A   1      30.943  27.586  22.173  1.00  0.00     0.019 A 
ENDBRANCH  11  14
ENDBRANCH   8  10
ENDBRANCH   6   8
ENDBRANCH   5   6
ENDBRANCH   4   5
ENDBRANCH   3   4
ENDBRANCH   2   3
ENDBRANCH   1   2
BRANCH   1  25
ATOM     25  C   UNL A   1      39.425  21.684  26.172  1.00  0.00     0.188 C 
BRANCH  25  26
ATOM     26  O   UNL A   1      40.387  20.650  26.182  1.00  0.00    -0.376 OA
BRANCH  26  27
ATOM     27  C   UNL A   1      41.659  20.973  26.711  1.00  0.00     0.202 C 
BRANCH  27  28
ATOM     28  C   UNL A   1      42.670  21.491  25.679  1.00  0.00     0.261 C 
BRANCH  28  29
ATOM     29  O   UNL A   1      42.360  22.769  25.098  1.00  0.00    -0.460 OA
BRANCH  29  30
ATOM     30  C   UNL A   1      43.282  23.750  25.222  1.00  0.00     0.338 C 
ATOM     31  O   UNL A   1      44.312  23.874  24.581  1.00  0.00    -0.246 OA
BRANCH  30  32
ATOM     32  C   UNL A   1      42.729  24.779  26.137  1.00  0.00     0.060 A 
ATOM     33  C   UNL A   1      41.764  24.441  27.089  1.00  0.00     0.016 A 
ATOM     34  C   UNL A   1      43.167  26.106  26.021  1.00  0.00     0.016 A 
ATOM     35  C   UNL A   1      41.270  25.423  27.952  1.00  0.00     0.010 A 
ATOM     36  C   UNL A   1      42.666  27.089  26.884  1.00  0.00     0.010 A 
ATOM     37  C   UNL A   1      41.737  26.749  27.876  1.00  0.00    -0.014 A 
BRANCH  37  38
ATOM     38  C   UNL A   1      41.413  27.691  28.980  1.00  0.00     0.031 A 
ATOM     39  C   UNL A   1      40.263  28.648  28.924  1.00  0.00     0.074 A 
ATOM     40  C   UNL A   1      42.193  27.646  30.079  1.00  0.00     0.049 A 
ATOM     41  N   UNL A   1      39.770  29.391  29.884  1.00  0.00    -0.248 NA
ATOM     42  C   UNL A   1      39.585  28.809  27.631  1.00  0.00     0.031 C 
ATOM     43  C   UNL A   1      43.378  26.799  30.224  1.00  0.00     0.029 A 
ATOM     44  N   UNL A   1      42.100  28.301  31.281  1.00  0.00    -0.354 N 
ATOM     45  C   UNL A   1      38.705  30.083  29.326  1.00  0.00     0.074 A 
ATOM     46  C   UNL A   1      38.658  29.714  27.924  1.00  0.00     0.031 C 
ATOM     47  C   UNL A   1      43.877  26.951  31.459  1.00  0.00     0.029 A 
ATOM     48  C   UNL A   1      43.055  27.912  32.189  1.00  0.00     0.049 A 
ATOM     49  H   UNL A   1      41.417  28.983  31.474  1.00  0.00     0.167 HD
ATOM     50  C   UNL A   1      37.838  30.925  29.939  1.00  0.00     0.037 A 
ATOM     51  C   UNL A   1      43.237  28.267  33.475  1.00  0.00     0.037 A 
ATOM     52  C   UNL A   1      37.900  31.291  31.334  1.00  0.00     0.049 A 
ATOM     53  C   UNL A   1      42.267  29.213  34.124  1.00  0.00     0.074 A 
ATOM     54  C   UNL A   1      37.021  32.083  32.055  1.00  0.00     0.029 A 
ATOM     55  N   UNL A   1      38.898  30.903  32.214  1.00  0.00    -0.354 N 
ATOM     56  N   UNL A   1      41.191  29.764  33.619  1.00  0.00    -0.248 NA
ATOM     57  C   UNL A   1      42.530  29.580  35.523  1.00  0.00     0.031 C 
ATOM     58  C   UNL A   1      37.517  32.220  33.355  1.00  0.00     0.029 A 
ATOM     59  C   UNL A   1      38.676  31.469  33.460  1.00  0.00     0.049 A 
ATOM     60  H   UNL A   1      39.653  30.312  31.988  1.00  0.00     0.167 HD
ATOM     61  C   UNL A   1      40.636  30.521  34.641  1.00  0.00     0.074 A 
ATOM     62  C   UNL A   1      41.486  30.350  35.800  1.00  0.00     0.031 C 
ATOM     63  C   UNL A   1      39.522  31.290  34.613  1.00  0.00     0.037 A 
BRANCH  50  64
ATOM     64  C   UNL A   1      36.709  31.500  29.133  1.00  0.00     0.064 A 
ATOM     65  C   UNL A   1      35.595  30.717  28.791  1.00  0.00     0.173 A 
ATOM     66  C   UNL A   1      36.667  32.868  28.825  1.00  0.00     0.173 A 
ATOM     67  F   UNL A   1      35.583  29.405  29.067  1.00  0.00    -0.203 F 
ATOM     68  C   UNL A   1      34.486  31.282  28.169  1.00  0.00     0.198 A 
ATOM     69  C   UNL A   1      35.545  33.435  28.224  1.00  0.00     0.198 A 
ATOM     70  F   UNL A   1      37.697  33.665  29.147  1.00  0.00    -0.203 F 
ATOM     71  F   UNL A   1      33.438  30.513  27.843  1.00  0.00    -0.200 F 
ATOM     72  C   UNL A   1      34.456  32.642  27.897  1.00  0.00     0.200 A 
ATOM     73  F   UNL A   1      35.510  34.752  27.981  1.00  0.00    -0.200 F 
ATOM     74  F   UNL A   1      33.375  33.189  27.325  1.00  0.00    -0.200 F 
ENDBRANCH  50  64
BRANCH  51  75
ATOM     75  C   UNL A   1      44.352  27.662  34.247  1.00  0.00     0.064 A 
ATOM     76  C   UNL A   1      44.183  26.446  34.920  1.00  0.00     0.173 A 
ATOM     77  C   UNL A   1      45.616  28.268  34.295  1.00  0.00     0.173 A 
ATOM     78  F   UNL A   1      42.988  25.836  34.911  1.00  0.00    -0.203 F 
ATOM     79  C   UNL A   1      45.233  25.862  35.624  1.00  0.00     0.198 A 
ATOM     80  C   UNL A   1      46.674  27.670  34.977  1.00  0.00     0.198 A 
ATOM     81  F   UNL A   1      45.830  29.429  33.658  1.00  0.00    -0.203 F 
ATOM     82  F   UNL A   1      45.036  24.714  36.286  1.00  0.00    -0.200 F 
ATOM     83  C   UNL A   1      46.480  26.470  35.645  1.00  0.00     0.200 A 
ATOM     84  F   UNL A   1      47.880  28.251  34.980  1.00  0.00    -0.200 F 
ATOM     85  F   UNL A   1      47.493  25.902  36.312  1.00  0.00    -0.200 F 
ENDBRANCH  51  75
BRANCH  63  86
ATOM     86  C   UNL A   1      39.135  32.013  35.871  1.00  0.00     0.064 A 
ATOM     87  C   UNL A   1      39.547  33.330  36.110  1.00  0.00     0.173 A 
ATOM     88  C   UNL A   1      38.259  31.418  36.793  1.00  0.00     0.173 A 
ATOM     89  F   UNL A   1      40.394  33.937  35.265  1.00  0.00    -0.203 F 
ATOM     90  C   UNL A   1      39.097  34.028  37.228  1.00  0.00     0.198 A 
ATOM     91  C   UNL A   1      37.791  32.127  37.896  1.00  0.00     0.198 A 
ATOM     92  F   UNL A   1      37.832  30.160  36.606  1.00  0.00    -0.203 F 
ATOM     93  F   UNL A   1      39.518  35.282  37.447  1.00  0.00    -0.200 F 
ATOM     94  C   UNL A   1      38.210  33.431  38.112  1.00  0.00     0.200 A 
ATOM     95  F   UNL A   1      36.923  31.554  38.740  1.00  0.00    -0.200 F 
ATOM     96  F   UNL A   1      37.755  34.115  39.171  1.00  0.00    -0.200 F 
ENDBRANCH  63  86
ENDBRANCH  37  38
ENDBRANCH  30  32
ENDBRANCH  29  30
ENDBRANCH  28  29
ENDBRANCH  27  28
ENDBRANCH  26  27
ENDBRANCH  25  26
ENDBRANCH   1  25
TORSDOF 19
ENDMDL
MODEL 3
REMARK VINA RESULT:     -11.6      4.720      8.492
REMARK SMILES C[C@H](NC(=O)C1=Cc2cc(Br)ccc2OC1)C(=O)OCCOCCOCCOC(=O)c1ccc(-c2c3nc(c(-c4c(F)c(F)c(F)c(F)c4F)c4ccc([nH]4)c(-c4c(F)c(F)c(F)c(F)c4F)c4nc(c(-c5c(F)c(F)c(F)c(F)c5F)c5ccc2[nH]5)C=C4)C=C3)cc1
REMARK SMILES IDX 23 1 22 2 21 3 20 4 19 5 17 6 18 7 2 8 1 9 3 10 4 11 5 13
REMARK SMILES IDX 6 14 7 15 16 16 8 17 15 18 9 19 14 20 10 21 13 22 11 23
REMARK SMILES IDX 12 24 24 25 25 26 26 27 27 28 28 29 29 30 30 31 31 32 32 33
REMARK SMILES IDX 93 34 33 35 92 36 34 37 35 38 36 39 86 40 37 41 91 42 85 43
REMARK SMILES IDX 87 44 38 45 90 46 84 47 83 48 39 50 71 51 51 52 70 53 52 54
REMARK SMILES IDX 55 55 69 56 88 57 53 58 54 59 68 61 89 62 56 63 40 64 41 65
REMARK SMILES IDX 49 66 42 67 43 68 47 69 50 70 44 71 45 72 48 73 46 74 72 75
REMARK SMILES IDX 73 76 81 77 74 78 75 79 79 80 82 81 76 82 77 83 80 84 78 85
REMARK SMILES IDX 57 86 58 87 66 88 59 89 60 90 64 91 67 92 61 93 62 94 65 95
REMARK SMILES IDX 63 96
REMARK H PARENT 3 12 87 49 55 60
REMARK Flexibility Score: inf
ROOT
ATOM      1  C   UNL A   1      36.351  23.661  25.022  1.00  0.00     0.188 C 
ENDROOT
BRANCH   1   2
ATOM      2  O   UNL A   1      35.041  24.078  24.651  1.00  0.00    -0.376 OA
BRANCH   2   3
ATOM      3  C   UNL A   1      34.532  23.737  23.368  1.00  0.00     0.202 C 
BRANCH   3   4
ATOM      4  C   UNL A   1      33.352  22.757  23.312  1.00  0.00     0.261 C 
BRANCH   4   5
ATOM      5  O   UNL A   1      33.635  21.453  23.860  1.00  0.00    -0.462 OA
BRANCH   5   6
ATOM      6  C   UNL A   1      32.744  20.995  24.779  1.00  0.00     0.328 C 
ATOM      7  O   UNL A   1      32.180  19.906  24.706  1.00  0.00    -0.250 OA
BRANCH   6   8
ATOM      8  C   UNL A   1      32.653  21.876  26.048  1.00  0.00     0.189 C 
ATOM      9  C   UNL A   1      33.735  21.465  27.037  1.00  0.00     0.043 C 
BRANCH   8  10
ATOM     10  N   UNL A   1      31.370  22.220  26.684  1.00  0.00    -0.339 N 
ATOM     11  C   UNL A   1      30.622  23.350  26.742  1.00  0.00     0.251 C 
ATOM     12  H   UNL A   1      30.969  21.468  27.174  1.00  0.00     0.164 HD
ATOM     13  O   UNL A   1      29.530  23.329  27.301  1.00  0.00    -0.270 OA
BRANCH  11  14
ATOM     14  C   UNL A   1      31.126  24.585  26.146  1.00  0.00     0.055 C 
ATOM     15  C   UNL A   1      31.879  25.417  26.878  1.00  0.00     0.025 C 
ATOM     16  C   UNL A   1      30.656  24.979  24.786  1.00  0.00     0.271 C 
ATOM     17  C   UNL A   1      32.345  26.621  26.191  1.00  0.00     0.018 A 
ATOM     18  O   UNL A   1      31.679  25.671  24.048  1.00  0.00    -0.488 OA
ATOM     19  C   UNL A   1      32.913  27.691  26.883  1.00  0.00     0.027 A 
ATOM     20  C   UNL A   1      32.287  26.661  24.786  1.00  0.00     0.127 A 
ATOM     21  C   UNL A   1      33.459  28.759  26.166  1.00  0.00     0.018 A 
ATOM     22  C   UNL A   1      32.880  27.700  24.076  1.00  0.00     0.048 A 
ATOM     23  Br  UNL A   1      34.212  30.223  27.098  1.00  0.00    -0.051 Br
ATOM     24  C   UNL A   1      33.469  28.755  24.770  1.00  0.00     0.019 A 
ENDBRANCH  11  14
ENDBRANCH   8  10
ENDBRANCH   6   8
ENDBRANCH   5   6
ENDBRANCH   4   5
ENDBRANCH   3   4
ENDBRANCH   2   3
ENDBRANCH   1   2
BRANCH   1  25
ATOM     25  C   UNL A   1      36.936  22.340  24.479  1.00  0.00     0.188 C 
BRANCH  25  26
ATOM     26  O   UNL A   1      36.920  21.284  25.418  1.00  0.00    -0.376 OA
BRANCH  26  27
ATOM     27  C   UNL A   1      37.382  20.026  24.963  1.00  0.00     0.202 C 
BRANCH  27  28
ATOM     28  C   UNL A   1      38.792  19.651  25.437  1.00  0.00     0.261 C 
BRANCH  28  29
ATOM     29  O   UNL A   1      39.654  20.758  25.750  1.00  0.00    -0.460 OA
BRANCH  29  30
ATOM     30  C   UNL A   1      40.379  20.681  26.889  1.00  0.00     0.338 C 
ATOM     31  O   UNL A   1      40.800  19.669  27.423  1.00  0.00    -0.246 OA
BRANCH  30  32
ATOM     32  C   UNL A   1      40.759  22.061  27.279  1.00  0.00     0.060 A 
ATOM     33  C   UNL A   1      41.591  22.288  28.377  1.00  0.00     0.016 A 
ATOM     34  C   UNL A   1      40.252  23.144  26.546  1.00  0.00     0.016 A 
ATOM     35  C   UNL A   1      41.950  23.596  28.715  1.00  0.00     0.010 A 
ATOM     36  C   UNL A   1      40.609  24.454  26.889  1.00  0.00     0.010 A 
ATOM     37  C   UNL A   1      41.485  24.688  27.958  1.00  0.00    -0.014 A 
BRANCH  37  38
ATOM     38  C   UNL A   1      42.108  26.023  28.161  1.00  0.00     0.031 A 
ATOM     39  C   UNL A   1      43.451  26.388  27.610  1.00  0.00     0.074 A 
ATOM     40  C   UNL A   1      41.400  26.934  28.858  1.00  0.00     0.049 A 
ATOM     41  N   UNL A   1      44.024  27.566  27.564  1.00  0.00    -0.248 NA
ATOM     42  C   UNL A   1      44.267  25.301  27.052  1.00  0.00     0.031 C 
ATOM     43  C   UNL A   1      40.109  26.675  29.496  1.00  0.00     0.029 A 
ATOM     44  N   UNL A   1      41.648  28.257  29.129  1.00  0.00    -0.354 N 
ATOM     45  C   UNL A   1      45.251  27.373  26.945  1.00  0.00     0.074 A 
ATOM     46  C   UNL A   1      45.365  25.951  26.683  1.00  0.00     0.031 C 
ATOM     47  C   UNL A   1      39.655  27.811  30.045  1.00  0.00     0.029 A 
ATOM     48  C   UNL A   1      40.627  28.875  29.808  1.00  0.00     0.049 A 
ATOM     49  H   UNL A   1      42.477  28.717  28.864  1.00  0.00     0.167 HD
ATOM     50  C   UNL A   1      46.176  28.304  26.608  1.00  0.00     0.037 A 
ATOM     51  C   UNL A   1      40.473  30.160  30.179  1.00  0.00     0.037 A 
ATOM     52  C   UNL A   1      46.054  29.715  26.882  1.00  0.00     0.049 A 
ATOM     53  C   UNL A   1      41.522  31.168  29.804  1.00  0.00     0.074 A 
ATOM     54  C   UNL A   1      46.911  30.740  26.515  1.00  0.00     0.029 A 
ATOM     55  N   UNL A   1      45.021  30.300  27.599  1.00  0.00    -0.354 N 
ATOM     56  N   UNL A   1      42.619  30.994  29.108  1.00  0.00    -0.248 NA
ATOM     57  C   UNL A   1      41.309  32.551  30.254  1.00  0.00     0.031 C 
ATOM     58  C   UNL A   1      46.428  31.935  27.057  1.00  0.00     0.029 A 
ATOM     59  C   UNL A   1      45.240  31.665  27.716  1.00  0.00     0.049 A 
ATOM     60  H   UNL A   1      44.247  29.818  27.971  1.00  0.00     0.167 HD
ATOM     61  C   UNL A   1      43.213  32.245  29.017  1.00  0.00     0.074 A 
ATOM     62  C   UNL A   1      42.351  33.172  29.717  1.00  0.00     0.031 C 
ATOM     63  C   UNL A   1      44.374  32.586  28.408  1.00  0.00     0.037 A 
BRANCH  50  64
ATOM     64  C   UNL A   1      47.403  27.856  25.868  1.00  0.00     0.064 A 
ATOM     65  C   UNL A   1      47.397  27.732  24.470  1.00  0.00     0.173 A 
ATOM     66  C   UNL A   1      48.626  27.692  26.536  1.00  0.00     0.173 A 
ATOM     67  F   UNL A   1      46.255  27.884  23.785  1.00  0.00    -0.203 F 
ATOM     68  C   UNL A   1      48.569  27.456  23.771  1.00  0.00     0.198 A 
ATOM     69  C   UNL A   1      49.801  27.440  25.830  1.00  0.00     0.198 A 
ATOM     70  F   UNL A   1      48.691  27.819  27.870  1.00  0.00    -0.203 F 
ATOM     71  F   UNL A   1      48.537  27.332  22.436  1.00  0.00    -0.200 F 
ATOM     72  C   UNL A   1      49.771  27.322  24.449  1.00  0.00     0.200 A 
ATOM     73  F   UNL A   1      50.965  27.332  26.485  1.00  0.00    -0.200 F 
ATOM     74  F   UNL A   1      50.903  27.087  23.771  1.00  0.00    -0.200 F 
ENDBRANCH  50  64
BRANCH  51  75
ATOM     75  C   UNL A   1      39.236  30.570  30.892  1.00  0.00     0.064 A 
ATOM     76  C   UNL A   1      38.102  30.985  30.181  1.00  0.00     0.173 A 
ATOM     77  C   UNL A   1      39.151  30.519  32.291  1.00  0.00     0.173 A 
ATOM     78  F   UNL A   1      38.141  31.061  28.843  1.00  0.00    -0.203 F 
ATOM     79  C   UNL A   1      36.932  31.346  30.844  1.00  0.00     0.198 A 
ATOM     80  C   UNL A   1      37.971  30.854  32.951  1.00  0.00     0.198 A 
ATOM     81  F   UNL A   1      40.208  30.119  33.014  1.00  0.00    -0.203 F 
ATOM     82  F   UNL A   1      35.872  31.770  30.143  1.00  0.00    -0.200 F 
ATOM     83  C   UNL A   1      36.864  31.272  32.228  1.00  0.00     0.200 A 
ATOM     84  F   UNL A   1      37.904  30.765  34.286  1.00  0.00    -0.200 F 
ATOM     85  F   UNL A   1      35.734  31.607  32.863  1.00  0.00    -0.200 F 
ENDBRANCH  51  75
BRANCH  63  86
ATOM     86  C   UNL A   1      44.795  34.025  28.455  1.00  0.00     0.064 A 
ATOM     87  C   UNL A   1      44.312  34.956  27.526  1.00  0.00     0.173 A 
ATOM     88  C   UNL A   1      45.607  34.497  29.499  1.00  0.00     0.173 A 
ATOM     89  F   UNL A   1      43.544  34.553  26.502  1.00  0.00    -0.203 F 
ATOM     90  C   UNL A   1      44.624  36.309  27.640  1.00  0.00     0.198 A 
ATOM     91  C   UNL A   1      45.896  35.853  29.625  1.00  0.00     0.198 A 
ATOM     92  F   UNL A   1      46.091  33.646  30.416  1.00  0.00    -0.203 F 
ATOM     93  F   UNL A   1      44.165  37.179  26.730  1.00  0.00    -0.200 F 
ATOM     94  C   UNL A   1      45.405  36.757  28.696  1.00  0.00     0.200 A 
ATOM     95  F   UNL A   1      46.638  36.286  30.653  1.00  0.00    -0.200 F 
ATOM     96  F   UNL A   1      45.680  38.063  28.819  1.00  0.00    -0.200 F 
ENDBRANCH  63  86
ENDBRANCH  37  38
ENDBRANCH  30  32
ENDBRANCH  29  30
ENDBRANCH  28  29
ENDBRANCH  27  28
ENDBRANCH  26  27
ENDBRANCH  25  26
ENDBRANCH   1  25
TORSDOF 19
ENDMDL
