MODEL 1
REMARK VINA RESULT:     -10.8      0.000      0.000
REMARK SMILES COc1ccc(COc2cncc(C(=O)OCCOCCOCCOC(=O)c3ccc(-c4c5nc(c(-c6c(F)c(F)c(F)c(F)c6F)c6ccc([nH]6)c(-c6c(F)c(F)c(F)c(F)c6F)c6nc(c(-c7c(F)c(F)c(F)c(F)c7F)c7ccc4[nH]7)C=C6)C=C5)cc3)n2)cc1
REMARK SMILES IDX 20 1 19 2 18 3 17 4 16 5 14 6 15 7 13 8 9 9 10 10 91 11
REMARK SMILES IDX 11 12 12 13 8 14 7 15 6 16 3 17 4 18 93 19 5 20 92 21 2 22
REMARK SMILES IDX 1 23 21 24 22 25 23 26 24 27 25 28 26 29 27 30 28 31 29 32
REMARK SMILES IDX 90 33 30 34 89 35 31 36 32 37 33 38 83 39 34 40 88 41 82 42
REMARK SMILES IDX 84 43 35 44 87 45 81 46 80 47 36 49 68 50 48 51 67 52 49 53
REMARK SMILES IDX 52 54 66 55 85 56 50 57 51 58 65 60 86 61 53 62 37 63 38 64
REMARK SMILES IDX 46 65 39 66 40 67 44 68 47 69 41 70 42 71 45 72 43 73 69 74
REMARK SMILES IDX 70 75 78 76 71 77 72 78 76 79 79 80 73 81 74 82 77 83 75 84
REMARK SMILES IDX 54 85 55 86 63 87 56 88 57 89 61 90 64 91 58 92 59 93 62 94
REMARK SMILES IDX 60 95
REMARK H PARENT 84 48 52 59
REMARK Flexibility Score: inf
ROOT
ATOM      1  C   UNL A   1      34.404  24.324  23.455  1.00  0.00     0.188 C 
ENDROOT
BRANCH   1   2
ATOM      2  O   UNL A   1      34.161  25.243  22.408  1.00  0.00    -0.376 OA
BRANCH   2   3
ATOM      3  C   UNL A   1      33.616  26.521  22.691  1.00  0.00     0.202 C 
BRANCH   3   4
ATOM      4  C   UNL A   1      32.912  26.801  24.025  1.00  0.00     0.261 C 
BRANCH   4   5
ATOM      5  O   UNL A   1      31.481  26.761  23.958  1.00  0.00    -0.458 OA
BRANCH   5   6
ATOM      6  C   UNL A   1      30.956  25.585  23.528  1.00  0.00     0.358 C 
ATOM      7  O   UNL A   1      30.841  25.218  22.369  1.00  0.00    -0.244 OA
BRANCH   6   8
ATOM      8  C   UNL A   1      30.777  24.662  24.665  1.00  0.00     0.170 A 
ATOM      9  C   UNL A   1      30.856  22.593  25.647  1.00  0.00     0.233 A 
ATOM     10  C   UNL A   1      30.279  23.149  26.791  1.00  0.00     0.179 A 
ATOM     11  N   UNL A   1      31.099  23.346  24.547  1.00  0.00    -0.203 NA
ATOM     12  N   UNL A   1      29.914  24.452  26.889  1.00  0.00    -0.257 NA
ATOM     13  C   UNL A   1      30.205  25.203  25.808  1.00  0.00     0.147 A 
BRANCH   9  14
ATOM     14  O   UNL A   1      31.349  21.318  25.573  1.00  0.00    -0.472 OA
BRANCH  14  15
ATOM     15  C   UNL A   1      32.156  21.010  24.429  1.00  0.00     0.267 C 
BRANCH  15  16
ATOM     16  C   UNL A   1      32.601  19.564  24.386  1.00  0.00    -0.010 A 
ATOM     17  C   UNL A   1      33.146  16.804  24.318  1.00  0.00     0.118 A 
ATOM     18  C   UNL A   1      33.156  17.499  25.529  1.00  0.00     0.047 A 
ATOM     19  C   UNL A   1      32.899  17.498  23.134  1.00  0.00     0.047 A 
ATOM     20  C   UNL A   1      32.903  18.871  25.565  1.00  0.00     0.011 A 
ATOM     21  C   UNL A   1      32.640  18.872  23.165  1.00  0.00     0.011 A 
BRANCH  17  22
ATOM     22  O   UNL A   1      33.342  15.455  24.428  1.00  0.00    -0.497 OA
ATOM     23  C   UNL A   1      32.532  14.771  25.375  1.00  0.00     0.278 C 
ENDBRANCH  17  22
ENDBRANCH  15  16
ENDBRANCH  14  15
ENDBRANCH   9  14
ENDBRANCH   6   8
ENDBRANCH   5   6
ENDBRANCH   4   5
ENDBRANCH   3   4
ENDBRANCH   2   3
ENDBRANCH   1   2
BRANCH   1  24
ATOM     24  C   UNL A   1      35.018  22.934  23.183  1.00  0.00     0.188 C 
BRANCH  24  25
ATOM     25  O   UNL A   1      35.707  22.257  24.205  1.00  0.00    -0.376 OA
BRANCH  25  26
ATOM     26  C   UNL A   1      37.056  21.852  24.062  1.00  0.00     0.202 C 
BRANCH  26  27
ATOM     27  C   UNL A   1      37.778  20.809  24.928  1.00  0.00     0.261 C 
BRANCH  27  28
ATOM     28  O   UNL A   1      38.218  21.214  26.224  1.00  0.00    -0.460 OA
BRANCH  28  29
ATOM     29  C   UNL A   1      39.559  21.273  26.377  1.00  0.00     0.338 C 
ATOM     30  O   UNL A   1      40.392  20.451  26.015  1.00  0.00    -0.246 OA
BRANCH  29  31
ATOM     31  C   UNL A   1      39.925  22.584  26.929  1.00  0.00     0.060 A 
ATOM     32  C   UNL A   1      39.221  23.712  26.489  1.00  0.00     0.016 A 
ATOM     33  C   UNL A   1      40.995  22.708  27.817  1.00  0.00     0.016 A 
ATOM     34  C   UNL A   1      39.610  24.980  26.914  1.00  0.00     0.010 A 
ATOM     35  C   UNL A   1      41.395  23.981  28.227  1.00  0.00     0.010 A 
ATOM     36  C   UNL A   1      40.726  25.123  27.750  1.00  0.00    -0.014 A 
BRANCH  36  37
ATOM     37  C   UNL A   1      41.307  26.467  27.973  1.00  0.00     0.031 A 
ATOM     38  C   UNL A   1      42.707  26.733  27.494  1.00  0.00     0.074 A 
ATOM     39  C   UNL A   1      40.600  27.440  28.572  1.00  0.00     0.049 A 
ATOM     40  N   UNL A   1      43.438  27.813  27.612  1.00  0.00    -0.248 NA
ATOM     41  C   UNL A   1      43.374  25.628  26.785  1.00  0.00     0.031 C 
ATOM     42  C   UNL A   1      39.223  27.315  29.043  1.00  0.00     0.029 A 
ATOM     43  N   UNL A   1      40.954  28.726  28.894  1.00  0.00    -0.354 N 
ATOM     44  C   UNL A   1      44.648  27.515  27.000  1.00  0.00     0.074 A 
ATOM     45  C   UNL A   1      44.567  26.147  26.538  1.00  0.00     0.031 C 
ATOM     46  C   UNL A   1      38.852  28.478  29.609  1.00  0.00     0.029 A 
ATOM     47  C   UNL A   1      39.974  29.415  29.565  1.00  0.00     0.049 A 
ATOM     48  H   UNL A   1      41.828  29.118  28.666  1.00  0.00     0.167 HD
ATOM     49  C   UNL A   1      45.726  28.317  26.830  1.00  0.00     0.037 A 
ATOM     50  C   UNL A   1      39.994  30.651  30.099  1.00  0.00     0.037 A 
ATOM     51  C   UNL A   1      45.807  29.675  27.294  1.00  0.00     0.049 A 
ATOM     52  C   UNL A   1      41.236  31.496  29.964  1.00  0.00     0.074 A 
ATOM     53  C   UNL A   1      46.849  30.574  27.156  1.00  0.00     0.029 A 
ATOM     54  N   UNL A   1      44.805  30.328  27.997  1.00  0.00    -0.354 N 
ATOM     55  N   UNL A   1      42.365  31.222  29.357  1.00  0.00    -0.248 NA
ATOM     56  C   UNL A   1      41.202  32.826  30.588  1.00  0.00     0.031 C 
ATOM     57  C   UNL A   1      46.499  31.754  27.820  1.00  0.00     0.029 A 
ATOM     58  C   UNL A   1      45.215  31.611  28.323  1.00  0.00     0.049 A 
ATOM     59  H   UNL A   1      43.931  29.939  28.228  1.00  0.00     0.167 HD
ATOM     60  C   UNL A   1      43.162  32.351  29.497  1.00  0.00     0.074 A 
ATOM     61  C   UNL A   1      42.382  33.321  30.239  1.00  0.00     0.031 C 
ATOM     62  C   UNL A   1      44.424  32.569  29.052  1.00  0.00     0.037 A 
BRANCH  49  63
ATOM     63  C   UNL A   1      46.918  27.729  26.134  1.00  0.00     0.064 A 
ATOM     64  C   UNL A   1      47.024  27.718  24.735  1.00  0.00     0.173 A 
ATOM     65  C   UNL A   1      47.980  27.194  26.878  1.00  0.00     0.173 A 
ATOM     66  F   UNL A   1      46.028  28.203  23.979  1.00  0.00    -0.203 F 
ATOM     67  C   UNL A   1      48.138  27.169  24.107  1.00  0.00     0.198 A 
ATOM     68  C   UNL A   1      49.107  26.672  26.246  1.00  0.00     0.198 A 
ATOM     69  F   UNL A   1      47.930  27.182  28.219  1.00  0.00    -0.203 F 
ATOM     70  F   UNL A   1      48.197  27.126  22.768  1.00  0.00    -0.200 F 
ATOM     71  C   UNL A   1      49.181  26.654  24.862  1.00  0.00     0.200 A 
ATOM     72  F   UNL A   1      50.118  26.185  26.978  1.00  0.00    -0.200 F 
ATOM     73  F   UNL A   1      50.256  26.132  24.255  1.00  0.00    -0.200 F 
ENDBRANCH  49  63
BRANCH  50  74
ATOM     74  C   UNL A   1      38.805  31.166  30.826  1.00  0.00     0.064 A 
ATOM     75  C   UNL A   1      38.671  30.991  32.210  1.00  0.00     0.173 A 
ATOM     76  C   UNL A   1      37.764  31.817  30.147  1.00  0.00     0.173 A 
ATOM     77  F   UNL A   1      39.626  30.349  32.899  1.00  0.00    -0.203 F 
ATOM     78  C   UNL A   1      37.532  31.428  32.884  1.00  0.00     0.198 A 
ATOM     79  C   UNL A   1      36.639  32.280  30.827  1.00  0.00     0.198 A 
ATOM     80  F   UNL A   1      37.840  32.004  28.822  1.00  0.00    -0.203 F 
ATOM     81  F   UNL A   1      37.406  31.201  34.199  1.00  0.00    -0.200 F 
ATOM     82  C   UNL A   1      36.520  32.077  32.193  1.00  0.00     0.200 A 
ATOM     83  F   UNL A   1      35.667  32.912  30.156  1.00  0.00    -0.200 F 
ATOM     84  F   UNL A   1      35.425  32.495  32.842  1.00  0.00    -0.200 F 
ENDBRANCH  50  74
BRANCH  62  85
ATOM     85  C   UNL A   1      45.030  33.918  29.314  1.00  0.00     0.064 A 
ATOM     86  C   UNL A   1      45.832  34.161  30.437  1.00  0.00     0.173 A 
ATOM     87  C   UNL A   1      44.843  34.967  28.400  1.00  0.00     0.173 A 
ATOM     88  F   UNL A   1      46.031  33.195  31.347  1.00  0.00    -0.203 F 
ATOM     89  C   UNL A   1      46.408  35.411  30.649  1.00  0.00     0.198 A 
ATOM     90  C   UNL A   1      45.445  36.207  28.598  1.00  0.00     0.198 A 
ATOM     91  F   UNL A   1      44.092  34.785  27.304  1.00  0.00    -0.203 F 
ATOM     92  F   UNL A   1      47.135  35.635  31.752  1.00  0.00    -0.200 F 
ATOM     93  C   UNL A   1      46.220  36.431  29.726  1.00  0.00     0.200 A 
ATOM     94  F   UNL A   1      45.276  37.184  27.697  1.00  0.00    -0.200 F 
ATOM     95  F   UNL A   1      46.783  37.630  29.926  1.00  0.00    -0.200 F 
ENDBRANCH  62  85
ENDBRANCH  36  37
ENDBRANCH  29  31
ENDBRANCH  28  29
ENDBRANCH  27  28
ENDBRANCH  26  27
ENDBRANCH  25  26
ENDBRANCH  24  25
ENDBRANCH   1  24
TORSDOF 21
ENDMDL
MODEL 2
REMARK VINA RESULT:     -10.8      3.862      9.220
REMARK SMILES COc1ccc(COc2cncc(C(=O)OCCOCCOCCOC(=O)c3ccc(-c4c5nc(c(-c6c(F)c(F)c(F)c(F)c6F)c6ccc([nH]6)c(-c6c(F)c(F)c(F)c(F)c6F)c6nc(c(-c7c(F)c(F)c(F)c(F)c7F)c7ccc4[nH]7)C=C6)C=C5)cc3)n2)cc1
REMARK SMILES IDX 20 1 19 2 18 3 17 4 16 5 14 6 15 7 13 8 9 9 10 10 91 11
REMARK SMILES IDX 11 12 12 13 8 14 7 15 6 16 3 17 4 18 93 19 5 20 92 21 2 22
REMARK SMILES IDX 1 23 21 24 22 25 23 26 24 27 25 28 26 29 27 30 28 31 29 32
REMARK SMILES IDX 90 33 30 34 89 35 31 36 32 37 33 38 83 39 34 40 88 41 82 42
REMARK SMILES IDX 84 43 35 44 87 45 81 46 80 47 36 49 68 50 48 51 67 52 49 53
REMARK SMILES IDX 52 54 66 55 85 56 50 57 51 58 65 60 86 61 53 62 37 63 38 64
REMARK SMILES IDX 46 65 39 66 40 67 44 68 47 69 41 70 42 71 45 72 43 73 69 74
REMARK SMILES IDX 70 75 78 76 71 77 72 78 76 79 79 80 73 81 74 82 77 83 75 84
REMARK SMILES IDX 54 85 55 86 63 87 56 88 57 89 61 90 64 91 58 92 59 93 62 94
REMARK SMILES IDX 60 95
REMARK H PARENT 84 48 52 59
REMARK Flexibility Score: inf
ROOT
ATOM      1  C   UNL A   1      33.249  37.187  31.751  1.00  0.00     0.188 C 
ENDROOT
BRANCH   1   2
ATOM      2  O   UNL A   1      32.927  36.693  30.465  1.00  0.00    -0.376 OA
BRANCH   2   3
ATOM      3  C   UNL A   1      33.463  35.458  30.019  1.00  0.00     0.202 C 
BRANCH   3   4
ATOM      4  C   UNL A   1      34.017  35.305  28.597  1.00  0.00     0.261 C 
BRANCH   4   5
ATOM      5  O   UNL A   1      34.370  33.962  28.241  1.00  0.00    -0.458 OA
BRANCH   5   6
ATOM      6  C   UNL A   1      33.328  33.165  27.892  1.00  0.00     0.358 C 
ATOM      7  O   UNL A   1      32.193  33.524  27.621  1.00  0.00    -0.244 OA
BRANCH   6   8
ATOM      8  C   UNL A   1      33.806  31.797  27.612  1.00  0.00     0.170 A 
ATOM      9  C   UNL A   1      33.565  29.687  26.751  1.00  0.00     0.233 A 
ATOM     10  C   UNL A   1      34.802  29.353  27.307  1.00  0.00     0.179 A 
ATOM     11  N   UNL A   1      33.034  30.923  26.912  1.00  0.00    -0.203 NA
ATOM     12  N   UNL A   1      35.549  30.213  28.045  1.00  0.00    -0.257 NA
ATOM     13  C   UNL A   1      35.035  31.454  28.158  1.00  0.00     0.147 A 
BRANCH   9  14
ATOM     14  O   UNL A   1      32.860  28.881  25.898  1.00  0.00    -0.472 OA
BRANCH  14  15
ATOM     15  C   UNL A   1      33.579  27.788  25.311  1.00  0.00     0.267 C 
BRANCH  15  16
ATOM     16  C   UNL A   1      32.977  26.437  25.636  1.00  0.00    -0.010 A 
ATOM     17  C   UNL A   1      31.787  23.908  25.957  1.00  0.00     0.118 A 
ATOM     18  C   UNL A   1      31.056  25.071  26.203  1.00  0.00     0.047 A 
ATOM     19  C   UNL A   1      33.127  24.008  25.585  1.00  0.00     0.047 A 
ATOM     20  C   UNL A   1      31.647  26.328  26.062  1.00  0.00     0.011 A 
ATOM     21  C   UNL A   1      33.723  25.265  25.437  1.00  0.00     0.011 A 
BRANCH  17  22
ATOM     22  O   UNL A   1      31.073  22.747  26.068  1.00  0.00    -0.497 OA
ATOM     23  C   UNL A   1      29.905  22.795  26.878  1.00  0.00     0.278 C 
ENDBRANCH  17  22
ENDBRANCH  15  16
ENDBRANCH  14  15
ENDBRANCH   9  14
ENDBRANCH   6   8
ENDBRANCH   5   6
ENDBRANCH   4   5
ENDBRANCH   3   4
ENDBRANCH   2   3
ENDBRANCH   1   2
BRANCH   1  24
ATOM     24  C   UNL A   1      33.624  36.239  32.909  1.00  0.00     0.188 C 
BRANCH  24  25
ATOM     25  O   UNL A   1      34.972  36.074  33.275  1.00  0.00    -0.376 OA
BRANCH  25  26
ATOM     26  C   UNL A   1      35.423  34.939  33.992  1.00  0.00     0.202 C 
BRANCH  26  27
ATOM     27  C   UNL A   1      34.783  33.544  33.963  1.00  0.00     0.261 C 
BRANCH  27  28
ATOM     28  O   UNL A   1      35.578  32.460  33.484  1.00  0.00    -0.460 OA
BRANCH  28  29
ATOM     29  C   UNL A   1      35.540  32.275  32.146  1.00  0.00     0.338 C 
ATOM     30  O   UNL A   1      34.582  32.420  31.396  1.00  0.00    -0.246 OA
BRANCH  29  31
ATOM     31  C   UNL A   1      36.899  32.008  31.657  1.00  0.00     0.060 A 
ATOM     32  C   UNL A   1      37.243  32.447  30.373  1.00  0.00     0.016 A 
ATOM     33  C   UNL A   1      37.800  31.273  32.429  1.00  0.00     0.016 A 
ATOM     34  C   UNL A   1      38.488  32.120  29.840  1.00  0.00     0.010 A 
ATOM     35  C   UNL A   1      39.040  30.932  31.886  1.00  0.00     0.010 A 
ATOM     36  C   UNL A   1      39.374  31.324  30.577  1.00  0.00    -0.014 A 
BRANCH  36  37
ATOM     37  C   UNL A   1      40.565  30.747  29.913  1.00  0.00     0.031 A 
ATOM     38  C   UNL A   1      41.761  31.629  29.688  1.00  0.00     0.074 A 
ATOM     39  C   UNL A   1      40.592  29.459  29.530  1.00  0.00     0.049 A 
ATOM     40  N   UNL A   1      42.896  31.361  29.093  1.00  0.00    -0.248 NA
ATOM     41  C   UNL A   1      41.662  33.004  30.206  1.00  0.00     0.031 C 
ATOM     42  C   UNL A   1      39.513  28.496  29.729  1.00  0.00     0.029 A 
ATOM     43  N   UNL A   1      41.570  28.744  28.885  1.00  0.00    -0.354 N 
ATOM     44  C   UNL A   1      43.640  32.531  29.160  1.00  0.00     0.074 A 
ATOM     45  C   UNL A   1      42.821  33.520  29.825  1.00  0.00     0.031 C 
ATOM     46  C   UNL A   1      39.883  27.315  29.201  1.00  0.00     0.029 A 
ATOM     47  C   UNL A   1      41.211  27.450  28.604  1.00  0.00     0.049 A 
ATOM     48  H   UNL A   1      42.447  29.124  28.646  1.00  0.00     0.167 HD
ATOM     49  C   UNL A   1      44.899  32.755  28.716  1.00  0.00     0.037 A 
ATOM     50  C   UNL A   1      41.872  26.495  27.922  1.00  0.00     0.037 A 
ATOM     51  C   UNL A   1      45.711  31.772  28.050  1.00  0.00     0.049 A 
ATOM     52  C   UNL A   1      43.243  26.795  27.369  1.00  0.00     0.074 A 
ATOM     53  C   UNL A   1      47.005  31.898  27.577  1.00  0.00     0.029 A 
ATOM     54  N   UNL A   1      45.300  30.480  27.756  1.00  0.00    -0.354 N 
ATOM     55  N   UNL A   1      43.955  27.892  27.462  1.00  0.00    -0.248 NA
ATOM     56  C   UNL A   1      43.903  25.718  26.615  1.00  0.00     0.031 C 
ATOM     57  C   UNL A   1      47.359  30.699  26.950  1.00  0.00     0.029 A 
ATOM     58  C   UNL A   1      46.307  29.807  27.083  1.00  0.00     0.049 A 
ATOM     59  H   UNL A   1      44.424  30.099  27.992  1.00  0.00     0.167 HD
ATOM     60  C   UNL A   1      45.153  27.629  26.811  1.00  0.00     0.074 A 
ATOM     61  C   UNL A   1      45.078  26.263  26.336  1.00  0.00     0.031 C 
ATOM     62  C   UNL A   1      46.222  28.443  26.625  1.00  0.00     0.037 A 
BRANCH  49  63
ATOM     63  C   UNL A   1      45.464  34.132  28.911  1.00  0.00     0.064 A 
ATOM     64  C   UNL A   1      46.192  34.473  30.060  1.00  0.00     0.173 A 
ATOM     65  C   UNL A   1      45.296  35.114  27.924  1.00  0.00     0.173 A 
ATOM     66  F   UNL A   1      46.367  33.575  31.040  1.00  0.00    -0.203 F 
ATOM     67  C   UNL A   1      46.710  35.755  30.224  1.00  0.00     0.198 A 
ATOM     68  C   UNL A   1      45.839  36.386  28.078  1.00  0.00     0.198 A 
ATOM     69  F   UNL A   1      44.608  34.838  26.804  1.00  0.00    -0.203 F 
ATOM     70  F   UNL A   1      47.362  36.074  31.351  1.00  0.00    -0.200 F 
ATOM     71  C   UNL A   1      46.539  36.708  29.231  1.00  0.00     0.200 A 
ATOM     72  F   UNL A   1      45.683  37.302  27.112  1.00  0.00    -0.200 F 
ATOM     73  F   UNL A   1      47.043  37.940  29.388  1.00  0.00    -0.200 F 
ENDBRANCH  49  63
BRANCH  50  74
ATOM     74  C   UNL A   1      41.246  25.164  27.709  1.00  0.00     0.064 A 
ATOM     75  C   UNL A   1      41.723  24.026  28.373  1.00  0.00     0.173 A 
ATOM     76  C   UNL A   1      40.179  24.998  26.814  1.00  0.00     0.173 A 
ATOM     77  F   UNL A   1      42.760  24.129  29.217  1.00  0.00    -0.203 F 
ATOM     78  C   UNL A   1      41.169  22.769  28.135  1.00  0.00     0.198 A 
ATOM     79  C   UNL A   1      39.608  23.746  26.599  1.00  0.00     0.198 A 
ATOM     80  F   UNL A   1      39.690  26.054  26.147  1.00  0.00    -0.203 F 
ATOM     81  F   UNL A   1      41.679  21.689  28.744  1.00  0.00    -0.200 F 
ATOM     82  C   UNL A   1      40.109  22.631  27.253  1.00  0.00     0.200 A 
ATOM     83  F   UNL A   1      38.579  23.618  25.750  1.00  0.00    -0.200 F 
ATOM     84  F   UNL A   1      39.579  21.422  27.023  1.00  0.00    -0.200 F 
ENDBRANCH  50  74
BRANCH  62  85
ATOM     85  C   UNL A   1      47.415  27.872  25.913  1.00  0.00     0.064 A 
ATOM     86  C   UNL A   1      48.520  27.367  26.613  1.00  0.00     0.173 A 
ATOM     87  C   UNL A   1      47.429  27.787  24.512  1.00  0.00     0.173 A 
ATOM     88  F   UNL A   1      48.561  27.438  27.952  1.00  0.00    -0.203 F 
ATOM     89  C   UNL A   1      49.605  26.817  25.936  1.00  0.00     0.198 A 
ATOM     90  C   UNL A   1      48.502  27.208  23.839  1.00  0.00     0.198 A 
ATOM     91  F   UNL A   1      46.393  28.247  23.795  1.00  0.00    -0.203 F 
ATOM     92  F   UNL A   1      50.670  26.381  26.622  1.00  0.00    -0.200 F 
ATOM     93  C   UNL A   1      49.592  26.731  24.551  1.00  0.00     0.200 A 
ATOM     94  F   UNL A   1      48.480  27.111  22.503  1.00  0.00    -0.200 F 
ATOM     95  F   UNL A   1      50.634  26.193  23.902  1.00  0.00    -0.200 F 
ENDBRANCH  62  85
ENDBRANCH  36  37
ENDBRANCH  29  31
ENDBRANCH  28  29
ENDBRANCH  27  28
ENDBRANCH  26  27
ENDBRANCH  25  26
ENDBRANCH  24  25
ENDBRANCH   1  24
TORSDOF 21
ENDMDL
MODEL 3
REMARK VINA RESULT:     -10.8      4.020      9.295
REMARK SMILES COc1ccc(COc2cncc(C(=O)OCCOCCOCCOC(=O)c3ccc(-c4c5nc(c(-c6c(F)c(F)c(F)c(F)c6F)c6ccc([nH]6)c(-c6c(F)c(F)c(F)c(F)c6F)c6nc(c(-c7c(F)c(F)c(F)c(F)c7F)c7ccc4[nH]7)C=C6)C=C5)cc3)n2)cc1
REMARK SMILES IDX 20 1 19 2 18 3 17 4 16 5 14 6 15 7 13 8 9 9 10 10 91 11
REMARK SMILES IDX 11 12 12 13 8 14 7 15 6 16 3 17 4 18 93 19 5 20 92 21 2 22
REMARK SMILES IDX 1 23 21 24 22 25 23 26 24 27 25 28 26 29 27 30 28 31 29 32
REMARK SMILES IDX 90 33 30 34 89 35 31 36 32 37 33 38 83 39 34 40 88 41 82 42
REMARK SMILES IDX 84 43 35 44 87 45 81 46 80 47 36 49 68 50 48 51 67 52 49 53
REMARK SMILES IDX 52 54 66 55 85 56 50 57 51 58 65 60 86 61 53 62 37 63 38 64
REMARK SMILES IDX 46 65 39 66 40 67 44 68 47 69 41 70 42 71 45 72 43 73 69 74
REMARK SMILES IDX 70 75 78 76 71 77 72 78 76 79 79 80 73 81 74 82 77 83 75 84
REMARK SMILES IDX 54 85 55 86 63 87 56 88 57 89 61 90 64 91 58 92 59 93 62 94
REMARK SMILES IDX 60 95
REMARK H PARENT 84 48 52 59
REMARK Flexibility Score: inf
ROOT
ATOM      1  C   UNL A   1      33.617  37.520  32.126  1.00  0.00     0.188 C 
ENDROOT
BRANCH   1   2
ATOM      2  O   UNL A   1      33.168  37.204  30.823  1.00  0.00    -0.376 OA
BRANCH   2   3
ATOM      3  C   UNL A   1      33.329  35.892  30.310  1.00  0.00     0.202 C 
BRANCH   3   4
ATOM      4  C   UNL A   1      32.836  35.527  28.904  1.00  0.00     0.261 C 
BRANCH   4   5
ATOM      5  O   UNL A   1      32.639  34.123  28.693  1.00  0.00    -0.458 OA
BRANCH   5   6
ATOM      6  C   UNL A   1      33.534  33.534  27.859  1.00  0.00     0.358 C 
ATOM      7  O   UNL A   1      34.717  33.815  27.742  1.00  0.00    -0.244 OA
BRANCH   6   8
ATOM      8  C   UNL A   1      32.960  32.302  27.285  1.00  0.00     0.170 A 
ATOM      9  C   UNL A   1      33.034  30.078  26.737  1.00  0.00     0.233 A 
ATOM     10  C   UNL A   1      31.800  30.226  26.102  1.00  0.00     0.179 A 
ATOM     11  N   UNL A   1      33.649  31.130  27.329  1.00  0.00    -0.203 NA
ATOM     12  N   UNL A   1      31.136  31.407  26.018  1.00  0.00    -0.257 NA
ATOM     13  C   UNL A   1      31.732  32.436  26.652  1.00  0.00     0.147 A 
BRANCH   9  14
ATOM     14  O   UNL A   1      33.656  28.876  26.945  1.00  0.00    -0.472 OA
BRANCH  14  15
ATOM     15  C   UNL A   1      32.857  27.701  26.751  1.00  0.00     0.267 C 
BRANCH  15  16
ATOM     16  C   UNL A   1      33.387  26.794  25.662  1.00  0.00    -0.010 A 
ATOM     17  C   UNL A   1      34.102  25.006  23.610  1.00  0.00     0.118 A 
ATOM     18  C   UNL A   1      34.236  24.638  24.949  1.00  0.00     0.047 A 
ATOM     19  C   UNL A   1      33.644  26.285  23.296  1.00  0.00     0.047 A 
ATOM     20  C   UNL A   1      33.900  25.527  25.971  1.00  0.00     0.011 A 
ATOM     21  C   UNL A   1      33.300  27.179  24.316  1.00  0.00     0.011 A 
BRANCH  17  22
ATOM     22  O   UNL A   1      34.403  24.022  22.710  1.00  0.00    -0.497 OA
ATOM     23  C   UNL A   1      35.224  22.961  23.182  1.00  0.00     0.278 C 
ENDBRANCH  17  22
ENDBRANCH  15  16
ENDBRANCH  14  15
ENDBRANCH   9  14
ENDBRANCH   6   8
ENDBRANCH   5   6
ENDBRANCH   4   5
ENDBRANCH   3   4
ENDBRANCH   2   3
ENDBRANCH   1   2
BRANCH   1  24
ATOM     24  C   UNL A   1      33.669  36.456  33.242  1.00  0.00     0.188 C 
BRANCH  24  25
ATOM     25  O   UNL A   1      34.907  36.056  33.777  1.00  0.00    -0.376 OA
BRANCH  25  26
ATOM     26  C   UNL A   1      35.152  34.725  34.193  1.00  0.00     0.202 C 
BRANCH  26  27
ATOM     27  C   UNL A   1      34.483  33.466  33.621  1.00  0.00     0.261 C 
BRANCH  27  28
ATOM     28  O   UNL A   1      35.332  32.409  33.176  1.00  0.00    -0.460 OA
BRANCH  28  29
ATOM     29  C   UNL A   1      35.336  32.207  31.840  1.00  0.00     0.338 C 
ATOM     30  O   UNL A   1      34.403  32.347  31.058  1.00  0.00    -0.246 OA
BRANCH  29  31
ATOM     31  C   UNL A   1      36.707  31.927  31.399  1.00  0.00     0.060 A 
ATOM     32  C   UNL A   1      37.063  32.248  30.082  1.00  0.00     0.016 A 
ATOM     33  C   UNL A   1      37.613  31.292  32.251  1.00  0.00     0.016 A 
ATOM     34  C   UNL A   1      38.323  31.901  29.601  1.00  0.00     0.010 A 
ATOM     35  C   UNL A   1      38.869  30.929  31.761  1.00  0.00     0.010 A 
ATOM     36  C   UNL A   1      39.215  31.201  30.425  1.00  0.00    -0.014 A 
BRANCH  36  37
ATOM     37  C   UNL A   1      40.429  30.591  29.836  1.00  0.00     0.031 A 
ATOM     38  C   UNL A   1      41.660  31.440  29.688  1.00  0.00     0.074 A 
ATOM     39  C   UNL A   1      40.445  29.302  29.454  1.00  0.00     0.049 A 
ATOM     40  N   UNL A   1      42.823  31.140  29.165  1.00  0.00    -0.248 NA
ATOM     41  C   UNL A   1      41.567  32.818  30.199  1.00  0.00     0.031 C 
ATOM     42  C   UNL A   1      39.329  28.369  29.584  1.00  0.00     0.029 A 
ATOM     43  N   UNL A   1      41.442  28.561  28.871  1.00  0.00    -0.354 N 
ATOM     44  C   UNL A   1      43.593  32.289  29.280  1.00  0.00     0.074 A 
ATOM     45  C   UNL A   1      42.761  33.302  29.893  1.00  0.00     0.031 C 
ATOM     46  C   UNL A   1      39.699  27.178  29.079  1.00  0.00     0.029 A 
ATOM     47  C   UNL A   1      41.065  27.276  28.567  1.00  0.00     0.049 A 
ATOM     48  H   UNL A   1      42.342  28.916  28.688  1.00  0.00     0.167 HD
ATOM     49  C   UNL A   1      44.883  32.479  28.916  1.00  0.00     0.037 A 
ATOM     50  C   UNL A   1      41.742  26.303  27.927  1.00  0.00     0.037 A 
ATOM     51  C   UNL A   1      45.708  31.474  28.302  1.00  0.00     0.049 A 
ATOM     52  C   UNL A   1      43.153  26.565  27.461  1.00  0.00     0.074 A 
ATOM     53  C   UNL A   1      47.032  31.564  27.911  1.00  0.00     0.029 A 
ATOM     54  N   UNL A   1      45.282  30.194  27.981  1.00  0.00    -0.354 N 
ATOM     55  N   UNL A   1      43.887  27.642  27.601  1.00  0.00    -0.248 NA
ATOM     56  C   UNL A   1      43.829  25.471  26.750  1.00  0.00     0.031 C 
ATOM     57  C   UNL A   1      47.392  30.355  27.306  1.00  0.00     0.029 A 
ATOM     58  C   UNL A   1      46.310  29.492  27.371  1.00  0.00     0.049 A 
ATOM     59  H   UNL A   1      44.382  29.836  28.161  1.00  0.00     0.167 HD
ATOM     60  C   UNL A   1      45.117  27.347  27.026  1.00  0.00     0.074 A 
ATOM     61  C   UNL A   1      45.034  25.983  26.545  1.00  0.00     0.031 C 
ATOM     62  C   UNL A   1      46.216  28.131  26.908  1.00  0.00     0.037 A 
BRANCH  49  63
ATOM     63  C   UNL A   1      45.472  33.840  29.148  1.00  0.00     0.064 A 
ATOM     64  C   UNL A   1      45.217  34.911  28.279  1.00  0.00     0.173 A 
ATOM     65  C   UNL A   1      46.280  34.081  30.269  1.00  0.00     0.173 A 
ATOM     66  F   UNL A   1      44.463  34.728  27.185  1.00  0.00    -0.203 F 
ATOM     67  C   UNL A   1      45.771  36.167  28.511  1.00  0.00     0.198 A 
ATOM     68  C   UNL A   1      46.809  35.345  30.513  1.00  0.00     0.198 A 
ATOM     69  F   UNL A   1      46.553  33.090  31.132  1.00  0.00    -0.203 F 
ATOM     70  F   UNL A   1      45.553  37.165  27.642  1.00  0.00    -0.200 F 
ATOM     71  C   UNL A   1      46.560  36.385  29.630  1.00  0.00     0.200 A 
ATOM     72  F   UNL A   1      47.562  35.557  31.601  1.00  0.00    -0.200 F 
ATOM     73  F   UNL A   1      47.087  37.596  29.855  1.00  0.00    -0.200 F 
ENDBRANCH  49  63
BRANCH  50  74
ATOM     74  C   UNL A   1      41.095  24.990  27.674  1.00  0.00     0.064 A 
ATOM     75  C   UNL A   1      41.535  23.829  28.323  1.00  0.00     0.173 A 
ATOM     76  C   UNL A   1      40.042  24.864  26.755  1.00  0.00     0.173 A 
ATOM     77  F   UNL A   1      42.558  23.893  29.188  1.00  0.00    -0.203 F 
ATOM     78  C   UNL A   1      40.962  22.588  28.048  1.00  0.00     0.198 A 
ATOM     79  C   UNL A   1      39.451  23.628  26.502  1.00  0.00     0.198 A 
ATOM     80  F   UNL A   1      39.588  25.943  26.101  1.00  0.00    -0.203 F 
ATOM     81  F   UNL A   1      41.439  21.487  28.643  1.00  0.00    -0.200 F 
ATOM     82  C   UNL A   1      39.917  22.490  27.142  1.00  0.00     0.200 A 
ATOM     83  F   UNL A   1      38.437  23.539  25.631  1.00  0.00    -0.200 F 
ATOM     84  F   UNL A   1      39.369  21.297  26.876  1.00  0.00    -0.200 F 
ENDBRANCH  50  74
BRANCH  62  85
ATOM     85  C   UNL A   1      47.436  27.527  26.272  1.00  0.00     0.064 A 
ATOM     86  C   UNL A   1      47.640  27.562  24.886  1.00  0.00     0.173 A 
ATOM     87  C   UNL A   1      48.436  26.948  27.070  1.00  0.00     0.173 A 
ATOM     88  F   UNL A   1      46.708  28.093  24.080  1.00  0.00    -0.203 F 
ATOM     89  C   UNL A   1      48.790  27.021  24.318  1.00  0.00     0.198 A 
ATOM     90  C   UNL A   1      49.598  26.434  26.501  1.00  0.00     0.198 A 
ATOM     91  F   UNL A   1      48.294  26.896  28.402  1.00  0.00    -0.203 F 
ATOM     92  F   UNL A   1      48.944  27.026  22.986  1.00  0.00    -0.200 F 
ATOM     93  C   UNL A   1      49.772  26.464  25.125  1.00  0.00     0.200 A 
ATOM     94  F   UNL A   1      50.552  25.912  27.284  1.00  0.00    -0.200 F 
ATOM     95  F   UNL A   1      50.882  25.952  24.577  1.00  0.00    -0.200 F 
ENDBRANCH  62  85
ENDBRANCH  36  37
ENDBRANCH  29  31
ENDBRANCH  28  29
ENDBRANCH  27  28
ENDBRANCH  26  27
ENDBRANCH  25  26
ENDBRANCH  24  25
ENDBRANCH   1  24
TORSDOF 21
ENDMDL
