MODEL 1
REMARK VINA RESULT:     -12.0      0.000      0.000
REMARK SMILES COc1cc(/C=C2/C(=O)N(c3ccccc3)C(=O)N=C2OCCOCCOCCOC(=O)c2ccc(-c3c4nc(c(-c5c(F)c(F)c(F)c(F)c5F)c5ccc([nH]5)c(-c5c(F)c(F)c(F)c(F)c5F)c5nc(c(-c6c(F)c(F)c(F)c(F)c6F)c6ccc3[nH]6)C=C5)C=C4)cc2)ccc1OCC(=O)[O-]
REMARK SMILES IDX 25 1 24 2 23 3 22 4 21 5 20 6 6 7 7 8 8 9 9 10 10 11 19 12
REMARK SMILES IDX 17 13 18 14 5 15 3 16 4 17 98 18 97 19 96 20 2 21 1 22 99 23
REMARK SMILES IDX 100 24 101 25 102 26 103 27 11 28 12 29 16 30 13 31 15 32
REMARK SMILES IDX 14 33 26 34 27 35 28 36 29 37 30 38 31 39 32 40 33 41 34 42
REMARK SMILES IDX 95 43 35 44 94 45 36 46 37 47 38 48 88 49 39 50 93 51 87 52
REMARK SMILES IDX 89 53 40 54 92 55 86 56 85 57 41 59 73 60 53 61 72 62 54 63
REMARK SMILES IDX 57 64 71 65 90 66 55 67 56 68 70 70 91 71 58 72 42 73 43 74
REMARK SMILES IDX 51 75 44 76 45 77 49 78 52 79 46 80 47 81 50 82 48 83 74 84
REMARK SMILES IDX 75 85 83 86 76 87 77 88 81 89 84 90 78 91 79 92 82 93 80 94
REMARK SMILES IDX 59 95 60 96 68 97 61 98 62 99 66 100 69 101 63 102 64 103
REMARK SMILES IDX 67 104 65 105
REMARK H PARENT 89 58 57 69
REMARK Flexibility Score: inf
ROOT
ATOM      1  C   UNL A   1      32.527  28.665  27.282  1.00  0.00     0.188 C 
ENDROOT
BRANCH   1   2
ATOM      2  O   UNL A   1      32.649  27.317  26.840  1.00  0.00    -0.376 OA
BRANCH   2   3
ATOM      3  C   UNL A   1      33.860  27.056  26.112  1.00  0.00     0.201 C 
BRANCH   3   4
ATOM      4  C   UNL A   1      34.086  25.559  25.789  1.00  0.00     0.260 C 
BRANCH   4   5
ATOM      5  O   UNL A   1      32.938  24.689  25.958  1.00  0.00    -0.475 OA
BRANCH   5   6
ATOM      6  C   UNL A   1      33.028  23.438  25.488  1.00  0.00     0.231 C 
ATOM      7  C   UNL A   1      31.759  24.069  23.335  1.00  0.00     0.027 C 
ATOM      8  C   UNL A   1      32.504  23.246  24.124  1.00  0.00     0.103 C 
ATOM      9  C   UNL A   1      32.710  21.842  23.607  1.00  0.00     0.272 C 
ATOM     10  O   UNL A   1      32.461  21.564  22.434  1.00  0.00    -0.268 OA
ATOM     11  N   UNL A   1      33.107  20.904  24.566  1.00  0.00    -0.226 N 
ATOM     12  N   UNL A   1      33.448  22.519  26.272  1.00  0.00    -0.156 NA
ATOM     13  C   UNL A   1      33.378  21.214  25.902  1.00  0.00     0.358 C 
ATOM     14  O   UNL A   1      33.556  20.360  26.769  1.00  0.00    -0.245 OA
BRANCH   7  15
ATOM     15  C   UNL A   1      31.214  25.466  23.372  1.00  0.00    -0.021 A 
ATOM     16  C   UNL A   1      31.281  27.920  23.094  1.00  0.00     0.161 A 
ATOM     17  C   UNL A   1      31.918  26.663  23.189  1.00  0.00     0.058 A 
ATOM     18  C   UNL A   1      29.907  28.020  23.318  1.00  0.00     0.161 A 
ATOM     19  C   UNL A   1      29.205  26.853  23.626  1.00  0.00     0.051 A 
ATOM     20  C   UNL A   1      29.840  25.602  23.638  1.00  0.00     0.012 A 
BRANCH  16  21
ATOM     21  O   UNL A   1      31.952  29.031  22.655  1.00  0.00    -0.493 OA
ATOM     22  C   UNL A   1      33.354  29.078  22.875  1.00  0.00     0.278 C 
ENDBRANCH  16  21
BRANCH  18  23
ATOM     23  O   UNL A   1      29.118  29.138  23.298  1.00  0.00    -0.484 OA
BRANCH  23  24
ATOM     24  C   UNL A   1      28.519  29.571  22.086  1.00  0.00     0.282 C 
BRANCH  24  25
ATOM     25  C   UNL A   1      27.912  30.970  22.033  1.00  0.00     0.079 C 
ATOM     26  O   UNL A   1      27.527  31.545  21.023  1.00  0.00    -0.546 OA
ATOM     27  O   UNL A   1      27.769  31.561  23.236  1.00  0.00    -0.546 OA
ENDBRANCH  24  25
ENDBRANCH  23  24
ENDBRANCH  18  23
ENDBRANCH   7  15
BRANCH  11  28
ATOM     28  C   UNL A   1      33.237  19.533  24.180  1.00  0.00     0.054 A 
ATOM     29  C   UNL A   1      34.368  18.788  24.547  1.00  0.00     0.027 A 
ATOM     30  C   UNL A   1      32.286  18.953  23.334  1.00  0.00     0.027 A 
ATOM     31  C   UNL A   1      34.556  17.494  24.059  1.00  0.00     0.002 A 
ATOM     32  C   UNL A   1      32.495  17.671  22.819  1.00  0.00     0.002 A 
ATOM     33  C   UNL A   1      33.630  16.945  23.177  1.00  0.00     0.000 A 
ENDBRANCH  11  28
ENDBRANCH   5   6
ENDBRANCH   4   5
ENDBRANCH   3   4
ENDBRANCH   2   3
ENDBRANCH   1   2
BRANCH   1  34
ATOM     34  C   UNL A   1      31.815  29.666  26.359  1.00  0.00     0.188 C 
BRANCH  34  35
ATOM     35  O   UNL A   1      32.286  30.997  26.308  1.00  0.00    -0.376 OA
BRANCH  35  36
ATOM     36  C   UNL A   1      31.324  32.027  26.503  1.00  0.00     0.202 C 
BRANCH  36  37
ATOM     37  C   UNL A   1      31.847  33.400  26.947  1.00  0.00     0.261 C 
BRANCH  37  38
ATOM     38  O   UNL A   1      32.649  33.362  28.149  1.00  0.00    -0.460 OA
BRANCH  38  39
ATOM     39  C   UNL A   1      33.791  34.093  28.098  1.00  0.00     0.338 C 
ATOM     40  O   UNL A   1      33.892  35.304  28.004  1.00  0.00    -0.246 OA
BRANCH  39  41
ATOM     41  C   UNL A   1      34.977  33.241  28.311  1.00  0.00     0.060 A 
ATOM     42  C   UNL A   1      34.781  31.917  28.726  1.00  0.00     0.016 A 
ATOM     43  C   UNL A   1      36.260  33.790  28.287  1.00  0.00     0.016 A 
ATOM     44  C   UNL A   1      35.866  31.150  29.157  1.00  0.00     0.010 A 
ATOM     45  C   UNL A   1      37.344  33.026  28.739  1.00  0.00     0.010 A 
ATOM     46  C   UNL A   1      37.148  31.716  29.210  1.00  0.00    -0.014 A 
BRANCH  46  47
ATOM     47  C   UNL A   1      38.237  31.001  29.925  1.00  0.00     0.031 A 
ATOM     48  C   UNL A   1      38.426  31.253  31.398  1.00  0.00     0.074 A 
ATOM     49  C   UNL A   1      39.035  30.128  29.286  1.00  0.00     0.049 A 
ATOM     50  N   UNL A   1      39.306  30.744  32.224  1.00  0.00    -0.248 NA
ATOM     51  C   UNL A   1      37.506  32.218  32.022  1.00  0.00     0.031 C 
ATOM     52  C   UNL A   1      38.949  29.789  27.868  1.00  0.00     0.029 A 
ATOM     53  N   UNL A   1      40.063  29.348  29.757  1.00  0.00    -0.354 N 
ATOM     54  C   UNL A   1      39.070  31.352  33.450  1.00  0.00     0.074 A 
ATOM     55  C   UNL A   1      37.952  32.253  33.269  1.00  0.00     0.031 C 
ATOM     56  C   UNL A   1      39.856  28.834  27.593  1.00  0.00     0.029 A 
ATOM     57  C   UNL A   1      40.615  28.526  28.804  1.00  0.00     0.049 A 
ATOM     58  H   UNL A   1      40.376  29.376  30.691  1.00  0.00     0.167 HD
ATOM     59  C   UNL A   1      39.740  31.192  34.616  1.00  0.00     0.037 A 
ATOM     60  C   UNL A   1      41.615  27.628  28.906  1.00  0.00     0.037 A 
ATOM     61  C   UNL A   1      40.851  30.297  34.802  1.00  0.00     0.049 A 
ATOM     62  C   UNL A   1      42.329  27.457  30.227  1.00  0.00     0.074 A 
ATOM     63  C   UNL A   1      41.597  30.074  35.948  1.00  0.00     0.029 A 
ATOM     64  N   UNL A   1      41.378  29.479  33.817  1.00  0.00    -0.354 N 
ATOM     65  N   UNL A   1      42.083  28.020  31.384  1.00  0.00    -0.248 NA
ATOM     66  C   UNL A   1      43.474  26.534  30.245  1.00  0.00     0.031 C 
ATOM     67  C   UNL A   1      42.605  29.154  35.642  1.00  0.00     0.029 A 
ATOM     68  C   UNL A   1      42.452  28.764  34.322  1.00  0.00     0.049 A 
ATOM     69  H   UNL A   1      41.040  29.414  32.894  1.00  0.00     0.167 HD
ATOM     70  C   UNL A   1      43.028  27.509  32.267  1.00  0.00     0.074 A 
ATOM     71  C   UNL A   1      43.830  26.564  31.521  1.00  0.00     0.031 C 
ATOM     72  C   UNL A   1      43.227  27.809  33.574  1.00  0.00     0.037 A 
BRANCH  59  73
ATOM     73  C   UNL A   1      39.329  32.045  35.779  1.00  0.00     0.064 A 
ATOM     74  C   UNL A   1      38.411  31.599  36.739  1.00  0.00     0.173 A 
ATOM     75  C   UNL A   1      39.907  33.312  35.958  1.00  0.00     0.173 A 
ATOM     76  F   UNL A   1      37.820  30.402  36.604  1.00  0.00    -0.203 F 
ATOM     77  C   UNL A   1      38.078  32.395  37.833  1.00  0.00     0.198 A 
ATOM     78  C   UNL A   1      39.591  34.094  37.064  1.00  0.00     0.198 A 
ATOM     79  F   UNL A   1      40.793  33.783  35.067  1.00  0.00    -0.203 F 
ATOM     80  F   UNL A   1      37.176  31.963  38.724  1.00  0.00    -0.200 F 
ATOM     81  C   UNL A   1      38.675  33.637  37.999  1.00  0.00     0.200 A 
ATOM     82  F   UNL A   1      40.177  35.289  37.229  1.00  0.00    -0.200 F 
ATOM     83  F   UNL A   1      38.363  34.395  39.058  1.00  0.00    -0.200 F 
ENDBRANCH  59  73
BRANCH  60  84
ATOM     84  C   UNL A   1      42.018  26.804  27.734  1.00  0.00     0.064 A 
ATOM     85  C   UNL A   1      41.437  25.545  27.513  1.00  0.00     0.173 A 
ATOM     86  C   UNL A   1      43.028  27.217  26.853  1.00  0.00     0.173 A 
ATOM     87  F   UNL A   1      40.488  25.091  28.344  1.00  0.00    -0.203 F 
ATOM     88  C   UNL A   1      41.877  24.719  26.480  1.00  0.00     0.198 A 
ATOM     89  C   UNL A   1      43.442  26.404  25.800  1.00  0.00     0.198 A 
ATOM     90  F   UNL A   1      43.623  28.406  27.024  1.00  0.00    -0.203 F 
ATOM     91  F   UNL A   1      41.356  23.493  26.339  1.00  0.00    -0.200 F 
ATOM     92  C   UNL A   1      42.876  25.152  25.622  1.00  0.00     0.200 A 
ATOM     93  F   UNL A   1      44.405  26.827  24.969  1.00  0.00    -0.200 F 
ATOM     94  F   UNL A   1      43.308  24.351  24.637  1.00  0.00    -0.200 F 
ENDBRANCH  60  84
BRANCH  72  95
ATOM     95  C   UNL A   1      44.332  27.090  34.294  1.00  0.00     0.064 A 
ATOM     96  C   UNL A   1      44.112  25.865  34.941  1.00  0.00     0.173 A 
ATOM     97  C   UNL A   1      45.637  27.606  34.290  1.00  0.00     0.173 A 
ATOM     98  F   UNL A   1      42.882  25.335  34.982  1.00  0.00    -0.203 F 
ATOM     99  C   UNL A   1      45.154  25.196  35.580  1.00  0.00     0.198 A 
ATOM    100  C   UNL A   1      46.681  26.920  34.905  1.00  0.00     0.198 A 
ATOM    101  F   UNL A   1      45.903  28.770  33.677  1.00  0.00    -0.203 F 
ATOM    102  F   UNL A   1      44.911  24.050  36.230  1.00  0.00    -0.200 F 
ATOM    103  C   UNL A   1      46.437  25.720  35.556  1.00  0.00     0.200 A 
ATOM    104  F   UNL A   1      47.924  27.420  34.868  1.00  0.00    -0.200 F 
ATOM    105  F   UNL A   1      47.440  25.071  36.163  1.00  0.00    -0.200 F 
ENDBRANCH  72  95
ENDBRANCH  46  47
ENDBRANCH  39  41
ENDBRANCH  38  39
ENDBRANCH  37  38
ENDBRANCH  36  37
ENDBRANCH  35  36
ENDBRANCH  34  35
ENDBRANCH   1  34
TORSDOF 22
ENDMDL
MODEL 2
REMARK VINA RESULT:     -11.5      2.344      7.619
REMARK SMILES COc1cc(/C=C2/C(=O)N(c3ccccc3)C(=O)N=C2OCCOCCOCCOC(=O)c2ccc(-c3c4nc(c(-c5c(F)c(F)c(F)c(F)c5F)c5ccc([nH]5)c(-c5c(F)c(F)c(F)c(F)c5F)c5nc(c(-c6c(F)c(F)c(F)c(F)c6F)c6ccc3[nH]6)C=C5)C=C4)cc2)ccc1OCC(=O)[O-]
REMARK SMILES IDX 25 1 24 2 23 3 22 4 21 5 20 6 6 7 7 8 8 9 9 10 10 11 19 12
REMARK SMILES IDX 17 13 18 14 5 15 3 16 4 17 98 18 97 19 96 20 2 21 1 22 99 23
REMARK SMILES IDX 100 24 101 25 102 26 103 27 11 28 12 29 16 30 13 31 15 32
REMARK SMILES IDX 14 33 26 34 27 35 28 36 29 37 30 38 31 39 32 40 33 41 34 42
REMARK SMILES IDX 95 43 35 44 94 45 36 46 37 47 38 48 88 49 39 50 93 51 87 52
REMARK SMILES IDX 89 53 40 54 92 55 86 56 85 57 41 59 73 60 53 61 72 62 54 63
REMARK SMILES IDX 57 64 71 65 90 66 55 67 56 68 70 70 91 71 58 72 42 73 43 74
REMARK SMILES IDX 51 75 44 76 45 77 49 78 52 79 46 80 47 81 50 82 48 83 74 84
REMARK SMILES IDX 75 85 83 86 76 87 77 88 81 89 84 90 78 91 79 92 82 93 80 94
REMARK SMILES IDX 59 95 60 96 68 97 61 98 62 99 66 100 69 101 63 102 64 103
REMARK SMILES IDX 67 104 65 105
REMARK H PARENT 89 58 57 69
REMARK Flexibility Score: inf
ROOT
ATOM      1  C   UNL A   1      33.138  30.580  27.443  1.00  0.00     0.188 C 
ENDROOT
BRANCH   1   2
ATOM      2  O   UNL A   1      32.690  30.437  26.099  1.00  0.00    -0.376 OA
BRANCH   2   3
ATOM      3  C   UNL A   1      31.708  29.402  25.926  1.00  0.00     0.201 C 
BRANCH   3   4
ATOM      4  C   UNL A   1      32.294  27.970  25.970  1.00  0.00     0.260 C 
BRANCH   4   5
ATOM      5  O   UNL A   1      31.332  26.885  25.958  1.00  0.00    -0.475 OA
BRANCH   5   6
ATOM      6  C   UNL A   1      31.778  25.657  25.662  1.00  0.00     0.231 C 
ATOM      7  C   UNL A   1      30.969  25.861  23.223  1.00  0.00     0.027 C 
ATOM      8  C   UNL A   1      31.648  25.271  24.246  1.00  0.00     0.103 C 
ATOM      9  C   UNL A   1      32.246  23.916  23.949  1.00  0.00     0.272 C 
ATOM     10  O   UNL A   1      32.349  23.519  22.789  1.00  0.00    -0.268 OA
ATOM     11  N   UNL A   1      32.576  23.150  25.071  1.00  0.00    -0.226 N 
ATOM     12  N   UNL A   1      32.169  24.903  26.619  1.00  0.00    -0.156 NA
ATOM     13  C   UNL A   1      32.449  23.593  26.390  1.00  0.00     0.358 C 
ATOM     14  O   UNL A   1      32.577  22.854  27.365  1.00  0.00    -0.245 OA
BRANCH   7  15
ATOM     15  C   UNL A   1      30.167  27.105  22.981  1.00  0.00    -0.021 A 
ATOM     16  C   UNL A   1      28.165  28.550  23.073  1.00  0.00     0.161 A 
ATOM     17  C   UNL A   1      28.794  27.292  23.191  1.00  0.00     0.058 A 
ATOM     18  C   UNL A   1      28.889  29.647  22.603  1.00  0.00     0.161 A 
ATOM     19  C   UNL A   1      30.231  29.453  22.269  1.00  0.00     0.051 A 
ATOM     20  C   UNL A   1      30.861  28.215  22.467  1.00  0.00     0.012 A 
BRANCH  16  21
ATOM     21  O   UNL A   1      26.893  28.760  23.534  1.00  0.00    -0.493 OA
ATOM     22  C   UNL A   1      26.157  27.625  23.968  1.00  0.00     0.278 C 
ENDBRANCH  16  21
BRANCH  18  23
ATOM     23  O   UNL A   1      28.459  30.929  22.396  1.00  0.00    -0.484 OA
BRANCH  23  24
ATOM     24  C   UNL A   1      28.803  31.958  23.312  1.00  0.00     0.282 C 
BRANCH  24  25
ATOM     25  C   UNL A   1      28.735  33.407  22.839  1.00  0.00     0.079 C 
ATOM     26  O   UNL A   1      27.936  33.858  22.029  1.00  0.00    -0.546 OA
ATOM     27  O   UNL A   1      29.624  34.229  23.431  1.00  0.00    -0.546 OA
ENDBRANCH  24  25
ENDBRANCH  23  24
ENDBRANCH  18  23
ENDBRANCH   7  15
BRANCH  11  28
ATOM     28  C   UNL A   1      33.064  21.818  24.880  1.00  0.00     0.054 A 
ATOM     29  C   UNL A   1      32.181  20.731  24.817  1.00  0.00     0.027 A 
ATOM     30  C   UNL A   1      34.442  21.577  24.866  1.00  0.00     0.027 A 
ATOM     31  C   UNL A   1      32.665  19.424  24.763  1.00  0.00     0.002 A 
ATOM     32  C   UNL A   1      34.923  20.265  24.849  1.00  0.00     0.002 A 
ATOM     33  C   UNL A   1      34.037  19.191  24.803  1.00  0.00     0.000 A 
ENDBRANCH  11  28
ENDBRANCH   5   6
ENDBRANCH   4   5
ENDBRANCH   3   4
ENDBRANCH   2   3
ENDBRANCH   1   2
BRANCH   1  34
ATOM     34  C   UNL A   1      34.263  31.586  27.726  1.00  0.00     0.188 C 
BRANCH  34  35
ATOM     35  O   UNL A   1      33.951  32.963  27.759  1.00  0.00    -0.376 OA
BRANCH  35  36
ATOM     36  C   UNL A   1      34.634  33.754  28.725  1.00  0.00     0.202 C 
BRANCH  36  37
ATOM     37  C   UNL A   1      33.894  34.980  29.278  1.00  0.00     0.261 C 
BRANCH  37  38
ATOM     38  O   UNL A   1      32.927  34.665  30.307  1.00  0.00    -0.460 OA
BRANCH  38  39
ATOM     39  C   UNL A   1      33.042  35.399  31.443  1.00  0.00     0.338 C 
ATOM     40  O   UNL A   1      32.338  36.329  31.799  1.00  0.00    -0.246 OA
BRANCH  39  41
ATOM     41  C   UNL A   1      34.086  34.847  32.328  1.00  0.00     0.060 A 
ATOM     42  C   UNL A   1      35.232  35.617  32.568  1.00  0.00     0.016 A 
ATOM     43  C   UNL A   1      34.025  33.520  32.758  1.00  0.00     0.016 A 
ATOM     44  C   UNL A   1      36.337  35.048  33.205  1.00  0.00     0.010 A 
ATOM     45  C   UNL A   1      35.141  32.946  33.379  1.00  0.00     0.010 A 
ATOM     46  C   UNL A   1      36.314  33.696  33.573  1.00  0.00    -0.014 A 
BRANCH  46  47
ATOM     47  C   UNL A   1      37.576  33.027  33.988  1.00  0.00     0.031 A 
ATOM     48  C   UNL A   1      38.243  32.074  33.031  1.00  0.00     0.074 A 
ATOM     49  C   UNL A   1      38.133  33.274  35.187  1.00  0.00     0.049 A 
ATOM     50  N   UNL A   1      39.344  31.381  33.178  1.00  0.00    -0.248 NA
ATOM     51  C   UNL A   1      37.570  31.866  31.739  1.00  0.00     0.031 C 
ATOM     52  C   UNL A   1      37.595  34.181  36.197  1.00  0.00     0.029 A 
ATOM     53  N   UNL A   1      39.294  32.797  35.746  1.00  0.00    -0.354 N 
ATOM     54  C   UNL A   1      39.475  30.629  32.017  1.00  0.00     0.074 A 
ATOM     55  C   UNL A   1      38.354  30.965  31.165  1.00  0.00     0.031 C 
ATOM     56  C   UNL A   1      38.448  34.231  37.236  1.00  0.00     0.029 A 
ATOM     57  C   UNL A   1      39.570  33.328  36.983  1.00  0.00     0.049 A 
ATOM     58  H   UNL A   1      39.873  32.136  35.302  1.00  0.00     0.167 HD
ATOM     59  C   UNL A   1      40.431  29.725  31.699  1.00  0.00     0.037 A 
ATOM     60  C   UNL A   1      40.612  33.108  37.810  1.00  0.00     0.037 A 
ATOM     61  C   UNL A   1      41.548  29.388  32.541  1.00  0.00     0.049 A 
ATOM     62  C   UNL A   1      41.673  32.107  37.417  1.00  0.00     0.074 A 
ATOM     63  C   UNL A   1      42.563  28.476  32.304  1.00  0.00     0.029 A 
ATOM     64  N   UNL A   1      41.796  29.948  33.783  1.00  0.00    -0.354 N 
ATOM     65  N   UNL A   1      41.800  31.421  36.309  1.00  0.00    -0.248 NA
ATOM     66  C   UNL A   1      42.730  31.842  38.406  1.00  0.00     0.031 C 
ATOM     67  C   UNL A   1      43.400  28.452  33.425  1.00  0.00     0.029 A 
ATOM     68  C   UNL A   1      42.937  29.388  34.334  1.00  0.00     0.049 A 
ATOM     69  H   UNL A   1      41.244  30.642  34.212  1.00  0.00     0.167 HD
ATOM     70  C   UNL A   1      42.952  30.657  36.460  1.00  0.00     0.074 A 
ATOM     71  C   UNL A   1      43.509  30.991  37.752  1.00  0.00     0.031 C 
ATOM     72  C   UNL A   1      43.492  29.747  35.613  1.00  0.00     0.037 A 
BRANCH  59  73
ATOM     73  C   UNL A   1      40.285  28.983  30.404  1.00  0.00     0.064 A 
ATOM     74  C   UNL A   1      40.857  29.450  29.213  1.00  0.00     0.173 A 
ATOM     75  C   UNL A   1      39.604  27.756  30.371  1.00  0.00     0.173 A 
ATOM     76  F   UNL A   1      41.505  30.625  29.190  1.00  0.00    -0.203 F 
ATOM     77  C   UNL A   1      40.744  28.721  28.032  1.00  0.00     0.198 A 
ATOM     78  C   UNL A   1      39.513  27.018  29.195  1.00  0.00     0.198 A 
ATOM     79  F   UNL A   1      39.041  27.265  31.485  1.00  0.00    -0.203 F 
ATOM     80  F   UNL A   1      41.271  29.198  26.897  1.00  0.00    -0.200 F 
ATOM     81  C   UNL A   1      40.080  27.502  28.025  1.00  0.00     0.200 A 
ATOM     82  F   UNL A   1      38.881  25.836  29.194  1.00  0.00    -0.200 F 
ATOM     83  F   UNL A   1      39.982  26.796  26.891  1.00  0.00    -0.200 F 
ENDBRANCH  59  73
BRANCH  60  84
ATOM     84  C   UNL A   1      40.726  33.843  39.099  1.00  0.00     0.064 A 
ATOM     85  C   UNL A   1      40.009  33.418  40.229  1.00  0.00     0.173 A 
ATOM     86  C   UNL A   1      41.490  35.012  39.217  1.00  0.00     0.173 A 
ATOM     87  F   UNL A   1      39.240  32.321  40.159  1.00  0.00    -0.203 F 
ATOM     88  C   UNL A   1      40.025  34.154  41.412  1.00  0.00     0.198 A 
ATOM     89  C   UNL A   1      41.532  35.728  40.412  1.00  0.00     0.198 A 
ATOM     90  F   UNL A   1      42.186  35.469  38.166  1.00  0.00    -0.203 F 
ATOM     91  F   UNL A   1      39.272  33.764  42.450  1.00  0.00    -0.200 F 
ATOM     92  C   UNL A   1      40.790  35.306  41.504  1.00  0.00     0.200 A 
ATOM     93  F   UNL A   1      42.277  36.839  40.499  1.00  0.00    -0.200 F 
ATOM     94  F   UNL A   1      40.794  36.021  42.638  1.00  0.00    -0.200 F 
ENDBRANCH  60  84
BRANCH  72  95
ATOM     95  C   UNL A   1      44.763  29.068  36.037  1.00  0.00     0.064 A 
ATOM     96  C   UNL A   1      46.021  29.625  35.760  1.00  0.00     0.173 A 
ATOM     97  C   UNL A   1      44.721  27.875  36.775  1.00  0.00     0.173 A 
ATOM     98  F   UNL A   1      46.116  30.757  35.049  1.00  0.00    -0.203 F 
ATOM     99  C   UNL A   1      47.191  28.997  36.185  1.00  0.00     0.198 A 
ATOM    100  C   UNL A   1      45.891  27.267  37.223  1.00  0.00     0.198 A 
ATOM    101  F   UNL A   1      43.543  27.307  37.075  1.00  0.00    -0.203 F 
ATOM    102  F   UNL A   1      48.382  29.524  35.870  1.00  0.00    -0.200 F 
ATOM    103  C   UNL A   1      47.124  27.824  36.921  1.00  0.00     0.200 A 
ATOM    104  F   UNL A   1      45.824  26.141  37.947  1.00  0.00    -0.200 F 
ATOM    105  F   UNL A   1      48.249  27.227  37.336  1.00  0.00    -0.200 F 
ENDBRANCH  72  95
ENDBRANCH  46  47
ENDBRANCH  39  41
ENDBRANCH  38  39
ENDBRANCH  37  38
ENDBRANCH  36  37
ENDBRANCH  35  36
ENDBRANCH  34  35
ENDBRANCH   1  34
TORSDOF 22
ENDMDL
MODEL 3
REMARK VINA RESULT:     -11.5      1.757      7.203
REMARK SMILES COc1cc(/C=C2/C(=O)N(c3ccccc3)C(=O)N=C2OCCOCCOCCOC(=O)c2ccc(-c3c4nc(c(-c5c(F)c(F)c(F)c(F)c5F)c5ccc([nH]5)c(-c5c(F)c(F)c(F)c(F)c5F)c5nc(c(-c6c(F)c(F)c(F)c(F)c6F)c6ccc3[nH]6)C=C5)C=C4)cc2)ccc1OCC(=O)[O-]
REMARK SMILES IDX 25 1 24 2 23 3 22 4 21 5 20 6 6 7 7 8 8 9 9 10 10 11 19 12
REMARK SMILES IDX 17 13 18 14 5 15 3 16 4 17 98 18 97 19 96 20 2 21 1 22 99 23
REMARK SMILES IDX 100 24 101 25 102 26 103 27 11 28 12 29 16 30 13 31 15 32
REMARK SMILES IDX 14 33 26 34 27 35 28 36 29 37 30 38 31 39 32 40 33 41 34 42
REMARK SMILES IDX 95 43 35 44 94 45 36 46 37 47 38 48 88 49 39 50 93 51 87 52
REMARK SMILES IDX 89 53 40 54 92 55 86 56 85 57 41 59 73 60 53 61 72 62 54 63
REMARK SMILES IDX 57 64 71 65 90 66 55 67 56 68 70 70 91 71 58 72 42 73 43 74
REMARK SMILES IDX 51 75 44 76 45 77 49 78 52 79 46 80 47 81 50 82 48 83 74 84
REMARK SMILES IDX 75 85 83 86 76 87 77 88 81 89 84 90 78 91 79 92 82 93 80 94
REMARK SMILES IDX 59 95 60 96 68 97 61 98 62 99 66 100 69 101 63 102 64 103
REMARK SMILES IDX 67 104 65 105
REMARK H PARENT 89 58 57 69
REMARK Flexibility Score: inf
ROOT
ATOM      1  C   UNL A   1      33.893  27.642  25.475  1.00  0.00     0.188 C 
ENDROOT
BRANCH   1   2
ATOM      2  O   UNL A   1      34.523  28.218  24.335  1.00  0.00    -0.376 OA
BRANCH   2   3
ATOM      3  C   UNL A   1      33.601  28.617  23.308  1.00  0.00     0.201 C 
BRANCH   3   4
ATOM      4  C   UNL A   1      33.648  27.725  22.044  1.00  0.00     0.260 C 
BRANCH   4   5
ATOM      5  O   UNL A   1      32.515  26.840  21.843  1.00  0.00    -0.475 OA
BRANCH   5   6
ATOM      6  C   UNL A   1      32.577  25.614  22.379  1.00  0.00     0.231 C 
ATOM      7  C   UNL A   1      30.579  26.102  23.933  1.00  0.00     0.027 C 
ATOM      8  C   UNL A   1      31.505  25.299  23.339  1.00  0.00     0.103 C 
ATOM      9  C   UNL A   1      31.568  23.876  23.844  1.00  0.00     0.272 C 
ATOM     10  O   UNL A   1      30.659  23.417  24.535  1.00  0.00    -0.268 OA
ATOM     11  N   UNL A   1      32.747  23.187  23.542  1.00  0.00    -0.226 N 
ATOM     12  N   UNL A   1      33.587  24.879  22.105  1.00  0.00    -0.156 NA
ATOM     13  C   UNL A   1      33.786  23.710  22.768  1.00  0.00     0.358 C 
ATOM     14  O   UNL A   1      34.883  23.165  22.656  1.00  0.00    -0.245 OA
BRANCH   7  15
ATOM     15  C   UNL A   1      30.139  27.535  23.878  1.00  0.00    -0.021 A 
ATOM     16  C   UNL A   1      30.282  29.957  24.346  1.00  0.00     0.161 A 
ATOM     17  C   UNL A   1      30.673  28.621  24.584  1.00  0.00     0.058 A 
ATOM     18  C   UNL A   1      29.230  30.226  23.469  1.00  0.00     0.161 A 
ATOM     19  C   UNL A   1      28.600  29.146  22.847  1.00  0.00     0.051 A 
ATOM     20  C   UNL A   1      29.054  27.831  23.035  1.00  0.00     0.012 A 
BRANCH  16  21
ATOM     21  O   UNL A   1      30.994  31.012  24.850  1.00  0.00    -0.493 OA
ATOM     22  C   UNL A   1      30.642  31.481  26.144  1.00  0.00     0.278 C 
ENDBRANCH  16  21
BRANCH  18  23
ATOM     23  O   UNL A   1      28.692  31.436  23.127  1.00  0.00    -0.484 OA
BRANCH  23  24
ATOM     24  C   UNL A   1      29.058  32.067  21.908  1.00  0.00     0.282 C 
BRANCH  24  25
ATOM     25  C   UNL A   1      27.952  32.468  20.936  1.00  0.00     0.079 C 
ATOM     26  O   UNL A   1      27.416  33.567  20.877  1.00  0.00    -0.546 OA
ATOM     27  O   UNL A   1      27.607  31.507  20.057  1.00  0.00    -0.546 OA
ENDBRANCH  24  25
ENDBRANCH  23  24
ENDBRANCH  18  23
ENDBRANCH   7  15
BRANCH  11  28
ATOM     28  C   UNL A   1      32.926  21.865  24.059  1.00  0.00     0.054 A 
ATOM     29  C   UNL A   1      32.463  20.747  23.351  1.00  0.00     0.027 A 
ATOM     30  C   UNL A   1      33.469  21.684  25.335  1.00  0.00     0.027 A 
ATOM     31  C   UNL A   1      32.520  19.473  23.916  1.00  0.00     0.002 A 
ATOM     32  C   UNL A   1      33.492  20.412  25.914  1.00  0.00     0.002 A 
ATOM     33  C   UNL A   1      33.013  19.310  25.207  1.00  0.00     0.000 A 
ENDBRANCH  11  28
ENDBRANCH   5   6
ENDBRANCH   4   5
ENDBRANCH   3   4
ENDBRANCH   2   3
ENDBRANCH   1   2
BRANCH   1  34
ATOM     34  C   UNL A   1      33.601  28.554  26.676  1.00  0.00     0.188 C 
BRANCH  34  35
ATOM     35  O   UNL A   1      34.096  29.877  26.660  1.00  0.00    -0.376 OA
BRANCH  35  36
ATOM     36  C   UNL A   1      33.646  30.745  27.694  1.00  0.00     0.202 C 
BRANCH  36  37
ATOM     37  C   UNL A   1      34.132  32.200  27.651  1.00  0.00     0.261 C 
BRANCH  37  38
ATOM     38  O   UNL A   1      33.065  33.173  27.580  1.00  0.00    -0.460 OA
BRANCH  38  39
ATOM     39  C   UNL A   1      33.227  34.260  28.376  1.00  0.00     0.338 C 
ATOM     40  O   UNL A   1      32.538  35.265  28.408  1.00  0.00    -0.246 OA
BRANCH  39  41
ATOM     41  C   UNL A   1      34.311  34.043  29.354  1.00  0.00     0.060 A 
ATOM     42  C   UNL A   1      35.630  34.296  28.955  1.00  0.00     0.016 A 
ATOM     43  C   UNL A   1      34.050  33.423  30.577  1.00  0.00     0.016 A 
ATOM     44  C   UNL A   1      36.696  33.891  29.763  1.00  0.00     0.010 A 
ATOM     45  C   UNL A   1      35.120  33.000  31.376  1.00  0.00     0.010 A 
ATOM     46  C   UNL A   1      36.447  33.199  30.956  1.00  0.00    -0.014 A 
BRANCH  46  47
ATOM     47  C   UNL A   1      37.570  32.529  31.663  1.00  0.00     0.031 A 
ATOM     48  C   UNL A   1      38.307  31.415  30.966  1.00  0.00     0.074 A 
ATOM     49  C   UNL A   1      37.945  32.913  32.896  1.00  0.00     0.049 A 
ATOM     50  N   UNL A   1      39.314  30.691  31.387  1.00  0.00    -0.248 NA
ATOM     51  C   UNL A   1      37.836  31.062  29.617  1.00  0.00     0.031 C 
ATOM     52  C   UNL A   1      37.323  33.981  33.673  1.00  0.00     0.029 A 
ATOM     53  N   UNL A   1      38.961  32.458  33.702  1.00  0.00    -0.354 N 
ATOM     54  C   UNL A   1      39.571  29.777  30.373  1.00  0.00     0.074 A 
ATOM     55  C   UNL A   1      38.631  30.048  29.307  1.00  0.00     0.031 C 
ATOM     56  C   UNL A   1      38.000  34.131  34.826  1.00  0.00     0.029 A 
ATOM     57  C   UNL A   1      39.075  33.143  34.888  1.00  0.00     0.049 A 
ATOM     58  H   UNL A   1      39.552  31.710  33.453  1.00  0.00     0.167 HD
ATOM     59  C   UNL A   1      40.493  28.785  30.343  1.00  0.00     0.037 A 
ATOM     60  C   UNL A   1      39.950  32.986  35.901  1.00  0.00     0.037 A 
ATOM     61  C   UNL A   1      41.432  28.512  31.399  1.00  0.00     0.049 A 
ATOM     62  C   UNL A   1      40.981  31.884  35.828  1.00  0.00     0.074 A 
ATOM     63  C   UNL A   1      42.398  27.521  31.460  1.00  0.00     0.029 A 
ATOM     64  N   UNL A   1      41.519  29.228  32.582  1.00  0.00    -0.354 N 
ATOM     65  N   UNL A   1      41.230  31.041  34.856  1.00  0.00    -0.248 NA
ATOM     66  C   UNL A   1      41.841  31.704  37.008  1.00  0.00     0.031 C 
ATOM     67  C   UNL A   1      43.040  27.611  32.699  1.00  0.00     0.029 A 
ATOM     68  C   UNL A   1      42.510  28.691  33.386  1.00  0.00     0.049 A 
ATOM     69  H   UNL A   1      40.960  30.005  32.816  1.00  0.00     0.167 HD
ATOM     70  C   UNL A   1      42.282  30.246  35.300  1.00  0.00     0.074 A 
ATOM     71  C   UNL A   1      42.647  30.729  36.613  1.00  0.00     0.031 C 
ATOM     72  C   UNL A   1      42.879  29.197  34.683  1.00  0.00     0.037 A 
BRANCH  59  73
ATOM     73  C   UNL A   1      40.501  27.877  29.151  1.00  0.00     0.064 A 
ATOM     74  C   UNL A   1      39.690  26.735  29.083  1.00  0.00     0.173 A 
ATOM     75  C   UNL A   1      41.298  28.186  28.037  1.00  0.00     0.173 A 
ATOM     76  F   UNL A   1      38.922  26.389  30.127  1.00  0.00    -0.203 F 
ATOM     77  C   UNL A   1      39.684  25.931  27.946  1.00  0.00     0.198 A 
ATOM     78  C   UNL A   1      41.271  27.394  26.894  1.00  0.00     0.198 A 
ATOM     79  F   UNL A   1      42.090  29.269  28.053  1.00  0.00    -0.203 F 
ATOM     80  F   UNL A   1      38.924  24.828  27.911  1.00  0.00    -0.200 F 
ATOM     81  C   UNL A   1      40.467  26.265  26.850  1.00  0.00     0.200 A 
ATOM     82  F   UNL A   1      42.020  27.725  25.833  1.00  0.00    -0.200 F 
ATOM     83  F   UNL A   1      40.451  25.497  25.753  1.00  0.00    -0.200 F 
ENDBRANCH  59  73
BRANCH  60  84
ATOM     84  C   UNL A   1      39.912  33.889  37.083  1.00  0.00     0.064 A 
ATOM     85  C   UNL A   1      39.044  33.625  38.155  1.00  0.00     0.173 A 
ATOM     86  C   UNL A   1      40.681  35.060  37.143  1.00  0.00     0.173 A 
ATOM     87  F   UNL A   1      38.265  32.534  38.132  1.00  0.00    -0.203 F 
ATOM     88  C   UNL A   1      38.922  34.515  39.220  1.00  0.00     0.198 A 
ATOM     89  C   UNL A   1      40.583  35.931  38.227  1.00  0.00     0.198 A 
ATOM     90  F   UNL A   1      41.519  35.365  36.142  1.00  0.00    -0.203 F 
ATOM     91  F   UNL A   1      38.031  34.275  40.192  1.00  0.00    -0.200 F 
ATOM     92  C   UNL A   1      39.696  35.665  39.257  1.00  0.00     0.200 A 
ATOM     93  F   UNL A   1      41.336  37.039  38.261  1.00  0.00    -0.200 F 
ATOM     94  F   UNL A   1      39.568  36.528  40.275  1.00  0.00    -0.200 F 
ENDBRANCH  60  84
BRANCH  72  95
ATOM     95  C   UNL A   1      44.010  28.517  35.401  1.00  0.00     0.064 A 
ATOM     96  C   UNL A   1      45.320  29.014  35.345  1.00  0.00     0.173 A 
ATOM     97  C   UNL A   1      43.769  27.387  36.198  1.00  0.00     0.173 A 
ATOM     98  F   UNL A   1      45.604  30.084  34.589  1.00  0.00    -0.203 F 
ATOM     99  C   UNL A   1      46.353  28.388  36.040  1.00  0.00     0.198 A 
ATOM    100  C   UNL A   1      44.798  26.783  36.915  1.00  0.00     0.198 A 
ATOM    101  F   UNL A   1      42.531  26.879  36.294  1.00  0.00    -0.203 F 
ATOM    102  F   UNL A   1      47.605  28.854  35.935  1.00  0.00    -0.200 F 
ATOM    103  C   UNL A   1      46.091  27.279  36.829  1.00  0.00     0.200 A 
ATOM    104  F   UNL A   1      44.540  25.720  37.689  1.00  0.00    -0.200 F 
ATOM    105  F   UNL A   1      47.083  26.684  37.504  1.00  0.00    -0.200 F 
ENDBRANCH  72  95
ENDBRANCH  46  47
ENDBRANCH  39  41
ENDBRANCH  38  39
ENDBRANCH  37  38
ENDBRANCH  36  37
ENDBRANCH  35  36
ENDBRANCH  34  35
ENDBRANCH   1  34
TORSDOF 22
ENDMDL
