MODEL 1
REMARK VINA RESULT:     -10.6      0.000      0.000
REMARK SMILES C[C@H](NC(=O)[C@@H](C)Oc1ccc(Cl)cc1Br)C(=O)OCCOCCOCCOC(=O)c1ccc(-c2c3nc(c(-c4c(F)c(F)c(F)c(F)c4F)c4ccc([nH]4)c(-c4c(F)c(F)c(F)c(F)c4F)c4nc(c(-c5c(F)c(F)c(F)c(F)c5F)c5ccc2[nH]5)C=C4)C=C3)cc1
REMARK SMILES IDX 23 1 22 2 21 3 20 4 19 5 17 6 18 7 2 8 1 9 3 10 4 11 5 13
REMARK SMILES IDX 6 14 7 15 8 16 9 17 10 18 15 19 11 20 14 21 16 22 12 23
REMARK SMILES IDX 13 24 24 25 25 26 26 27 27 28 28 29 29 30 30 31 31 32 32 33
REMARK SMILES IDX 93 34 33 35 92 36 34 37 35 38 36 39 86 40 37 41 91 42 85 43
REMARK SMILES IDX 87 44 38 45 90 46 84 47 83 48 39 50 71 51 51 52 70 53 52 54
REMARK SMILES IDX 55 55 69 56 88 57 53 58 54 59 68 61 89 62 56 63 40 64 41 65
REMARK SMILES IDX 49 66 42 67 43 68 47 69 50 70 44 71 45 72 48 73 46 74 72 75
REMARK SMILES IDX 73 76 81 77 74 78 75 79 79 80 82 81 76 82 77 83 80 84 78 85
REMARK SMILES IDX 57 86 58 87 66 88 59 89 60 90 64 91 67 92 61 93 62 94 65 95
REMARK SMILES IDX 63 96
REMARK H PARENT 3 12 87 49 55 60
REMARK Flexibility Score: inf
ROOT
ATOM      1  C   UNL A   1      36.596  23.310  25.000  1.00  0.00     0.188 C 
ENDROOT
BRANCH   1   2
ATOM      2  O   UNL A   1      35.549  23.968  24.305  1.00  0.00    -0.376 OA
BRANCH   2   3
ATOM      3  C   UNL A   1      34.908  23.372  23.186  1.00  0.00     0.202 C 
BRANCH   3   4
ATOM      4  C   UNL A   1      33.643  22.519  23.366  1.00  0.00     0.261 C 
BRANCH   4   5
ATOM      5  O   UNL A   1      33.700  21.550  24.417  1.00  0.00    -0.462 OA
BRANCH   5   6
ATOM      6  C   UNL A   1      32.761  21.674  25.389  1.00  0.00     0.328 C 
ATOM      7  O   UNL A   1      31.672  21.111  25.387  1.00  0.00    -0.250 OA
BRANCH   6   8
ATOM      8  C   UNL A   1      33.179  22.686  26.470  1.00  0.00     0.189 C 
ATOM      9  C   UNL A   1      34.057  21.856  27.389  1.00  0.00     0.043 C 
BRANCH   8  10
ATOM     10  N   UNL A   1      32.027  23.397  27.073  1.00  0.00    -0.340 N 
ATOM     11  C   UNL A   1      30.910  23.967  26.541  1.00  0.00     0.261 C 
ATOM     12  H   UNL A   1      32.079  23.472  28.053  1.00  0.00     0.164 HD
ATOM     13  O   UNL A   1      29.830  23.710  27.084  1.00  0.00    -0.271 OA
BRANCH  11  14
ATOM     14  C   UNL A   1      30.979  25.016  25.403  1.00  0.00     0.258 C 
ATOM     15  C   UNL A   1      30.648  24.283  24.087  1.00  0.00     0.064 C 
BRANCH  14  16
ATOM     16  O   UNL A   1      30.428  26.328  25.398  1.00  0.00    -0.480 OA
BRANCH  16  17
ATOM     17  C   UNL A   1      31.200  27.378  25.800  1.00  0.00     0.134 A 
ATOM     18  C   UNL A   1      31.777  27.455  27.068  1.00  0.00     0.049 A 
ATOM     19  C   UNL A   1      31.381  28.439  24.898  1.00  0.00     0.061 A 
ATOM     20  C   UNL A   1      32.344  28.656  27.499  1.00  0.00     0.024 A 
ATOM     21  C   UNL A   1      31.941  29.642  25.327  1.00  0.00     0.040 A 
ATOM     22  Br  UNL A   1      30.749  28.336  23.107  1.00  0.00    -0.047 Br
ATOM     23  C   UNL A   1      32.379  29.757  26.643  1.00  0.00     0.042 A 
ATOM     24  Cl  UNL A   1      32.930  31.276  27.232  1.00  0.00    -0.084 Cl
ENDBRANCH  16  17
ENDBRANCH  14  16
ENDBRANCH  11  14
ENDBRANCH   8  10
ENDBRANCH   6   8
ENDBRANCH   5   6
ENDBRANCH   4   5
ENDBRANCH   3   4
ENDBRANCH   2   3
ENDBRANCH   1   2
BRANCH   1  25
ATOM     25  C   UNL A   1      37.210  22.001  24.483  1.00  0.00     0.188 C 
BRANCH  25  26
ATOM     26  O   UNL A   1      36.857  20.839  25.196  1.00  0.00    -0.376 OA
BRANCH  26  27
ATOM     27  C   UNL A   1      37.617  19.658  24.948  1.00  0.00     0.202 C 
BRANCH  27  28
ATOM     28  C   UNL A   1      39.100  19.574  25.385  1.00  0.00     0.261 C 
BRANCH  28  29
ATOM     29  O   UNL A   1      39.487  20.364  26.527  1.00  0.00    -0.460 OA
BRANCH  29  30
ATOM     30  C   UNL A   1      40.814  20.524  26.743  1.00  0.00     0.338 C 
ATOM     31  O   UNL A   1      41.704  19.756  26.406  1.00  0.00    -0.246 OA
BRANCH  30  32
ATOM     32  C   UNL A   1      41.053  21.916  27.207  1.00  0.00     0.060 A 
ATOM     33  C   UNL A   1      40.412  22.962  26.525  1.00  0.00     0.016 A 
ATOM     34  C   UNL A   1      41.873  22.199  28.301  1.00  0.00     0.016 A 
ATOM     35  C   UNL A   1      40.624  24.289  26.902  1.00  0.00     0.010 A 
ATOM     36  C   UNL A   1      42.107  23.535  28.662  1.00  0.00     0.010 A 
ATOM     37  C   UNL A   1      41.515  24.590  27.940  1.00  0.00    -0.014 A 
BRANCH  37  38
ATOM     38  C   UNL A   1      41.968  25.997  28.121  1.00  0.00     0.031 A 
ATOM     39  C   UNL A   1      43.316  26.395  27.575  1.00  0.00     0.074 A 
ATOM     40  C   UNL A   1      41.183  26.927  28.693  1.00  0.00     0.049 A 
ATOM     41  N   UNL A   1      43.917  27.559  27.599  1.00  0.00    -0.248 NA
ATOM     42  C   UNL A   1      44.088  25.334  26.910  1.00  0.00     0.031 C 
ATOM     43  C   UNL A   1      39.846  26.692  29.232  1.00  0.00     0.029 A 
ATOM     44  N   UNL A   1      41.406  28.267  28.917  1.00  0.00    -0.354 N 
ATOM     45  C   UNL A   1      45.131  27.370  26.947  1.00  0.00     0.074 A 
ATOM     46  C   UNL A   1      45.202  25.972  26.583  1.00  0.00     0.031 C 
ATOM     47  C   UNL A   1      39.370  27.846  29.735  1.00  0.00     0.029 A 
ATOM     48  C   UNL A   1      40.378  28.894  29.577  1.00  0.00     0.049 A 
ATOM     49  H   UNL A   1      42.224  28.731  28.629  1.00  0.00     0.167 HD
ATOM     50  C   UNL A   1      46.092  28.280  26.659  1.00  0.00     0.037 A 
ATOM     51  C   UNL A   1      40.272  30.163  30.023  1.00  0.00     0.037 A 
ATOM     52  C   UNL A   1      46.034  29.672  27.029  1.00  0.00     0.049 A 
ATOM     53  C   UNL A   1      41.391  31.142  29.757  1.00  0.00     0.074 A 
ATOM     54  C   UNL A   1      46.964  30.669  26.787  1.00  0.00     0.029 A 
ATOM     55  N   UNL A   1      44.992  30.261  27.727  1.00  0.00    -0.354 N 
ATOM     56  N   UNL A   1      42.523  30.959  29.122  1.00  0.00    -0.248 NA
ATOM     57  C   UNL A   1      41.206  32.511  30.261  1.00  0.00     0.031 C 
ATOM     58  C   UNL A   1      46.509  31.848  27.386  1.00  0.00     0.029 A 
ATOM     59  C   UNL A   1      45.265  31.604  27.943  1.00  0.00     0.049 A 
ATOM     60  H   UNL A   1      44.178  29.795  28.026  1.00  0.00     0.167 HD
ATOM     61  C   UNL A   1      43.169  32.190  29.126  1.00  0.00     0.074 A 
ATOM     62  C   UNL A   1      42.291  33.119  29.802  1.00  0.00     0.031 C 
ATOM     63  C   UNL A   1      44.385  32.522  28.620  1.00  0.00     0.037 A 
BRANCH  50  64
ATOM     64  C   UNL A   1      47.304  27.795  25.915  1.00  0.00     0.064 A 
ATOM     65  C   UNL A   1      47.355  27.793  24.513  1.00  0.00     0.173 A 
ATOM     66  C   UNL A   1      48.444  27.366  26.613  1.00  0.00     0.173 A 
ATOM     67  F   UNL A   1      46.288  28.179  23.798  1.00  0.00    -0.203 F 
ATOM     68  C   UNL A   1      48.491  27.355  23.836  1.00  0.00     0.198 A 
ATOM     69  C   UNL A   1      49.591  26.961  25.933  1.00  0.00     0.198 A 
ATOM     70  F   UNL A   1      48.452  27.351  27.954  1.00  0.00    -0.203 F 
ATOM     71  F   UNL A   1      48.498  27.316  22.497  1.00  0.00    -0.200 F 
ATOM     72  C   UNL A   1      49.610  26.948  24.548  1.00  0.00     0.200 A 
ATOM     73  F   UNL A   1      50.677  26.582  26.621  1.00  0.00    -0.200 F 
ATOM     74  F   UNL A   1      50.707  26.538  23.895  1.00  0.00    -0.200 F 
ENDBRANCH  50  64
BRANCH  51  75
ATOM     75  C   UNL A   1      39.069  30.587  30.792  1.00  0.00     0.064 A 
ATOM     76  C   UNL A   1      39.005  30.449  32.186  1.00  0.00     0.173 A 
ATOM     77  C   UNL A   1      37.936  31.095  30.137  1.00  0.00     0.173 A 
ATOM     78  F   UNL A   1      40.048  29.938  32.857  1.00  0.00    -0.203 F 
ATOM     79  C   UNL A   1      37.847  30.776  32.890  1.00  0.00     0.198 A 
ATOM     80  C   UNL A   1      36.793  31.455  30.846  1.00  0.00     0.198 A 
ATOM     81  F   UNL A   1      37.940  31.239  28.804  1.00  0.00    -0.203 F 
ATOM     82  F   UNL A   1      37.791  30.570  34.214  1.00  0.00    -0.200 F 
ATOM     83  C   UNL A   1      36.745  31.284  32.221  1.00  0.00     0.200 A 
ATOM     84  F   UNL A   1      35.733  31.955  30.196  1.00  0.00    -0.200 F 
ATOM     85  F   UNL A   1      35.631  31.595  32.898  1.00  0.00    -0.200 F 
ENDBRANCH  51  75
BRANCH  63  86
ATOM     86  C   UNL A   1      44.817  33.958  28.747  1.00  0.00     0.064 A 
ATOM     87  C   UNL A   1      45.572  34.411  29.840  1.00  0.00     0.173 A 
ATOM     88  C   UNL A   1      44.474  34.895  27.760  1.00  0.00     0.173 A 
ATOM     89  F   UNL A   1      45.920  33.562  30.819  1.00  0.00    -0.203 F 
ATOM     90  C   UNL A   1      45.925  35.754  29.963  1.00  0.00     0.198 A 
ATOM     91  C   UNL A   1      44.861  36.228  27.867  1.00  0.00     0.198 A 
ATOM     92  F   UNL A   1      43.764  34.518  26.685  1.00  0.00    -0.203 F 
ATOM     93  F   UNL A   1      46.583  36.174  31.053  1.00  0.00    -0.200 F 
ATOM     94  C   UNL A   1      45.573  36.660  28.975  1.00  0.00     0.200 A 
ATOM     95  F   UNL A   1      44.536  37.099  26.901  1.00  0.00    -0.200 F 
ATOM     96  F   UNL A   1      45.910  37.951  29.097  1.00  0.00    -0.200 F 
ENDBRANCH  63  86
ENDBRANCH  37  38
ENDBRANCH  30  32
ENDBRANCH  29  30
ENDBRANCH  28  29
ENDBRANCH  27  28
ENDBRANCH  26  27
ENDBRANCH  25  26
ENDBRANCH   1  25
TORSDOF 21
ENDMDL
MODEL 2
REMARK VINA RESULT:     -10.6      4.518      6.944
REMARK SMILES C[C@H](NC(=O)[C@@H](C)Oc1ccc(Cl)cc1Br)C(=O)OCCOCCOCCOC(=O)c1ccc(-c2c3nc(c(-c4c(F)c(F)c(F)c(F)c4F)c4ccc([nH]4)c(-c4c(F)c(F)c(F)c(F)c4F)c4nc(c(-c5c(F)c(F)c(F)c(F)c5F)c5ccc2[nH]5)C=C4)C=C3)cc1
REMARK SMILES IDX 23 1 22 2 21 3 20 4 19 5 17 6 18 7 2 8 1 9 3 10 4 11 5 13
REMARK SMILES IDX 6 14 7 15 8 16 9 17 10 18 15 19 11 20 14 21 16 22 12 23
REMARK SMILES IDX 13 24 24 25 25 26 26 27 27 28 28 29 29 30 30 31 31 32 32 33
REMARK SMILES IDX 93 34 33 35 92 36 34 37 35 38 36 39 86 40 37 41 91 42 85 43
REMARK SMILES IDX 87 44 38 45 90 46 84 47 83 48 39 50 71 51 51 52 70 53 52 54
REMARK SMILES IDX 55 55 69 56 88 57 53 58 54 59 68 61 89 62 56 63 40 64 41 65
REMARK SMILES IDX 49 66 42 67 43 68 47 69 50 70 44 71 45 72 48 73 46 74 72 75
REMARK SMILES IDX 73 76 81 77 74 78 75 79 79 80 82 81 76 82 77 83 80 84 78 85
REMARK SMILES IDX 57 86 58 87 66 88 59 89 60 90 64 91 67 92 61 93 62 94 65 95
REMARK SMILES IDX 63 96
REMARK H PARENT 3 12 87 49 55 60
REMARK Flexibility Score: inf
ROOT
ATOM      1  C   UNL A   1      40.548  21.598  26.707  1.00  0.00     0.188 C 
ENDROOT
BRANCH   1   2
ATOM      2  O   UNL A   1      39.214  21.759  26.251  1.00  0.00    -0.376 OA
BRANCH   2   3
ATOM      3  C   UNL A   1      38.494  22.965  26.466  1.00  0.00     0.202 C 
BRANCH   3   4
ATOM      4  C   UNL A   1      37.518  23.498  25.408  1.00  0.00     0.261 C 
BRANCH   4   5
ATOM      5  O   UNL A   1      36.522  22.570  24.968  1.00  0.00    -0.462 OA
BRANCH   5   6
ATOM      6  C   UNL A   1      35.926  22.858  23.782  1.00  0.00     0.328 C 
ATOM      7  O   UNL A   1      36.522  23.061  22.730  1.00  0.00    -0.250 OA
BRANCH   6   8
ATOM      8  C   UNL A   1      34.399  22.992  23.920  1.00  0.00     0.189 C 
ATOM      9  C   UNL A   1      34.022  21.760  24.721  1.00  0.00     0.043 C 
BRANCH   8  10
ATOM     10  N   UNL A   1      33.718  23.207  22.622  1.00  0.00    -0.340 N 
ATOM     11  C   UNL A   1      32.975  24.235  22.125  1.00  0.00     0.261 C 
ATOM     12  H   UNL A   1      33.825  22.458  21.992  1.00  0.00     0.164 HD
ATOM     13  O   UNL A   1      33.239  24.624  20.982  1.00  0.00    -0.271 OA
BRANCH  11  14
ATOM     14  C   UNL A   1      31.747  24.806  22.878  1.00  0.00     0.258 C 
ATOM     15  C   UNL A   1      30.980  23.607  23.473  1.00  0.00     0.064 C 
BRANCH  14  16
ATOM     16  O   UNL A   1      31.715  25.915  23.770  1.00  0.00    -0.480 OA
BRANCH  16  17
ATOM     17  C   UNL A   1      30.882  26.961  23.503  1.00  0.00     0.134 A 
ATOM     18  C   UNL A   1      29.503  26.903  23.701  1.00  0.00     0.049 A 
ATOM     19  C   UNL A   1      31.451  28.129  22.970  1.00  0.00     0.061 A 
ATOM     20  C   UNL A   1      28.686  27.909  23.182  1.00  0.00     0.024 A 
ATOM     21  C   UNL A   1      30.637  29.133  22.444  1.00  0.00     0.040 A 
ATOM     22  Br  UNL A   1      33.335  28.332  22.813  1.00  0.00    -0.047 Br
ATOM     23  C   UNL A   1      29.255  28.994  22.514  1.00  0.00     0.042 A 
ATOM     24  Cl  UNL A   1      28.238  30.145  21.739  1.00  0.00    -0.084 Cl
ENDBRANCH  16  17
ENDBRANCH  14  16
ENDBRANCH  11  14
ENDBRANCH   8  10
ENDBRANCH   6   8
ENDBRANCH   5   6
ENDBRANCH   4   5
ENDBRANCH   3   4
ENDBRANCH   2   3
ENDBRANCH   1   2
BRANCH   1  25
ATOM     25  C   UNL A   1      41.746  21.738  25.758  1.00  0.00     0.188 C 
BRANCH  25  26
ATOM     26  O   UNL A   1      42.924  21.080  26.162  1.00  0.00    -0.376 OA
BRANCH  26  27
ATOM     27  C   UNL A   1      44.167  21.617  25.710  1.00  0.00     0.202 C 
BRANCH  27  28
ATOM     28  C   UNL A   1      44.233  22.454  24.409  1.00  0.00     0.261 C 
BRANCH  28  29
ATOM     29  O   UNL A   1      43.701  23.792  24.471  1.00  0.00    -0.460 OA
BRANCH  29  30
ATOM     30  C   UNL A   1      44.488  24.742  25.030  1.00  0.00     0.338 C 
ATOM     31  O   UNL A   1      45.604  25.075  24.656  1.00  0.00    -0.246 OA
BRANCH  30  32
ATOM     32  C   UNL A   1      43.674  25.519  26.002  1.00  0.00     0.060 A 
ATOM     33  C   UNL A   1      43.974  26.878  26.182  1.00  0.00     0.016 A 
ATOM     34  C   UNL A   1      42.621  24.940  26.712  1.00  0.00     0.016 A 
ATOM     35  C   UNL A   1      43.259  27.646  27.102  1.00  0.00     0.010 A 
ATOM     36  C   UNL A   1      41.920  25.706  27.656  1.00  0.00     0.010 A 
ATOM     37  C   UNL A   1      42.260  27.053  27.885  1.00  0.00    -0.014 A 
BRANCH  37  38
ATOM     38  C   UNL A   1      41.731  27.792  29.065  1.00  0.00     0.031 A 
ATOM     39  C   UNL A   1      42.443  27.644  30.386  1.00  0.00     0.074 A 
ATOM     40  C   UNL A   1      40.686  28.633  28.965  1.00  0.00     0.049 A 
ATOM     41  N   UNL A   1      42.178  28.195  31.545  1.00  0.00    -0.248 NA
ATOM     42  C   UNL A   1      43.613  26.753  30.398  1.00  0.00     0.031 C 
ATOM     43  C   UNL A   1      39.927  28.900  27.746  1.00  0.00     0.029 A 
ATOM     44  N   UNL A   1      40.080  29.419  29.918  1.00  0.00    -0.354 N 
ATOM     45  C   UNL A   1      43.153  27.724  32.418  1.00  0.00     0.074 A 
ATOM     46  C   UNL A   1      43.983  26.806  31.670  1.00  0.00     0.031 C 
ATOM     47  C   UNL A   1      38.949  29.780  28.026  1.00  0.00     0.029 A 
ATOM     48  C   UNL A   1      38.996  30.119  29.448  1.00  0.00     0.049 A 
ATOM     49  H   UNL A   1      40.395  29.476  30.848  1.00  0.00     0.167 HD
ATOM     50  C   UNL A   1      43.352  28.040  33.720  1.00  0.00     0.037 A 
ATOM     51  C   UNL A   1      38.127  30.923  30.096  1.00  0.00     0.037 A 
ATOM     52  C   UNL A   1      42.522  28.944  34.476  1.00  0.00     0.049 A 
ATOM     53  C   UNL A   1      38.325  31.200  31.567  1.00  0.00     0.074 A 
ATOM     54  C   UNL A   1      42.642  29.321  35.803  1.00  0.00     0.029 A 
ATOM     55  N   UNL A   1      41.413  29.606  33.973  1.00  0.00    -0.354 N 
ATOM     56  N   UNL A   1      39.261  30.768  32.378  1.00  0.00    -0.248 NA
ATOM     57  C   UNL A   1      37.349  32.094  32.210  1.00  0.00     0.031 C 
ATOM     58  C   UNL A   1      41.574  30.168  36.117  1.00  0.00     0.029 A 
ATOM     59  C   UNL A   1      40.826  30.373  34.969  1.00  0.00     0.049 A 
ATOM     60  H   UNL A   1      41.089  29.541  33.046  1.00  0.00     0.167 HD
ATOM     61  C   UNL A   1      39.002  31.355  33.612  1.00  0.00     0.074 A 
ATOM     62  C   UNL A   1      37.839  32.197  33.436  1.00  0.00     0.031 C 
ATOM     63  C   UNL A   1      39.666  31.207  34.787  1.00  0.00     0.037 A 
BRANCH  50  64
ATOM     64  C   UNL A   1      44.511  27.389  34.421  1.00  0.00     0.064 A 
ATOM     65  C   UNL A   1      44.381  26.147  35.058  1.00  0.00     0.173 A 
ATOM     66  C   UNL A   1      45.777  27.996  34.419  1.00  0.00     0.173 A 
ATOM     67  F   UNL A   1      43.190  25.531  35.103  1.00  0.00    -0.203 F 
ATOM     68  C   UNL A   1      45.469  25.547  35.691  1.00  0.00     0.198 A 
ATOM     69  C   UNL A   1      46.869  27.377  35.022  1.00  0.00     0.198 A 
ATOM     70  F   UNL A   1      45.958  29.182  33.820  1.00  0.00    -0.203 F 
ATOM     71  F   UNL A   1      45.308  24.383  36.335  1.00  0.00    -0.200 F 
ATOM     72  C   UNL A   1      46.713  26.159  35.664  1.00  0.00     0.200 A 
ATOM     73  F   UNL A   1      48.074  27.963  34.983  1.00  0.00    -0.200 F 
ATOM     74  F   UNL A   1      47.761  25.575  36.262  1.00  0.00    -0.200 F 
ENDBRANCH  50  64
BRANCH  51  75
ATOM     75  C   UNL A   1      36.970  31.513  29.369  1.00  0.00     0.064 A 
ATOM     76  C   UNL A   1      36.897  32.887  29.101  1.00  0.00     0.173 A 
ATOM     77  C   UNL A   1      35.886  30.716  28.970  1.00  0.00     0.173 A 
ATOM     78  F   UNL A   1      37.892  33.700  29.490  1.00  0.00    -0.203 F 
ATOM     79  C   UNL A   1      35.775  33.445  28.488  1.00  0.00     0.198 A 
ATOM     80  C   UNL A   1      34.781  31.268  28.326  1.00  0.00     0.198 A 
ATOM     81  F   UNL A   1      35.899  29.396  29.209  1.00  0.00    -0.203 F 
ATOM     82  F   UNL A   1      35.704  34.771  28.306  1.00  0.00    -0.200 F 
ATOM     83  C   UNL A   1      34.722  32.634  28.097  1.00  0.00     0.200 A 
ATOM     84  F   UNL A   1      33.769  30.479  27.940  1.00  0.00    -0.200 F 
ATOM     85  F   UNL A   1      33.642  33.170  27.511  1.00  0.00    -0.200 F 
ENDBRANCH  51  75
BRANCH  63  86
ATOM     86  C   UNL A   1      39.169  32.001  35.965  1.00  0.00     0.064 A 
ATOM     87  C   UNL A   1      38.237  31.477  36.873  1.00  0.00     0.173 A 
ATOM     88  C   UNL A   1      39.635  33.306  36.191  1.00  0.00     0.173 A 
ATOM     89  F   UNL A   1      37.749  30.239  36.700  1.00  0.00    -0.203 F 
ATOM     90  C   UNL A   1      37.755  32.244  37.932  1.00  0.00     0.198 A 
ATOM     91  C   UNL A   1      39.181  34.056  37.273  1.00  0.00     0.198 A 
ATOM     92  F   UNL A   1      40.538  33.857  35.364  1.00  0.00    -0.203 F 
ATOM     93  F   UNL A   1      36.809  31.745  38.741  1.00  0.00    -0.200 F 
ATOM     94  C   UNL A   1      38.229  33.530  38.134  1.00  0.00     0.200 A 
ATOM     95  F   UNL A   1      39.656  35.292  37.477  1.00  0.00    -0.200 F 
ATOM     96  F   UNL A   1      37.762  34.267  39.150  1.00  0.00    -0.200 F 
ENDBRANCH  63  86
ENDBRANCH  37  38
ENDBRANCH  30  32
ENDBRANCH  29  30
ENDBRANCH  28  29
ENDBRANCH  27  28
ENDBRANCH  26  27
ENDBRANCH  25  26
ENDBRANCH   1  25
TORSDOF 21
ENDMDL
MODEL 3
REMARK VINA RESULT:     -10.4      4.790      7.469
REMARK SMILES C[C@H](NC(=O)[C@@H](C)Oc1ccc(Cl)cc1Br)C(=O)OCCOCCOCCOC(=O)c1ccc(-c2c3nc(c(-c4c(F)c(F)c(F)c(F)c4F)c4ccc([nH]4)c(-c4c(F)c(F)c(F)c(F)c4F)c4nc(c(-c5c(F)c(F)c(F)c(F)c5F)c5ccc2[nH]5)C=C4)C=C3)cc1
REMARK SMILES IDX 23 1 22 2 21 3 20 4 19 5 17 6 18 7 2 8 1 9 3 10 4 11 5 13
REMARK SMILES IDX 6 14 7 15 8 16 9 17 10 18 15 19 11 20 14 21 16 22 12 23
REMARK SMILES IDX 13 24 24 25 25 26 26 27 27 28 28 29 29 30 30 31 31 32 32 33
REMARK SMILES IDX 93 34 33 35 92 36 34 37 35 38 36 39 86 40 37 41 91 42 85 43
REMARK SMILES IDX 87 44 38 45 90 46 84 47 83 48 39 50 71 51 51 52 70 53 52 54
REMARK SMILES IDX 55 55 69 56 88 57 53 58 54 59 68 61 89 62 56 63 40 64 41 65
REMARK SMILES IDX 49 66 42 67 43 68 47 69 50 70 44 71 45 72 48 73 46 74 72 75
REMARK SMILES IDX 73 76 81 77 74 78 75 79 79 80 82 81 76 82 77 83 80 84 78 85
REMARK SMILES IDX 57 86 58 87 66 88 59 89 60 90 64 91 67 92 61 93 62 94 65 95
REMARK SMILES IDX 63 96
REMARK H PARENT 3 12 87 49 55 60
REMARK Flexibility Score: inf
ROOT
ATOM      1  C   UNL A   1      42.277  19.113  26.598  1.00  0.00     0.188 C 
ENDROOT
BRANCH   1   2
ATOM      2  O   UNL A   1      41.310  20.062  27.021  1.00  0.00    -0.376 OA
BRANCH   2   3
ATOM      3  C   UNL A   1      40.826  21.073  26.148  1.00  0.00     0.202 C 
BRANCH   3   4
ATOM      4  C   UNL A   1      39.358  21.518  26.198  1.00  0.00     0.261 C 
BRANCH   4   5
ATOM      5  O   UNL A   1      38.532  21.030  25.136  1.00  0.00    -0.462 OA
BRANCH   5   6
ATOM      6  C   UNL A   1      37.243  21.454  25.146  1.00  0.00     0.328 C 
ATOM      7  O   UNL A   1      36.305  20.834  25.637  1.00  0.00    -0.250 OA
BRANCH   6   8
ATOM      8  C   UNL A   1      37.063  22.777  24.382  1.00  0.00     0.189 C 
ATOM      9  C   UNL A   1      37.019  23.807  25.495  1.00  0.00     0.043 C 
BRANCH   8  10
ATOM     10  N   UNL A   1      35.932  22.745  23.426  1.00  0.00    -0.340 N 
ATOM     11  C   UNL A   1      34.654  23.214  23.487  1.00  0.00     0.261 C 
ATOM     12  H   UNL A   1      36.146  22.296  22.576  1.00  0.00     0.164 HD
ATOM     13  O   UNL A   1      34.234  23.844  22.510  1.00  0.00    -0.271 OA
BRANCH  11  14
ATOM     14  C   UNL A   1      33.697  22.854  24.651  1.00  0.00     0.258 C 
ATOM     15  C   UNL A   1      33.516  24.128  25.502  1.00  0.00     0.064 C 
BRANCH  14  16
ATOM     16  O   UNL A   1      32.478  22.123  24.578  1.00  0.00    -0.480 OA
BRANCH  16  17
ATOM     17  C   UNL A   1      32.519  20.762  24.521  1.00  0.00     0.134 A 
ATOM     18  C   UNL A   1      32.805  19.963  25.628  1.00  0.00     0.049 A 
ATOM     19  C   UNL A   1      32.299  20.153  23.273  1.00  0.00     0.061 A 
ATOM     20  C   UNL A   1      33.074  18.604  25.450  1.00  0.00     0.024 A 
ATOM     21  C   UNL A   1      32.572  18.798  23.092  1.00  0.00     0.040 A 
ATOM     22  Br  UNL A   1      31.759  21.167  21.758  1.00  0.00    -0.047 Br
ATOM     23  C   UNL A   1      33.002  18.040  24.177  1.00  0.00     0.042 A 
ATOM     24  Cl  UNL A   1      33.489  16.407  23.941  1.00  0.00    -0.084 Cl
ENDBRANCH  16  17
ENDBRANCH  14  16
ENDBRANCH  11  14
ENDBRANCH   8  10
ENDBRANCH   6   8
ENDBRANCH   5   6
ENDBRANCH   4   5
ENDBRANCH   3   4
ENDBRANCH   2   3
ENDBRANCH   1   2
BRANCH   1  25
ATOM     25  C   UNL A   1      43.178  19.368  25.382  1.00  0.00     0.188 C 
BRANCH  25  26
ATOM     26  O   UNL A   1      44.303  20.182  25.616  1.00  0.00    -0.376 OA
BRANCH  26  27
ATOM     27  C   UNL A   1      44.961  20.738  24.479  1.00  0.00     0.202 C 
BRANCH  27  28
ATOM     28  C   UNL A   1      44.513  22.104  23.904  1.00  0.00     0.261 C 
BRANCH  28  29
ATOM     29  O   UNL A   1      43.912  23.032  24.828  1.00  0.00    -0.460 OA
BRANCH  29  30
ATOM     30  C   UNL A   1      44.572  24.194  25.050  1.00  0.00     0.338 C 
ATOM     31  O   UNL A   1      45.540  24.611  24.430  1.00  0.00    -0.246 OA
BRANCH  30  32
ATOM     32  C   UNL A   1      43.767  25.024  25.984  1.00  0.00     0.060 A 
ATOM     33  C   UNL A   1      44.099  26.380  26.121  1.00  0.00     0.016 A 
ATOM     34  C   UNL A   1      42.692  24.496  26.702  1.00  0.00     0.016 A 
ATOM     35  C   UNL A   1      43.393  27.198  27.005  1.00  0.00     0.010 A 
ATOM     36  C   UNL A   1      42.000  25.312  27.611  1.00  0.00     0.010 A 
ATOM     37  C   UNL A   1      42.371  26.657  27.797  1.00  0.00    -0.014 A 
BRANCH  37  38
ATOM     38  C   UNL A   1      41.848  27.450  28.945  1.00  0.00     0.031 A 
ATOM     39  C   UNL A   1      42.572  27.371  30.264  1.00  0.00     0.074 A 
ATOM     40  C   UNL A   1      40.796  28.278  28.813  1.00  0.00     0.049 A 
ATOM     41  N   UNL A   1      42.315  27.977  31.397  1.00  0.00    -0.248 NA
ATOM     42  C   UNL A   1      43.749  26.489  30.309  1.00  0.00     0.031 C 
ATOM     43  C   UNL A   1      40.024  28.480  27.589  1.00  0.00     0.029 A 
ATOM     44  N   UNL A   1      40.193  29.106  29.732  1.00  0.00    -0.354 N 
ATOM     45  C   UNL A   1      43.300  27.556  32.283  1.00  0.00     0.074 A 
ATOM     46  C   UNL A   1      44.131  26.607  31.572  1.00  0.00     0.031 C 
ATOM     47  C   UNL A   1      39.042  29.366  27.835  1.00  0.00     0.029 A 
ATOM     48  C   UNL A   1      39.099  29.774  29.239  1.00  0.00     0.049 A 
ATOM     49  H   UNL A   1      40.517  29.210  30.656  1.00  0.00     0.167 HD
ATOM     50  C   UNL A   1      43.509  27.937  33.566  1.00  0.00     0.037 A 
ATOM     51  C   UNL A   1      38.231  30.603  29.855  1.00  0.00     0.037 A 
ATOM     52  C   UNL A   1      42.680  28.870  34.284  1.00  0.00     0.049 A 
ATOM     53  C   UNL A   1      38.441  30.954  31.309  1.00  0.00     0.074 A 
ATOM     54  C   UNL A   1      42.809  29.313  35.590  1.00  0.00     0.029 A 
ATOM     55  N   UNL A   1      41.562  29.500  33.760  1.00  0.00    -0.354 N 
ATOM     56  N   UNL A   1      39.387  30.568  32.130  1.00  0.00    -0.248 NA
ATOM     57  C   UNL A   1      37.465  31.871  31.916  1.00  0.00     0.031 C 
ATOM     58  C   UNL A   1      41.739  30.167  35.872  1.00  0.00     0.029 A 
ATOM     59  C   UNL A   1      40.979  30.311  34.723  1.00  0.00     0.049 A 
ATOM     60  H   UNL A   1      41.230  29.388  32.840  1.00  0.00     0.167 HD
ATOM     61  C   UNL A   1      39.136  31.213  33.337  1.00  0.00     0.074 A 
ATOM     62  C   UNL A   1      37.965  32.037  33.131  1.00  0.00     0.031 C 
ATOM     63  C   UNL A   1      39.811  31.127  34.511  1.00  0.00     0.037 A 
BRANCH  50  64
ATOM     64  C   UNL A   1      44.679  27.329  34.286  1.00  0.00     0.064 A 
ATOM     65  C   UNL A   1      44.564  26.117  34.985  1.00  0.00     0.173 A 
ATOM     66  C   UNL A   1      45.941  27.943  34.243  1.00  0.00     0.173 A 
ATOM     67  F   UNL A   1      43.379  25.496  35.070  1.00  0.00    -0.203 F 
ATOM     68  C   UNL A   1      45.662  25.557  35.635  1.00  0.00     0.198 A 
ATOM     69  C   UNL A   1      47.043  27.362  34.866  1.00  0.00     0.198 A 
ATOM     70  F   UNL A   1      46.108  29.100  33.586  1.00  0.00    -0.203 F 
ATOM     71  F   UNL A   1      45.516  24.424  36.337  1.00  0.00    -0.200 F 
ATOM     72  C   UNL A   1      46.901  26.175  35.567  1.00  0.00     0.200 A 
ATOM     73  F   UNL A   1      48.243  27.953  34.787  1.00  0.00    -0.200 F 
ATOM     74  F   UNL A   1      47.959  25.628  36.183  1.00  0.00    -0.200 F 
ENDBRANCH  50  64
BRANCH  51  75
ATOM     75  C   UNL A   1      37.063  31.149  29.111  1.00  0.00     0.064 A 
ATOM     76  C   UNL A   1      37.006  32.496  28.722  1.00  0.00     0.173 A 
ATOM     77  C   UNL A   1      35.954  30.342  28.816  1.00  0.00     0.173 A 
ATOM     78  F   UNL A   1      38.027  33.319  29.009  1.00  0.00    -0.203 F 
ATOM     79  C   UNL A   1      35.877  33.018  28.094  1.00  0.00     0.198 A 
ATOM     80  C   UNL A   1      34.840  30.857  28.157  1.00  0.00     0.198 A 
ATOM     81  F   UNL A   1      35.951  29.049  29.173  1.00  0.00    -0.203 F 
ATOM     82  F   UNL A   1      35.823  34.324  27.796  1.00  0.00    -0.200 F 
ATOM     83  C   UNL A   1      34.798  32.197  27.807  1.00  0.00     0.200 A 
ATOM     84  F   UNL A   1      33.803  30.056  27.872  1.00  0.00    -0.200 F 
ATOM     85  F   UNL A   1      33.710  32.701  27.207  1.00  0.00    -0.200 F 
ENDBRANCH  51  75
BRANCH  63  86
ATOM     86  C   UNL A   1      39.320  31.975  35.654  1.00  0.00     0.064 A 
ATOM     87  C   UNL A   1      38.428  31.478  36.616  1.00  0.00     0.173 A 
ATOM     88  C   UNL A   1      39.749  33.305  35.790  1.00  0.00     0.173 A 
ATOM     89  F   UNL A   1      37.976  30.217  36.530  1.00  0.00    -0.203 F 
ATOM     90  C   UNL A   1      37.949  32.292  37.641  1.00  0.00     0.198 A 
ATOM     91  C   UNL A   1      39.299  34.104  36.838  1.00  0.00     0.198 A 
ATOM     92  F   UNL A   1      40.612  33.832  34.907  1.00  0.00    -0.203 F 
ATOM     93  F   UNL A   1      37.041  31.814  38.504  1.00  0.00    -0.200 F 
ATOM     94  C   UNL A   1      38.387  33.602  37.753  1.00  0.00     0.200 A 
ATOM     95  F   UNL A   1      39.740  35.364  36.955  1.00  0.00    -0.200 F 
ATOM     96  F   UNL A   1      37.923  34.384  38.737  1.00  0.00    -0.200 F 
ENDBRANCH  63  86
ENDBRANCH  37  38
ENDBRANCH  30  32
ENDBRANCH  29  30
ENDBRANCH  28  29
ENDBRANCH  27  28
ENDBRANCH  26  27
ENDBRANCH  25  26
ENDBRANCH   1  25
TORSDOF 21
ENDMDL
