MODEL 1
REMARK VINA RESULT:     -12.0      0.000      0.000
REMARK SMILES C[C@@H]1CC[C@H](C)[N@H+]1Cc1cc2c(cc1Cl)C=C(C(=O)OCCOCCOCCOC(=O)c1ccc(-c3c4nc(c(-c5c(F)c(F)c(F)c(F)c5F)c5ccc([nH]5)c(-c5c(F)c(F)c(F)c(F)c5F)c5nc(c(-c6c(F)c(F)c(F)c(F)c6F)c6ccc3[nH]6)C=C5)C=C4)cc1)[C@@H](C(F)(F)F)O2
REMARK SMILES IDX 24 1 23 2 22 3 21 4 20 5 18 6 19 7 17 8 9 9 10 10 14 11
REMARK SMILES IDX 11 12 13 13 15 14 12 15 100 16 16 17 95 18 8 19 7 20 6 21
REMARK SMILES IDX 5 22 4 23 3 24 2 25 1 27 96 28 97 29 98 30 99 31 25 32 26 33
REMARK SMILES IDX 27 34 28 35 29 36 30 37 31 38 32 39 33 40 94 41 34 42 93 43
REMARK SMILES IDX 35 44 36 45 37 46 87 47 38 48 92 49 86 50 88 51 39 52 91 53
REMARK SMILES IDX 85 54 84 55 40 57 72 58 52 59 71 60 53 61 56 62 70 63 89 64
REMARK SMILES IDX 54 65 55 66 69 68 90 69 57 70 41 71 42 72 50 73 43 74 44 75
REMARK SMILES IDX 48 76 51 77 45 78 46 79 49 80 47 81 73 82 74 83 82 84 75 85
REMARK SMILES IDX 76 86 80 87 83 88 77 89 78 90 81 91 79 92 58 93 59 94 67 95
REMARK SMILES IDX 60 96 61 97 65 98 68 99 62 100 63 101 66 102 64 103
REMARK H PARENT 7 26 88 56 56 67
REMARK Flexibility Score: inf
ROOT
ATOM      1  C   UNL A   1      39.486  21.666  26.117  1.00  0.00     0.188 C 
ENDROOT
BRANCH   1   2
ATOM      2  O   UNL A   1      38.496  21.054  25.320  1.00  0.00    -0.376 OA
BRANCH   2   3
ATOM      3  C   UNL A   1      37.185  21.587  25.210  1.00  0.00     0.202 C 
BRANCH   3   4
ATOM      4  C   UNL A   1      35.918  20.848  25.658  1.00  0.00     0.261 C 
BRANCH   4   5
ATOM      5  O   UNL A   1      35.010  20.487  24.613  1.00  0.00    -0.460 OA
BRANCH   5   6
ATOM      6  C   UNL A   1      33.733  20.310  25.023  1.00  0.00     0.338 C 
ATOM      7  O   UNL A   1      33.296  19.367  25.667  1.00  0.00    -0.246 OA
BRANCH   6   8
ATOM      8  C   UNL A   1      32.934  21.513  24.737  1.00  0.00     0.087 C 
ATOM      9  C   UNL A   1      31.310  25.791  22.647  1.00  0.00     0.029 A 
ATOM     10  C   UNL A   1      30.992  25.090  23.836  1.00  0.00     0.058 A 
ATOM     11  C   UNL A   1      32.231  25.192  21.770  1.00  0.00     0.050 A 
ATOM     12  C   UNL A   1      31.570  23.848  24.130  1.00  0.00     0.128 A 
ATOM     13  C   UNL A   1      32.718  23.906  22.012  1.00  0.00     0.033 A 
ATOM     14  Cl  UNL A   1      32.959  26.014  20.435  1.00  0.00    -0.084 Cl
ATOM     15  C   UNL A   1      32.406  23.244  23.196  1.00  0.00     0.019 A 
ATOM     16  O   UNL A   1      31.286  23.286  25.346  1.00  0.00    -0.475 OA
ATOM     17  C   UNL A   1      33.034  21.973  23.485  1.00  0.00     0.027 C 
ATOM     18  C   UNL A   1      32.131  22.187  25.814  1.00  0.00     0.316 C 
BRANCH   9  19
ATOM     19  C   UNL A   1      30.713  27.173  22.420  1.00  0.00     0.301 C 
BRANCH  19  20
ATOM     20  N   UNL A   1      31.300  28.311  23.137  1.00  0.00    -0.327 N 
ATOM     21  C   UNL A   1      33.610  28.849  22.461  1.00  0.00     0.075 C 
ATOM     22  C   UNL A   1      32.715  28.206  23.513  1.00  0.00     0.181 C 
ATOM     23  C   UNL A   1      32.827  28.932  24.856  1.00  0.00     0.071 C 
ATOM     24  C   UNL A   1      31.451  28.753  25.459  1.00  0.00     0.071 C 
ATOM     25  C   UNL A   1      30.529  28.858  24.254  1.00  0.00     0.181 C 
ATOM     26  H   UNL A   1      31.249  28.989  22.376  1.00  0.00     0.348 HD
ATOM     27  C   UNL A   1      30.136  30.304  23.943  1.00  0.00     0.075 C 
ENDBRANCH  19  20
ENDBRANCH   9  19
BRANCH  18  28
ATOM     28  C   UNL A   1      33.030  22.655  26.967  1.00  0.00     0.430 C 
ATOM     29  F   UNL A   1      34.072  23.394  26.518  1.00  0.00    -0.167 F 
ATOM     30  F   UNL A   1      32.344  23.436  27.836  1.00  0.00    -0.167 F 
ATOM     31  F   UNL A   1      33.536  21.618  27.671  1.00  0.00    -0.167 F 
ENDBRANCH  18  28
ENDBRANCH   6   8
ENDBRANCH   5   6
ENDBRANCH   4   5
ENDBRANCH   3   4
ENDBRANCH   2   3
ENDBRANCH   1   2
BRANCH   1  32
ATOM     32  C   UNL A   1      40.682  20.853  26.654  1.00  0.00     0.188 C 
BRANCH  32  33
ATOM     33  O   UNL A   1      41.648  20.311  25.776  1.00  0.00    -0.376 OA
BRANCH  33  34
ATOM     34  C   UNL A   1      43.025  20.573  26.008  1.00  0.00     0.202 C 
BRANCH  34  35
ATOM     35  C   UNL A   1      43.717  21.779  25.363  1.00  0.00     0.261 C 
BRANCH  35  36
ATOM     36  O   UNL A   1      42.886  22.946  25.260  1.00  0.00    -0.460 OA
BRANCH  36  37
ATOM     37  C   UNL A   1      43.551  24.127  25.217  1.00  0.00     0.338 C 
ATOM     38  O   UNL A   1      44.433  24.454  24.442  1.00  0.00    -0.246 OA
BRANCH  37  39
ATOM     39  C   UNL A   1      42.904  25.078  26.140  1.00  0.00     0.060 A 
ATOM     40  C   UNL A   1      41.930  24.655  27.044  1.00  0.00     0.016 A 
ATOM     41  C   UNL A   1      43.307  26.421  26.102  1.00  0.00     0.016 A 
ATOM     42  C   UNL A   1      41.387  25.576  27.942  1.00  0.00     0.010 A 
ATOM     43  C   UNL A   1      42.752  27.343  26.990  1.00  0.00     0.010 A 
ATOM     44  C   UNL A   1      41.809  26.919  27.937  1.00  0.00    -0.014 A 
BRANCH  44  45
ATOM     45  C   UNL A   1      41.408  27.816  29.047  1.00  0.00     0.031 A 
ATOM     46  C   UNL A   1      40.224  28.725  28.950  1.00  0.00     0.074 A 
ATOM     47  C   UNL A   1      42.150  27.785  30.171  1.00  0.00     0.049 A 
ATOM     48  N   UNL A   1      39.683  29.465  29.886  1.00  0.00    -0.248 NA
ATOM     49  C   UNL A   1      39.563  28.831  27.641  1.00  0.00     0.031 C 
ATOM     50  C   UNL A   1      43.355  26.974  30.355  1.00  0.00     0.029 A 
ATOM     51  N   UNL A   1      41.999  28.436  31.369  1.00  0.00    -0.354 N 
ATOM     52  C   UNL A   1      38.601  30.099  29.294  1.00  0.00     0.074 A 
ATOM     53  C   UNL A   1      38.591  29.699  27.901  1.00  0.00     0.031 C 
ATOM     54  C   UNL A   1      43.816  27.151  31.602  1.00  0.00     0.029 A 
ATOM     55  C   UNL A   1      42.950  28.097  32.299  1.00  0.00     0.049 A 
ATOM     56  H   UNL A   1      41.279  29.084  31.544  1.00  0.00     0.167 HD
ATOM     57  C   UNL A   1      37.693  30.919  29.874  1.00  0.00     0.037 A 
ATOM     58  C   UNL A   1      43.099  28.489  33.578  1.00  0.00     0.037 A 
ATOM     59  C   UNL A   1      37.718  31.315  31.261  1.00  0.00     0.049 A 
ATOM     60  C   UNL A   1      42.086  29.419  34.185  1.00  0.00     0.074 A 
ATOM     61  C   UNL A   1      36.805  32.100  31.947  1.00  0.00     0.029 A 
ATOM     62  N   UNL A   1      38.708  30.971  32.168  1.00  0.00    -0.354 N 
ATOM     63  N   UNL A   1      41.006  29.926  33.645  1.00  0.00    -0.248 NA
ATOM     64  C   UNL A   1      42.305  29.821  35.582  1.00  0.00     0.031 C 
ATOM     65  C   UNL A   1      37.269  32.273  33.254  1.00  0.00     0.029 A 
ATOM     66  C   UNL A   1      38.442  31.552  33.398  1.00  0.00     0.049 A 
ATOM     67  H   UNL A   1      39.485  30.399  31.969  1.00  0.00     0.167 HD
ATOM     68  C   UNL A   1      40.401  30.682  34.640  1.00  0.00     0.074 A 
ATOM     69  C   UNL A   1      41.228  30.559  35.822  1.00  0.00     0.031 C 
ATOM     70  C   UNL A   1      39.263  31.413  34.575  1.00  0.00     0.037 A 
BRANCH  57  71
ATOM     71  C   UNL A   1      36.557  31.433  29.039  1.00  0.00     0.064 A 
ATOM     72  C   UNL A   1      35.478  30.604  28.702  1.00  0.00     0.173 A 
ATOM     73  C   UNL A   1      36.471  32.794  28.706  1.00  0.00     0.173 A 
ATOM     74  F   UNL A   1      35.512  29.297  29.001  1.00  0.00    -0.203 F 
ATOM     75  C   UNL A   1      34.351  31.119  28.066  1.00  0.00     0.198 A 
ATOM     76  C   UNL A   1      35.334  33.310  28.091  1.00  0.00     0.198 A 
ATOM     77  F   UNL A   1      37.471  33.630  29.020  1.00  0.00    -0.203 F 
ATOM     78  F   UNL A   1      33.331  30.308  27.753  1.00  0.00    -0.200 F 
ATOM     79  C   UNL A   1      34.275  32.473  27.774  1.00  0.00     0.200 A 
ATOM     80  F   UNL A   1      35.253  34.621  27.827  1.00  0.00    -0.200 F 
ATOM     81  F   UNL A   1      33.174  32.973  27.193  1.00  0.00    -0.200 F 
ENDBRANCH  57  71
BRANCH  58  82
ATOM     82  C   UNL A   1      44.228  27.957  34.382  1.00  0.00     0.064 A 
ATOM     83  C   UNL A   1      45.468  28.611  34.403  1.00  0.00     0.173 A 
ATOM     84  C   UNL A   1      44.087  26.795  35.155  1.00  0.00     0.173 A 
ATOM     85  F   UNL A   1      45.653  29.717  33.668  1.00  0.00    -0.203 F 
ATOM     86  C   UNL A   1      46.529  28.114  35.157  1.00  0.00     0.198 A 
ATOM     87  C   UNL A   1      45.140  26.316  35.930  1.00  0.00     0.198 A 
ATOM     88  F   UNL A   1      42.918  26.138  35.174  1.00  0.00    -0.203 F 
ATOM     89  F   UNL A   1      47.715  28.736  35.130  1.00  0.00    -0.200 F 
ATOM     90  C   UNL A   1      46.363  26.971  35.924  1.00  0.00     0.200 A 
ATOM     91  F   UNL A   1      44.970  25.220  36.683  1.00  0.00    -0.200 F 
ATOM     92  F   UNL A   1      47.382  26.498  36.654  1.00  0.00    -0.200 F 
ENDBRANCH  58  82
BRANCH  70  93
ATOM     93  C   UNL A   1      38.817  32.127  35.816  1.00  0.00     0.064 A 
ATOM     94  C   UNL A   1      38.136  31.455  36.842  1.00  0.00     0.173 A 
ATOM     95  C   UNL A   1      39.155  33.473  36.022  1.00  0.00     0.173 A 
ATOM     96  F   UNL A   1      37.779  30.172  36.687  1.00  0.00    -0.203 F 
ATOM     97  C   UNL A   1      37.805  32.108  38.026  1.00  0.00     0.198 A 
ATOM     98  C   UNL A   1      38.845  34.115  37.218  1.00  0.00     0.198 A 
ATOM     99  F   UNL A   1      39.812  34.158  35.074  1.00  0.00    -0.203 F 
ATOM    100  F   UNL A   1      37.132  31.454  38.984  1.00  0.00    -0.200 F 
ATOM    101  C   UNL A   1      38.171  33.433  38.218  1.00  0.00     0.200 A 
ATOM    102  F   UNL A   1      39.213  35.390  37.408  1.00  0.00    -0.200 F 
ATOM    103  F   UNL A   1      37.871  34.052  39.369  1.00  0.00    -0.200 F 
ENDBRANCH  70  93
ENDBRANCH  44  45
ENDBRANCH  37  39
ENDBRANCH  36  37
ENDBRANCH  35  36
ENDBRANCH  34  35
ENDBRANCH  33  34
ENDBRANCH  32  33
ENDBRANCH   1  32
TORSDOF 20
ENDMDL
MODEL 2
REMARK VINA RESULT:     -10.9      2.789      7.560
REMARK SMILES C[C@@H]1CC[C@H](C)[N@H+]1Cc1cc2c(cc1Cl)C=C(C(=O)OCCOCCOCCOC(=O)c1ccc(-c3c4nc(c(-c5c(F)c(F)c(F)c(F)c5F)c5ccc([nH]5)c(-c5c(F)c(F)c(F)c(F)c5F)c5nc(c(-c6c(F)c(F)c(F)c(F)c6F)c6ccc3[nH]6)C=C5)C=C4)cc1)[C@@H](C(F)(F)F)O2
REMARK SMILES IDX 24 1 23 2 22 3 21 4 20 5 18 6 19 7 17 8 9 9 10 10 14 11
REMARK SMILES IDX 11 12 13 13 15 14 12 15 100 16 16 17 95 18 8 19 7 20 6 21
REMARK SMILES IDX 5 22 4 23 3 24 2 25 1 27 96 28 97 29 98 30 99 31 25 32 26 33
REMARK SMILES IDX 27 34 28 35 29 36 30 37 31 38 32 39 33 40 94 41 34 42 93 43
REMARK SMILES IDX 35 44 36 45 37 46 87 47 38 48 92 49 86 50 88 51 39 52 91 53
REMARK SMILES IDX 85 54 84 55 40 57 72 58 52 59 71 60 53 61 56 62 70 63 89 64
REMARK SMILES IDX 54 65 55 66 69 68 90 69 57 70 41 71 42 72 50 73 43 74 44 75
REMARK SMILES IDX 48 76 51 77 45 78 46 79 49 80 47 81 73 82 74 83 82 84 75 85
REMARK SMILES IDX 76 86 80 87 83 88 77 89 78 90 81 91 79 92 58 93 59 94 67 95
REMARK SMILES IDX 60 96 61 97 65 98 68 99 62 100 63 101 66 102 64 103
REMARK H PARENT 7 26 88 56 56 67
REMARK Flexibility Score: inf
ROOT
ATOM      1  C   UNL A   1      34.757  25.383  25.387  1.00  0.00     0.188 C 
ENDROOT
BRANCH   1   2
ATOM      2  O   UNL A   1      35.042  24.011  25.543  1.00  0.00    -0.376 OA
BRANCH   2   3
ATOM      3  C   UNL A   1      35.628  23.243  24.503  1.00  0.00     0.202 C 
BRANCH   3   4
ATOM      4  C   UNL A   1      34.835  22.336  23.554  1.00  0.00     0.261 C 
BRANCH   4   5
ATOM      5  O   UNL A   1      33.549  21.920  24.026  1.00  0.00    -0.460 OA
BRANCH   5   6
ATOM      6  C   UNL A   1      32.556  22.047  23.116  1.00  0.00     0.338 C 
ATOM      7  O   UNL A   1      32.157  21.186  22.345  1.00  0.00    -0.246 OA
BRANCH   6   8
ATOM      8  C   UNL A   1      31.873  23.340  23.284  1.00  0.00     0.087 C 
ATOM      9  C   UNL A   1      30.996  28.285  23.582  1.00  0.00     0.029 A 
ATOM     10  C   UNL A   1      30.251  27.128  23.918  1.00  0.00     0.058 A 
ATOM     11  C   UNL A   1      32.246  28.093  22.965  1.00  0.00     0.050 A 
ATOM     12  C   UNL A   1      30.735  25.842  23.647  1.00  0.00     0.128 A 
ATOM     13  C   UNL A   1      32.673  26.816  22.596  1.00  0.00     0.033 A 
ATOM     14  Cl  UNL A   1      33.414  29.349  22.753  1.00  0.00    -0.084 Cl
ATOM     15  C   UNL A   1      31.933  25.693  22.953  1.00  0.00     0.019 A 
ATOM     16  O   UNL A   1      29.999  24.777  24.094  1.00  0.00    -0.475 OA
ATOM     17  C   UNL A   1      32.466  24.376  22.682  1.00  0.00     0.027 C 
ATOM     18  C   UNL A   1      30.638  23.462  24.134  1.00  0.00     0.316 C 
BRANCH   9  19
ATOM     19  C   UNL A   1      30.457  29.653  23.974  1.00  0.00     0.301 C 
BRANCH  19  20
ATOM     20  N   UNL A   1      29.258  30.152  23.288  1.00  0.00    -0.327 N 
ATOM     21  C   UNL A   1      27.426  28.508  23.129  1.00  0.00     0.075 C 
ATOM     22  C   UNL A   1      28.560  29.216  22.397  1.00  0.00     0.181 C 
ATOM     23  C   UNL A   1      28.028  30.078  21.250  1.00  0.00     0.071 C 
ATOM     24  C   UNL A   1      29.023  31.216  21.185  1.00  0.00     0.071 C 
ATOM     25  C   UNL A   1      29.361  31.464  22.647  1.00  0.00     0.181 C 
ATOM     26  H   UNL A   1      28.670  30.266  24.113  1.00  0.00     0.348 HD
ATOM     27  C   UNL A   1      28.388  32.436  23.316  1.00  0.00     0.075 C 
ENDBRANCH  19  20
ENDBRANCH   9  19
BRANCH  18  28
ATOM     28  C   UNL A   1      30.920  23.048  25.586  1.00  0.00     0.430 C 
ATOM     29  F   UNL A   1      30.800  21.711  25.755  1.00  0.00    -0.167 F 
ATOM     30  F   UNL A   1      32.184  23.375  25.951  1.00  0.00    -0.167 F 
ATOM     31  F   UNL A   1      30.080  23.649  26.458  1.00  0.00    -0.167 F 
ENDBRANCH  18  28
ENDBRANCH   6   8
ENDBRANCH   5   6
ENDBRANCH   4   5
ENDBRANCH   3   4
ENDBRANCH   2   3
ENDBRANCH   1   2
BRANCH   1  32
ATOM     32  C   UNL A   1      33.569  26.033  26.127  1.00  0.00     0.188 C 
BRANCH  32  33
ATOM     33  O   UNL A   1      33.455  27.438  26.231  1.00  0.00    -0.376 OA
BRANCH  33  34
ATOM     34  C   UNL A   1      32.248  28.004  26.722  1.00  0.00     0.202 C 
BRANCH  34  35
ATOM     35  C   UNL A   1      32.210  29.442  27.251  1.00  0.00     0.261 C 
BRANCH  35  36
ATOM     36  O   UNL A   1      33.041  30.357  26.521  1.00  0.00    -0.460 OA
BRANCH  36  37
ATOM     37  C   UNL A   1      33.518  31.404  27.240  1.00  0.00     0.338 C 
ATOM     38  O   UNL A   1      32.921  32.417  27.561  1.00  0.00    -0.246 OA
BRANCH  37  39
ATOM     39  C   UNL A   1      34.847  31.054  27.775  1.00  0.00     0.060 A 
ATOM     40  C   UNL A   1      35.801  32.039  28.032  1.00  0.00     0.016 A 
ATOM     41  C   UNL A   1      35.123  29.706  28.043  1.00  0.00     0.016 A 
ATOM     42  C   UNL A   1      37.024  31.672  28.597  1.00  0.00     0.010 A 
ATOM     43  C   UNL A   1      36.352  29.339  28.593  1.00  0.00     0.010 A 
ATOM     44  C   UNL A   1      37.299  30.325  28.901  1.00  0.00    -0.014 A 
BRANCH  44  45
ATOM     45  C   UNL A   1      38.490  29.988  29.719  1.00  0.00     0.031 A 
ATOM     46  C   UNL A   1      38.684  30.521  31.103  1.00  0.00     0.074 A 
ATOM     47  C   UNL A   1      39.408  29.167  29.173  1.00  0.00     0.049 A 
ATOM     48  N   UNL A   1      39.608  30.208  31.977  1.00  0.00    -0.248 NA
ATOM     49  C   UNL A   1      37.733  31.540  31.570  1.00  0.00     0.031 C 
ATOM     50  C   UNL A   1      39.344  28.630  27.813  1.00  0.00     0.029 A 
ATOM     51  N   UNL A   1      40.560  28.632  29.690  1.00  0.00    -0.354 N 
ATOM     52  C   UNL A   1      39.335  30.963  33.108  1.00  0.00     0.074 A 
ATOM     53  C   UNL A   1      38.188  31.791  32.793  1.00  0.00     0.031 C 
ATOM     54  C   UNL A   1      40.393  27.818  27.613  1.00  0.00     0.029 A 
ATOM     55  C   UNL A   1      41.209  27.788  28.824  1.00  0.00     0.049 A 
ATOM     56  H   UNL A   1      40.890  28.835  30.596  1.00  0.00     0.167 HD
ATOM     57  C   UNL A   1      39.975  30.942  34.302  1.00  0.00     0.037 A 
ATOM     58  C   UNL A   1      42.326  27.056  28.989  1.00  0.00     0.037 A 
ATOM     59  C   UNL A   1      41.120  30.117  34.600  1.00  0.00     0.049 A 
ATOM     60  C   UNL A   1      43.026  27.073  30.319  1.00  0.00     0.074 A 
ATOM     61  C   UNL A   1      41.798  29.991  35.802  1.00  0.00     0.029 A 
ATOM     62  N   UNL A   1      41.764  29.292  33.692  1.00  0.00    -0.354 N 
ATOM     63  N   UNL A   1      42.695  27.708  31.416  1.00  0.00    -0.248 NA
ATOM     64  C   UNL A   1      44.246  26.263  30.439  1.00  0.00     0.031 C 
ATOM     65  C   UNL A   1      42.881  29.130  35.607  1.00  0.00     0.029 A 
ATOM     66  C   UNL A   1      42.848  28.677  34.299  1.00  0.00     0.049 A 
ATOM     67  H   UNL A   1      41.492  29.160  32.754  1.00  0.00     0.167 HD
ATOM     68  C   UNL A   1      43.646  27.353  32.363  1.00  0.00     0.074 A 
ATOM     69  C   UNL A   1      44.561  26.438  31.716  1.00  0.00     0.031 C 
ATOM     70  C   UNL A   1      43.747  27.755  33.652  1.00  0.00     0.037 A 
BRANCH  57  71
ATOM     71  C   UNL A   1      39.448  31.804  35.411  1.00  0.00     0.064 A 
ATOM     72  C   UNL A   1      38.520  31.303  36.335  1.00  0.00     0.173 A 
ATOM     73  C   UNL A   1      39.985  33.080  35.643  1.00  0.00     0.173 A 
ATOM     74  F   UNL A   1      37.980  30.088  36.158  1.00  0.00    -0.203 F 
ATOM     75  C   UNL A   1      38.152  32.046  37.454  1.00  0.00     0.198 A 
ATOM     76  C   UNL A   1      39.632  33.810  36.775  1.00  0.00     0.198 A 
ATOM     77  F   UNL A   1      40.887  33.597  34.796  1.00  0.00    -0.203 F 
ATOM     78  F   UNL A   1      37.263  31.547  38.324  1.00  0.00    -0.200 F 
ATOM     79  C   UNL A   1      38.718  33.292  37.680  1.00  0.00     0.200 A 
ATOM     80  F   UNL A   1      40.195  35.005  37.002  1.00  0.00    -0.200 F 
ATOM     81  F   UNL A   1      38.389  33.990  38.776  1.00  0.00    -0.200 F 
ENDBRANCH  57  71
BRANCH  58  82
ATOM     82  C   UNL A   1      42.818  26.206  27.875  1.00  0.00     0.064 A 
ATOM     83  C   UNL A   1      42.341  24.899  27.703  1.00  0.00     0.173 A 
ATOM     84  C   UNL A   1      43.760  26.687  26.954  1.00  0.00     0.173 A 
ATOM     85  F   UNL A   1      41.451  24.392  28.568  1.00  0.00    -0.203 F 
ATOM     86  C   UNL A   1      42.801  24.099  26.659  1.00  0.00     0.198 A 
ATOM     87  C   UNL A   1      44.196  25.896  25.895  1.00  0.00     0.198 A 
ATOM     88  F   UNL A   1      44.239  27.934  27.072  1.00  0.00    -0.203 F 
ATOM     89  F   UNL A   1      42.359  22.840  26.539  1.00  0.00    -0.200 F 
ATOM     90  C   UNL A   1      43.723  24.600  25.752  1.00  0.00     0.200 A 
ATOM     91  F   UNL A   1      45.075  26.389  25.011  1.00  0.00    -0.200 F 
ATOM     92  F   UNL A   1      44.159  23.833  24.744  1.00  0.00    -0.200 F 
ENDBRANCH  58  82
BRANCH  70  93
ATOM     93  C   UNL A   1      44.873  27.198  34.472  1.00  0.00     0.064 A 
ATOM     94  C   UNL A   1      44.739  25.991  35.173  1.00  0.00     0.173 A 
ATOM     95  C   UNL A   1      46.125  27.831  34.483  1.00  0.00     0.173 A 
ATOM     96  F   UNL A   1      43.559  25.355  35.204  1.00  0.00    -0.203 F 
ATOM     97  C   UNL A   1      45.819  25.440  35.859  1.00  0.00     0.198 A 
ATOM     98  C   UNL A   1      47.209  27.264  35.148  1.00  0.00     0.198 A 
ATOM     99  F   UNL A   1      46.305  28.985  33.823  1.00  0.00    -0.203 F 
ATOM    100  F   UNL A   1      45.663  24.298  36.543  1.00  0.00    -0.200 F 
ATOM    101  C   UNL A   1      47.055  26.071  35.836  1.00  0.00     0.200 A 
ATOM    102  F   UNL A   1      48.406  27.867  35.112  1.00  0.00    -0.200 F 
ATOM    103  F   UNL A   1      48.098  25.527  36.479  1.00  0.00    -0.200 F 
ENDBRANCH  70  93
ENDBRANCH  44  45
ENDBRANCH  37  39
ENDBRANCH  36  37
ENDBRANCH  35  36
ENDBRANCH  34  35
ENDBRANCH  33  34
ENDBRANCH  32  33
ENDBRANCH   1  32
TORSDOF 20
ENDMDL
MODEL 3
REMARK VINA RESULT:     -10.8      5.859     10.944
REMARK SMILES C[C@@H]1CC[C@H](C)[N@H+]1Cc1cc2c(cc1Cl)C=C(C(=O)OCCOCCOCCOC(=O)c1ccc(-c3c4nc(c(-c5c(F)c(F)c(F)c(F)c5F)c5ccc([nH]5)c(-c5c(F)c(F)c(F)c(F)c5F)c5nc(c(-c6c(F)c(F)c(F)c(F)c6F)c6ccc3[nH]6)C=C5)C=C4)cc1)[C@@H](C(F)(F)F)O2
REMARK SMILES IDX 24 1 23 2 22 3 21 4 20 5 18 6 19 7 17 8 9 9 10 10 14 11
REMARK SMILES IDX 11 12 13 13 15 14 12 15 100 16 16 17 95 18 8 19 7 20 6 21
REMARK SMILES IDX 5 22 4 23 3 24 2 25 1 27 96 28 97 29 98 30 99 31 25 32 26 33
REMARK SMILES IDX 27 34 28 35 29 36 30 37 31 38 32 39 33 40 94 41 34 42 93 43
REMARK SMILES IDX 35 44 36 45 37 46 87 47 38 48 92 49 86 50 88 51 39 52 91 53
REMARK SMILES IDX 85 54 84 55 40 57 72 58 52 59 71 60 53 61 56 62 70 63 89 64
REMARK SMILES IDX 54 65 55 66 69 68 90 69 57 70 41 71 42 72 50 73 43 74 44 75
REMARK SMILES IDX 48 76 51 77 45 78 46 79 49 80 47 81 73 82 74 83 82 84 75 85
REMARK SMILES IDX 76 86 80 87 83 88 77 89 78 90 81 91 79 92 58 93 59 94 67 95
REMARK SMILES IDX 60 96 61 97 65 98 68 99 62 100 63 101 66 102 64 103
REMARK H PARENT 7 26 88 56 56 67
REMARK Flexibility Score: inf
ROOT
ATOM      1  C   UNL A   1      34.851  32.661  30.793  1.00  0.00     0.188 C 
ENDROOT
BRANCH   1   2
ATOM      2  O   UNL A   1      34.679  32.049  29.534  1.00  0.00    -0.376 OA
BRANCH   2   3
ATOM      3  C   UNL A   1      35.629  31.136  29.008  1.00  0.00     0.202 C 
BRANCH   3   4
ATOM      4  C   UNL A   1      36.919  31.557  28.292  1.00  0.00     0.261 C 
BRANCH   4   5
ATOM      5  O   UNL A   1      38.022  30.654  28.423  1.00  0.00    -0.460 OA
BRANCH   5   6
ATOM      6  C   UNL A   1      38.802  30.883  29.504  1.00  0.00     0.338 C 
ATOM      7  O   UNL A   1      38.604  31.706  30.387  1.00  0.00    -0.246 OA
BRANCH   6   8
ATOM      8  C   UNL A   1      39.869  29.873  29.586  1.00  0.00     0.087 C 
ATOM      9  C   UNL A   1      43.720  26.872  28.371  1.00  0.00     0.029 A 
ATOM     10  C   UNL A   1      42.818  26.928  29.461  1.00  0.00     0.058 A 
ATOM     11  C   UNL A   1      43.623  27.883  27.398  1.00  0.00     0.050 A 
ATOM     12  C   UNL A   1      41.866  27.950  29.571  1.00  0.00     0.128 A 
ATOM     13  C   UNL A   1      42.750  28.960  27.570  1.00  0.00     0.033 A 
ATOM     14  Cl  UNL A   1      44.422  27.823  25.867  1.00  0.00    -0.084 Cl
ATOM     15  C   UNL A   1      41.860  28.984  28.640  1.00  0.00     0.019 A 
ATOM     16  O   UNL A   1      40.967  27.875  30.602  1.00  0.00    -0.475 OA
ATOM     17  C   UNL A   1      40.872  30.038  28.718  1.00  0.00     0.027 C 
ATOM     18  C   UNL A   1      39.772  28.715  30.540  1.00  0.00     0.316 C 
BRANCH   9  19
ATOM     19  C   UNL A   1      44.678  25.694  28.262  1.00  0.00     0.301 C 
BRANCH  19  20
ATOM     20  N   UNL A   1      44.180  24.443  27.677  1.00  0.00    -0.327 N 
ATOM     21  C   UNL A   1      45.469  23.655  25.728  1.00  0.00     0.075 C 
ATOM     22  C   UNL A   1      44.196  24.337  26.213  1.00  0.00     0.181 C 
ATOM     23  C   UNL A   1      42.955  23.515  25.857  1.00  0.00     0.071 C 
ATOM     24  C   UNL A   1      41.998  23.831  26.986  1.00  0.00     0.071 C 
ATOM     25  C   UNL A   1      42.912  23.928  28.198  1.00  0.00     0.181 C 
ATOM     26  H   UNL A   1      44.918  23.831  28.024  1.00  0.00     0.348 HD
ATOM     27  C   UNL A   1      43.149  22.571  28.863  1.00  0.00     0.075 C 
ENDBRANCH  19  20
ENDBRANCH   9  19
BRANCH  18  28
ATOM     28  C   UNL A   1      38.529  27.860  30.251  1.00  0.00     0.430 C 
ATOM     29  F   UNL A   1      37.388  28.522  30.548  1.00  0.00    -0.167 F 
ATOM     30  F   UNL A   1      38.459  27.528  28.939  1.00  0.00    -0.167 F 
ATOM     31  F   UNL A   1      38.530  26.707  30.958  1.00  0.00    -0.167 F 
ENDBRANCH  18  28
ENDBRANCH   6   8
ENDBRANCH   5   6
ENDBRANCH   4   5
ENDBRANCH   3   4
ENDBRANCH   2   3
ENDBRANCH   1   2
BRANCH   1  32
ATOM     32  C   UNL A   1      35.776  33.886  30.957  1.00  0.00     0.188 C 
BRANCH  32  33
ATOM     33  O   UNL A   1      36.553  34.061  32.124  1.00  0.00    -0.376 OA
BRANCH  33  34
ATOM     34  C   UNL A   1      36.008  34.777  33.223  1.00  0.00     0.202 C 
BRANCH  34  35
ATOM     35  C   UNL A   1      35.569  34.048  34.498  1.00  0.00     0.261 C 
BRANCH  35  36
ATOM     36  O   UNL A   1      36.292  32.836  34.759  1.00  0.00    -0.460 OA
BRANCH  36  37
ATOM     37  C   UNL A   1      37.383  32.974  35.553  1.00  0.00     0.338 C 
ATOM     38  O   UNL A   1      37.430  33.450  36.674  1.00  0.00    -0.246 OA
BRANCH  37  39
ATOM     39  C   UNL A   1      38.519  32.260  34.939  1.00  0.00     0.060 A 
ATOM     40  C   UNL A   1      38.313  31.156  34.112  1.00  0.00     0.016 A 
ATOM     41  C   UNL A   1      39.816  32.731  35.190  1.00  0.00     0.016 A 
ATOM     42  C   UNL A   1      39.411  30.547  33.502  1.00  0.00     0.010 A 
ATOM     43  C   UNL A   1      40.913  32.112  34.592  1.00  0.00     0.010 A 
ATOM     44  C   UNL A   1      40.715  31.033  33.719  1.00  0.00    -0.014 A 
BRANCH  44  45
ATOM     45  C   UNL A   1      41.831  30.536  32.878  1.00  0.00     0.031 A 
ATOM     46  C   UNL A   1      42.364  31.315  31.718  1.00  0.00     0.074 A 
ATOM     47  C   UNL A   1      42.367  29.343  33.199  1.00  0.00     0.049 A 
ATOM     48  N   UNL A   1      43.415  31.063  30.979  1.00  0.00    -0.248 NA
ATOM     49  C   UNL A   1      41.626  32.523  31.324  1.00  0.00     0.031 C 
ATOM     50  C   UNL A   1      41.891  28.476  34.279  1.00  0.00     0.029 A 
ATOM     51  N   UNL A   1      43.428  28.658  32.663  1.00  0.00    -0.354 N 
ATOM     52  C   UNL A   1      43.488  32.094  30.055  1.00  0.00     0.074 A 
ATOM     53  C   UNL A   1      42.343  32.950  30.290  1.00  0.00     0.031 C 
ATOM     54  C   UNL A   1      42.676  27.390  34.346  1.00  0.00     0.029 A 
ATOM     55  C   UNL A   1      43.699  27.477  33.308  1.00  0.00     0.049 A 
ATOM     56  H   UNL A   1      43.944  28.983  31.890  1.00  0.00     0.167 HD
ATOM     57  C   UNL A   1      44.441  32.309  29.116  1.00  0.00     0.037 A 
ATOM     58  C   UNL A   1      44.673  26.572  33.101  1.00  0.00     0.037 A 
ATOM     59  C   UNL A   1      45.573  31.446  28.887  1.00  0.00     0.049 A 
ATOM     60  C   UNL A   1      45.701  26.830  32.034  1.00  0.00     0.074 A 
ATOM     61  C   UNL A   1      46.617  31.616  27.993  1.00  0.00     0.029 A 
ATOM     62  N   UNL A   1      45.803  30.246  29.544  1.00  0.00    -0.354 N 
ATOM     63  N   UNL A   1      45.821  27.863  31.239  1.00  0.00    -0.248 NA
ATOM     64  C   UNL A   1      46.736  25.803  31.845  1.00  0.00     0.031 C 
ATOM     65  C   UNL A   1      47.451  30.498  28.072  1.00  0.00     0.029 A 
ATOM     66  C   UNL A   1      46.957  29.655  29.053  1.00  0.00     0.049 A 
ATOM     67  H   UNL A   1      45.233  29.871  30.253  1.00  0.00     0.167 HD
ATOM     68  C   UNL A   1      46.957  27.627  30.476  1.00  0.00     0.074 A 
ATOM     69  C   UNL A   1      47.498  26.357  30.911  1.00  0.00     0.031 C 
ATOM     70  C   UNL A   1      47.497  28.397  29.502  1.00  0.00     0.037 A 
BRANCH  57  71
ATOM     71  C   UNL A   1      44.344  33.545  28.270  1.00  0.00     0.064 A 
ATOM     72  C   UNL A   1      43.817  33.491  26.971  1.00  0.00     0.173 A 
ATOM     73  C   UNL A   1      44.633  34.807  28.810  1.00  0.00     0.173 A 
ATOM     74  F   UNL A   1      43.523  32.308  26.412  1.00  0.00    -0.203 F 
ATOM     75  C   UNL A   1      43.579  34.655  26.246  1.00  0.00     0.198 A 
ATOM     76  C   UNL A   1      44.372  35.971  28.092  1.00  0.00     0.198 A 
ATOM     77  F   UNL A   1      45.124  34.913  30.054  1.00  0.00    -0.203 F 
ATOM     78  F   UNL A   1      43.075  34.580  25.007  1.00  0.00    -0.200 F 
ATOM     79  C   UNL A   1      43.843  35.894  26.812  1.00  0.00     0.200 A 
ATOM     80  F   UNL A   1      44.609  37.167  28.647  1.00  0.00    -0.200 F 
ATOM     81  F   UNL A   1      43.580  37.015  26.126  1.00  0.00    -0.200 F 
ENDBRANCH  57  71
BRANCH  58  82
ATOM     82  C   UNL A   1      44.748  25.364  33.960  1.00  0.00     0.064 A 
ATOM     83  C   UNL A   1      45.278  25.434  35.256  1.00  0.00     0.173 A 
ATOM     84  C   UNL A   1      44.277  24.121  33.511  1.00  0.00     0.173 A 
ATOM     85  F   UNL A   1      45.752  26.597  35.723  1.00  0.00    -0.203 F 
ATOM     86  C   UNL A   1      45.348  24.302  36.065  1.00  0.00     0.198 A 
ATOM     87  C   UNL A   1      44.323  22.997  34.331  1.00  0.00     0.198 A 
ATOM     88  F   UNL A   1      43.753  24.005  32.282  1.00  0.00    -0.203 F 
ATOM     89  F   UNL A   1      45.895  24.386  37.284  1.00  0.00    -0.200 F 
ATOM     90  C   UNL A   1      44.865  23.086  35.604  1.00  0.00     0.200 A 
ATOM     91  F   UNL A   1      43.839  21.827  33.888  1.00  0.00    -0.200 F 
ATOM     92  F   UNL A   1      44.927  21.999  36.385  1.00  0.00    -0.200 F 
ENDBRANCH  58  82
BRANCH  70  93
ATOM     93  C   UNL A   1      48.754  27.911  28.842  1.00  0.00     0.064 A 
ATOM     94  C   UNL A   1      48.714  27.115  27.688  1.00  0.00     0.173 A 
ATOM     95  C   UNL A   1      50.010  28.320  29.317  1.00  0.00     0.173 A 
ATOM     96  F   UNL A   1      47.539  26.687  27.204  1.00  0.00    -0.203 F 
ATOM     97  C   UNL A   1      49.887  26.743  27.036  1.00  0.00     0.198 A 
ATOM     98  C   UNL A   1      51.179  27.968  28.647  1.00  0.00     0.198 A 
ATOM     99  F   UNL A   1      50.101  29.087  30.414  1.00  0.00    -0.203 F 
ATOM    100  F   UNL A   1      49.827  25.962  25.949  1.00  0.00    -0.200 F 
ATOM    101  C   UNL A   1      51.117  27.180  27.509  1.00  0.00     0.200 A 
ATOM    102  F   UNL A   1      52.364  28.404  29.097  1.00  0.00    -0.200 F 
ATOM    103  F   UNL A   1      52.243  26.839  26.866  1.00  0.00    -0.200 F 
ENDBRANCH  70  93
ENDBRANCH  44  45
ENDBRANCH  37  39
ENDBRANCH  36  37
ENDBRANCH  35  36
ENDBRANCH  34  35
ENDBRANCH  33  34
ENDBRANCH  32  33
ENDBRANCH   1  32
TORSDOF 20
ENDMDL
