MODEL 1
REMARK VINA RESULT:     -13.9      0.000      0.000
REMARK SMILES Cc1cccc(OC2(C(=O)OCCOCCOCCOC(=O)c3ccc(-c4c5nc(c(-c6c(F)c(F)c(F)c(F)c6F)c6ccc([nH]6)c(-c6c(F)c(F)c(F)c(F)c6F)c6nc(c(-c7c(F)c(F)c(F)c(F)c7F)c7ccc4[nH]7)C=C6)C=C5)cc3)CCN(C(=O)c3cnc[nH]c3=O)CC2)c1
REMARK SMILES IDX 15 1 14 2 13 3 12 4 11 5 9 6 10 7 8 8 86 9 99 10 87 11 98 12
REMARK SMILES IDX 88 13 89 14 90 15 7 16 6 17 1 18 2 19 3 20 100 21 4 22 5 23
REMARK SMILES IDX 91 24 92 25 96 26 93 27 95 28 97 29 94 30 16 32 17 33 18 34
REMARK SMILES IDX 19 35 20 36 21 37 22 38 23 39 24 40 85 41 25 42 84 43 26 44
REMARK SMILES IDX 27 45 28 46 78 47 29 48 83 49 77 50 79 51 30 52 82 53 76 54
REMARK SMILES IDX 75 55 31 57 63 58 43 59 62 60 44 61 47 62 61 63 80 64 45 65
REMARK SMILES IDX 46 66 60 68 81 69 48 70 32 71 33 72 41 73 34 74 35 75 39 76
REMARK SMILES IDX 42 77 36 78 37 79 40 80 38 81 64 82 65 83 73 84 66 85 67 86
REMARK SMILES IDX 71 87 74 88 68 89 69 90 72 91 70 92 49 93 50 94 58 95 51 96
REMARK SMILES IDX 52 97 56 98 59 99 53 100 54 101 57 102 55 103
REMARK H PARENT 95 31 79 56 47 67
REMARK Flexibility Score: inf
ROOT
ATOM      1  C   UNL A   1      33.489  33.564  28.019  1.00  0.00     0.188 C 
ENDROOT
BRANCH   1   2
ATOM      2  O   UNL A   1      33.965  32.280  28.481  1.00  0.00    -0.376 OA
BRANCH   2   3
ATOM      3  C   UNL A   1      34.388  31.194  27.633  1.00  0.00     0.202 C 
BRANCH   3   4
ATOM      4  C   UNL A   1      33.307  30.239  26.762  1.00  0.00     0.261 C 
BRANCH   4   5
ATOM      5  O   UNL A   1      33.633  29.083  25.473  1.00  0.00    -0.460 OA
BRANCH   5   6
ATOM      6  C   UNL A   1      33.187  28.656  24.157  1.00  0.00     0.350 C 
ATOM      7  O   UNL A   1      33.650  28.991  23.061  1.00  0.00    -0.247 OA
BRANCH   6   8
ATOM      8  C   UNL A   1      32.098  27.583  23.972  1.00  0.00     0.209 C 
ATOM      9  C   UNL A   1      32.141  27.130  22.526  1.00  0.00     0.082 C 
ATOM     10  C   UNL A   1      32.400  26.508  25.078  1.00  0.00     0.082 C 
ATOM     11  C   UNL A   1      31.808  25.667  22.342  1.00  0.00     0.124 C 
ATOM     12  C   UNL A   1      31.875  25.141  24.715  1.00  0.00     0.124 C 
ATOM     13  N   UNL A   1      32.391  24.858  23.389  1.00  0.00    -0.338 N 
ATOM     14  C   UNL A   1      33.647  24.291  23.225  1.00  0.00     0.261 C 
ATOM     15  O   UNL A   1      34.492  24.722  22.448  1.00  0.00    -0.269 OA
BRANCH   8  16
ATOM     16  O   UNL A   1      30.939  28.319  24.440  1.00  0.00    -0.475 OA
BRANCH  16  17
ATOM     17  C   UNL A   1      29.946  28.854  23.678  1.00  0.00     0.121 A 
ATOM     18  C   UNL A   1      28.435  32.304  23.318  1.00  0.00     0.044 C 
ATOM     19  C   UNL A   1      28.600  30.818  23.214  1.00  0.00    -0.047 A 
ATOM     20  C   UNL A   1      27.504  30.005  22.905  1.00  0.00     0.003 A 
ATOM     21  C   UNL A   1      29.823  30.232  23.570  1.00  0.00     0.050 A 
ATOM     22  C   UNL A   1      27.629  28.618  22.965  1.00  0.00     0.004 A 
ATOM     23  C   UNL A   1      28.841  28.046  23.373  1.00  0.00     0.046 A 
ENDBRANCH  16  17
ENDBRANCH   8  16
BRANCH  14  24
ATOM     24  C   UNL A   1      33.894  23.105  24.067  1.00  0.00     0.123 A 
ATOM     25  C   UNL A   1      33.323  21.922  23.799  1.00  0.00     0.132 A 
ATOM     26  C   UNL A   1      34.823  23.161  25.211  1.00  0.00     0.263 A 
ATOM     27  N   UNL A   1      33.563  20.757  24.492  1.00  0.00    -0.246 NA
ATOM     28  N   UNL A   1      35.042  21.975  25.843  1.00  0.00    -0.312 N 
ATOM     29  O   UNL A   1      35.374  24.195  25.587  1.00  0.00    -0.269 OA
ATOM     30  C   UNL A   1      34.405  20.830  25.467  1.00  0.00     0.199 A 
ATOM     31  H   UNL A   1      35.679  21.944  26.592  1.00  0.00     0.171 HD
ENDBRANCH  14  24
ENDBRANCH   6   8
ENDBRANCH   5   6
ENDBRANCH   4   5
ENDBRANCH   3   4
ENDBRANCH   2   3
ENDBRANCH   1   2
BRANCH   1  32
ATOM     32  C   UNL A   1      34.369  34.763  27.633  1.00  0.00     0.188 C 
BRANCH  32  33
ATOM     33  O   UNL A   1      34.127  35.888  28.451  1.00  0.00    -0.376 OA
BRANCH  33  34
ATOM     34  C   UNL A   1      32.852  35.927  29.079  1.00  0.00     0.202 C 
BRANCH  34  35
ATOM     35  C   UNL A   1      32.911  36.189  30.601  1.00  0.00     0.261 C 
BRANCH  35  36
ATOM     36  O   UNL A   1      33.046  34.968  31.368  1.00  0.00    -0.460 OA
BRANCH  36  37
ATOM     37  C   UNL A   1      34.201  34.817  32.105  1.00  0.00     0.338 C 
ATOM     38  O   UNL A   1      34.475  35.486  33.083  1.00  0.00    -0.246 OA
BRANCH  37  39
ATOM     39  C   UNL A   1      35.061  33.735  31.524  1.00  0.00     0.060 A 
ATOM     40  C   UNL A   1      35.095  32.357  31.797  1.00  0.00     0.016 A 
ATOM     41  C   UNL A   1      36.036  34.167  30.702  1.00  0.00     0.016 A 
ATOM     42  C   UNL A   1      36.211  31.482  31.354  1.00  0.00     0.010 A 
ATOM     43  C   UNL A   1      37.118  33.325  30.454  1.00  0.00     0.010 A 
ATOM     44  C   UNL A   1      37.361  31.946  30.687  1.00  0.00    -0.014 A 
BRANCH  44  45
ATOM     45  C   UNL A   1      38.816  31.109  30.446  1.00  0.00     0.031 A 
ATOM     46  C   UNL A   1      39.355  29.670  29.598  1.00  0.00     0.074 A 
ATOM     47  C   UNL A   1      39.886  31.686  31.044  1.00  0.00     0.049 A 
ATOM     48  N   UNL A   1      40.334  28.874  30.014  1.00  0.00    -0.248 NA
ATOM     49  C   UNL A   1      38.825  28.996  28.330  1.00  0.00     0.031 C 
ATOM     50  C   UNL A   1      41.296  31.415  30.772  1.00  0.00     0.029 A 
ATOM     51  N   UNL A   1      39.921  32.625  32.088  1.00  0.00    -0.354 N 
ATOM     52  C   UNL A   1      40.543  27.844  29.071  1.00  0.00     0.074 A 
ATOM     53  C   UNL A   1      39.492  27.882  28.143  1.00  0.00     0.031 C 
ATOM     54  C   UNL A   1      42.037  31.916  31.769  1.00  0.00     0.029 A 
ATOM     55  C   UNL A   1      41.124  32.401  32.781  1.00  0.00     0.049 A 
ATOM     56  H   UNL A   1      39.238  33.304  32.295  1.00  0.00     0.167 HD
ATOM     57  C   UNL A   1      41.664  27.084  28.932  1.00  0.00     0.037 A 
ATOM     58  C   UNL A   1      41.158  32.103  34.108  1.00  0.00     0.037 A 
ATOM     59  C   UNL A   1      42.642  27.482  29.890  1.00  0.00     0.049 A 
ATOM     60  C   UNL A   1      41.917  30.842  34.431  1.00  0.00     0.074 A 
ATOM     61  C   UNL A   1      43.651  28.423  29.843  1.00  0.00     0.029 A 
ATOM     62  N   UNL A   1      42.395  27.202  31.216  1.00  0.00    -0.354 N 
ATOM     63  N   UNL A   1      42.298  29.977  33.536  1.00  0.00    -0.248 NA
ATOM     64  C   UNL A   1      42.267  30.424  35.785  1.00  0.00     0.031 C 
ATOM     65  C   UNL A   1      44.003  28.731  31.176  1.00  0.00     0.029 A 
ATOM     66  C   UNL A   1      43.232  27.946  32.014  1.00  0.00     0.049 A 
ATOM     67  H   UNL A   1      41.721  26.564  31.544  1.00  0.00     0.167 HD
ATOM     68  C   UNL A   1      42.835  28.882  34.154  1.00  0.00     0.074 A 
ATOM     69  C   UNL A   1      42.838  29.228  35.558  1.00  0.00     0.031 C 
ATOM     70  C   UNL A   1      43.180  27.766  33.448  1.00  0.00     0.037 A 
BRANCH  57  71
ATOM     71  C   UNL A   1      41.920  26.278  27.664  1.00  0.00     0.064 A 
ATOM     72  C   UNL A   1      41.391  24.984  27.514  1.00  0.00     0.173 A 
ATOM     73  C   UNL A   1      42.798  26.685  26.633  1.00  0.00     0.173 A 
ATOM     74  F   UNL A   1      40.474  24.507  28.364  1.00  0.00    -0.203 F 
ATOM     75  C   UNL A   1      41.817  24.115  26.503  1.00  0.00     0.198 A 
ATOM     76  C   UNL A   1      43.276  25.794  25.663  1.00  0.00     0.198 A 
ATOM     77  F   UNL A   1      43.256  27.947  26.582  1.00  0.00    -0.203 F 
ATOM     78  F   UNL A   1      41.298  22.880  26.426  1.00  0.00    -0.200 F 
ATOM     79  C   UNL A   1      42.796  24.501  25.609  1.00  0.00     0.200 A 
ATOM     80  F   UNL A   1      44.237  26.181  24.809  1.00  0.00    -0.200 F 
ATOM     81  F   UNL A   1      43.269  23.634  24.702  1.00  0.00    -0.200 F 
ENDBRANCH  57  71
BRANCH  58  82
ATOM     82  C   UNL A   1      39.997  32.650  34.859  1.00  0.00     0.064 A 
ATOM     83  C   UNL A   1      39.051  31.737  35.368  1.00  0.00     0.173 A 
ATOM     84  C   UNL A   1      40.010  33.937  35.408  1.00  0.00     0.173 A 
ATOM     85  F   UNL A   1      38.997  30.487  34.879  1.00  0.00    -0.203 F 
ATOM     86  C   UNL A   1      38.249  32.054  36.462  1.00  0.00     0.198 A 
ATOM     87  C   UNL A   1      39.180  34.262  36.485  1.00  0.00     0.198 A 
ATOM     88  F   UNL A   1      40.910  34.841  34.996  1.00  0.00    -0.203 F 
ATOM     89  F   UNL A   1      37.458  31.118  37.007  1.00  0.00    -0.200 F 
ATOM     90  C   UNL A   1      38.334  33.309  37.037  1.00  0.00     0.200 A 
ATOM     91  F   UNL A   1      39.283  35.464  37.067  1.00  0.00    -0.200 F 
ATOM     92  F   UNL A   1      37.649  33.580  38.158  1.00  0.00    -0.200 F 
ENDBRANCH  58  82
BRANCH  70  93
ATOM     93  C   UNL A   1      43.500  26.397  33.997  1.00  0.00     0.064 A 
ATOM     94  C   UNL A   1      42.590  25.611  34.716  1.00  0.00     0.173 A 
ATOM     95  C   UNL A   1      44.709  25.749  33.628  1.00  0.00     0.173 A 
ATOM     96  F   UNL A   1      41.371  26.066  35.031  1.00  0.00    -0.203 F 
ATOM     97  C   UNL A   1      42.882  24.295  35.081  1.00  0.00     0.198 A 
ATOM     98  C   UNL A   1      44.965  24.414  33.930  1.00  0.00     0.198 A 
ATOM     99  F   UNL A   1      45.663  26.382  32.926  1.00  0.00    -0.203 F 
ATOM    100  F   UNL A   1      41.996  23.599  35.806  1.00  0.00    -0.200 F 
ATOM    101  C   UNL A   1      44.057  23.692  34.673  1.00  0.00     0.200 A 
ATOM    102  F   UNL A   1      46.082  23.829  33.473  1.00  0.00    -0.200 F 
ATOM    103  F   UNL A   1      44.305  22.411  34.978  1.00  0.00    -0.200 F 
ENDBRANCH  70  93
ENDBRANCH  44  45
ENDBRANCH  37  39
ENDBRANCH  36  37
ENDBRANCH  35  36
ENDBRANCH  34  35
ENDBRANCH  33  34
ENDBRANCH  32  33
ENDBRANCH   1  32
TORSDOF 20
ENDMDL
MODEL 2
REMARK VINA RESULT:     -13.6      1.715      4.166
REMARK SMILES Cc1cccc(OC2(C(=O)OCCOCCOCCOC(=O)c3ccc(-c4c5nc(c(-c6c(F)c(F)c(F)c(F)c6F)c6ccc([nH]6)c(-c6c(F)c(F)c(F)c(F)c6F)c6nc(c(-c7c(F)c(F)c(F)c(F)c7F)c7ccc4[nH]7)C=C6)C=C5)cc3)CCN(C(=O)c3cnc[nH]c3=O)CC2)c1
REMARK SMILES IDX 15 1 14 2 13 3 12 4 11 5 9 6 10 7 8 8 86 9 99 10 87 11 98 12
REMARK SMILES IDX 88 13 89 14 90 15 7 16 6 17 1 18 2 19 3 20 100 21 4 22 5 23
REMARK SMILES IDX 91 24 92 25 96 26 93 27 95 28 97 29 94 30 16 32 17 33 18 34
REMARK SMILES IDX 19 35 20 36 21 37 22 38 23 39 24 40 85 41 25 42 84 43 26 44
REMARK SMILES IDX 27 45 28 46 78 47 29 48 83 49 77 50 79 51 30 52 82 53 76 54
REMARK SMILES IDX 75 55 31 57 63 58 43 59 62 60 44 61 47 62 61 63 80 64 45 65
REMARK SMILES IDX 46 66 60 68 81 69 48 70 32 71 33 72 41 73 34 74 35 75 39 76
REMARK SMILES IDX 42 77 36 78 37 79 40 80 38 81 64 82 65 83 73 84 66 85 67 86
REMARK SMILES IDX 71 87 74 88 68 89 69 90 72 91 70 92 49 93 50 94 58 95 51 96
REMARK SMILES IDX 52 97 56 98 59 99 53 100 54 101 57 102 55 103
REMARK H PARENT 95 31 79 56 47 67
REMARK Flexibility Score: inf
ROOT
ATOM      1  C   UNL A   1      33.462  33.623  28.014  1.00  0.00     0.188 C 
ENDROOT
BRANCH   1   2
ATOM      2  O   UNL A   1      33.748  32.216  27.860  1.00  0.00    -0.376 OA
BRANCH   2   3
ATOM      3  C   UNL A   1      32.914  31.266  27.167  1.00  0.00     0.202 C 
BRANCH   3   4
ATOM      4  C   UNL A   1      33.071  29.599  27.358  1.00  0.00     0.261 C 
BRANCH   4   5
ATOM      5  O   UNL A   1      31.861  28.336  27.147  1.00  0.00    -0.460 OA
BRANCH   5   6
ATOM      6  C   UNL A   1      31.396  27.318  26.220  1.00  0.00     0.350 C 
ATOM      7  O   UNL A   1      30.646  26.367  26.464  1.00  0.00    -0.247 OA
BRANCH   6   8
ATOM      8  C   UNL A   1      31.709  27.380  24.714  1.00  0.00     0.209 C 
ATOM      9  C   UNL A   1      30.759  26.434  24.008  1.00  0.00     0.082 C 
ATOM     10  C   UNL A   1      31.620  28.906  24.346  1.00  0.00     0.082 C 
ATOM     11  C   UNL A   1      30.342  26.910  22.635  1.00  0.00     0.124 C 
ATOM     12  C   UNL A   1      31.295  29.132  22.890  1.00  0.00     0.124 C 
ATOM     13  N   UNL A   1      30.112  28.337  22.620  1.00  0.00    -0.338 N 
ATOM     14  C   UNL A   1      28.845  28.851  22.861  1.00  0.00     0.261 C 
ATOM     15  O   UNL A   1      27.973  28.247  23.477  1.00  0.00    -0.269 OA
BRANCH   8  16
ATOM     16  O   UNL A   1      33.125  27.061  24.739  1.00  0.00    -0.475 OA
BRANCH  16  17
ATOM     17  C   UNL A   1      33.692  25.840  24.539  1.00  0.00     0.121 A 
ATOM     18  C   UNL A   1      33.294  23.115  21.944  1.00  0.00     0.044 C 
ATOM     19  C   UNL A   1      33.679  23.806  23.218  1.00  0.00    -0.047 A 
ATOM     20  C   UNL A   1      34.038  23.060  24.346  1.00  0.00     0.003 A 
ATOM     21  C   UNL A   1      33.537  25.198  23.319  1.00  0.00     0.050 A 
ATOM     22  C   UNL A   1      34.242  23.702  25.566  1.00  0.00     0.004 A 
ATOM     23  C   UNL A   1      34.046  25.085  25.666  1.00  0.00     0.046 A 
ENDBRANCH  16  17
ENDBRANCH   8  16
BRANCH  14  24
ATOM     24  C   UNL A   1      28.619  30.198  22.307  1.00  0.00     0.123 A 
ATOM     25  C   UNL A   1      28.204  30.379  21.045  1.00  0.00     0.132 A 
ATOM     26  C   UNL A   1      28.790  31.405  23.138  1.00  0.00     0.263 A 
ATOM     27  N   UNL A   1      27.901  31.598  20.482  1.00  0.00    -0.246 NA
ATOM     28  N   UNL A   1      28.451  32.579  22.539  1.00  0.00    -0.312 N 
ATOM     29  O   UNL A   1      29.208  31.377  24.296  1.00  0.00    -0.269 OA
ATOM     30  C   UNL A   1      28.029  32.632  21.244  1.00  0.00     0.199 A 
ATOM     31  H   UNL A   1      28.511  33.414  23.056  1.00  0.00     0.171 HD
ENDBRANCH  14  24
ENDBRANCH   6   8
ENDBRANCH   5   6
ENDBRANCH   4   5
ENDBRANCH   3   4
ENDBRANCH   2   3
ENDBRANCH   1   2
BRANCH   1  32
ATOM     32  C   UNL A   1      34.459  34.772  27.796  1.00  0.00     0.188 C 
BRANCH  32  33
ATOM     33  O   UNL A   1      34.080  35.946  28.483  1.00  0.00    -0.376 OA
BRANCH  33  34
ATOM     34  C   UNL A   1      32.837  35.881  29.169  1.00  0.00     0.202 C 
BRANCH  34  35
ATOM     35  C   UNL A   1      32.914  36.315  30.650  1.00  0.00     0.261 C 
BRANCH  35  36
ATOM     36  O   UNL A   1      32.900  35.187  31.559  1.00  0.00    -0.460 OA
BRANCH  36  37
ATOM     37  C   UNL A   1      33.929  35.107  32.473  1.00  0.00     0.338 C 
ATOM     38  O   UNL A   1      34.084  35.890  33.390  1.00  0.00    -0.246 OA
BRANCH  37  39
ATOM     39  C   UNL A   1      34.820  33.941  32.166  1.00  0.00     0.060 A 
ATOM     40  C   UNL A   1      35.218  32.864  32.976  1.00  0.00     0.016 A 
ATOM     41  C   UNL A   1      35.431  33.995  30.968  1.00  0.00     0.016 A 
ATOM     42  C   UNL A   1      36.341  31.963  32.612  1.00  0.00     0.010 A 
ATOM     43  C   UNL A   1      36.566  33.214  30.764  1.00  0.00     0.010 A 
ATOM     44  C   UNL A   1      37.151  32.131  31.472  1.00  0.00    -0.014 A 
BRANCH  44  45
ATOM     45  C   UNL A   1      38.638  31.383  31.149  1.00  0.00     0.031 A 
ATOM     46  C   UNL A   1      39.228  30.045  30.179  1.00  0.00     0.074 A 
ATOM     47  C   UNL A   1      39.689  31.954  31.785  1.00  0.00     0.049 A 
ATOM     48  N   UNL A   1      40.246  29.261  30.518  1.00  0.00    -0.248 NA
ATOM     49  C   UNL A   1      38.713  29.457  28.863  1.00  0.00     0.031 C 
ATOM     50  C   UNL A   1      41.105  31.770  31.479  1.00  0.00     0.029 A 
ATOM     51  N   UNL A   1      39.695  32.803  32.904  1.00  0.00    -0.354 N 
ATOM     52  C   UNL A   1      40.489  28.324  29.490  1.00  0.00     0.074 A 
ATOM     53  C   UNL A   1      39.426  28.394  28.577  1.00  0.00     0.031 C 
ATOM     54  C   UNL A   1      41.836  32.217  32.508  1.00  0.00     0.029 A 
ATOM     55  C   UNL A   1      40.916  32.575  33.566  1.00  0.00     0.049 A 
ATOM     56  H   UNL A   1      38.986  33.431  33.173  1.00  0.00     0.167 HD
ATOM     57  C   UNL A   1      41.639  27.629  29.278  1.00  0.00     0.037 A 
ATOM     58  C   UNL A   1      40.978  32.168  34.863  1.00  0.00     0.037 A 
ATOM     59  C   UNL A   1      42.611  27.987  30.258  1.00  0.00     0.049 A 
ATOM     60  C   UNL A   1      41.795  30.920  35.072  1.00  0.00     0.074 A 
ATOM     61  C   UNL A   1      43.577  28.973  30.281  1.00  0.00     0.029 A 
ATOM     62  N   UNL A   1      42.392  27.587  31.557  1.00  0.00    -0.354 N 
ATOM     63  N   UNL A   1      42.203  30.151  34.103  1.00  0.00    -0.248 NA
ATOM     64  C   UNL A   1      42.180  30.406  36.383  1.00  0.00     0.031 C 
ATOM     65  C   UNL A   1      43.932  29.183  31.632  1.00  0.00     0.029 A 
ATOM     66  C   UNL A   1      43.206  28.298  32.408  1.00  0.00     0.049 A 
ATOM     67  H   UNL A   1      41.750  26.895  31.835  1.00  0.00     0.167 HD
ATOM     68  C   UNL A   1      42.794  29.032  34.623  1.00  0.00     0.074 A 
ATOM     69  C   UNL A   1      42.799  29.259  36.051  1.00  0.00     0.031 C 
ATOM     70  C   UNL A   1      43.178  27.996  33.822  1.00  0.00     0.037 A 
BRANCH  57  71
ATOM     71  C   UNL A   1      41.914  26.944  27.944  1.00  0.00     0.064 A 
ATOM     72  C   UNL A   1      41.719  25.560  27.790  1.00  0.00     0.173 A 
ATOM     73  C   UNL A   1      42.508  27.588  26.834  1.00  0.00     0.173 A 
ATOM     74  F   UNL A   1      41.080  24.843  28.723  1.00  0.00    -0.203 F 
ATOM     75  C   UNL A   1      42.208  24.854  26.685  1.00  0.00     0.198 A 
ATOM     76  C   UNL A   1      43.059  26.873  25.761  1.00  0.00     0.198 A 
ATOM     77  F   UNL A   1      42.617  28.926  26.795  1.00  0.00    -0.203 F 
ATOM     78  F   UNL A   1      42.017  23.528  26.607  1.00  0.00    -0.200 F 
ATOM     79  C   UNL A   1      42.922  25.501  25.697  1.00  0.00     0.200 A 
ATOM     80  F   UNL A   1      43.761  27.514  24.814  1.00  0.00    -0.200 F 
ATOM     81  F   UNL A   1      43.471  24.806  24.689  1.00  0.00    -0.200 F 
ENDBRANCH  57  71
BRANCH  58  82
ATOM     82  C   UNL A   1      39.804  32.599  35.666  1.00  0.00     0.064 A 
ATOM     83  C   UNL A   1      38.854  31.619  36.022  1.00  0.00     0.173 A 
ATOM     84  C   UNL A   1      39.804  33.792  36.397  1.00  0.00     0.173 A 
ATOM     85  F   UNL A   1      38.812  30.454  35.356  1.00  0.00    -0.203 F 
ATOM     86  C   UNL A   1      38.034  31.773  37.138  1.00  0.00     0.198 A 
ATOM     87  C   UNL A   1      38.955  33.956  37.497  1.00  0.00     0.198 A 
ATOM     88  F   UNL A   1      40.706  34.748  36.135  1.00  0.00    -0.203 F 
ATOM     89  F   UNL A   1      37.238  30.766  37.528  1.00  0.00    -0.200 F 
ATOM     90  C   UNL A   1      38.105  32.931  37.890  1.00  0.00     0.200 A 
ATOM     91  F   UNL A   1      39.045  35.061  38.249  1.00  0.00    -0.200 F 
ATOM     92  F   UNL A   1      37.401  33.035  39.028  1.00  0.00    -0.200 F 
ENDBRANCH  58  82
BRANCH  70  93
ATOM     93  C   UNL A   1      43.564  26.601  34.251  1.00  0.00     0.064 A 
ATOM     94  C   UNL A   1      44.884  26.133  34.289  1.00  0.00     0.173 A 
ATOM     95  C   UNL A   1      42.594  25.743  34.834  1.00  0.00     0.173 A 
ATOM     96  F   UNL A   1      45.906  26.890  33.871  1.00  0.00    -0.203 F 
ATOM     97  C   UNL A   1      45.207  24.884  34.826  1.00  0.00     0.198 A 
ATOM     98  C   UNL A   1      42.930  24.532  35.434  1.00  0.00     0.198 A 
ATOM     99  F   UNL A   1      41.293  26.074  34.876  1.00  0.00    -0.203 F 
ATOM    100  F   UNL A   1      46.478  24.463  34.801  1.00  0.00    -0.200 F 
ATOM    101  C   UNL A   1      44.236  24.095  35.414  1.00  0.00     0.200 A 
ATOM    102  F   UNL A   1      41.984  23.810  36.053  1.00  0.00    -0.200 F 
ATOM    103  F   UNL A   1      44.562  22.924  35.977  1.00  0.00    -0.200 F 
ENDBRANCH  70  93
ENDBRANCH  44  45
ENDBRANCH  37  39
ENDBRANCH  36  37
ENDBRANCH  35  36
ENDBRANCH  34  35
ENDBRANCH  33  34
ENDBRANCH  32  33
ENDBRANCH   1  32
TORSDOF 20
ENDMDL
MODEL 3
REMARK VINA RESULT:     -13.0      1.449      1.998
REMARK SMILES Cc1cccc(OC2(C(=O)OCCOCCOCCOC(=O)c3ccc(-c4c5nc(c(-c6c(F)c(F)c(F)c(F)c6F)c6ccc([nH]6)c(-c6c(F)c(F)c(F)c(F)c6F)c6nc(c(-c7c(F)c(F)c(F)c(F)c7F)c7ccc4[nH]7)C=C6)C=C5)cc3)CCN(C(=O)c3cnc[nH]c3=O)CC2)c1
REMARK SMILES IDX 15 1 14 2 13 3 12 4 11 5 9 6 10 7 8 8 86 9 99 10 87 11 98 12
REMARK SMILES IDX 88 13 89 14 90 15 7 16 6 17 1 18 2 19 3 20 100 21 4 22 5 23
REMARK SMILES IDX 91 24 92 25 96 26 93 27 95 28 97 29 94 30 16 32 17 33 18 34
REMARK SMILES IDX 19 35 20 36 21 37 22 38 23 39 24 40 85 41 25 42 84 43 26 44
REMARK SMILES IDX 27 45 28 46 78 47 29 48 83 49 77 50 79 51 30 52 82 53 76 54
REMARK SMILES IDX 75 55 31 57 63 58 43 59 62 60 44 61 47 62 61 63 80 64 45 65
REMARK SMILES IDX 46 66 60 68 81 69 48 70 32 71 33 72 41 73 34 74 35 75 39 76
REMARK SMILES IDX 42 77 36 78 37 79 40 80 38 81 64 82 65 83 73 84 66 85 67 86
REMARK SMILES IDX 71 87 74 88 68 89 69 90 72 91 70 92 49 93 50 94 58 95 51 96
REMARK SMILES IDX 52 97 56 98 59 99 53 100 54 101 57 102 55 103
REMARK H PARENT 95 31 79 56 47 67
REMARK Flexibility Score: inf
ROOT
ATOM      1  C   UNL A   1      33.921  31.641  28.057  1.00  0.00     0.188 C 
ENDROOT
BRANCH   1   2
ATOM      2  O   UNL A   1      33.597  30.822  26.912  1.00  0.00    -0.376 OA
BRANCH   2   3
ATOM      3  C   UNL A   1      32.308  30.236  26.643  1.00  0.00     0.202 C 
BRANCH   3   4
ATOM      4  C   UNL A   1      31.905  28.664  27.098  1.00  0.00     0.261 C 
BRANCH   4   5
ATOM      5  O   UNL A   1      32.053  27.168  26.178  1.00  0.00    -0.460 OA
BRANCH   5   6
ATOM      6  C   UNL A   1      31.307  26.007  25.724  1.00  0.00     0.350 C 
ATOM      7  O   UNL A   1      30.310  25.501  26.251  1.00  0.00    -0.247 OA
BRANCH   6   8
ATOM      8  C   UNL A   1      31.622  25.303  24.391  1.00  0.00     0.209 C 
ATOM      9  C   UNL A   1      33.092  25.518  24.095  1.00  0.00     0.082 C 
ATOM     10  C   UNL A   1      31.131  23.824  24.590  1.00  0.00     0.082 C 
ATOM     11  C   UNL A   1      33.744  24.350  23.390  1.00  0.00     0.124 C 
ATOM     12  C   UNL A   1      31.856  22.848  23.698  1.00  0.00     0.124 C 
ATOM     13  N   UNL A   1      33.271  23.089  23.915  1.00  0.00    -0.338 N 
ATOM     14  C   UNL A   1      33.944  22.459  24.953  1.00  0.00     0.261 C 
ATOM     15  O   UNL A   1      34.674  23.046  25.744  1.00  0.00    -0.269 OA
BRANCH   8  16
ATOM     16  O   UNL A   1      30.636  25.936  23.534  1.00  0.00    -0.475 OA
BRANCH  16  17
ATOM     17  C   UNL A   1      30.379  27.269  23.428  1.00  0.00     0.121 A 
ATOM     18  C   UNL A   1      27.260  29.341  22.883  1.00  0.00     0.044 C 
ATOM     19  C   UNL A   1      28.710  28.966  22.965  1.00  0.00    -0.047 A 
ATOM     20  C   UNL A   1      29.683  29.773  22.365  1.00  0.00     0.003 A 
ATOM     21  C   UNL A   1      29.074  27.730  23.519  1.00  0.00     0.050 A 
ATOM     22  C   UNL A   1      31.006  29.339  22.310  1.00  0.00     0.004 A 
ATOM     23  C   UNL A   1      31.348  28.080  22.820  1.00  0.00     0.046 A 
ENDBRANCH  16  17
ENDBRANCH   8  16
BRANCH  14  24
ATOM     24  C   UNL A   1      33.717  21.004  25.031  1.00  0.00     0.123 A 
ATOM     25  C   UNL A   1      32.485  20.490  25.155  1.00  0.00     0.132 A 
ATOM     26  C   UNL A   1      34.837  20.050  24.923  1.00  0.00     0.263 A 
ATOM     27  N   UNL A   1      32.190  19.146  25.159  1.00  0.00    -0.246 NA
ATOM     28  N   UNL A   1      34.484  18.736  24.907  1.00  0.00    -0.312 N 
ATOM     29  O   UNL A   1      36.017  20.395  24.852  1.00  0.00    -0.269 OA
ATOM     30  C   UNL A   1      33.187  18.336  25.031  1.00  0.00     0.199 A 
ATOM     31  H   UNL A   1      35.186  18.054  24.801  1.00  0.00     0.171 HD
ENDBRANCH  14  24
ENDBRANCH   6   8
ENDBRANCH   5   6
ENDBRANCH   4   5
ENDBRANCH   3   4
ENDBRANCH   2   3
ENDBRANCH   1   2
BRANCH   1  32
ATOM     32  C   UNL A   1      34.505  33.061  28.010  1.00  0.00     0.188 C 
BRANCH  32  33
ATOM     33  O   UNL A   1      34.158  33.819  29.151  1.00  0.00    -0.376 OA
BRANCH  33  34
ATOM     34  C   UNL A   1      33.787  35.168  28.901  1.00  0.00     0.202 C 
BRANCH  34  35
ATOM     35  C   UNL A   1      32.705  35.710  29.862  1.00  0.00     0.261 C 
BRANCH  35  36
ATOM     36  O   UNL A   1      33.253  36.113  31.141  1.00  0.00    -0.460 OA
BRANCH  36  37
ATOM     37  C   UNL A   1      33.199  35.190  32.164  1.00  0.00     0.338 C 
ATOM     38  O   UNL A   1      32.191  34.932  32.793  1.00  0.00    -0.246 OA
BRANCH  37  39
ATOM     39  C   UNL A   1      34.546  34.572  32.390  1.00  0.00     0.060 A 
ATOM     40  C   UNL A   1      35.810  35.172  32.520  1.00  0.00     0.016 A 
ATOM     41  C   UNL A   1      34.567  33.227  32.341  1.00  0.00     0.016 A 
ATOM     42  C   UNL A   1      37.074  34.397  32.438  1.00  0.00     0.010 A 
ATOM     43  C   UNL A   1      35.785  32.589  32.120  1.00  0.00     0.010 A 
ATOM     44  C   UNL A   1      37.138  33.017  32.159  1.00  0.00    -0.014 A 
BRANCH  44  45
ATOM     45  C   UNL A   1      38.508  32.123  31.714  1.00  0.00     0.031 A 
ATOM     46  C   UNL A   1      38.880  30.760  30.672  1.00  0.00     0.074 A 
ATOM     47  C   UNL A   1      39.657  32.558  32.285  1.00  0.00     0.049 A 
ATOM     48  N   UNL A   1      39.827  29.860  30.919  1.00  0.00    -0.248 NA
ATOM     49  C   UNL A   1      38.214  30.272  29.383  1.00  0.00     0.031 C 
ATOM     50  C   UNL A   1      41.020  32.231  31.874  1.00  0.00     0.029 A 
ATOM     51  N   UNL A   1      39.833  33.366  33.420  1.00  0.00    -0.354 N 
ATOM     52  C   UNL A   1      39.893  28.935  29.855  1.00  0.00     0.074 A 
ATOM     53  C   UNL A   1      38.784  29.147  29.022  1.00  0.00     0.031 C 
ATOM     54  C   UNL A   1      41.865  32.565  32.858  1.00  0.00     0.029 A 
ATOM     55  C   UNL A   1      41.064  32.988  33.987  1.00  0.00     0.049 A 
ATOM     56  H   UNL A   1      39.218  34.058  33.754  1.00  0.00     0.167 HD
ATOM     57  C   UNL A   1      40.943  28.127  29.545  1.00  0.00     0.037 A 
ATOM     58  C   UNL A   1      41.170  32.537  35.266  1.00  0.00     0.037 A 
ATOM     59  C   UNL A   1      42.013  28.348  30.461  1.00  0.00     0.049 A 
ATOM     60  C   UNL A   1      41.858  31.202  35.387  1.00  0.00     0.074 A 
ATOM     61  C   UNL A   1      43.082  29.223  30.437  1.00  0.00     0.029 A 
ATOM     62  N   UNL A   1      41.843  27.934  31.762  1.00  0.00    -0.354 N 
ATOM     63  N   UNL A   1      42.112  30.423  34.374  1.00  0.00    -0.248 NA
ATOM     64  C   UNL A   1      42.273  30.609  36.655  1.00  0.00     0.031 C 
ATOM     65  C   UNL A   1      43.550  29.352  31.764  1.00  0.00     0.029 A 
ATOM     66  C   UNL A   1      42.786  28.526  32.569  1.00  0.00     0.049 A 
ATOM     67  H   UNL A   1      41.149  27.306  32.070  1.00  0.00     0.167 HD
ATOM     68  C   UNL A   1      42.611  29.232  34.824  1.00  0.00     0.074 A 
ATOM     69  C   UNL A   1      42.739  29.413  36.253  1.00  0.00     0.031 C 
ATOM     70  C   UNL A   1      42.823  28.186  33.974  1.00  0.00     0.037 A 
BRANCH  57  71
ATOM     71  C   UNL A   1      41.049  27.457  28.179  1.00  0.00     0.064 A 
ATOM     72  C   UNL A   1      40.628  26.129  27.993  1.00  0.00     0.173 A 
ATOM     73  C   UNL A   1      41.691  28.040  27.062  1.00  0.00     0.173 A 
ATOM     74  F   UNL A   1      39.923  25.488  28.933  1.00  0.00    -0.203 F 
ATOM     75  C   UNL A   1      40.951  25.396  26.845  1.00  0.00     0.198 A 
ATOM     76  C   UNL A   1      42.075  27.288  25.943  1.00  0.00     0.198 A 
ATOM     77  F   UNL A   1      42.011  29.345  27.059  1.00  0.00    -0.203 F 
ATOM     78  F   UNL A   1      40.547  24.122  26.735  1.00  0.00    -0.200 F 
ATOM     79  C   UNL A   1      41.718  25.958  25.844  1.00  0.00     0.200 A 
ATOM     80  F   UNL A   1      42.831  27.845  24.984  1.00  0.00    -0.200 F 
ATOM     81  F   UNL A   1      42.106  25.224  24.791  1.00  0.00    -0.200 F 
ENDBRANCH  57  71
BRANCH  58  82
ATOM     82  C   UNL A   1      40.109  33.066  36.162  1.00  0.00     0.064 A 
ATOM     83  C   UNL A   1      39.024  32.220  36.471  1.00  0.00     0.173 A 
ATOM     84  C   UNL A   1      40.327  34.166  36.999  1.00  0.00     0.173 A 
ATOM     85  F   UNL A   1      38.772  31.147  35.702  1.00  0.00    -0.203 F 
ATOM     86  C   UNL A   1      38.277  32.390  37.634  1.00  0.00     0.198 A 
ATOM     87  C   UNL A   1      39.552  34.352  38.149  1.00  0.00     0.198 A 
ATOM     88  F   UNL A   1      41.363  34.987  36.783  1.00  0.00    -0.203 F 
ATOM     89  F   UNL A   1      37.341  31.488  37.967  1.00  0.00    -0.200 F 
ATOM     90  C   UNL A   1      38.560  33.441  38.486  1.00  0.00     0.200 A 
ATOM     91  F   UNL A   1      39.845  35.349  38.995  1.00  0.00    -0.200 F 
ATOM     92  F   UNL A   1      37.920  33.542  39.661  1.00  0.00    -0.200 F 
ENDBRANCH  58  82
BRANCH  70  93
ATOM     93  C   UNL A   1      43.082  26.745  34.341  1.00  0.00     0.064 A 
ATOM     94  C   UNL A   1      42.135  25.911  34.951  1.00  0.00     0.173 A 
ATOM     95  C   UNL A   1      44.266  26.099  33.894  1.00  0.00     0.173 A 
ATOM     96  F   UNL A   1      40.934  26.373  35.320  1.00  0.00    -0.203 F 
ATOM     97  C   UNL A   1      42.369  24.548  35.143  1.00  0.00     0.198 A 
ATOM     98  C   UNL A   1      44.464  24.727  34.021  1.00  0.00     0.198 A 
ATOM     99  F   UNL A   1      45.250  26.777  33.282  1.00  0.00    -0.203 F 
ATOM    100  F   UNL A   1      41.451  23.802  35.771  1.00  0.00    -0.200 F 
ATOM    101  C   UNL A   1      43.522  23.954  34.663  1.00  0.00     0.200 A 
ATOM    102  F   UNL A   1      45.559  24.160  33.495  1.00  0.00    -0.200 F 
ATOM    103  F   UNL A   1      43.714  22.635  34.800  1.00  0.00    -0.200 F 
ENDBRANCH  70  93
ENDBRANCH  44  45
ENDBRANCH  37  39
ENDBRANCH  36  37
ENDBRANCH  35  36
ENDBRANCH  34  35
ENDBRANCH  33  34
ENDBRANCH  32  33
ENDBRANCH   1  32
TORSDOF 20
ENDMDL
