MODEL 1
REMARK VINA RESULT:     -10.6      0.000      0.000
REMARK SMILES O=C(OCCOCCOCCOC(=O)[C@H]1CS[C@H](c2nc3ccccc3s2)[NH2+]1)c1ccc(-c2c3nc(c(-c4c(F)c(F)c(F)c(F)c4F)c4ccc([nH]4)c(-c4c(F)c(F)c(F)c(F)c4F)c4nc(c(-c5c(F)c(F)c(F)c(F)c5F)c5ccc2[nH]5)C=C4)C=C3)cc1
REMARK SMILES IDX 7 1 6 2 5 3 4 4 3 5 2 6 1 7 29 8 30 9 91 10 31 11 90 12
REMARK SMILES IDX 32 13 33 14 34 15 84 16 35 17 89 18 83 19 85 20 36 21 88 22
REMARK SMILES IDX 82 23 81 24 37 26 69 27 49 28 68 29 50 30 53 31 67 32 86 33
REMARK SMILES IDX 51 34 52 35 66 37 87 38 54 39 38 40 39 41 47 42 40 43 41 44
REMARK SMILES IDX 45 45 48 46 42 47 43 48 46 49 44 50 70 51 71 52 79 53 72 54
REMARK SMILES IDX 73 55 77 56 80 57 74 58 75 59 78 60 76 61 55 62 56 63 64 64
REMARK SMILES IDX 57 65 58 66 62 67 65 68 59 69 60 70 63 71 61 72 8 73 9 74
REMARK SMILES IDX 10 75 11 76 12 77 13 78 14 79 15 80 16 81 28 82 17 83 18 84
REMARK SMILES IDX 19 87 20 88 27 89 21 90 26 91 22 92 25 93 23 94 24 95
REMARK H PARENT 85 25 53 36 28 85 28 86
REMARK Flexibility Score: inf
ROOT
ATOM      1  C   UNL A   1      40.908  21.880  26.863  1.00  0.00     0.188 C 
ENDROOT
BRANCH   1   2
ATOM      2  O   UNL A   1      41.359  21.006  25.820  1.00  0.00    -0.376 OA
BRANCH   2   3
ATOM      3  C   UNL A   1      41.291  19.615  26.168  1.00  0.00     0.202 C 
BRANCH   3   4
ATOM      4  C   UNL A   1      42.600  18.815  26.022  1.00  0.00     0.261 C 
BRANCH   4   5
ATOM      5  O   UNL A   1      43.220  18.946  24.732  1.00  0.00    -0.460 OA
BRANCH   5   6
ATOM      6  C   UNL A   1      44.360  19.607  24.405  1.00  0.00     0.338 C 
ATOM      7  O   UNL A   1      45.195  19.033  23.708  1.00  0.00    -0.246 OA
BRANCH   6   8
ATOM      8  C   UNL A   1      44.668  20.998  24.858  1.00  0.00     0.060 A 
ATOM      9  C   UNL A   1      45.327  21.316  26.043  1.00  0.00     0.016 A 
ATOM     10  C   UNL A   1      44.329  22.055  23.995  1.00  0.00     0.016 A 
ATOM     11  C   UNL A   1      45.554  22.628  26.423  1.00  0.00     0.010 A 
ATOM     12  C   UNL A   1      44.610  23.383  24.339  1.00  0.00     0.010 A 
ATOM     13  C   UNL A   1      45.199  23.670  25.574  1.00  0.00    -0.014 A 
BRANCH  13  14
ATOM     14  C   UNL A   1      45.368  25.044  26.081  1.00  0.00     0.031 A 
ATOM     15  C   UNL A   1      46.698  25.697  25.922  1.00  0.00     0.074 A 
ATOM     16  C   UNL A   1      44.297  25.735  26.512  1.00  0.00     0.049 A 
ATOM     17  N   UNL A   1      47.077  26.887  26.290  1.00  0.00    -0.248 NA
ATOM     18  C   UNL A   1      47.735  24.915  25.228  1.00  0.00     0.031 C 
ATOM     19  C   UNL A   1      42.937  25.206  26.541  1.00  0.00     0.029 A 
ATOM     20  N   UNL A   1      44.159  27.015  26.971  1.00  0.00    -0.354 N 
ATOM     21  C   UNL A   1      48.398  26.994  25.891  1.00  0.00     0.074 A 
ATOM     22  C   UNL A   1      48.764  25.746  25.259  1.00  0.00     0.031 C 
ATOM     23  C   UNL A   1      42.098  26.149  26.988  1.00  0.00     0.029 A 
ATOM     24  C   UNL A   1      42.873  27.322  27.351  1.00  0.00     0.049 A 
ATOM     25  H   UNL A   1      44.906  27.654  27.025  1.00  0.00     0.167 HD
ATOM     26  C   UNL A   1      49.225  28.051  26.050  1.00  0.00     0.037 A 
ATOM     27  C   UNL A   1      42.388  28.414  27.969  1.00  0.00     0.037 A 
ATOM     28  C   UNL A   1      48.820  29.271  26.694  1.00  0.00     0.049 A 
ATOM     29  C   UNL A   1      43.363  29.519  28.259  1.00  0.00     0.074 A 
ATOM     30  C   UNL A   1      49.578  30.390  26.979  1.00  0.00     0.029 A 
ATOM     31  N   UNL A   1      47.534  29.523  27.159  1.00  0.00    -0.354 N 
ATOM     32  N   UNL A   1      44.634  29.597  27.940  1.00  0.00    -0.248 NA
ATOM     33  C   UNL A   1      42.851  30.682  28.990  1.00  0.00     0.031 C 
ATOM     34  C   UNL A   1      48.763  31.295  27.669  1.00  0.00     0.029 A 
ATOM     35  C   UNL A   1      47.482  30.770  27.755  1.00  0.00     0.049 A 
ATOM     36  H   UNL A   1      46.772  28.904  27.077  1.00  0.00     0.167 HD
ATOM     37  C   UNL A   1      45.071  30.824  28.406  1.00  0.00     0.074 A 
ATOM     38  C   UNL A   1      43.921  31.466  29.014  1.00  0.00     0.031 C 
ATOM     39  C   UNL A   1      46.309  31.373  28.341  1.00  0.00     0.037 A 
BRANCH  26  40
ATOM     40  C   UNL A   1      50.642  27.880  25.599  1.00  0.00     0.064 A 
ATOM     41  C   UNL A   1      51.683  27.601  26.497  1.00  0.00     0.173 A 
ATOM     42  C   UNL A   1      50.968  28.038  24.244  1.00  0.00     0.173 A 
ATOM     43  F   UNL A   1      51.429  27.479  27.809  1.00  0.00    -0.203 F 
ATOM     44  C   UNL A   1      53.002  27.511  26.057  1.00  0.00     0.198 A 
ATOM     45  C   UNL A   1      52.283  27.921  23.804  1.00  0.00     0.198 A 
ATOM     46  F   UNL A   1      50.011  28.324  23.348  1.00  0.00    -0.203 F 
ATOM     47  F   UNL A   1      53.989  27.305  26.940  1.00  0.00    -0.200 F 
ATOM     48  C   UNL A   1      53.299  27.665  24.711  1.00  0.00     0.200 A 
ATOM     49  F   UNL A   1      52.567  28.072  22.503  1.00  0.00    -0.200 F 
ATOM     50  F   UNL A   1      54.569  27.585  24.290  1.00  0.00    -0.200 F 
ENDBRANCH  26  40
BRANCH  27  51
ATOM     51  C   UNL A   1      40.964  28.481  28.403  1.00  0.00     0.064 A 
ATOM     52  C   UNL A   1      39.965  28.989  27.563  1.00  0.00     0.173 A 
ATOM     53  C   UNL A   1      40.579  28.067  29.690  1.00  0.00     0.173 A 
ATOM     54  F   UNL A   1      40.277  29.418  26.331  1.00  0.00    -0.203 F 
ATOM     55  C   UNL A   1      38.645  29.109  28.002  1.00  0.00     0.198 A 
ATOM     56  C   UNL A   1      39.254  28.156  30.115  1.00  0.00     0.198 A 
ATOM     57  F   UNL A   1      41.494  27.581  30.540  1.00  0.00    -0.203 F 
ATOM     58  F   UNL A   1      37.724  29.660  27.198  1.00  0.00    -0.200 F 
ATOM     59  C   UNL A   1      38.290  28.689  29.275  1.00  0.00     0.200 A 
ATOM     60  F   UNL A   1      38.916  27.747  31.345  1.00  0.00    -0.200 F 
ATOM     61  F   UNL A   1      37.025  28.819  29.698  1.00  0.00    -0.200 F 
ENDBRANCH  27  51
BRANCH  39  62
ATOM     62  C   UNL A   1      46.457  32.753  28.902  1.00  0.00     0.064 A 
ATOM     63  C   UNL A   1      46.744  32.971  30.256  1.00  0.00     0.173 A 
ATOM     64  C   UNL A   1      46.344  33.869  28.058  1.00  0.00     0.173 A 
ATOM     65  F   UNL A   1      46.840  31.934  31.102  1.00  0.00    -0.203 F 
ATOM     66  C   UNL A   1      46.888  34.262  30.753  1.00  0.00     0.198 A 
ATOM     67  C   UNL A   1      46.526  35.154  28.551  1.00  0.00     0.198 A 
ATOM     68  F   UNL A   1      46.076  33.706  26.754  1.00  0.00    -0.203 F 
ATOM     69  F   UNL A   1      47.109  34.453  32.060  1.00  0.00    -0.200 F 
ATOM     70  C   UNL A   1      46.790  35.350  29.899  1.00  0.00     0.200 A 
ATOM     71  F   UNL A   1      46.447  36.204  27.722  1.00  0.00    -0.200 F 
ATOM     72  F   UNL A   1      46.941  36.593  30.377  1.00  0.00    -0.200 F 
ENDBRANCH  39  62
ENDBRANCH  13  14
ENDBRANCH   6   8
ENDBRANCH   5   6
ENDBRANCH   4   5
ENDBRANCH   3   4
ENDBRANCH   2   3
ENDBRANCH   1   2
BRANCH   1  73
ATOM     73  C   UNL A   1      39.471  22.369  26.664  1.00  0.00     0.188 C 
BRANCH  73  74
ATOM     74  O   UNL A   1      38.702  21.762  25.628  1.00  0.00    -0.376 OA
BRANCH  74  75
ATOM     75  C   UNL A   1      37.433  22.330  25.327  1.00  0.00     0.202 C 
BRANCH  75  76
ATOM     76  C   UNL A   1      36.240  21.376  25.141  1.00  0.00     0.261 C 
BRANCH  76  77
ATOM     77  O   UNL A   1      35.295  21.402  26.222  1.00  0.00    -0.459 OA
BRANCH  77  78
ATOM     78  C   UNL A   1      33.984  21.361  25.860  1.00  0.00     0.365 C 
ATOM     79  O   UNL A   1      33.296  20.342  25.781  1.00  0.00    -0.245 OA
BRANCH  78  80
ATOM     80  C   UNL A   1      33.433  22.765  25.588  1.00  0.00     0.304 C 
ATOM     81  C   UNL A   1      33.231  22.980  24.098  1.00  0.00     0.153 C 
ATOM     82  N   UNL A   1      32.177  22.958  26.373  1.00  0.00    -0.317 N 
ATOM     83  S   UNL A   1      31.453  23.054  23.853  1.00  0.00    -0.085 SA
ATOM     84  C   UNL A   1      31.174  23.634  25.543  1.00  0.00     0.303 C 
ATOM     85  H   UNL A   1      32.376  23.526  27.196  1.00  0.00     0.348 HD
ATOM     86  H   UNL A   1      31.818  22.048  26.663  1.00  0.00     0.348 HD
BRANCH  84  87
ATOM     87  C   UNL A   1      31.147  25.155  25.649  1.00  0.00     0.163 A 
ATOM     88  N   UNL A   1      31.369  25.807  26.776  1.00  0.00    -0.234 NA
ATOM     89  S   UNL A   1      30.931  26.171  24.270  1.00  0.00    -0.112 S 
ATOM     90  C   UNL A   1      31.468  27.168  26.543  1.00  0.00     0.082 A 
ATOM     91  C   UNL A   1      31.284  27.560  25.218  1.00  0.00     0.055 A 
ATOM     92  C   UNL A   1      31.765  28.154  27.506  1.00  0.00     0.030 A 
ATOM     93  C   UNL A   1      31.402  28.902  24.816  1.00  0.00     0.021 A 
ATOM     94  C   UNL A   1      31.901  29.490  27.116  1.00  0.00     0.002 A 
ATOM     95  C   UNL A   1      31.725  29.857  25.785  1.00  0.00     0.002 A 
ENDBRANCH  84  87
ENDBRANCH  78  80
ENDBRANCH  77  78
ENDBRANCH  76  77
ENDBRANCH  75  76
ENDBRANCH  74  75
ENDBRANCH  73  74
ENDBRANCH   1  73
TORSDOF 18
ENDMDL
MODEL 2
REMARK VINA RESULT:     -10.6      4.206      9.206
REMARK SMILES O=C(OCCOCCOCCOC(=O)[C@H]1CS[C@H](c2nc3ccccc3s2)[NH2+]1)c1ccc(-c2c3nc(c(-c4c(F)c(F)c(F)c(F)c4F)c4ccc([nH]4)c(-c4c(F)c(F)c(F)c(F)c4F)c4nc(c(-c5c(F)c(F)c(F)c(F)c5F)c5ccc2[nH]5)C=C4)C=C3)cc1
REMARK SMILES IDX 7 1 6 2 5 3 4 4 3 5 2 6 1 7 29 8 30 9 91 10 31 11 90 12
REMARK SMILES IDX 32 13 33 14 34 15 84 16 35 17 89 18 83 19 85 20 36 21 88 22
REMARK SMILES IDX 82 23 81 24 37 26 69 27 49 28 68 29 50 30 53 31 67 32 86 33
REMARK SMILES IDX 51 34 52 35 66 37 87 38 54 39 38 40 39 41 47 42 40 43 41 44
REMARK SMILES IDX 45 45 48 46 42 47 43 48 46 49 44 50 70 51 71 52 79 53 72 54
REMARK SMILES IDX 73 55 77 56 80 57 74 58 75 59 78 60 76 61 55 62 56 63 64 64
REMARK SMILES IDX 57 65 58 66 62 67 65 68 59 69 60 70 63 71 61 72 8 73 9 74
REMARK SMILES IDX 10 75 11 76 12 77 13 78 14 79 15 80 16 81 28 82 17 83 18 84
REMARK SMILES IDX 19 87 20 88 27 89 21 90 26 91 22 92 25 93 23 94 24 95
REMARK H PARENT 85 25 53 36 28 85 28 86
REMARK Flexibility Score: inf
ROOT
ATOM      1  C   UNL A   1      33.447  34.553  28.847  1.00  0.00     0.188 C 
ENDROOT
BRANCH   1   2
ATOM      2  O   UNL A   1      33.224  34.479  30.261  1.00  0.00    -0.376 OA
BRANCH   2   3
ATOM      3  C   UNL A   1      34.424  34.606  31.039  1.00  0.00     0.202 C 
BRANCH   3   4
ATOM      4  C   UNL A   1      34.491  33.764  32.328  1.00  0.00     0.261 C 
BRANCH   4   5
ATOM      5  O   UNL A   1      35.071  32.462  32.141  1.00  0.00    -0.460 OA
BRANCH   5   6
ATOM      6  C   UNL A   1      36.180  31.940  32.724  1.00  0.00     0.338 C 
ATOM      7  O   UNL A   1      36.260  31.947  33.952  1.00  0.00    -0.246 OA
BRANCH   6   8
ATOM      8  C   UNL A   1      37.325  31.364  31.955  1.00  0.00     0.060 A 
ATOM      9  C   UNL A   1      38.426  30.732  32.529  1.00  0.00     0.016 A 
ATOM     10  C   UNL A   1      37.253  31.403  30.552  1.00  0.00     0.016 A 
ATOM     11  C   UNL A   1      39.472  30.247  31.763  1.00  0.00     0.010 A 
ATOM     12  C   UNL A   1      38.275  30.860  29.764  1.00  0.00     0.010 A 
ATOM     13  C   UNL A   1      39.404  30.306  30.376  1.00  0.00    -0.014 A 
BRANCH  13  14
ATOM     14  C   UNL A   1      40.593  29.873  29.620  1.00  0.00     0.031 A 
ATOM     15  C   UNL A   1      41.723  30.832  29.472  1.00  0.00     0.074 A 
ATOM     16  C   UNL A   1      40.711  28.590  29.233  1.00  0.00     0.049 A 
ATOM     17  N   UNL A   1      42.859  30.674  28.853  1.00  0.00    -0.248 NA
ATOM     18  C   UNL A   1      41.568  32.138  30.135  1.00  0.00     0.031 C 
ATOM     19  C   UNL A   1      39.708  27.561  29.491  1.00  0.00     0.029 A 
ATOM     20  N   UNL A   1      41.709  27.917  28.585  1.00  0.00    -0.354 N 
ATOM     21  C   UNL A   1      43.547  31.862  29.035  1.00  0.00     0.074 A 
ATOM     22  C   UNL A   1      42.702  32.739  29.814  1.00  0.00     0.031 C 
ATOM     23  C   UNL A   1      40.138  26.385  29.013  1.00  0.00     0.029 A 
ATOM     24  C   UNL A   1      41.410  26.596  28.345  1.00  0.00     0.049 A 
ATOM     25  H   UNL A   1      42.558  28.337  28.315  1.00  0.00     0.167 HD
ATOM     26  C   UNL A   1      44.779  32.179  28.580  1.00  0.00     0.037 A 
ATOM     27  C   UNL A   1      42.072  25.674  27.624  1.00  0.00     0.037 A 
ATOM     28  C   UNL A   1      45.581  31.276  27.799  1.00  0.00     0.049 A 
ATOM     29  C   UNL A   1      43.376  26.098  27.012  1.00  0.00     0.074 A 
ATOM     30  C   UNL A   1      46.815  31.498  27.219  1.00  0.00     0.029 A 
ATOM     31  N   UNL A   1      45.214  29.972  27.486  1.00  0.00    -0.354 N 
ATOM     32  N   UNL A   1      44.001  27.247  27.127  1.00  0.00    -0.248 NA
ATOM     33  C   UNL A   1      44.067  25.116  26.171  1.00  0.00     0.031 C 
ATOM     34  C   UNL A   1      47.167  30.346  26.508  1.00  0.00     0.029 A 
ATOM     35  C   UNL A   1      46.186  29.383  26.697  1.00  0.00     0.049 A 
ATOM     36  H   UNL A   1      44.384  29.532  27.782  1.00  0.00     0.167 HD
ATOM     37  C   UNL A   1      45.170  27.121  26.398  1.00  0.00     0.074 A 
ATOM     38  C   UNL A   1      45.175  25.774  25.859  1.00  0.00     0.031 C 
ATOM     39  C   UNL A   1      46.152  28.033  26.190  1.00  0.00     0.037 A 
BRANCH  26  40
ATOM     40  C   UNL A   1      45.265  33.569  28.846  1.00  0.00     0.064 A 
ATOM     41  C   UNL A   1      44.986  34.638  27.980  1.00  0.00     0.173 A 
ATOM     42  C   UNL A   1      46.061  33.827  29.971  1.00  0.00     0.173 A 
ATOM     43  F   UNL A   1      44.262  34.434  26.869  1.00  0.00    -0.203 F 
ATOM     44  C   UNL A   1      45.506  35.907  28.220  1.00  0.00     0.198 A 
ATOM     45  C   UNL A   1      46.556  35.103  30.223  1.00  0.00     0.198 A 
ATOM     46  F   UNL A   1      46.372  32.836  30.821  1.00  0.00    -0.203 F 
ATOM     47  F   UNL A   1      45.278  36.899  27.347  1.00  0.00    -0.200 F 
ATOM     48  C   UNL A   1      46.285  36.140  29.344  1.00  0.00     0.200 A 
ATOM     49  F   UNL A   1      47.311  35.324  31.308  1.00  0.00    -0.200 F 
ATOM     50  F   UNL A   1      46.790  37.361  29.569  1.00  0.00    -0.200 F 
ENDBRANCH  26  40
BRANCH  27  51
ATOM     51  C   UNL A   1      41.493  24.321  27.393  1.00  0.00     0.064 A 
ATOM     52  C   UNL A   1      40.348  24.136  26.608  1.00  0.00     0.173 A 
ATOM     53  C   UNL A   1      42.060  23.180  27.988  1.00  0.00     0.173 A 
ATOM     54  F   UNL A   1      39.752  25.190  26.032  1.00  0.00    -0.203 F 
ATOM     55  C   UNL A   1      39.775  22.872  26.452  1.00  0.00     0.198 A 
ATOM     56  C   UNL A   1      41.507  21.914  27.803  1.00  0.00     0.198 A 
ATOM     57  F   UNL A   1      43.152  23.297  28.757  1.00  0.00    -0.203 F 
ATOM     58  F   UNL A   1      38.642  22.737  25.749  1.00  0.00    -0.200 F 
ATOM     59  C   UNL A   1      40.357  21.763  27.046  1.00  0.00     0.200 A 
ATOM     60  F   UNL A   1      42.074  20.844  28.378  1.00  0.00    -0.200 F 
ATOM     61  F   UNL A   1      39.797  20.553  26.906  1.00  0.00    -0.200 F 
ENDBRANCH  27  51
BRANCH  39  62
ATOM     62  C   UNL A   1      47.327  27.575  25.384  1.00  0.00     0.064 A 
ATOM     63  C   UNL A   1      47.406  27.799  24.003  1.00  0.00     0.173 A 
ATOM     64  C   UNL A   1      48.405  26.936  26.015  1.00  0.00     0.173 A 
ATOM     65  F   UNL A   1      46.388  28.388  23.355  1.00  0.00    -0.203 F 
ATOM     66  C   UNL A   1      48.512  27.375  23.275  1.00  0.00     0.198 A 
ATOM     67  C   UNL A   1      49.525  26.548  25.292  1.00  0.00     0.198 A 
ATOM     68  F   UNL A   1      48.376  26.707  27.337  1.00  0.00    -0.203 F 
ATOM     69  F   UNL A   1      48.545  27.548  21.948  1.00  0.00    -0.200 F 
ATOM     70  C   UNL A   1      49.575  26.760  23.922  1.00  0.00     0.200 A 
ATOM     71  F   UNL A   1      50.557  25.969  25.920  1.00  0.00    -0.200 F 
ATOM     72  F   UNL A   1      50.645  26.362  23.222  1.00  0.00    -0.200 F 
ENDBRANCH  39  62
ENDBRANCH  13  14
ENDBRANCH   6   8
ENDBRANCH   5   6
ENDBRANCH   4   5
ENDBRANCH   3   4
ENDBRANCH   2   3
ENDBRANCH   1   2
BRANCH   1  73
ATOM     73  C   UNL A   1      34.895  34.262  28.446  1.00  0.00     0.188 C 
BRANCH  73  74
ATOM     74  O   UNL A   1      35.141  33.107  27.646  1.00  0.00    -0.376 OA
BRANCH  74  75
ATOM     75  C   UNL A   1      34.361  31.946  27.904  1.00  0.00     0.202 C 
BRANCH  75  76
ATOM     76  C   UNL A   1      34.869  30.600  27.359  1.00  0.00     0.261 C 
BRANCH  76  77
ATOM     77  O   UNL A   1      33.976  29.500  27.590  1.00  0.00    -0.459 OA
BRANCH  77  78
ATOM     78  C   UNL A   1      33.872  28.600  26.574  1.00  0.00     0.365 C 
ATOM     79  O   UNL A   1      34.426  27.500  26.533  1.00  0.00    -0.245 OA
BRANCH  78  80
ATOM     80  C   UNL A   1      32.936  29.107  25.472  1.00  0.00     0.304 C 
ATOM     81  C   UNL A   1      33.547  28.872  24.101  1.00  0.00     0.153 C 
ATOM     82  N   UNL A   1      31.601  28.454  25.626  1.00  0.00    -0.317 N 
ATOM     83  S   UNL A   1      32.541  27.600  23.329  1.00  0.00    -0.085 SA
ATOM     84  C   UNL A   1      31.091  28.056  24.308  1.00  0.00     0.303 C 
ATOM     85  H   UNL A   1      30.950  29.109  26.058  1.00  0.00     0.348 HD
ATOM     86  H   UNL A   1      31.697  27.626  26.216  1.00  0.00     0.348 HD
BRANCH  84  87
ATOM     87  C   UNL A   1      30.201  29.078  23.609  1.00  0.00     0.163 A 
ATOM     88  N   UNL A   1      29.893  30.250  24.134  1.00  0.00    -0.234 NA
ATOM     89  S   UNL A   1      29.605  28.836  22.007  1.00  0.00    -0.112 S 
ATOM     90  C   UNL A   1      29.235  31.042  23.209  1.00  0.00     0.082 A 
ATOM     91  C   UNL A   1      29.009  30.447  21.968  1.00  0.00     0.055 A 
ATOM     92  C   UNL A   1      28.818  32.374  23.407  1.00  0.00     0.030 A 
ATOM     93  C   UNL A   1      28.395  31.142  20.912  1.00  0.00     0.021 A 
ATOM     94  C   UNL A   1      28.221  33.081  22.358  1.00  0.00     0.002 A 
ATOM     95  C   UNL A   1      28.017  32.471  21.124  1.00  0.00     0.002 A 
ENDBRANCH  84  87
ENDBRANCH  78  80
ENDBRANCH  77  78
ENDBRANCH  76  77
ENDBRANCH  75  76
ENDBRANCH  74  75
ENDBRANCH  73  74
ENDBRANCH   1  73
TORSDOF 18
ENDMDL
MODEL 3
REMARK VINA RESULT:     -10.6      2.533      8.187
REMARK SMILES O=C(OCCOCCOCCOC(=O)[C@H]1CS[C@H](c2nc3ccccc3s2)[NH2+]1)c1ccc(-c2c3nc(c(-c4c(F)c(F)c(F)c(F)c4F)c4ccc([nH]4)c(-c4c(F)c(F)c(F)c(F)c4F)c4nc(c(-c5c(F)c(F)c(F)c(F)c5F)c5ccc2[nH]5)C=C4)C=C3)cc1
REMARK SMILES IDX 7 1 6 2 5 3 4 4 3 5 2 6 1 7 29 8 30 9 91 10 31 11 90 12
REMARK SMILES IDX 32 13 33 14 34 15 84 16 35 17 89 18 83 19 85 20 36 21 88 22
REMARK SMILES IDX 82 23 81 24 37 26 69 27 49 28 68 29 50 30 53 31 67 32 86 33
REMARK SMILES IDX 51 34 52 35 66 37 87 38 54 39 38 40 39 41 47 42 40 43 41 44
REMARK SMILES IDX 45 45 48 46 42 47 43 48 46 49 44 50 70 51 71 52 79 53 72 54
REMARK SMILES IDX 73 55 77 56 80 57 74 58 75 59 78 60 76 61 55 62 56 63 64 64
REMARK SMILES IDX 57 65 58 66 62 67 65 68 59 69 60 70 63 71 61 72 8 73 9 74
REMARK SMILES IDX 10 75 11 76 12 77 13 78 14 79 15 80 16 81 28 82 17 83 18 84
REMARK SMILES IDX 19 87 20 88 27 89 21 90 26 91 22 92 25 93 23 94 24 95
REMARK H PARENT 85 25 53 36 28 85 28 86
REMARK Flexibility Score: inf
ROOT
ATOM      1  C   UNL A   1      34.737  22.451  26.571  1.00  0.00     0.188 C 
ENDROOT
BRANCH   1   2
ATOM      2  O   UNL A   1      34.814  21.086  26.139  1.00  0.00    -0.376 OA
BRANCH   2   3
ATOM      3  C   UNL A   1      35.675  20.890  25.007  1.00  0.00     0.202 C 
BRANCH   3   4
ATOM      4  C   UNL A   1      37.163  20.644  25.321  1.00  0.00     0.261 C 
BRANCH   4   5
ATOM      5  O   UNL A   1      37.866  21.818  25.762  1.00  0.00    -0.460 OA
BRANCH   5   6
ATOM      6  C   UNL A   1      39.100  21.905  26.321  1.00  0.00     0.338 C 
ATOM      7  O   UNL A   1      39.716  20.867  26.555  1.00  0.00    -0.246 OA
BRANCH   6   8
ATOM      8  C   UNL A   1      39.753  23.200  26.684  1.00  0.00     0.060 A 
ATOM      9  C   UNL A   1      39.497  24.418  26.059  1.00  0.00     0.016 A 
ATOM     10  C   UNL A   1      40.638  23.200  27.777  1.00  0.00     0.016 A 
ATOM     11  C   UNL A   1      40.160  25.578  26.420  1.00  0.00     0.010 A 
ATOM     12  C   UNL A   1      41.267  24.380  28.192  1.00  0.00     0.010 A 
ATOM     13  C   UNL A   1      41.048  25.568  27.489  1.00  0.00    -0.014 A 
BRANCH  13  14
ATOM     14  C   UNL A   1      41.802  26.807  27.755  1.00  0.00     0.031 A 
ATOM     15  C   UNL A   1      41.177  27.840  28.628  1.00  0.00     0.074 A 
ATOM     16  C   UNL A   1      43.082  26.910  27.357  1.00  0.00     0.049 A 
ATOM     17  N   UNL A   1      41.647  28.999  28.995  1.00  0.00    -0.248 NA
ATOM     18  C   UNL A   1      39.855  27.514  29.190  1.00  0.00     0.031 C 
ATOM     19  C   UNL A   1      43.804  25.865  26.638  1.00  0.00     0.029 A 
ATOM     20  N   UNL A   1      44.013  27.899  27.517  1.00  0.00    -0.354 N 
ATOM     21  C   UNL A   1      40.675  29.548  29.815  1.00  0.00     0.074 A 
ATOM     22  C   UNL A   1      39.583  28.604  29.888  1.00  0.00     0.031 C 
ATOM     23  C   UNL A   1      45.066  26.260  26.420  1.00  0.00     0.029 A 
ATOM     24  C   UNL A   1      45.218  27.617  26.915  1.00  0.00     0.049 A 
ATOM     25  H   UNL A   1      43.839  28.731  28.014  1.00  0.00     0.167 HD
ATOM     26  C   UNL A   1      40.707  30.744  30.442  1.00  0.00     0.037 A 
ATOM     27  C   UNL A   1      46.303  28.391  26.742  1.00  0.00     0.037 A 
ATOM     28  C   UNL A   1      41.813  31.657  30.334  1.00  0.00     0.049 A 
ATOM     29  C   UNL A   1      46.256  29.770  27.334  1.00  0.00     0.074 A 
ATOM     30  C   UNL A   1      41.942  32.926  30.862  1.00  0.00     0.029 A 
ATOM     31  N   UNL A   1      42.986  31.388  29.635  1.00  0.00    -0.354 N 
ATOM     32  N   UNL A   1      45.307  30.320  28.056  1.00  0.00    -0.248 NA
ATOM     33  C   UNL A   1      47.411  30.638  27.091  1.00  0.00     0.031 C 
ATOM     34  C   UNL A   1      43.168  33.447  30.435  1.00  0.00     0.029 A 
ATOM     35  C   UNL A   1      43.833  32.479  29.696  1.00  0.00     0.049 A 
ATOM     36  H   UNL A   1      43.183  30.545  29.166  1.00  0.00     0.167 HD
ATOM     37  C   UNL A   1      45.759  31.587  28.378  1.00  0.00     0.074 A 
ATOM     38  C   UNL A   1      47.077  31.717  27.786  1.00  0.00     0.031 C 
ATOM     39  C   UNL A   1      45.144  32.558  29.096  1.00  0.00     0.037 A 
BRANCH  26  40
ATOM     40  C   UNL A   1      39.485  31.142  31.209  1.00  0.00     0.064 A 
ATOM     41  C   UNL A   1      39.233  30.675  32.509  1.00  0.00     0.173 A 
ATOM     42  C   UNL A   1      38.527  31.976  30.614  1.00  0.00     0.173 A 
ATOM     43  F   UNL A   1      40.099  29.843  33.107  1.00  0.00    -0.203 F 
ATOM     44  C   UNL A   1      38.055  31.011  33.173  1.00  0.00     0.198 A 
ATOM     45  C   UNL A   1      37.365  32.331  31.292  1.00  0.00     0.198 A 
ATOM     46  F   UNL A   1      38.712  32.434  29.367  1.00  0.00    -0.203 F 
ATOM     47  F   UNL A   1      37.807  30.505  34.389  1.00  0.00    -0.200 F 
ATOM     48  C   UNL A   1      37.126  31.843  32.566  1.00  0.00     0.200 A 
ATOM     49  F   UNL A   1      36.467  33.134  30.702  1.00  0.00    -0.200 F 
ATOM     50  F   UNL A   1      35.991  32.159  33.205  1.00  0.00    -0.200 F 
ENDBRANCH  26  40
BRANCH  27  51
ATOM     51  C   UNL A   1      47.465  27.914  25.939  1.00  0.00     0.064 A 
ATOM     52  C   UNL A   1      47.458  27.960  24.539  1.00  0.00     0.173 A 
ATOM     53  C   UNL A   1      48.599  27.367  26.562  1.00  0.00     0.173 A 
ATOM     54  F   UNL A   1      46.394  28.453  23.889  1.00  0.00    -0.203 F 
ATOM     55  C   UNL A   1      48.524  27.450  23.795  1.00  0.00     0.198 A 
ATOM     56  C   UNL A   1      49.678  26.890  25.819  1.00  0.00     0.198 A 
ATOM     57  F   UNL A   1      48.658  27.288  27.900  1.00  0.00    -0.203 F 
ATOM     58  F   UNL A   1      48.459  27.449  22.456  1.00  0.00    -0.200 F 
ATOM     59  C   UNL A   1      49.633  26.920  24.434  1.00  0.00     0.200 A 
ATOM     60  F   UNL A   1      50.749  26.379  26.441  1.00  0.00    -0.200 F 
ATOM     61  F   UNL A   1      50.648  26.419  23.717  1.00  0.00    -0.200 F 
ENDBRANCH  27  51
BRANCH  39  62
ATOM     62  C   UNL A   1      45.919  33.821  29.313  1.00  0.00     0.064 A 
ATOM     63  C   UNL A   1      45.828  34.904  28.429  1.00  0.00     0.173 A 
ATOM     64  C   UNL A   1      46.736  33.956  30.446  1.00  0.00     0.173 A 
ATOM     65  F   UNL A   1      45.074  34.810  27.322  1.00  0.00    -0.203 F 
ATOM     66  C   UNL A   1      46.549  36.070  28.656  1.00  0.00     0.198 A 
ATOM     67  C   UNL A   1      47.425  35.137  30.690  1.00  0.00     0.198 A 
ATOM     68  F   UNL A   1      46.848  32.947  31.323  1.00  0.00    -0.203 F 
ATOM     69  F   UNL A   1      46.491  37.074  27.771  1.00  0.00    -0.200 F 
ATOM     70  C   UNL A   1      47.338  36.190  29.791  1.00  0.00     0.200 A 
ATOM     71  F   UNL A   1      48.174  35.257  31.795  1.00  0.00    -0.200 F 
ATOM     72  F   UNL A   1      48.022  37.319  30.015  1.00  0.00    -0.200 F 
ENDBRANCH  39  62
ENDBRANCH  13  14
ENDBRANCH   6   8
ENDBRANCH   5   6
ENDBRANCH   4   5
ENDBRANCH   3   4
ENDBRANCH   2   3
ENDBRANCH   1   2
BRANCH   1  73
ATOM     73  C   UNL A   1      34.222  23.401  25.487  1.00  0.00     0.188 C 
BRANCH  73  74
ATOM     74  O   UNL A   1      32.817  23.432  25.246  1.00  0.00    -0.376 OA
BRANCH  74  75
ATOM     75  C   UNL A   1      32.321  22.701  24.132  1.00  0.00     0.202 C 
BRANCH  75  76
ATOM     76  C   UNL A   1      32.365  23.373  22.748  1.00  0.00     0.261 C 
BRANCH  76  77
ATOM     77  O   UNL A   1      31.880  24.725  22.738  1.00  0.00    -0.459 OA
BRANCH  77  78
ATOM     78  C   UNL A   1      32.742  25.657  22.248  1.00  0.00     0.365 C 
ATOM     79  O   UNL A   1      33.284  25.618  21.143  1.00  0.00    -0.245 OA
BRANCH  78  80
ATOM     80  C   UNL A   1      32.941  26.811  23.237  1.00  0.00     0.304 C 
ATOM     81  C   UNL A   1      32.055  27.989  22.870  1.00  0.00     0.153 C 
ATOM     82  N   UNL A   1      32.692  26.314  24.624  1.00  0.00    -0.317 N 
ATOM     83  S   UNL A   1      30.815  28.088  24.165  1.00  0.00    -0.085 SA
ATOM     84  C   UNL A   1      31.911  27.306  25.372  1.00  0.00     0.303 C 
ATOM     85  H   UNL A   1      33.584  26.160  25.094  1.00  0.00     0.348 HD
ATOM     86  H   UNL A   1      32.172  25.437  24.580  1.00  0.00     0.348 HD
BRANCH  84  87
ATOM     87  C   UNL A   1      32.723  28.315  26.176  1.00  0.00     0.163 A 
ATOM     88  N   UNL A   1      33.958  28.090  26.585  1.00  0.00    -0.234 NA
ATOM     89  S   UNL A   1      32.133  29.898  26.531  1.00  0.00    -0.112 S 
ATOM     90  C   UNL A   1      34.513  29.240  27.122  1.00  0.00     0.082 A 
ATOM     91  C   UNL A   1      33.669  30.349  27.154  1.00  0.00     0.055 A 
ATOM     92  C   UNL A   1      35.833  29.379  27.595  1.00  0.00     0.030 A 
ATOM     93  C   UNL A   1      34.103  31.600  27.626  1.00  0.00     0.021 A 
ATOM     94  C   UNL A   1      36.282  30.623  28.053  1.00  0.00     0.002 A 
ATOM     95  C   UNL A   1      35.426  31.721  28.063  1.00  0.00     0.002 A 
ENDBRANCH  84  87
ENDBRANCH  78  80
ENDBRANCH  77  78
ENDBRANCH  76  77
ENDBRANCH  75  76
ENDBRANCH  74  75
ENDBRANCH  73  74
ENDBRANCH   1  73
TORSDOF 18
ENDMDL
