MODEL 1
REMARK VINA RESULT:     -11.3      0.000      0.000
REMARK SMILES [NH3+][C@@]1(C(=O)OCCOCCOCCOC(=O)c2ccc(-c3c4nc(c(-c5c(F)c(F)c(F)c(F)c5F)c5ccc([nH]5)c(-c5c(F)c(F)c(F)c(F)c5F)c5nc(c(-c6c(F)c(F)c(F)c(F)c6F)c6ccc3[nH]6)C=C5)C=C4)cc2)CC[C@@H]([N@H+]2CC[C@H]([NH+]3CCOCC3)C2)C1
REMARK SMILES IDX 9 1 8 2 7 3 6 4 5 5 3 6 4 7 2 8 80 9 94 10 81 11 82 12 1 13
REMARK SMILES IDX 83 17 84 18 93 19 85 21 86 22 87 23 88 24 92 25 89 27 91 28
REMARK SMILES IDX 90 29 10 30 11 31 12 32 13 33 14 34 15 35 16 36 17 37 18 38
REMARK SMILES IDX 79 39 19 40 78 41 20 42 21 43 22 44 72 45 23 46 77 47 71 48
REMARK SMILES IDX 73 49 24 50 76 51 70 52 69 53 25 55 57 56 37 57 56 58 38 59
REMARK SMILES IDX 41 60 55 61 74 62 39 63 40 64 54 66 75 67 42 68 26 69 27 70
REMARK SMILES IDX 35 71 28 72 29 73 33 74 36 75 30 76 31 77 34 78 32 79 58 80
REMARK SMILES IDX 59 81 67 82 60 83 61 84 65 85 68 86 62 87 63 88 66 89 64 90
REMARK SMILES IDX 43 91 44 92 52 93 45 94 46 95 50 96 53 97 47 98 48 99 51 100
REMARK SMILES IDX 49 101
REMARK H PARENT 1 14 1 15 1 16 83 20 87 26 73 54 41 65
REMARK Flexibility Score: inf
ROOT
ATOM      1  C   UNL A   1      42.930  19.077  26.081  1.00  0.00     0.188 C 
ENDROOT
BRANCH   1   2
ATOM      2  O   UNL A   1      42.494  20.062  27.003  1.00  0.00    -0.376 OA
BRANCH   2   3
ATOM      3  C   UNL A   1      41.100  20.335  27.122  1.00  0.00     0.202 C 
BRANCH   3   4
ATOM      4  C   UNL A   1      40.355  21.005  25.952  1.00  0.00     0.261 C 
BRANCH   4   5
ATOM      5  O   UNL A   1      39.063  21.566  26.275  1.00  0.00    -0.459 OA
BRANCH   5   6
ATOM      6  C   UNL A   1      38.076  21.366  25.367  1.00  0.00     0.368 C 
ATOM      7  O   UNL A   1      37.780  20.267  24.899  1.00  0.00    -0.245 OA
BRANCH   6   8
ATOM      8  C   UNL A   1      37.256  22.644  25.002  1.00  0.00     0.198 C 
ATOM      9  C   UNL A   1      35.968  22.632  25.838  1.00  0.00     0.087 C 
ATOM     10  C   UNL A   1      36.782  22.809  23.540  1.00  0.00     0.145 C 
ATOM     11  C   UNL A   1      34.896  22.155  24.868  1.00  0.00     0.072 C 
ATOM     12  C   UNL A   1      35.250  22.797  23.523  1.00  0.00     0.191 C 
BRANCH   8  13
ATOM     13  N   UNL A   1      38.089  23.816  25.401  1.00  0.00    -0.343 N 
ATOM     14  H   UNL A   1      38.714  23.546  26.160  1.00  0.00     0.345 HD
ATOM     15  H   UNL A   1      37.483  24.574  25.714  1.00  0.00     0.345 HD
ATOM     16  H   UNL A   1      38.640  24.129  24.603  1.00  0.00     0.345 HD
ENDBRANCH   8  13
BRANCH  12  17
ATOM     17  N   UNL A   1      34.585  24.078  23.274  1.00  0.00    -0.327 N 
ATOM     18  C   UNL A   1      33.303  24.056  22.579  1.00  0.00     0.269 C 
ATOM     19  C   UNL A   1      34.365  24.897  24.479  1.00  0.00     0.328 C 
ATOM     20  H   UNL A   1      35.283  24.485  22.653  1.00  0.00     0.348 HD
ATOM     21  C   UNL A   1      32.887  25.512  22.651  1.00  0.00     0.132 C 
ATOM     22  C   UNL A   1      33.337  25.975  24.041  1.00  0.00     0.245 C 
BRANCH  22  23
ATOM     23  N   UNL A   1      33.696  27.389  24.234  1.00  0.00    -0.324 N 
ATOM     24  C   UNL A   1      33.238  27.967  25.513  1.00  0.00     0.291 C 
ATOM     25  C   UNL A   1      33.365  28.321  23.141  1.00  0.00     0.291 C 
ATOM     26  H   UNL A   1      34.713  27.307  24.240  1.00  0.00     0.348 HD
ATOM     27  C   UNL A   1      31.818  28.571  25.501  1.00  0.00     0.221 C 
ATOM     28  C   UNL A   1      31.930  28.859  23.154  1.00  0.00     0.221 C 
ATOM     29  O   UNL A   1      31.619  29.476  24.408  1.00  0.00    -0.370 OA
ENDBRANCH  22  23
ENDBRANCH  12  17
ENDBRANCH   6   8
ENDBRANCH   5   6
ENDBRANCH   4   5
ENDBRANCH   3   4
ENDBRANCH   2   3
ENDBRANCH   1   2
BRANCH   1  30
ATOM     30  C   UNL A   1      43.893  19.475  24.961  1.00  0.00     0.188 C 
BRANCH  30  31
ATOM     31  O   UNL A   1      45.215  19.735  25.370  1.00  0.00    -0.376 OA
BRANCH  31  32
ATOM     32  C   UNL A   1      45.749  21.031  25.139  1.00  0.00     0.202 C 
BRANCH  32  33
ATOM     33  C   UNL A   1      45.301  22.189  26.055  1.00  0.00     0.261 C 
BRANCH  33  34
ATOM     34  O   UNL A   1      44.950  23.429  25.409  1.00  0.00    -0.460 OA
BRANCH  34  35
ATOM     35  C   UNL A   1      43.659  23.593  25.036  1.00  0.00     0.338 C 
ATOM     36  O   UNL A   1      43.030  22.897  24.253  1.00  0.00    -0.246 OA
BRANCH  35  37
ATOM     37  C   UNL A   1      43.044  24.581  25.961  1.00  0.00     0.060 A 
ATOM     38  C   UNL A   1      43.553  25.889  25.991  1.00  0.00     0.016 A 
ATOM     39  C   UNL A   1      41.945  24.243  26.752  1.00  0.00     0.016 A 
ATOM     40  C   UNL A   1      42.989  26.850  26.833  1.00  0.00     0.010 A 
ATOM     41  C   UNL A   1      41.397  25.198  27.616  1.00  0.00     0.010 A 
ATOM     42  C   UNL A   1      41.937  26.497  27.687  1.00  0.00    -0.014 A 
BRANCH  42  43
ATOM     43  C   UNL A   1      41.545  27.402  28.798  1.00  0.00     0.031 A 
ATOM     44  C   UNL A   1      42.339  27.338  30.076  1.00  0.00     0.074 A 
ATOM     45  C   UNL A   1      40.523  28.271  28.690  1.00  0.00     0.049 A 
ATOM     46  N   UNL A   1      42.155  27.966  31.210  1.00  0.00    -0.248 NA
ATOM     47  C   UNL A   1      43.502  26.436  30.071  1.00  0.00     0.031 C 
ATOM     48  C   UNL A   1      39.705  28.474  27.499  1.00  0.00     0.029 A 
ATOM     49  N   UNL A   1      39.997  29.143  29.614  1.00  0.00    -0.354 N 
ATOM     50  C   UNL A   1      43.168  27.527  32.052  1.00  0.00     0.074 A 
ATOM     51  C   UNL A   1      43.945  26.556  31.313  1.00  0.00     0.031 C 
ATOM     52  C   UNL A   1      38.768  29.401  27.767  1.00  0.00     0.029 A 
ATOM     53  C   UNL A   1      38.898  29.830  29.160  1.00  0.00     0.049 A 
ATOM     54  H   UNL A   1      40.373  29.264  30.516  1.00  0.00     0.167 HD
ATOM     55  C   UNL A   1      43.435  27.906  33.325  1.00  0.00     0.037 A 
ATOM     56  C   UNL A   1      38.078  30.685  29.804  1.00  0.00     0.037 A 
ATOM     57  C   UNL A   1      42.662  28.868  34.065  1.00  0.00     0.049 A 
ATOM     58  C   UNL A   1      38.343  31.024  31.252  1.00  0.00     0.074 A 
ATOM     59  C   UNL A   1      42.860  29.323  35.356  1.00  0.00     0.029 A 
ATOM     60  N   UNL A   1      41.535  29.515  33.581  1.00  0.00    -0.354 N 
ATOM     61  N   UNL A   1      39.313  30.622  32.037  1.00  0.00    -0.248 NA
ATOM     62  C   UNL A   1      37.395  31.942  31.903  1.00  0.00     0.031 C 
ATOM     63  C   UNL A   1      41.817  30.198  35.677  1.00  0.00     0.029 A 
ATOM     64  C   UNL A   1      41.010  30.344  34.560  1.00  0.00     0.049 A 
ATOM     65  H   UNL A   1      41.161  29.401  32.677  1.00  0.00     0.167 HD
ATOM     66  C   UNL A   1      39.116  31.264  33.254  1.00  0.00     0.074 A 
ATOM     67  C   UNL A   1      37.940  32.093  33.102  1.00  0.00     0.031 C 
ATOM     68  C   UNL A   1      39.844  31.176  34.395  1.00  0.00     0.037 A 
BRANCH  55  69
ATOM     69  C   UNL A   1      44.599  27.249  34.012  1.00  0.00     0.064 A 
ATOM     70  C   UNL A   1      44.479  25.999  34.639  1.00  0.00     0.173 A 
ATOM     71  C   UNL A   1      45.859  27.866  34.017  1.00  0.00     0.173 A 
ATOM     72  F   UNL A   1      43.292  25.373  34.677  1.00  0.00    -0.203 F 
ATOM     73  C   UNL A   1      45.570  25.406  35.270  1.00  0.00     0.198 A 
ATOM     74  C   UNL A   1      46.956  27.254  34.618  1.00  0.00     0.198 A 
ATOM     75  F   UNL A   1      46.030  29.059  33.430  1.00  0.00    -0.203 F 
ATOM     76  F   UNL A   1      45.419  24.238  35.909  1.00  0.00    -0.200 F 
ATOM     77  C   UNL A   1      46.808  26.030  35.252  1.00  0.00     0.200 A 
ATOM     78  F   UNL A   1      48.154  27.852  34.586  1.00  0.00    -0.200 F 
ATOM     79  F   UNL A   1      47.859  25.454  35.851  1.00  0.00    -0.200 F 
ENDBRANCH  55  69
BRANCH  56  80
ATOM     80  C   UNL A   1      36.910  31.280  29.098  1.00  0.00     0.064 A 
ATOM     81  C   UNL A   1      36.894  32.635  28.736  1.00  0.00     0.173 A 
ATOM     82  C   UNL A   1      35.769  30.517  28.806  1.00  0.00     0.173 A 
ATOM     83  F   UNL A   1      37.947  33.415  29.022  1.00  0.00    -0.203 F 
ATOM     84  C   UNL A   1      35.776  33.209  28.133  1.00  0.00     0.198 A 
ATOM     85  C   UNL A   1      34.665  31.084  28.172  1.00  0.00     0.198 A 
ATOM     86  F   UNL A   1      35.726  29.219  29.136  1.00  0.00    -0.203 F 
ATOM     87  F   UNL A   1      35.767  34.519  27.854  1.00  0.00    -0.200 F 
ATOM     88  C   UNL A   1      34.665  32.431  27.845  1.00  0.00     0.200 A 
ATOM     89  F   UNL A   1      33.597  30.327  27.887  1.00  0.00    -0.200 F 
ATOM     90  F   UNL A   1      33.590  32.983  27.266  1.00  0.00    -0.200 F 
ENDBRANCH  56  80
BRANCH  68  91
ATOM     91  C   UNL A   1      39.428  32.037  35.557  1.00  0.00     0.064 A 
ATOM     92  C   UNL A   1      38.538  31.580  36.541  1.00  0.00     0.173 A 
ATOM     93  C   UNL A   1      39.960  33.328  35.707  1.00  0.00     0.173 A 
ATOM     94  F   UNL A   1      37.992  30.359  36.443  1.00  0.00    -0.203 F 
ATOM     95  C   UNL A   1      38.170  32.395  37.610  1.00  0.00     0.198 A 
ATOM     96  C   UNL A   1      39.619  34.126  36.796  1.00  0.00     0.198 A 
ATOM     97  F   UNL A   1      40.825  33.814  34.803  1.00  0.00    -0.203 F 
ATOM     98  F   UNL A   1      37.275  31.958  38.505  1.00  0.00    -0.200 F 
ATOM     99  C   UNL A   1      38.717  33.663  37.741  1.00  0.00     0.200 A 
ATOM    100  F   UNL A   1      40.164  35.343  36.930  1.00  0.00    -0.200 F 
ATOM    101  F   UNL A   1      38.367  34.442  38.774  1.00  0.00    -0.200 F 
ENDBRANCH  68  91
ENDBRANCH  42  43
ENDBRANCH  35  37
ENDBRANCH  34  35
ENDBRANCH  33  34
ENDBRANCH  32  33
ENDBRANCH  31  32
ENDBRANCH  30  31
ENDBRANCH   1  30
TORSDOF 20
ENDMDL
MODEL 2
REMARK VINA RESULT:     -11.1      1.036      2.136
REMARK SMILES [NH3+][C@@]1(C(=O)OCCOCCOCCOC(=O)c2ccc(-c3c4nc(c(-c5c(F)c(F)c(F)c(F)c5F)c5ccc([nH]5)c(-c5c(F)c(F)c(F)c(F)c5F)c5nc(c(-c6c(F)c(F)c(F)c(F)c6F)c6ccc3[nH]6)C=C5)C=C4)cc2)CC[C@@H]([N@H+]2CC[C@H]([NH+]3CCOCC3)C2)C1
REMARK SMILES IDX 9 1 8 2 7 3 6 4 5 5 3 6 4 7 2 8 80 9 94 10 81 11 82 12 1 13
REMARK SMILES IDX 83 17 84 18 93 19 85 21 86 22 87 23 88 24 92 25 89 27 91 28
REMARK SMILES IDX 90 29 10 30 11 31 12 32 13 33 14 34 15 35 16 36 17 37 18 38
REMARK SMILES IDX 79 39 19 40 78 41 20 42 21 43 22 44 72 45 23 46 77 47 71 48
REMARK SMILES IDX 73 49 24 50 76 51 70 52 69 53 25 55 57 56 37 57 56 58 38 59
REMARK SMILES IDX 41 60 55 61 74 62 39 63 40 64 54 66 75 67 42 68 26 69 27 70
REMARK SMILES IDX 35 71 28 72 29 73 33 74 36 75 30 76 31 77 34 78 32 79 58 80
REMARK SMILES IDX 59 81 67 82 60 83 61 84 65 85 68 86 62 87 63 88 66 89 64 90
REMARK SMILES IDX 43 91 44 92 52 93 45 94 46 95 50 96 53 97 47 98 48 99 51 100
REMARK SMILES IDX 49 101
REMARK H PARENT 1 14 1 15 1 16 83 20 87 26 73 54 41 65
REMARK Flexibility Score: inf
ROOT
ATOM      1  C   UNL A   1      40.927  20.071  26.801  1.00  0.00     0.188 C 
ENDROOT
BRANCH   1   2
ATOM      2  O   UNL A   1      40.685  21.334  26.203  1.00  0.00    -0.376 OA
BRANCH   2   3
ATOM      3  C   UNL A   1      39.353  21.840  26.165  1.00  0.00     0.202 C 
BRANCH   3   4
ATOM      4  C   UNL A   1      38.272  21.078  25.377  1.00  0.00     0.261 C 
BRANCH   4   5
ATOM      5  O   UNL A   1      37.363  21.899  24.611  1.00  0.00    -0.459 OA
BRANCH   5   6
ATOM      6  C   UNL A   1      36.039  21.698  24.830  1.00  0.00     0.368 C 
ATOM      7  O   UNL A   1      35.577  20.722  25.417  1.00  0.00    -0.245 OA
BRANCH   6   8
ATOM      8  C   UNL A   1      35.115  22.862  24.349  1.00  0.00     0.198 C 
ATOM      9  C   UNL A   1      35.243  24.012  25.358  1.00  0.00     0.087 C 
ATOM     10  C   UNL A   1      33.598  22.586  24.247  1.00  0.00     0.145 C 
ATOM     11  C   UNL A   1      33.987  23.903  26.212  1.00  0.00     0.072 C 
ATOM     12  C   UNL A   1      32.871  23.495  25.245  1.00  0.00     0.191 C 
BRANCH   8  13
ATOM     13  N   UNL A   1      35.641  23.308  23.026  1.00  0.00    -0.343 N 
ATOM     14  H   UNL A   1      36.620  23.577  23.122  1.00  0.00     0.345 HD
ATOM     15  H   UNL A   1      35.100  24.108  22.697  1.00  0.00     0.345 HD
ATOM     16  H   UNL A   1      35.562  22.546  22.354  1.00  0.00     0.345 HD
ENDBRANCH   8  13
BRANCH  12  17
ATOM     17  N   UNL A   1      32.119  24.619  24.685  1.00  0.00    -0.327 N 
ATOM     18  C   UNL A   1      30.824  24.336  24.077  1.00  0.00     0.269 C 
ATOM     19  C   UNL A   1      31.879  25.724  25.628  1.00  0.00     0.328 C 
ATOM     20  H   UNL A   1      32.774  24.877  23.946  1.00  0.00     0.348 HD
ATOM     21  C   UNL A   1      30.317  25.731  23.766  1.00  0.00     0.132 C 
ATOM     22  C   UNL A   1      30.772  26.583  24.956  1.00  0.00     0.245 C 
BRANCH  22  23
ATOM     23  N   UNL A   1      31.044  28.013  24.739  1.00  0.00    -0.324 N 
ATOM     24  C   UNL A   1      31.233  28.392  23.324  1.00  0.00     0.291 C 
ATOM     25  C   UNL A   1      32.115  28.623  25.546  1.00  0.00     0.291 C 
ATOM     26  H   UNL A   1      30.168  28.406  25.084  1.00  0.00     0.348 HD
ATOM     27  C   UNL A   1      32.676  28.276  22.792  1.00  0.00     0.221 C 
ATOM     28  C   UNL A   1      33.533  28.444  24.992  1.00  0.00     0.221 C 
ATOM     29  O   UNL A   1      33.627  28.923  23.646  1.00  0.00    -0.370 OA
ENDBRANCH  22  23
ENDBRANCH  12  17
ENDBRANCH   6   8
ENDBRANCH   5   6
ENDBRANCH   4   5
ENDBRANCH   3   4
ENDBRANCH   2   3
ENDBRANCH   1   2
BRANCH   1  30
ATOM     30  C   UNL A   1      41.910  19.105  26.135  1.00  0.00     0.188 C 
BRANCH  30  31
ATOM     31  O   UNL A   1      42.656  19.647  25.071  1.00  0.00    -0.376 OA
BRANCH  31  32
ATOM     32  C   UNL A   1      43.882  20.300  25.372  1.00  0.00     0.202 C 
BRANCH  32  33
ATOM     33  C   UNL A   1      44.152  21.687  24.754  1.00  0.00     0.261 C 
BRANCH  33  34
ATOM     34  O   UNL A   1      43.468  22.807  25.352  1.00  0.00    -0.460 OA
BRANCH  34  35
ATOM     35  C   UNL A   1      44.038  24.028  25.220  1.00  0.00     0.338 C 
ATOM     36  O   UNL A   1      44.799  24.387  24.334  1.00  0.00    -0.246 OA
BRANCH  35  37
ATOM     37  C   UNL A   1      43.353  24.950  26.163  1.00  0.00     0.060 A 
ATOM     38  C   UNL A   1      43.716  26.307  26.166  1.00  0.00     0.016 A 
ATOM     39  C   UNL A   1      42.330  24.501  26.999  1.00  0.00     0.016 A 
ATOM     40  C   UNL A   1      43.082  27.208  27.025  1.00  0.00     0.010 A 
ATOM     41  C   UNL A   1      41.714  25.398  27.879  1.00  0.00     0.010 A 
ATOM     42  C   UNL A   1      42.109  26.749  27.921  1.00  0.00    -0.014 A 
BRANCH  42  43
ATOM     43  C   UNL A   1      41.662  27.616  29.043  1.00  0.00     0.031 A 
ATOM     44  C   UNL A   1      42.416  27.534  30.344  1.00  0.00     0.074 A 
ATOM     45  C   UNL A   1      40.627  28.468  28.924  1.00  0.00     0.049 A 
ATOM     46  N   UNL A   1      42.181  28.127  31.487  1.00  0.00    -0.248 NA
ATOM     47  C   UNL A   1      43.596  26.655  30.353  1.00  0.00     0.031 C 
ATOM     48  C   UNL A   1      39.844  28.686  27.711  1.00  0.00     0.029 A 
ATOM     49  N   UNL A   1      40.054  29.304  29.852  1.00  0.00    -0.354 N 
ATOM     50  C   UNL A   1      43.175  27.686  32.351  1.00  0.00     0.074 A 
ATOM     51  C   UNL A   1      43.995  26.750  31.613  1.00  0.00     0.031 C 
ATOM     52  C   UNL A   1      38.881  29.587  27.972  1.00  0.00     0.029 A 
ATOM     53  C   UNL A   1      38.956  29.982  29.380  1.00  0.00     0.049 A 
ATOM     54  H   UNL A   1      40.397  29.408  30.769  1.00  0.00     0.167 HD
ATOM     55  C   UNL A   1      43.393  28.035  33.642  1.00  0.00     0.037 A 
ATOM     56  C   UNL A   1      38.098  30.803  30.018  1.00  0.00     0.037 A 
ATOM     57  C   UNL A   1      42.576  28.962  34.380  1.00  0.00     0.049 A 
ATOM     58  C   UNL A   1      38.309  31.108  31.483  1.00  0.00     0.074 A 
ATOM     59  C   UNL A   1      42.723  29.385  35.689  1.00  0.00     0.029 A 
ATOM     60  N   UNL A   1      41.452  29.599  33.876  1.00  0.00    -0.354 N 
ATOM     61  N   UNL A   1      39.260  30.703  32.288  1.00  0.00    -0.248 NA
ATOM     62  C   UNL A   1      37.321  31.989  32.126  1.00  0.00     0.031 C 
ATOM     63  C   UNL A   1      41.652  30.231  35.998  1.00  0.00     0.029 A 
ATOM     64  C   UNL A   1      40.879  30.391  34.859  1.00  0.00     0.049 A 
ATOM     65  H   UNL A   1      41.111  29.502  32.957  1.00  0.00     0.167 HD
ATOM     66  C   UNL A   1      39.010  31.308  33.515  1.00  0.00     0.074 A 
ATOM     67  C   UNL A   1      37.824  32.118  33.346  1.00  0.00     0.031 C 
ATOM     68  C   UNL A   1      39.702  31.204  34.677  1.00  0.00     0.037 A 
BRANCH  55  69
ATOM     69  C   UNL A   1      44.546  27.383  34.349  1.00  0.00     0.064 A 
ATOM     70  C   UNL A   1      45.811  27.989  34.418  1.00  0.00     0.173 A 
ATOM     71  C   UNL A   1      44.376  26.148  34.994  1.00  0.00     0.173 A 
ATOM     72  F   UNL A   1      46.033  29.162  33.806  1.00  0.00    -0.203 F 
ATOM     73  C   UNL A   1      46.867  27.368  35.080  1.00  0.00     0.198 A 
ATOM     74  C   UNL A   1      45.424  25.547  35.685  1.00  0.00     0.198 A 
ATOM     75  F   UNL A   1      43.187  25.527  34.962  1.00  0.00    -0.203 F 
ATOM     76  F   UNL A   1      48.079  27.938  35.086  1.00  0.00    -0.200 F 
ATOM     77  C   UNL A   1      46.671  26.153  35.719  1.00  0.00     0.200 A 
ATOM     78  F   UNL A   1      45.228  24.381  36.314  1.00  0.00    -0.200 F 
ATOM     79  F   UNL A   1      47.687  25.562  36.364  1.00  0.00    -0.200 F 
ENDBRANCH  55  69
BRANCH  56  80
ATOM     80  C   UNL A   1      36.942  31.394  29.289  1.00  0.00     0.064 A 
ATOM     81  C   UNL A   1      36.900  32.761  28.982  1.00  0.00     0.173 A 
ATOM     82  C   UNL A   1      35.837  30.612  28.921  1.00  0.00     0.173 A 
ATOM     83  F   UNL A   1      37.917  33.558  29.342  1.00  0.00    -0.203 F 
ATOM     84  C   UNL A   1      35.790  33.328  28.358  1.00  0.00     0.198 A 
ATOM     85  C   UNL A   1      34.742  31.173  28.266  1.00  0.00     0.198 A 
ATOM     86  F   UNL A   1      35.818  29.300  29.197  1.00  0.00    -0.203 F 
ATOM     87  F   UNL A   1      35.754  34.648  28.131  1.00  0.00    -0.200 F 
ATOM     88  C   UNL A   1      34.715  32.532  27.993  1.00  0.00     0.200 A 
ATOM     89  F   UNL A   1      33.709  30.399  27.908  1.00  0.00    -0.200 F 
ATOM     90  F   UNL A   1      33.648  33.077  27.394  1.00  0.00    -0.200 F 
ENDBRANCH  56  80
BRANCH  68  91
ATOM     91  C   UNL A   1      39.231  32.026  35.847  1.00  0.00     0.064 A 
ATOM     92  C   UNL A   1      39.647  33.352  36.041  1.00  0.00     0.173 A 
ATOM     93  C   UNL A   1      38.318  31.487  36.767  1.00  0.00     0.173 A 
ATOM     94  F   UNL A   1      40.525  33.914  35.198  1.00  0.00    -0.203 F 
ATOM     95  C   UNL A   1      39.194  34.093  37.130  1.00  0.00     0.198 A 
ATOM     96  C   UNL A   1      37.840  32.243  37.834  1.00  0.00     0.198 A 
ATOM     97  F   UNL A   1      37.877  30.227  36.626  1.00  0.00    -0.203 F 
ATOM     98  F   UNL A   1      39.650  35.337  37.326  1.00  0.00    -0.200 F 
ATOM     99  C   UNL A   1      38.286  33.542  38.020  1.00  0.00     0.200 A 
ATOM    100  F   UNL A   1      36.946  31.713  38.681  1.00  0.00    -0.200 F 
ATOM    101  F   UNL A   1      37.846  34.259  39.063  1.00  0.00    -0.200 F 
ENDBRANCH  68  91
ENDBRANCH  42  43
ENDBRANCH  35  37
ENDBRANCH  34  35
ENDBRANCH  33  34
ENDBRANCH  32  33
ENDBRANCH  31  32
ENDBRANCH  30  31
ENDBRANCH   1  30
TORSDOF 20
ENDMDL
MODEL 3
REMARK VINA RESULT:     -10.8      3.909      9.431
REMARK SMILES [NH3+][C@@]1(C(=O)OCCOCCOCCOC(=O)c2ccc(-c3c4nc(c(-c5c(F)c(F)c(F)c(F)c5F)c5ccc([nH]5)c(-c5c(F)c(F)c(F)c(F)c5F)c5nc(c(-c6c(F)c(F)c(F)c(F)c6F)c6ccc3[nH]6)C=C5)C=C4)cc2)CC[C@@H]([N@H+]2CC[C@H]([NH+]3CCOCC3)C2)C1
REMARK SMILES IDX 9 1 8 2 7 3 6 4 5 5 3 6 4 7 2 8 80 9 94 10 81 11 82 12 1 13
REMARK SMILES IDX 83 17 84 18 93 19 85 21 86 22 87 23 88 24 92 25 89 27 91 28
REMARK SMILES IDX 90 29 10 30 11 31 12 32 13 33 14 34 15 35 16 36 17 37 18 38
REMARK SMILES IDX 79 39 19 40 78 41 20 42 21 43 22 44 72 45 23 46 77 47 71 48
REMARK SMILES IDX 73 49 24 50 76 51 70 52 69 53 25 55 57 56 37 57 56 58 38 59
REMARK SMILES IDX 41 60 55 61 74 62 39 63 40 64 54 66 75 67 42 68 26 69 27 70
REMARK SMILES IDX 35 71 28 72 29 73 33 74 36 75 30 76 31 77 34 78 32 79 58 80
REMARK SMILES IDX 59 81 67 82 60 83 61 84 65 85 68 86 62 87 63 88 66 89 64 90
REMARK SMILES IDX 43 91 44 92 52 93 45 94 46 95 50 96 53 97 47 98 48 99 51 100
REMARK SMILES IDX 49 101
REMARK H PARENT 1 14 1 15 1 16 83 20 87 26 73 54 41 65
REMARK Flexibility Score: inf
ROOT
ATOM      1  C   UNL A   1      31.823  28.480  26.071  1.00  0.00     0.188 C 
ENDROOT
BRANCH   1   2
ATOM      2  O   UNL A   1      31.517  27.121  26.332  1.00  0.00    -0.376 OA
BRANCH   2   3
ATOM      3  C   UNL A   1      30.514  26.473  25.553  1.00  0.00     0.202 C 
BRANCH   3   4
ATOM      4  C   UNL A   1      30.279  26.914  24.097  1.00  0.00     0.261 C 
BRANCH   4   5
ATOM      5  O   UNL A   1      30.725  25.988  23.083  1.00  0.00    -0.459 OA
BRANCH   5   6
ATOM      6  C   UNL A   1      32.066  25.893  22.901  1.00  0.00     0.368 C 
ATOM      7  O   UNL A   1      32.826  26.858  22.851  1.00  0.00    -0.245 OA
BRANCH   6   8
ATOM      8  C   UNL A   1      32.614  24.432  22.842  1.00  0.00     0.198 C 
ATOM      9  C   UNL A   1      31.523  23.496  23.382  1.00  0.00     0.087 C 
ATOM     10  C   UNL A   1      33.875  24.096  23.670  1.00  0.00     0.145 C 
ATOM     11  C   UNL A   1      31.971  23.179  24.802  1.00  0.00     0.072 C 
ATOM     12  C   UNL A   1      33.496  23.056  24.730  1.00  0.00     0.191 C 
BRANCH   8  13
ATOM     13  N   UNL A   1      32.856  24.123  21.402  1.00  0.00    -0.343 N 
ATOM     14  H   UNL A   1      33.633  23.467  21.320  1.00  0.00     0.345 HD
ATOM     15  H   UNL A   1      33.082  24.982  20.902  1.00  0.00     0.345 HD
ATOM     16  H   UNL A   1      32.017  23.706  20.998  1.00  0.00     0.345 HD
ENDBRANCH   8  13
BRANCH  12  17
ATOM     17  N   UNL A   1      33.979  21.691  24.515  1.00  0.00    -0.327 N 
ATOM     18  C   UNL A   1      35.258  21.321  25.109  1.00  0.00     0.269 C 
ATOM     19  C   UNL A   1      33.035  20.636  24.923  1.00  0.00     0.328 C 
ATOM     20  H   UNL A   1      34.094  21.736  23.503  1.00  0.00     0.348 HD
ATOM     21  C   UNL A   1      35.327  19.838  24.797  1.00  0.00     0.132 C 
ATOM     22  C   UNL A   1      33.889  19.339  24.968  1.00  0.00     0.245 C 
BRANCH  22  23
ATOM     23  N   UNL A   1      33.439  18.189  24.168  1.00  0.00    -0.324 N 
ATOM     24  C   UNL A   1      32.290  17.458  24.740  1.00  0.00     0.291 C 
ATOM     25  C   UNL A   1      34.465  17.218  23.751  1.00  0.00     0.291 C 
ATOM     26  H   UNL A   1      33.146  18.676  23.320  1.00  0.00     0.348 HD
ATOM     27  C   UNL A   1      32.646  16.331  25.732  1.00  0.00     0.221 C 
ATOM     28  C   UNL A   1      34.809  16.144  24.789  1.00  0.00     0.221 C 
ATOM     29  O   UNL A   1      33.638  15.438  25.211  1.00  0.00    -0.370 OA
ENDBRANCH  22  23
ENDBRANCH  12  17
ENDBRANCH   6   8
ENDBRANCH   5   6
ENDBRANCH   4   5
ENDBRANCH   3   4
ENDBRANCH   2   3
ENDBRANCH   1   2
BRANCH   1  30
ATOM     30  C   UNL A   1      32.080  29.427  27.246  1.00  0.00     0.188 C 
BRANCH  30  31
ATOM     31  O   UNL A   1      32.855  30.562  26.943  1.00  0.00    -0.376 OA
BRANCH  31  32
ATOM     32  C   UNL A   1      32.226  31.836  26.986  1.00  0.00     0.202 C 
BRANCH  32  33
ATOM     33  C   UNL A   1      33.029  33.039  27.523  1.00  0.00     0.261 C 
BRANCH  33  34
ATOM     34  O   UNL A   1      32.267  34.129  28.079  1.00  0.00    -0.460 OA
BRANCH  34  35
ATOM     35  C   UNL A   1      32.957  35.142  28.655  1.00  0.00     0.338 C 
ATOM     36  O   UNL A   1      32.592  36.304  28.766  1.00  0.00    -0.246 OA
BRANCH  35  37
ATOM     37  C   UNL A   1      34.102  34.548  29.392  1.00  0.00     0.060 A 
ATOM     38  C   UNL A   1      35.379  34.591  28.808  1.00  0.00     0.016 A 
ATOM     39  C   UNL A   1      33.936  34.003  30.666  1.00  0.00     0.016 A 
ATOM     40  C   UNL A   1      36.483  34.060  29.480  1.00  0.00     0.010 A 
ATOM     41  C   UNL A   1      35.037  33.446  31.327  1.00  0.00     0.010 A 
ATOM     42  C   UNL A   1      36.310  33.440  30.724  1.00  0.00    -0.014 A 
BRANCH  42  43
ATOM     43  C   UNL A   1      37.396  32.601  31.294  1.00  0.00     0.031 A 
ATOM     44  C   UNL A   1      37.895  32.933  32.675  1.00  0.00     0.074 A 
ATOM     45  C   UNL A   1      37.928  31.563  30.624  1.00  0.00     0.049 A 
ATOM     46  N   UNL A   1      38.876  32.404  33.362  1.00  0.00    -0.248 NA
ATOM     47  C   UNL A   1      37.187  34.016  33.376  1.00  0.00     0.031 C 
ATOM     48  C   UNL A   1      37.507  31.100  29.305  1.00  0.00     0.029 A 
ATOM     49  N   UNL A   1      38.952  30.714  30.969  1.00  0.00    -0.354 N 
ATOM     50  C   UNL A   1      38.909  33.095  34.566  1.00  0.00     0.074 A 
ATOM     51  C   UNL A   1      37.874  34.104  34.505  1.00  0.00     0.031 C 
ATOM     52  C   UNL A   1      38.277  30.058  28.944  1.00  0.00     0.029 A 
ATOM     53  C   UNL A   1      39.269  29.804  29.990  1.00  0.00     0.049 A 
ATOM     54  H   UNL A   1      39.416  30.754  31.837  1.00  0.00     0.167 HD
ATOM     55  C   UNL A   1      39.722  32.902  35.632  1.00  0.00     0.037 A 
ATOM     56  C   UNL A   1      40.260  28.892  29.935  1.00  0.00     0.037 A 
ATOM     57  C   UNL A   1      40.756  31.903  35.693  1.00  0.00     0.049 A 
ATOM     58  C   UNL A   1      41.212  28.756  31.100  1.00  0.00     0.074 A 
ATOM     59  C   UNL A   1      41.625  31.625  36.734  1.00  0.00     0.029 A 
ATOM     60  N   UNL A   1      41.068  31.025  34.666  1.00  0.00    -0.354 N 
ATOM     61  N   UNL A   1      41.227  29.398  32.243  1.00  0.00    -0.248 NA
ATOM     62  C   UNL A   1      42.288  27.761  30.965  1.00  0.00     0.031 C 
ATOM     63  C   UNL A   1      42.504  30.622  36.313  1.00  0.00     0.029 A 
ATOM     64  C   UNL A   1      42.136  30.224  35.038  1.00  0.00     0.049 A 
ATOM     65  H   UNL A   1      40.601  30.979  33.800  1.00  0.00     0.167 HD
ATOM     66  C   UNL A   1      42.281  28.862  32.974  1.00  0.00     0.074 A 
ATOM     67  C   UNL A   1      42.876  27.831  32.151  1.00  0.00     0.031 C 
ATOM     68  C   UNL A   1      42.715  29.191  34.216  1.00  0.00     0.037 A 
BRANCH  55  69
ATOM     69  C   UNL A   1      39.546  33.817  36.810  1.00  0.00     0.064 A 
ATOM     70  C   UNL A   1      38.778  33.448  37.926  1.00  0.00     0.173 A 
ATOM     71  C   UNL A   1      40.180  35.069  36.837  1.00  0.00     0.173 A 
ATOM     72  F   UNL A   1      38.138  32.270  37.946  1.00  0.00    -0.203 F 
ATOM     73  C   UNL A   1      38.628  34.311  39.009  1.00  0.00     0.198 A 
ATOM     74  C   UNL A   1      40.057  35.913  37.936  1.00  0.00     0.198 A 
ATOM     75  F   UNL A   1      40.928  35.470  35.798  1.00  0.00    -0.203 F 
ATOM     76  F   UNL A   1      37.846  33.960  40.039  1.00  0.00    -0.200 F 
ATOM     77  C   UNL A   1      39.274  35.538  39.017  1.00  0.00     0.200 A 
ATOM     78  F   UNL A   1      40.693  37.092  37.948  1.00  0.00    -0.200 F 
ATOM     79  F   UNL A   1      39.136  36.363  40.064  1.00  0.00    -0.200 F 
ENDBRANCH  55  69
BRANCH  56  80
ATOM     80  C   UNL A   1      40.426  28.035  28.729  1.00  0.00     0.064 A 
ATOM     81  C   UNL A   1      41.176  28.470  27.627  1.00  0.00     0.173 A 
ATOM     82  C   UNL A   1      39.805  26.780  28.637  1.00  0.00     0.173 A 
ATOM     83  F   UNL A   1      41.762  29.676  27.652  1.00  0.00    -0.203 F 
ATOM     84  C   UNL A   1      41.278  27.697  26.472  1.00  0.00     0.198 A 
ATOM     85  C   UNL A   1      39.937  25.992  27.495  1.00  0.00     0.198 A 
ATOM     86  F   UNL A   1      39.069  26.317  29.657  1.00  0.00    -0.203 F 
ATOM     87  F   UNL A   1      41.952  28.165  25.413  1.00  0.00    -0.200 F 
ATOM     88  C   UNL A   1      40.665  26.455  26.410  1.00  0.00     0.200 A 
ATOM     89  F   UNL A   1      39.349  24.789  27.442  1.00  0.00    -0.200 F 
ATOM     90  F   UNL A   1      40.763  25.712  25.299  1.00  0.00    -0.200 F 
ENDBRANCH  56  80
BRANCH  68  91
ATOM     91  C   UNL A   1      43.857  28.396  34.790  1.00  0.00     0.064 A 
ATOM     92  C   UNL A   1      45.192  28.803  34.648  1.00  0.00     0.173 A 
ATOM     93  C   UNL A   1      43.605  27.229  35.528  1.00  0.00     0.173 A 
ATOM     94  F   UNL A   1      45.491  29.905  33.945  1.00  0.00    -0.203 F 
ATOM     95  C   UNL A   1      46.232  28.052  35.191  1.00  0.00     0.198 A 
ATOM     96  C   UNL A   1      44.644  26.500  36.101  1.00  0.00     0.198 A 
ATOM     97  F   UNL A   1      42.347  26.798  35.707  1.00  0.00    -0.203 F 
ATOM     98  F   UNL A   1      47.502  28.428  34.993  1.00  0.00    -0.200 F 
ATOM     99  C   UNL A   1      45.957  26.907  35.924  1.00  0.00     0.200 A 
ATOM    100  F   UNL A   1      44.374  25.406  36.826  1.00  0.00    -0.200 F 
ATOM    101  F   UNL A   1      46.959  26.190  36.452  1.00  0.00    -0.200 F 
ENDBRANCH  68  91
ENDBRANCH  42  43
ENDBRANCH  35  37
ENDBRANCH  34  35
ENDBRANCH  33  34
ENDBRANCH  32  33
ENDBRANCH  31  32
ENDBRANCH  30  31
ENDBRANCH   1  30
TORSDOF 20
ENDMDL
