MODEL 1
REMARK VINA RESULT:     -11.4      0.000      0.000
REMARK SMILES C[C@@H]1[C@H](C(=O)OCCOCCOCCOC(=O)c2ccc(-c3c4nc(c(-c5c(F)c(F)c(F)c(F)c5F)c5ccc([nH]5)c(-c5c(F)c(F)c(F)c(F)c5F)c5nc(c(-c6c(F)c(F)c(F)c(F)c6F)c6ccc3[nH]6)C=C5)C=C4)cc2)CC[NH+]1Cc1ccccc1[N+](=O)[O-]
REMARK SMILES IDX 10 1 9 2 8 3 7 4 6 5 4 6 5 7 3 8 1 9 2 10 83 11 81 12 82 13
REMARK SMILES IDX 84 15 85 16 86 17 90 18 87 19 89 20 88 21 91 22 92 23 93 24
REMARK SMILES IDX 11 25 12 26 13 27 14 28 15 29 16 30 17 31 18 32 19 33 80 34
REMARK SMILES IDX 20 35 79 36 21 37 22 38 23 39 73 40 24 41 78 42 72 43 74 44
REMARK SMILES IDX 25 45 77 46 71 47 70 48 26 50 58 51 38 52 57 53 39 54 42 55
REMARK SMILES IDX 56 56 75 57 40 58 41 59 55 61 76 62 43 63 27 64 28 65 36 66
REMARK SMILES IDX 29 67 30 68 34 69 37 70 31 71 32 72 35 73 33 74 59 75 60 76
REMARK SMILES IDX 68 77 61 78 62 79 66 80 69 81 63 82 64 83 67 84 65 85 44 86
REMARK SMILES IDX 45 87 53 88 46 89 47 90 51 91 54 92 48 93 49 94 52 95 50 96
REMARK H PARENT 83 14 74 49 42 60
REMARK Flexibility Score: inf
ROOT
ATOM      1  C   UNL A   1      39.113  21.789  26.172  1.00  0.00     0.188 C 
ENDROOT
BRANCH   1   2
ATOM      2  O   UNL A   1      38.167  21.342  25.219  1.00  0.00    -0.376 OA
BRANCH   2   3
ATOM      3  C   UNL A   1      37.063  22.210  24.955  1.00  0.00     0.202 C 
BRANCH   3   4
ATOM      4  C   UNL A   1      35.998  22.326  26.048  1.00  0.00     0.261 C 
BRANCH   4   5
ATOM      5  O   UNL A   1      34.692  22.462  25.451  1.00  0.00    -0.463 OA
BRANCH   5   6
ATOM      6  C   UNL A   1      33.701  21.730  26.017  1.00  0.00     0.315 C 
ATOM      7  O   UNL A   1      33.837  21.115  27.069  1.00  0.00    -0.252 OA
BRANCH   6   8
ATOM      8  C   UNL A   1      32.352  21.931  25.340  1.00  0.00     0.162 C 
ATOM      9  C   UNL A   1      31.829  23.993  26.871  1.00  0.00     0.076 C 
ATOM     10  C   UNL A   1      31.409  23.100  25.718  1.00  0.00     0.195 C 
ATOM     11  N   UNL A   1      31.177  23.765  24.437  1.00  0.00    -0.328 N 
ATOM     12  C   UNL A   1      32.583  22.101  23.829  1.00  0.00     0.083 C 
ATOM     13  C   UNL A   1      31.376  22.862  23.333  1.00  0.00     0.263 C 
ATOM     14  H   UNL A   1      30.934  24.709  24.739  1.00  0.00     0.348 HD
BRANCH  11  15
ATOM     15  C   UNL A   1      30.796  25.143  24.219  1.00  0.00     0.306 C 
BRANCH  15  16
ATOM     16  C   UNL A   1      31.958  25.982  23.715  1.00  0.00     0.084 A 
ATOM     17  C   UNL A   1      32.458  25.733  22.422  1.00  0.00     0.017 A 
ATOM     18  C   UNL A   1      32.452  27.116  24.389  1.00  0.00     0.278 A 
ATOM     19  C   UNL A   1      33.282  26.660  21.777  1.00  0.00     0.001 A 
ATOM     20  C   UNL A   1      33.265  28.057  23.739  1.00  0.00     0.086 A 
ATOM     21  C   UNL A   1      33.653  27.837  22.420  1.00  0.00     0.007 A 
BRANCH  18  22
ATOM     22  N   UNL A   1      32.182  27.336  25.804  1.00  0.00     0.063 N 
ATOM     23  O   UNL A   1      31.020  27.617  26.130  1.00  0.00    -0.258 OA
ATOM     24  O   UNL A   1      33.147  27.297  26.582  1.00  0.00    -0.258 OA
ENDBRANCH  18  22
ENDBRANCH  15  16
ENDBRANCH  11  15
ENDBRANCH   6   8
ENDBRANCH   5   6
ENDBRANCH   4   5
ENDBRANCH   3   4
ENDBRANCH   2   3
ENDBRANCH   1   2
BRANCH   1  25
ATOM     25  C   UNL A   1      40.317  20.886  26.443  1.00  0.00     0.188 C 
BRANCH  25  26
ATOM     26  O   UNL A   1      41.597  21.412  26.753  1.00  0.00    -0.376 OA
BRANCH  26  27
ATOM     27  C   UNL A   1      42.736  20.910  26.057  1.00  0.00     0.202 C 
BRANCH  27  28
ATOM     28  C   UNL A   1      43.599  21.833  25.166  1.00  0.00     0.261 C 
BRANCH  28  29
ATOM     29  O   UNL A   1      43.026  23.104  24.857  1.00  0.00    -0.460 OA
BRANCH  29  30
ATOM     30  C   UNL A   1      43.842  24.167  25.071  1.00  0.00     0.338 C 
ATOM     31  O   UNL A   1      44.856  24.452  24.454  1.00  0.00    -0.246 OA
BRANCH  30  32
ATOM     32  C   UNL A   1      43.175  25.077  26.035  1.00  0.00     0.060 A 
ATOM     33  C   UNL A   1      43.602  26.411  26.082  1.00  0.00     0.016 A 
ATOM     34  C   UNL A   1      42.084  24.660  26.806  1.00  0.00     0.016 A 
ATOM     35  C   UNL A   1      42.969  27.321  26.930  1.00  0.00     0.010 A 
ATOM     36  C   UNL A   1      41.456  25.569  27.661  1.00  0.00     0.010 A 
ATOM     37  C   UNL A   1      41.918  26.894  27.752  1.00  0.00    -0.014 A 
BRANCH  37  38
ATOM     38  C   UNL A   1      41.457  27.745  28.876  1.00  0.00     0.031 A 
ATOM     39  C   UNL A   1      42.203  27.640  30.178  1.00  0.00     0.074 A 
ATOM     40  C   UNL A   1      40.413  28.583  28.760  1.00  0.00     0.049 A 
ATOM     41  N   UNL A   1      41.953  28.202  31.332  1.00  0.00    -0.248 NA
ATOM     42  C   UNL A   1      43.394  26.773  30.175  1.00  0.00     0.031 C 
ATOM     43  C   UNL A   1      39.636  28.812  27.546  1.00  0.00     0.029 A 
ATOM     44  N   UNL A   1      39.821  29.395  29.698  1.00  0.00    -0.354 N 
ATOM     45  C   UNL A   1      42.951  27.757  32.187  1.00  0.00     0.074 A 
ATOM     46  C   UNL A   1      43.789  26.850  31.435  1.00  0.00     0.031 C 
ATOM     47  C   UNL A   1      38.658  29.697  27.815  1.00  0.00     0.029 A 
ATOM     48  C   UNL A   1      38.721  30.068  29.229  1.00  0.00     0.049 A 
ATOM     49  H   UNL A   1      40.154  29.483  30.620  1.00  0.00     0.167 HD
ATOM     50  C   UNL A   1      43.160  28.083  33.485  1.00  0.00     0.037 A 
ATOM     51  C   UNL A   1      37.855  30.873  29.879  1.00  0.00     0.037 A 
ATOM     52  C   UNL A   1      42.324  28.974  34.240  1.00  0.00     0.049 A 
ATOM     53  C   UNL A   1      38.053  31.144  31.351  1.00  0.00     0.074 A 
ATOM     54  C   UNL A   1      42.450  29.365  35.560  1.00  0.00     0.029 A 
ATOM     55  N   UNL A   1      41.200  29.613  33.737  1.00  0.00    -0.354 N 
ATOM     56  N   UNL A   1      39.007  30.733  32.151  1.00  0.00    -0.248 NA
ATOM     57  C   UNL A   1      37.048  31.991  32.011  1.00  0.00     0.031 C 
ATOM     58  C   UNL A   1      41.375  30.202  35.872  1.00  0.00     0.029 A 
ATOM     59  C   UNL A   1      40.611  30.378  34.730  1.00  0.00     0.049 A 
ATOM     60  H   UNL A   1      40.871  29.534  32.813  1.00  0.00     0.167 HD
ATOM     61  C   UNL A   1      38.739  31.300  33.392  1.00  0.00     0.074 A 
ATOM     62  C   UNL A   1      37.537  32.091  33.238  1.00  0.00     0.031 C 
ATOM     63  C   UNL A   1      39.426  31.178  34.555  1.00  0.00     0.037 A 
BRANCH  50  64
ATOM     64  C   UNL A   1      44.330  27.447  34.172  1.00  0.00     0.064 A 
ATOM     65  C   UNL A   1      45.578  28.086  34.239  1.00  0.00     0.173 A 
ATOM     66  C   UNL A   1      44.198  26.194  34.788  1.00  0.00     0.173 A 
ATOM     67  F   UNL A   1      45.760  29.275  33.646  1.00  0.00    -0.203 F 
ATOM     68  C   UNL A   1      46.656  27.482  34.879  1.00  0.00     0.198 A 
ATOM     69  C   UNL A   1      45.271  25.607  35.452  1.00  0.00     0.198 A 
ATOM     70  F   UNL A   1      43.027  25.541  34.750  1.00  0.00    -0.203 F 
ATOM     71  F   UNL A   1      47.852  28.088  34.889  1.00  0.00    -0.200 F 
ATOM     72  C   UNL A   1      46.500  26.248  35.492  1.00  0.00     0.200 A 
ATOM     73  F   UNL A   1      45.116  24.418  36.051  1.00  0.00    -0.200 F 
ATOM     74  F   UNL A   1      47.538  25.671  36.113  1.00  0.00    -0.200 F 
ENDBRANCH  50  64
BRANCH  51  75
ATOM     75  C   UNL A   1      36.701  31.475  29.158  1.00  0.00     0.064 A 
ATOM     76  C   UNL A   1      36.655  32.852  28.892  1.00  0.00     0.173 A 
ATOM     77  C   UNL A   1      35.598  30.701  28.772  1.00  0.00     0.173 A 
ATOM     78  F   UNL A   1      37.672  33.640  29.272  1.00  0.00    -0.203 F 
ATOM     79  C   UNL A   1      35.540  33.433  28.291  1.00  0.00     0.198 A 
ATOM     80  C   UNL A   1      34.495  31.279  28.144  1.00  0.00     0.198 A 
ATOM     81  F   UNL A   1      35.585  29.382  29.010  1.00  0.00    -0.203 F 
ATOM     82  F   UNL A   1      35.499  34.760  28.105  1.00  0.00    -0.200 F 
ATOM     83  C   UNL A   1      34.463  32.647  27.914  1.00  0.00     0.200 A 
ATOM     84  F   UNL A   1      33.458  30.514  27.777  1.00  0.00    -0.200 F 
ATOM     85  F   UNL A   1      33.388  33.207  27.344  1.00  0.00    -0.200 F 
ENDBRANCH  51  75
BRANCH  63  86
ATOM     86  C   UNL A   1      38.933  31.956  35.741  1.00  0.00     0.064 A 
ATOM     87  C   UNL A   1      38.156  31.359  36.746  1.00  0.00     0.173 A 
ATOM     88  C   UNL A   1      39.291  33.303  35.901  1.00  0.00     0.173 A 
ATOM     89  F   UNL A   1      37.778  30.076  36.634  1.00  0.00    -0.203 F 
ATOM     90  C   UNL A   1      37.737  32.090  37.854  1.00  0.00     0.198 A 
ATOM     91  C   UNL A   1      38.896  34.022  37.026  1.00  0.00     0.198 A 
ATOM     92  F   UNL A   1      40.041  33.919  34.975  1.00  0.00    -0.203 F 
ATOM     93  F   UNL A   1      36.960  31.512  38.780  1.00  0.00    -0.200 F 
ATOM     94  C   UNL A   1      38.113  33.417  37.998  1.00  0.00     0.200 A 
ATOM     95  F   UNL A   1      39.274  35.300  37.171  1.00  0.00    -0.200 F 
ATOM     96  F   UNL A   1      37.718  34.115  39.071  1.00  0.00    -0.200 F 
ENDBRANCH  63  86
ENDBRANCH  37  38
ENDBRANCH  30  32
ENDBRANCH  29  30
ENDBRANCH  28  29
ENDBRANCH  27  28
ENDBRANCH  26  27
ENDBRANCH  25  26
ENDBRANCH   1  25
TORSDOF 20
ENDMDL
MODEL 2
REMARK VINA RESULT:     -11.3      1.166      2.158
REMARK SMILES C[C@@H]1[C@H](C(=O)OCCOCCOCCOC(=O)c2ccc(-c3c4nc(c(-c5c(F)c(F)c(F)c(F)c5F)c5ccc([nH]5)c(-c5c(F)c(F)c(F)c(F)c5F)c5nc(c(-c6c(F)c(F)c(F)c(F)c6F)c6ccc3[nH]6)C=C5)C=C4)cc2)CC[NH+]1Cc1ccccc1[N+](=O)[O-]
REMARK SMILES IDX 10 1 9 2 8 3 7 4 6 5 4 6 5 7 3 8 1 9 2 10 83 11 81 12 82 13
REMARK SMILES IDX 84 15 85 16 86 17 90 18 87 19 89 20 88 21 91 22 92 23 93 24
REMARK SMILES IDX 11 25 12 26 13 27 14 28 15 29 16 30 17 31 18 32 19 33 80 34
REMARK SMILES IDX 20 35 79 36 21 37 22 38 23 39 73 40 24 41 78 42 72 43 74 44
REMARK SMILES IDX 25 45 77 46 71 47 70 48 26 50 58 51 38 52 57 53 39 54 42 55
REMARK SMILES IDX 56 56 75 57 40 58 41 59 55 61 76 62 43 63 27 64 28 65 36 66
REMARK SMILES IDX 29 67 30 68 34 69 37 70 31 71 32 72 35 73 33 74 59 75 60 76
REMARK SMILES IDX 68 77 61 78 62 79 66 80 69 81 63 82 64 83 67 84 65 85 44 86
REMARK SMILES IDX 45 87 53 88 46 89 47 90 51 91 54 92 48 93 49 94 52 95 50 96
REMARK H PARENT 83 14 74 49 42 60
REMARK Flexibility Score: inf
ROOT
ATOM      1  C   UNL A   1      39.634  21.367  26.353  1.00  0.00     0.188 C 
ENDROOT
BRANCH   1   2
ATOM      2  O   UNL A   1      38.557  20.725  25.696  1.00  0.00    -0.376 OA
BRANCH   2   3
ATOM      3  C   UNL A   1      37.463  21.554  25.300  1.00  0.00     0.202 C 
BRANCH   3   4
ATOM      4  C   UNL A   1      36.118  20.860  25.070  1.00  0.00     0.261 C 
BRANCH   4   5
ATOM      5  O   UNL A   1      35.207  21.759  24.404  1.00  0.00    -0.463 OA
BRANCH   5   6
ATOM      6  C   UNL A   1      34.466  22.559  25.209  1.00  0.00     0.315 C 
ATOM      7  O   UNL A   1      34.254  22.311  26.391  1.00  0.00    -0.252 OA
BRANCH   6   8
ATOM      8  C   UNL A   1      34.117  23.893  24.564  1.00  0.00     0.162 C 
ATOM      9  C   UNL A   1      31.555  23.426  24.855  1.00  0.00     0.076 C 
ATOM     10  C   UNL A   1      32.653  24.379  24.420  1.00  0.00     0.195 C 
ATOM     11  N   UNL A   1      32.673  25.685  25.075  1.00  0.00    -0.328 N 
ATOM     12  C   UNL A   1      34.816  25.015  25.351  1.00  0.00     0.083 C 
ATOM     13  C   UNL A   1      33.996  26.253  25.074  1.00  0.00     0.263 C 
ATOM     14  H   UNL A   1      31.694  25.793  25.343  1.00  0.00     0.348 HD
BRANCH  11  15
ATOM     15  C   UNL A   1      31.557  26.385  25.673  1.00  0.00     0.306 C 
BRANCH  15  16
ATOM     16  C   UNL A   1      30.590  26.913  24.627  1.00  0.00     0.084 A 
ATOM     17  C   UNL A   1      29.413  26.184  24.369  1.00  0.00     0.017 A 
ATOM     18  C   UNL A   1      30.707  28.181  24.025  1.00  0.00     0.278 A 
ATOM     19  C   UNL A   1      28.342  26.764  23.682  1.00  0.00     0.001 A 
ATOM     20  C   UNL A   1      29.629  28.773  23.349  1.00  0.00     0.086 A 
ATOM     21  C   UNL A   1      28.436  28.069  23.207  1.00  0.00     0.007 A 
BRANCH  18  22
ATOM     22  N   UNL A   1      31.968  28.912  24.033  1.00  0.00     0.063 N 
ATOM     23  O   UNL A   1      32.696  28.811  23.035  1.00  0.00    -0.258 OA
ATOM     24  O   UNL A   1      32.263  29.529  25.067  1.00  0.00    -0.258 OA
ENDBRANCH  18  22
ENDBRANCH  15  16
ENDBRANCH  11  15
ENDBRANCH   6   8
ENDBRANCH   5   6
ENDBRANCH   4   5
ENDBRANCH   3   4
ENDBRANCH   2   3
ENDBRANCH   1   2
BRANCH   1  25
ATOM     25  C   UNL A   1      40.958  20.605  26.438  1.00  0.00     0.188 C 
BRANCH  25  26
ATOM     26  O   UNL A   1      42.201  21.272  26.583  1.00  0.00    -0.376 OA
BRANCH  26  27
ATOM     27  C   UNL A   1      43.283  20.905  25.729  1.00  0.00     0.202 C 
BRANCH  27  28
ATOM     28  C   UNL A   1      44.037  21.965  24.894  1.00  0.00     0.261 C 
BRANCH  28  29
ATOM     29  O   UNL A   1      43.398  23.238  24.790  1.00  0.00    -0.460 OA
BRANCH  29  30
ATOM     30  C   UNL A   1      44.196  24.302  25.057  1.00  0.00     0.338 C 
ATOM     31  O   UNL A   1      45.217  24.623  24.469  1.00  0.00    -0.246 OA
BRANCH  30  32
ATOM     32  C   UNL A   1      43.500  25.167  26.042  1.00  0.00     0.060 A 
ATOM     33  C   UNL A   1      43.610  26.556  25.889  1.00  0.00     0.016 A 
ATOM     34  C   UNL A   1      42.673  24.632  27.036  1.00  0.00     0.016 A 
ATOM     35  C   UNL A   1      42.928  27.414  26.754  1.00  0.00     0.010 A 
ATOM     36  C   UNL A   1      41.998  25.490  27.907  1.00  0.00     0.010 A 
ATOM     37  C   UNL A   1      42.150  26.884  27.792  1.00  0.00    -0.014 A 
BRANCH  37  38
ATOM     38  C   UNL A   1      41.692  27.756  28.901  1.00  0.00     0.031 A 
ATOM     39  C   UNL A   1      42.489  27.734  30.177  1.00  0.00     0.074 A 
ATOM     40  C   UNL A   1      40.608  28.543  28.794  1.00  0.00     0.049 A 
ATOM     41  N   UNL A   1      42.254  28.328  31.318  1.00  0.00    -0.248 NA
ATOM     42  C   UNL A   1      43.717  26.920  30.161  1.00  0.00     0.031 C 
ATOM     43  C   UNL A   1      39.778  28.691  27.602  1.00  0.00     0.029 A 
ATOM     44  N   UNL A   1      40.014  29.362  29.723  1.00  0.00    -0.354 N 
ATOM     45  C   UNL A   1      43.301  27.960  32.151  1.00  0.00     0.074 A 
ATOM     46  C   UNL A   1      44.152  27.063  31.401  1.00  0.00     0.031 C 
ATOM     47  C   UNL A   1      38.771  29.541  27.875  1.00  0.00     0.029 A 
ATOM     48  C   UNL A   1      38.868  29.969  29.271  1.00  0.00     0.049 A 
ATOM     49  H   UNL A   1      40.375  29.501  30.628  1.00  0.00     0.167 HD
ATOM     50  C   UNL A   1      43.542  28.344  33.427  1.00  0.00     0.037 A 
ATOM     51  C   UNL A   1      37.990  30.759  29.923  1.00  0.00     0.037 A 
ATOM     52  C   UNL A   1      42.694  29.226  34.179  1.00  0.00     0.049 A 
ATOM     53  C   UNL A   1      38.229  31.094  31.376  1.00  0.00     0.074 A 
ATOM     54  C   UNL A   1      42.849  29.672  35.479  1.00  0.00     0.029 A 
ATOM     55  N   UNL A   1      41.525  29.795  33.697  1.00  0.00    -0.354 N 
ATOM     56  N   UNL A   1      39.228  30.756  32.154  1.00  0.00    -0.248 NA
ATOM     57  C   UNL A   1      37.211  31.921  32.041  1.00  0.00     0.031 C 
ATOM     58  C   UNL A   1      41.749  30.473  35.800  1.00  0.00     0.029 A 
ATOM     59  C   UNL A   1      40.937  30.571  34.682  1.00  0.00     0.049 A 
ATOM     60  H   UNL A   1      41.167  29.667  32.789  1.00  0.00     0.167 HD
ATOM     61  C   UNL A   1      38.980  31.358  33.383  1.00  0.00     0.074 A 
ATOM     62  C   UNL A   1      37.738  32.089  33.245  1.00  0.00     0.031 C 
ATOM     63  C   UNL A   1      39.713  31.310  34.522  1.00  0.00     0.037 A 
BRANCH  50  64
ATOM     64  C   UNL A   1      44.764  27.786  34.093  1.00  0.00     0.064 A 
ATOM     65  C   UNL A   1      44.714  26.601  34.843  1.00  0.00     0.173 A 
ATOM     66  C   UNL A   1      46.001  28.433  33.963  1.00  0.00     0.173 A 
ATOM     67  F   UNL A   1      43.549  25.959  35.014  1.00  0.00    -0.203 F 
ATOM     68  C   UNL A   1      45.857  26.097  35.457  1.00  0.00     0.198 A 
ATOM     69  C   UNL A   1      47.147  27.909  34.555  1.00  0.00     0.198 A 
ATOM     70  F   UNL A   1      46.100  29.570  33.259  1.00  0.00    -0.203 F 
ATOM     71  F   UNL A   1      45.778  24.990  36.209  1.00  0.00    -0.200 F 
ATOM     72  C   UNL A   1      47.073  26.746  35.306  1.00  0.00     0.200 A 
ATOM     73  F   UNL A   1      48.323  28.533  34.401  1.00  0.00    -0.200 F 
ATOM     74  F   UNL A   1      48.172  26.255  35.893  1.00  0.00    -0.200 F 
ENDBRANCH  50  64
BRANCH  51  75
ATOM     75  C   UNL A   1      36.785  31.281  29.224  1.00  0.00     0.064 A 
ATOM     76  C   UNL A   1      35.709  30.437  28.911  1.00  0.00     0.173 A 
ATOM     77  C   UNL A   1      36.707  32.617  28.804  1.00  0.00     0.173 A 
ATOM     78  F   UNL A   1      35.752  29.143  29.262  1.00  0.00    -0.203 F 
ATOM     79  C   UNL A   1      34.615  30.902  28.184  1.00  0.00     0.198 A 
ATOM     80  C   UNL A   1      35.599  33.088  28.103  1.00  0.00     0.198 A 
ATOM     81  F   UNL A   1      37.712  33.465  29.068  1.00  0.00    -0.203 F 
ATOM     82  F   UNL A   1      33.631  30.058  27.847  1.00  0.00    -0.200 F 
ATOM     83  C   UNL A   1      34.558  32.228  27.784  1.00  0.00     0.200 A 
ATOM     84  F   UNL A   1      35.546  34.373  27.722  1.00  0.00    -0.200 F 
ATOM     85  F   UNL A   1      33.510  32.673  27.078  1.00  0.00    -0.200 F 
ENDBRANCH  51  75
BRANCH  63  86
ATOM     86  C   UNL A   1      39.227  32.111  35.697  1.00  0.00     0.064 A 
ATOM     87  C   UNL A   1      38.359  31.566  36.655  1.00  0.00     0.173 A 
ATOM     88  C   UNL A   1      39.684  33.423  35.895  1.00  0.00     0.173 A 
ATOM     89  F   UNL A   1      37.884  30.320  36.504  1.00  0.00    -0.203 F 
ATOM     90  C   UNL A   1      37.947  32.314  37.754  1.00  0.00     0.198 A 
ATOM     91  C   UNL A   1      39.295  34.157  37.012  1.00  0.00     0.198 A 
ATOM     92  F   UNL A   1      40.524  33.988  35.015  1.00  0.00    -0.203 F 
ATOM     93  F   UNL A   1      37.083  31.790  38.634  1.00  0.00    -0.200 F 
ATOM     94  C   UNL A   1      38.421  33.605  37.937  1.00  0.00     0.200 A 
ATOM     95  F   UNL A   1      39.767  35.398  37.196  1.00  0.00    -0.200 F 
ATOM     96  F   UNL A   1      38.032  34.319  39.002  1.00  0.00    -0.200 F 
ENDBRANCH  63  86
ENDBRANCH  37  38
ENDBRANCH  30  32
ENDBRANCH  29  30
ENDBRANCH  28  29
ENDBRANCH  27  28
ENDBRANCH  26  27
ENDBRANCH  25  26
ENDBRANCH   1  25
TORSDOF 20
ENDMDL
MODEL 3
REMARK VINA RESULT:     -11.3      4.553      8.816
REMARK SMILES C[C@@H]1[C@H](C(=O)OCCOCCOCCOC(=O)c2ccc(-c3c4nc(c(-c5c(F)c(F)c(F)c(F)c5F)c5ccc([nH]5)c(-c5c(F)c(F)c(F)c(F)c5F)c5nc(c(-c6c(F)c(F)c(F)c(F)c6F)c6ccc3[nH]6)C=C5)C=C4)cc2)CC[NH+]1Cc1ccccc1[N+](=O)[O-]
REMARK SMILES IDX 10 1 9 2 8 3 7 4 6 5 4 6 5 7 3 8 1 9 2 10 83 11 81 12 82 13
REMARK SMILES IDX 84 15 85 16 86 17 90 18 87 19 89 20 88 21 91 22 92 23 93 24
REMARK SMILES IDX 11 25 12 26 13 27 14 28 15 29 16 30 17 31 18 32 19 33 80 34
REMARK SMILES IDX 20 35 79 36 21 37 22 38 23 39 73 40 24 41 78 42 72 43 74 44
REMARK SMILES IDX 25 45 77 46 71 47 70 48 26 50 58 51 38 52 57 53 39 54 42 55
REMARK SMILES IDX 56 56 75 57 40 58 41 59 55 61 76 62 43 63 27 64 28 65 36 66
REMARK SMILES IDX 29 67 30 68 34 69 37 70 31 71 32 72 35 73 33 74 59 75 60 76
REMARK SMILES IDX 68 77 61 78 62 79 66 80 69 81 63 82 64 83 67 84 65 85 44 86
REMARK SMILES IDX 45 87 53 88 46 89 47 90 51 91 54 92 48 93 49 94 52 95 50 96
REMARK H PARENT 83 14 74 49 42 60
REMARK Flexibility Score: inf
ROOT
ATOM      1  C   UNL A   1      36.473  23.508  25.583  1.00  0.00     0.188 C 
ENDROOT
BRANCH   1   2
ATOM      2  O   UNL A   1      35.150  23.005  25.590  1.00  0.00    -0.376 OA
BRANCH   2   3
ATOM      3  C   UNL A   1      34.948  21.743  26.230  1.00  0.00     0.202 C 
BRANCH   3   4
ATOM      4  C   UNL A   1      34.165  20.687  25.446  1.00  0.00     0.261 C 
BRANCH   4   5
ATOM      5  O   UNL A   1      33.422  21.316  24.380  1.00  0.00    -0.463 OA
BRANCH   5   6
ATOM      6  C   UNL A   1      32.153  21.686  24.678  1.00  0.00     0.315 C 
ATOM      7  O   UNL A   1      31.403  21.012  25.377  1.00  0.00    -0.252 OA
BRANCH   6   8
ATOM      8  C   UNL A   1      31.833  23.112  24.251  1.00  0.00     0.162 C 
ATOM      9  C   UNL A   1      32.179  23.982  26.699  1.00  0.00     0.076 C 
ATOM     10  C   UNL A   1      31.890  24.300  25.243  1.00  0.00     0.195 C 
ATOM     11  N   UNL A   1      32.807  25.232  24.591  1.00  0.00    -0.328 N 
ATOM     12  C   UNL A   1      32.796  23.512  23.121  1.00  0.00     0.083 C 
ATOM     13  C   UNL A   1      32.844  25.022  23.167  1.00  0.00     0.263 C 
ATOM     14  H   UNL A   1      33.154  25.768  25.387  1.00  0.00     0.348 HD
BRANCH  11  15
ATOM     15  C   UNL A   1      33.610  26.258  25.218  1.00  0.00     0.306 C 
BRANCH  15  16
ATOM     16  C   UNL A   1      32.779  27.463  25.623  1.00  0.00     0.084 A 
ATOM     17  C   UNL A   1      32.260  27.514  26.932  1.00  0.00     0.017 A 
ATOM     18  C   UNL A   1      32.644  28.621  24.832  1.00  0.00     0.278 A 
ATOM     19  C   UNL A   1      31.782  28.712  27.471  1.00  0.00     0.001 A 
ATOM     20  C   UNL A   1      32.179  29.829  25.374  1.00  0.00     0.086 A 
ATOM     21  C   UNL A   1      31.777  29.875  26.707  1.00  0.00     0.007 A 
BRANCH  18  22
ATOM     22  N   UNL A   1      32.931  28.601  23.403  1.00  0.00     0.063 N 
ATOM     23  O   UNL A   1      34.069  28.932  23.042  1.00  0.00    -0.258 OA
ATOM     24  O   UNL A   1      31.996  28.325  22.637  1.00  0.00    -0.258 OA
ENDBRANCH  18  22
ENDBRANCH  15  16
ENDBRANCH  11  15
ENDBRANCH   6   8
ENDBRANCH   5   6
ENDBRANCH   4   5
ENDBRANCH   3   4
ENDBRANCH   2   3
ENDBRANCH   1   2
BRANCH   1  25
ATOM     25  C   UNL A   1      37.540  22.668  24.878  1.00  0.00     0.188 C 
BRANCH  25  26
ATOM     26  O   UNL A   1      38.254  21.644  25.549  1.00  0.00    -0.376 OA
BRANCH  26  27
ATOM     27  C   UNL A   1      38.193  20.313  25.039  1.00  0.00     0.202 C 
BRANCH  27  28
ATOM     28  C   UNL A   1      39.277  19.270  25.395  1.00  0.00     0.261 C 
BRANCH  28  29
ATOM     29  O   UNL A   1      40.056  19.562  26.556  1.00  0.00    -0.460 OA
BRANCH  29  30
ATOM     30  C   UNL A   1      41.386  19.709  26.331  1.00  0.00     0.338 C 
ATOM     31  O   UNL A   1      42.125  18.929  25.750  1.00  0.00    -0.246 OA
BRANCH  30  32
ATOM     32  C   UNL A   1      41.768  21.094  26.699  1.00  0.00     0.060 A 
ATOM     33  C   UNL A   1      41.566  22.106  25.751  1.00  0.00     0.016 A 
ATOM     34  C   UNL A   1      42.221  21.416  27.984  1.00  0.00     0.016 A 
ATOM     35  C   UNL A   1      41.854  23.434  26.068  1.00  0.00     0.010 A 
ATOM     36  C   UNL A   1      42.518  22.744  28.298  1.00  0.00     0.010 A 
ATOM     37  C   UNL A   1      42.369  23.754  27.331  1.00  0.00    -0.014 A 
BRANCH  37  38
ATOM     38  C   UNL A   1      42.980  25.083  27.573  1.00  0.00     0.031 A 
ATOM     39  C   UNL A   1      42.111  26.146  28.187  1.00  0.00     0.074 A 
ATOM     40  C   UNL A   1      44.259  25.353  27.258  1.00  0.00     0.049 A 
ATOM     41  N   UNL A   1      42.371  27.407  28.418  1.00  0.00    -0.248 NA
ATOM     42  C   UNL A   1      40.759  25.725  28.591  1.00  0.00     0.031 C 
ATOM     43  C   UNL A   1      45.217  24.403  26.701  1.00  0.00     0.029 A 
ATOM     44  N   UNL A   1      44.966  26.527  27.358  1.00  0.00    -0.354 N 
ATOM     45  C   UNL A   1      41.218  27.926  28.990  1.00  0.00     0.074 A 
ATOM     46  C   UNL A   1      40.244  26.858  29.038  1.00  0.00     0.031 C 
ATOM     47  C   UNL A   1      46.387  25.035  26.495  1.00  0.00     0.029 A 
ATOM     48  C   UNL A   1      46.248  26.441  26.873  1.00  0.00     0.049 A 
ATOM     49  H   UNL A   1      44.589  27.352  27.740  1.00  0.00     0.167 HD
ATOM     50  C   UNL A   1      40.991  29.180  29.446  1.00  0.00     0.037 A 
ATOM     51  C   UNL A   1      47.187  27.399  26.733  1.00  0.00     0.037 A 
ATOM     52  C   UNL A   1      41.951  30.247  29.391  1.00  0.00     0.049 A 
ATOM     53  C   UNL A   1      46.876  28.814  27.160  1.00  0.00     0.074 A 
ATOM     54  C   UNL A   1      41.815  31.553  29.823  1.00  0.00     0.029 A 
ATOM     55  N   UNL A   1      43.228  30.129  28.864  1.00  0.00    -0.354 N 
ATOM     56  N   UNL A   1      45.790  29.295  27.714  1.00  0.00    -0.248 NA
ATOM     57  C   UNL A   1      47.926  29.820  26.937  1.00  0.00     0.031 C 
ATOM     58  C   UNL A   1      42.994  32.240  29.515  1.00  0.00     0.029 A 
ATOM     59  C   UNL A   1      43.884  31.346  28.941  1.00  0.00     0.049 A 
ATOM     60  H   UNL A   1      43.612  29.303  28.491  1.00  0.00     0.167 HD
ATOM     61  C   UNL A   1      46.040  30.645  27.941  1.00  0.00     0.074 A 
ATOM     62  C   UNL A   1      47.383  30.905  27.471  1.00  0.00     0.031 C 
ATOM     63  C   UNL A   1      45.230  31.584  28.488  1.00  0.00     0.037 A 
BRANCH  50  64
ATOM     64  C   UNL A   1      39.638  29.466  30.025  1.00  0.00     0.064 A 
ATOM     65  C   UNL A   1      38.568  29.885  29.218  1.00  0.00     0.173 A 
ATOM     66  C   UNL A   1      39.402  29.299  31.397  1.00  0.00     0.173 A 
ATOM     67  F   UNL A   1      38.751  30.081  27.903  1.00  0.00    -0.203 F 
ATOM     68  C   UNL A   1      37.318  30.149  29.770  1.00  0.00     0.198 A 
ATOM     69  C   UNL A   1      38.142  29.536  31.939  1.00  0.00     0.198 A 
ATOM     70  F   UNL A   1      40.392  28.903  32.211  1.00  0.00    -0.203 F 
ATOM     71  F   UNL A   1      36.324  30.595  28.989  1.00  0.00    -0.200 F 
ATOM     72  C   UNL A   1      37.104  29.966  31.128  1.00  0.00     0.200 A 
ATOM     73  F   UNL A   1      37.935  29.350  33.250  1.00  0.00    -0.200 F 
ATOM     74  F   UNL A   1      35.898  30.214  31.656  1.00  0.00    -0.200 F 
ENDBRANCH  50  64
BRANCH  51  75
ATOM     75  C   UNL A   1      48.513  27.071  26.144  1.00  0.00     0.064 A 
ATOM     76  C   UNL A   1      48.738  27.185  24.764  1.00  0.00     0.173 A 
ATOM     77  C   UNL A   1      49.563  26.585  26.936  1.00  0.00     0.173 A 
ATOM     78  F   UNL A   1      47.754  27.615  23.960  1.00  0.00    -0.203 F 
ATOM     79  C   UNL A   1      49.952  26.801  24.197  1.00  0.00     0.198 A 
ATOM     80  C   UNL A   1      50.787  26.229  26.371  1.00  0.00     0.198 A 
ATOM     81  F   UNL A   1      49.399  26.447  28.259  1.00  0.00    -0.203 F 
ATOM     82  F   UNL A   1      50.117  26.864  22.868  1.00  0.00    -0.200 F 
ATOM     83  C   UNL A   1      50.977  26.328  25.001  1.00  0.00     0.200 A 
ATOM     84  F   UNL A   1      51.777  25.775  27.153  1.00  0.00    -0.200 F 
ATOM     85  F   UNL A   1      52.141  25.950  24.454  1.00  0.00    -0.200 F 
ENDBRANCH  51  75
BRANCH  63  86
ATOM     86  C   UNL A   1      45.786  32.968  28.663  1.00  0.00     0.064 A 
ATOM     87  C   UNL A   1      46.516  33.334  29.804  1.00  0.00     0.173 A 
ATOM     88  C   UNL A   1      45.634  33.924  27.646  1.00  0.00     0.173 A 
ATOM     89  F   UNL A   1      46.679  32.459  30.809  1.00  0.00    -0.203 F 
ATOM     90  C   UNL A   1      47.052  34.612  29.931  1.00  0.00     0.198 A 
ATOM     91  C   UNL A   1      46.197  35.192  27.763  1.00  0.00     0.198 A 
ATOM     92  F   UNL A   1      44.955  33.623  26.530  1.00  0.00    -0.203 F 
ATOM     93  F   UNL A   1      47.708  34.954  31.048  1.00  0.00    -0.200 F 
ATOM     94  C   UNL A   1      46.899  35.537  28.908  1.00  0.00     0.200 A 
ATOM     95  F   UNL A   1      46.064  36.079  26.767  1.00  0.00    -0.200 F 
ATOM     96  F   UNL A   1      47.426  36.763  29.028  1.00  0.00    -0.200 F 
ENDBRANCH  63  86
ENDBRANCH  37  38
ENDBRANCH  30  32
ENDBRANCH  29  30
ENDBRANCH  28  29
ENDBRANCH  27  28
ENDBRANCH  26  27
ENDBRANCH  25  26
ENDBRANCH   1  25
TORSDOF 20
ENDMDL
