MODEL 1
REMARK VINA RESULT:     -11.5      0.000      0.000
REMARK SMILES O=C(OCCOCCOCCOC(=O)c1nccnc1C(=O)Nc1n[nH]c2ncccc12)c1ccc(-c2c3nc(c(-c4c(F)c(F)c(F)c(F)c4F)c4ccc([nH]4)c(-c4c(F)c(F)c(F)c(F)c4F)c4nc(c(-c5c(F)c(F)c(F)c(F)c5F)c5ccc2[nH]5)C=C4)C=C3)cc1
REMARK SMILES IDX 7 1 6 2 5 3 4 4 3 5 2 6 1 7 33 8 34 9 95 10 35 11 94 12
REMARK SMILES IDX 36 13 37 14 38 15 88 16 39 17 93 18 87 19 89 20 40 21 92 22
REMARK SMILES IDX 86 23 85 24 41 26 73 27 53 28 72 29 54 30 57 31 71 32 90 33
REMARK SMILES IDX 55 34 56 35 70 37 91 38 58 39 42 40 43 41 51 42 44 43 45 44
REMARK SMILES IDX 49 45 52 46 46 47 47 48 50 49 48 50 74 51 75 52 83 53 76 54
REMARK SMILES IDX 77 55 81 56 84 57 78 58 79 59 82 60 80 61 59 62 60 63 68 64
REMARK SMILES IDX 61 65 62 66 66 67 69 68 63 69 64 70 67 71 65 72 8 73 9 74
REMARK SMILES IDX 10 75 11 76 12 77 13 78 14 79 15 80 16 81 20 82 17 83 19 84
REMARK SMILES IDX 18 85 21 86 22 87 23 88 24 90 25 91 32 92 26 93 27 94 31 95
REMARK SMILES IDX 28 97 30 98 29 99
REMARK H PARENT 89 25 57 36 23 89 26 96
REMARK Flexibility Score: inf
ROOT
ATOM      1  C   UNL A   1      35.414  32.370  28.003  1.00  0.00     0.188 C 
ENDROOT
BRANCH   1   2
ATOM      2  O   UNL A   1      35.301  33.501  28.863  1.00  0.00    -0.376 OA
BRANCH   2   3
ATOM      3  C   UNL A   1      34.297  33.400  29.868  1.00  0.00     0.202 C 
BRANCH   3   4
ATOM      4  C   UNL A   1      34.885  33.302  31.283  1.00  0.00     0.261 C 
BRANCH   4   5
ATOM      5  O   UNL A   1      35.163  31.922  31.562  1.00  0.00    -0.460 OA
BRANCH   5   6
ATOM      6  C   UNL A   1      36.143  31.668  32.476  1.00  0.00     0.338 C 
ATOM      7  O   UNL A   1      36.136  31.953  33.644  1.00  0.00    -0.246 OA
BRANCH   6   8
ATOM      8  C   UNL A   1      37.252  30.972  31.755  1.00  0.00     0.060 A 
ATOM      9  C   UNL A   1      38.407  30.609  32.456  1.00  0.00     0.016 A 
ATOM     10  C   UNL A   1      37.141  30.652  30.395  1.00  0.00     0.016 A 
ATOM     11  C   UNL A   1      39.460  29.988  31.797  1.00  0.00     0.010 A 
ATOM     12  C   UNL A   1      38.210  30.026  29.723  1.00  0.00     0.010 A 
ATOM     13  C   UNL A   1      39.385  29.712  30.421  1.00  0.00    -0.014 A 
BRANCH  13  14
ATOM     14  C   UNL A   1      40.679  29.374  29.771  1.00  0.00     0.031 A 
ATOM     15  C   UNL A   1      40.744  28.026  29.132  1.00  0.00     0.074 A 
ATOM     16  C   UNL A   1      41.647  30.278  29.537  1.00  0.00     0.049 A 
ATOM     17  N   UNL A   1      41.626  27.552  28.299  1.00  0.00    -0.248 NA
ATOM     18  C   UNL A   1      39.658  27.092  29.473  1.00  0.00     0.031 C 
ATOM     19  C   UNL A   1      41.725  31.580  30.156  1.00  0.00     0.029 A 
ATOM     20  N   UNL A   1      42.724  30.280  28.688  1.00  0.00    -0.354 N 
ATOM     21  C   UNL A   1      41.199  26.267  28.014  1.00  0.00     0.074 A 
ATOM     22  C   UNL A   1      39.969  26.041  28.737  1.00  0.00     0.031 C 
ATOM     23  C   UNL A   1      42.626  32.346  29.532  1.00  0.00     0.029 A 
ATOM     24  C   UNL A   1      43.377  31.493  28.629  1.00  0.00     0.049 A 
ATOM     25  H   UNL A   1      43.004  29.491  28.169  1.00  0.00     0.167 HD
ATOM     26  C   UNL A   1      41.818  25.342  27.251  1.00  0.00     0.037 A 
ATOM     27  C   UNL A   1      44.519  31.852  28.009  1.00  0.00     0.037 A 
ATOM     28  C   UNL A   1      43.101  25.556  26.646  1.00  0.00     0.049 A 
ATOM     29  C   UNL A   1      45.250  30.774  27.270  1.00  0.00     0.074 A 
ATOM     30  C   UNL A   1      43.893  24.658  25.960  1.00  0.00     0.029 A 
ATOM     31  N   UNL A   1      43.799  26.758  26.698  1.00  0.00    -0.354 N 
ATOM     32  N   UNL A   1      44.866  29.540  27.041  1.00  0.00    -0.248 NA
ATOM     33  C   UNL A   1      46.584  31.100  26.759  1.00  0.00     0.031 C 
ATOM     34  C   UNL A   1      45.096  25.301  25.647  1.00  0.00     0.029 A 
ATOM     35  C   UNL A   1      45.025  26.618  26.077  1.00  0.00     0.049 A 
ATOM     36  H   UNL A   1      43.468  27.585  27.116  1.00  0.00     0.167 HD
ATOM     37  C   UNL A   1      45.909  28.937  26.362  1.00  0.00     0.074 A 
ATOM     38  C   UNL A   1      46.935  29.951  26.196  1.00  0.00     0.031 C 
ATOM     39  C   UNL A   1      46.012  27.660  25.924  1.00  0.00     0.037 A 
BRANCH  26  40
ATOM     40  C   UNL A   1      41.155  24.004  27.179  1.00  0.00     0.064 A 
ATOM     41  C   UNL A   1      41.709  22.869  27.791  1.00  0.00     0.173 A 
ATOM     42  C   UNL A   1      40.007  23.834  26.391  1.00  0.00     0.173 A 
ATOM     43  F   UNL A   1      42.837  22.973  28.511  1.00  0.00    -0.203 F 
ATOM     44  C   UNL A   1      41.156  21.607  27.588  1.00  0.00     0.198 A 
ATOM     45  C   UNL A   1      39.443  22.576  26.211  1.00  0.00     0.198 A 
ATOM     46  F   UNL A   1      39.459  24.885  25.761  1.00  0.00    -0.203 F 
ATOM     47  F   UNL A   1      41.745  20.527  28.118  1.00  0.00    -0.200 F 
ATOM     48  C   UNL A   1      40.024  21.463  26.800  1.00  0.00     0.200 A 
ATOM     49  F   UNL A   1      38.354  22.437  25.442  1.00  0.00    -0.200 F 
ATOM     50  F   UNL A   1      39.505  20.245  26.586  1.00  0.00    -0.200 F 
ENDBRANCH  26  40
BRANCH  27  51
ATOM     51  C   UNL A   1      45.083  33.225  28.175  1.00  0.00     0.064 A 
ATOM     52  C   UNL A   1      46.020  33.518  29.175  1.00  0.00     0.173 A 
ATOM     53  C   UNL A   1      44.721  34.274  27.310  1.00  0.00     0.173 A 
ATOM     54  F   UNL A   1      46.387  32.569  30.047  1.00  0.00    -0.203 F 
ATOM     55  C   UNL A   1      46.581  34.793  29.291  1.00  0.00     0.198 A 
ATOM     56  C   UNL A   1      45.313  35.532  27.399  1.00  0.00     0.198 A 
ATOM     57  F   UNL A   1      43.827  34.061  26.333  1.00  0.00    -0.203 F 
ATOM     58  F   UNL A   1      47.462  35.049  30.269  1.00  0.00    -0.200 F 
ATOM     59  C   UNL A   1      46.239  35.793  28.394  1.00  0.00     0.200 A 
ATOM     60  F   UNL A   1      45.008  36.477  26.500  1.00  0.00    -0.200 F 
ATOM     61  F   UNL A   1      46.809  37.002  28.479  1.00  0.00    -0.200 F 
ENDBRANCH  27  51
BRANCH  39  62
ATOM     62  C   UNL A   1      47.255  27.309  25.174  1.00  0.00     0.064 A 
ATOM     63  C   UNL A   1      47.418  27.634  23.821  1.00  0.00     0.173 A 
ATOM     64  C   UNL A   1      48.321  26.696  25.848  1.00  0.00     0.173 A 
ATOM     65  F   UNL A   1      46.414  28.201  23.136  1.00  0.00    -0.203 F 
ATOM     66  C   UNL A   1      48.610  27.346  23.164  1.00  0.00     0.198 A 
ATOM     67  C   UNL A   1      49.519  26.437  25.196  1.00  0.00     0.198 A 
ATOM     68  F   UNL A   1      48.203  26.370  27.144  1.00  0.00    -0.203 F 
ATOM     69  F   UNL A   1      48.740  27.631  21.861  1.00  0.00    -0.200 F 
ATOM     70  C   UNL A   1      49.662  26.760  23.854  1.00  0.00     0.200 A 
ATOM     71  F   UNL A   1      50.537  25.881  25.867  1.00  0.00    -0.200 F 
ATOM     72  F   UNL A   1      50.814  26.498  23.223  1.00  0.00    -0.200 F 
ENDBRANCH  39  62
ENDBRANCH  13  14
ENDBRANCH   6   8
ENDBRANCH   5   6
ENDBRANCH   4   5
ENDBRANCH   3   4
ENDBRANCH   2   3
ENDBRANCH   1   2
BRANCH   1  73
ATOM     73  C   UNL A   1      34.055  31.632  27.865  1.00  0.00     0.188 C 
BRANCH  73  74
ATOM     74  O   UNL A   1      34.054  30.520  26.931  1.00  0.00    -0.376 OA
BRANCH  74  75
ATOM     75  C   UNL A   1      32.790  29.845  26.751  1.00  0.00     0.202 C 
BRANCH  75  76
ATOM     76  C   UNL A   1      32.808  28.366  27.289  1.00  0.00     0.261 C 
BRANCH  76  77
ATOM     77  O   UNL A   1      32.115  27.339  26.506  1.00  0.00    -0.458 OA
BRANCH  77  78
ATOM     78  C   UNL A   1      32.804  26.289  25.948  1.00  0.00     0.359 C 
ATOM     79  O   UNL A   1      33.937  26.354  25.503  1.00  0.00    -0.244 OA
BRANCH  78  80
ATOM     80  C   UNL A   1      31.989  25.018  25.952  1.00  0.00     0.179 A 
ATOM     81  N   UNL A   1      31.913  24.366  27.162  1.00  0.00    -0.245 NA
ATOM     82  C   UNL A   1      31.341  24.484  24.831  1.00  0.00     0.161 A 
ATOM     83  C   UNL A   1      31.178  23.224  27.192  1.00  0.00     0.132 A 
ATOM     84  N   UNL A   1      30.639  23.301  24.877  1.00  0.00    -0.247 NA
ATOM     85  C   UNL A   1      30.553  22.704  26.075  1.00  0.00     0.132 A 
BRANCH  82  86
ATOM     86  C   UNL A   1      31.362  25.013  23.444  1.00  0.00     0.278 C 
ATOM     87  O   UNL A   1      30.736  26.036  23.178  1.00  0.00    -0.267 OA
ATOM     88  N   UNL A   1      31.929  24.244  22.435  1.00  0.00    -0.303 N 
ATOM     89  H   UNL A   1      31.472  24.120  21.572  1.00  0.00     0.172 HD
BRANCH  88  90
ATOM     90  C   UNL A   1      33.146  23.666  22.682  1.00  0.00     0.164 A 
ATOM     91  N   UNL A   1      34.176  24.494  22.735  1.00  0.00    -0.155 NA
ATOM     92  C   UNL A   1      33.450  22.410  23.261  1.00  0.00     0.063 A 
ATOM     93  N   UNL A   1      34.953  23.889  23.638  1.00  0.00    -0.259 N 
ATOM     94  C   UNL A   1      34.647  22.592  23.904  1.00  0.00     0.157 A 
ATOM     95  C   UNL A   1      32.812  21.204  23.501  1.00  0.00     0.017 A 
ATOM     96  H   UNL A   1      35.699  24.354  24.081  1.00  0.00     0.192 HD
ATOM     97  N   UNL A   1      35.258  21.751  24.764  1.00  0.00    -0.237 NA
ATOM     98  C   UNL A   1      33.391  20.276  24.367  1.00  0.00     0.021 A 
ATOM     99  C   UNL A   1      34.587  20.604  24.973  1.00  0.00     0.113 A 
ENDBRANCH  88  90
ENDBRANCH  82  86
ENDBRANCH  78  80
ENDBRANCH  77  78
ENDBRANCH  76  77
ENDBRANCH  75  76
ENDBRANCH  74  75
ENDBRANCH  73  74
ENDBRANCH   1  73
TORSDOF 19
ENDMDL
MODEL 2
REMARK VINA RESULT:     -11.4      3.293      8.680
REMARK SMILES O=C(OCCOCCOCCOC(=O)c1nccnc1C(=O)Nc1n[nH]c2ncccc12)c1ccc(-c2c3nc(c(-c4c(F)c(F)c(F)c(F)c4F)c4ccc([nH]4)c(-c4c(F)c(F)c(F)c(F)c4F)c4nc(c(-c5c(F)c(F)c(F)c(F)c5F)c5ccc2[nH]5)C=C4)C=C3)cc1
REMARK SMILES IDX 7 1 6 2 5 3 4 4 3 5 2 6 1 7 33 8 34 9 95 10 35 11 94 12
REMARK SMILES IDX 36 13 37 14 38 15 88 16 39 17 93 18 87 19 89 20 40 21 92 22
REMARK SMILES IDX 86 23 85 24 41 26 73 27 53 28 72 29 54 30 57 31 71 32 90 33
REMARK SMILES IDX 55 34 56 35 70 37 91 38 58 39 42 40 43 41 51 42 44 43 45 44
REMARK SMILES IDX 49 45 52 46 46 47 47 48 50 49 48 50 74 51 75 52 83 53 76 54
REMARK SMILES IDX 77 55 81 56 84 57 78 58 79 59 82 60 80 61 59 62 60 63 68 64
REMARK SMILES IDX 61 65 62 66 66 67 69 68 63 69 64 70 67 71 65 72 8 73 9 74
REMARK SMILES IDX 10 75 11 76 12 77 13 78 14 79 15 80 16 81 20 82 17 83 19 84
REMARK SMILES IDX 18 85 21 86 22 87 23 88 24 90 25 91 32 92 26 93 27 94 31 95
REMARK SMILES IDX 28 97 30 98 29 99
REMARK H PARENT 89 25 57 36 23 89 26 96
REMARK Flexibility Score: inf
ROOT
ATOM      1  C   UNL A   1      36.963  22.764  24.436  1.00  0.00     0.188 C 
ENDROOT
BRANCH   1   2
ATOM      2  O   UNL A   1      37.412  21.418  24.574  1.00  0.00    -0.376 OA
BRANCH   2   3
ATOM      3  C   UNL A   1      38.451  21.222  25.528  1.00  0.00     0.202 C 
BRANCH   3   4
ATOM      4  C   UNL A   1      39.145  19.860  25.376  1.00  0.00     0.261 C 
BRANCH   4   5
ATOM      5  O   UNL A   1      40.073  19.703  26.460  1.00  0.00    -0.460 OA
BRANCH   5   6
ATOM      6  C   UNL A   1      41.391  19.593  26.125  1.00  0.00     0.338 C 
ATOM      7  O   UNL A   1      41.949  18.621  25.690  1.00  0.00    -0.246 OA
BRANCH   6   8
ATOM      8  C   UNL A   1      42.032  20.913  26.410  1.00  0.00     0.060 A 
ATOM      9  C   UNL A   1      42.413  21.224  27.719  1.00  0.00     0.016 A 
ATOM     10  C   UNL A   1      42.281  21.833  25.382  1.00  0.00     0.016 A 
ATOM     11  C   UNL A   1      42.984  22.457  28.008  1.00  0.00     0.010 A 
ATOM     12  C   UNL A   1      42.855  23.086  25.673  1.00  0.00     0.010 A 
ATOM     13  C   UNL A   1      43.188  23.411  26.996  1.00  0.00    -0.014 A 
BRANCH  13  14
ATOM     14  C   UNL A   1      43.472  24.790  27.473  1.00  0.00     0.031 A 
ATOM     15  C   UNL A   1      44.819  25.328  27.118  1.00  0.00     0.074 A 
ATOM     16  C   UNL A   1      42.527  25.611  27.966  1.00  0.00     0.049 A 
ATOM     17  N   UNL A   1      45.258  26.553  27.178  1.00  0.00    -0.248 NA
ATOM     18  C   UNL A   1      45.798  24.348  26.616  1.00  0.00     0.031 C 
ATOM     19  C   UNL A   1      41.220  25.190  28.411  1.00  0.00     0.029 A 
ATOM     20  N   UNL A   1      42.483  26.972  28.137  1.00  0.00    -0.354 N 
ATOM     21  C   UNL A   1      46.562  26.491  26.719  1.00  0.00     0.074 A 
ATOM     22  C   UNL A   1      46.838  25.119  26.358  1.00  0.00     0.031 C 
ATOM     23  C   UNL A   1      40.419  26.245  28.588  1.00  0.00     0.029 A 
ATOM     24  C   UNL A   1      41.243  27.439  28.518  1.00  0.00     0.049 A 
ATOM     25  H   UNL A   1      43.261  27.558  28.000  1.00  0.00     0.167 HD
ATOM     26  C   UNL A   1      47.463  27.494  26.655  1.00  0.00     0.037 A 
ATOM     27  C   UNL A   1      40.837  28.670  28.884  1.00  0.00     0.037 A 
ATOM     28  C   UNL A   1      47.196  28.818  27.137  1.00  0.00     0.049 A 
ATOM     29  C   UNL A   1      41.886  29.739  28.923  1.00  0.00     0.074 A 
ATOM     30  C   UNL A   1      48.061  29.887  27.250  1.00  0.00     0.029 A 
ATOM     31  N   UNL A   1      45.965  29.238  27.629  1.00  0.00    -0.354 N 
ATOM     32  N   UNL A   1      43.136  29.666  28.532  1.00  0.00    -0.248 NA
ATOM     33  C   UNL A   1      41.504  31.029  29.503  1.00  0.00     0.031 C 
ATOM     34  C   UNL A   1      47.368  30.936  27.865  1.00  0.00     0.029 A 
ATOM     35  C   UNL A   1      46.053  30.544  28.071  1.00  0.00     0.049 A 
ATOM     36  H   UNL A   1      45.150  28.686  27.658  1.00  0.00     0.167 HD
ATOM     37  C   UNL A   1      43.696  30.897  28.819  1.00  0.00     0.074 A 
ATOM     38  C   UNL A   1      42.640  31.708  29.397  1.00  0.00     0.031 C 
ATOM     39  C   UNL A   1      44.971  31.316  28.629  1.00  0.00     0.037 A 
BRANCH  26  40
ATOM     40  C   UNL A   1      48.829  27.116  26.180  1.00  0.00     0.064 A 
ATOM     41  C   UNL A   1      49.188  27.191  24.825  1.00  0.00     0.173 A 
ATOM     42  C   UNL A   1      49.754  26.564  27.078  1.00  0.00     0.173 A 
ATOM     43  F   UNL A   1      48.316  27.663  23.920  1.00  0.00    -0.203 F 
ATOM     44  C   UNL A   1      50.412  26.695  24.383  1.00  0.00     0.198 A 
ATOM     45  C   UNL A   1      50.985  26.092  26.637  1.00  0.00     0.198 A 
ATOM     46  F   UNL A   1      49.443  26.444  28.378  1.00  0.00    -0.203 F 
ATOM     47  F   UNL A   1      50.704  26.705  23.075  1.00  0.00    -0.200 F 
ATOM     48  C   UNL A   1      51.309  26.148  25.289  1.00  0.00     0.200 A 
ATOM     49  F   UNL A   1      51.847  25.556  27.512  1.00  0.00    -0.200 F 
ATOM     50  F   UNL A   1      52.477  25.650  24.860  1.00  0.00    -0.200 F 
ENDBRANCH  26  40
BRANCH  27  51
ATOM     51  C   UNL A   1      39.440  28.910  29.354  1.00  0.00     0.064 A 
ATOM     52  C   UNL A   1      39.062  28.677  30.683  1.00  0.00     0.173 A 
ATOM     53  C   UNL A   1      38.453  29.414  28.487  1.00  0.00     0.173 A 
ATOM     54  F   UNL A   1      39.949  28.173  31.553  1.00  0.00    -0.203 F 
ATOM     55  C   UNL A   1      37.765  28.952  31.127  1.00  0.00     0.198 A 
ATOM     56  C   UNL A   1      37.174  29.730  28.940  1.00  0.00     0.198 A 
ATOM     57  F   UNL A   1      38.748  29.657  27.201  1.00  0.00    -0.203 F 
ATOM     58  F   UNL A   1      37.428  28.703  32.400  1.00  0.00    -0.200 F 
ATOM     59  C   UNL A   1      36.829  29.493  30.260  1.00  0.00     0.200 A 
ATOM     60  F   UNL A   1      36.291  30.292  28.105  1.00  0.00    -0.200 F 
ATOM     61  F   UNL A   1      35.599  29.797  30.696  1.00  0.00    -0.200 F 
ENDBRANCH  27  51
BRANCH  39  62
ATOM     62  C   UNL A   1      45.270  32.733  29.000  1.00  0.00     0.064 A 
ATOM     63  C   UNL A   1      45.063  33.790  28.106  1.00  0.00     0.173 A 
ATOM     64  C   UNL A   1      45.710  33.030  30.298  1.00  0.00     0.173 A 
ATOM     65  F   UNL A   1      44.664  33.545  26.848  1.00  0.00    -0.203 F 
ATOM     66  C   UNL A   1      45.296  35.104  28.499  1.00  0.00     0.198 A 
ATOM     67  C   UNL A   1      45.914  34.345  30.695  1.00  0.00     0.198 A 
ATOM     68  F   UNL A   1      45.920  32.044  31.183  1.00  0.00    -0.203 F 
ATOM     69  F   UNL A   1      45.127  36.103  27.622  1.00  0.00    -0.200 F 
ATOM     70  C   UNL A   1      45.709  35.380  29.794  1.00  0.00     0.200 A 
ATOM     71  F   UNL A   1      46.301  34.611  31.949  1.00  0.00    -0.200 F 
ATOM     72  F   UNL A   1      45.918  36.648  30.175  1.00  0.00    -0.200 F 
ENDBRANCH  39  62
ENDBRANCH  13  14
ENDBRANCH   6   8
ENDBRANCH   5   6
ENDBRANCH   4   5
ENDBRANCH   3   4
ENDBRANCH   2   3
ENDBRANCH   1   2
BRANCH   1  73
ATOM     73  C   UNL A   1      36.153  22.953  23.126  1.00  0.00     0.188 C 
BRANCH  73  74
ATOM     74  O   UNL A   1      34.824  23.512  23.303  1.00  0.00    -0.376 OA
BRANCH  74  75
ATOM     75  C   UNL A   1      33.789  22.580  23.684  1.00  0.00     0.202 C 
BRANCH  75  76
ATOM     76  C   UNL A   1      32.494  22.715  22.803  1.00  0.00     0.261 C 
BRANCH  76  77
ATOM     77  O   UNL A   1      31.294  23.288  23.421  1.00  0.00    -0.458 OA
BRANCH  77  78
ATOM     78  C   UNL A   1      31.384  24.345  24.295  1.00  0.00     0.359 C 
ATOM     79  O   UNL A   1      31.844  24.283  25.423  1.00  0.00    -0.244 OA
BRANCH  78  80
ATOM     80  C   UNL A   1      30.848  25.620  23.690  1.00  0.00     0.179 A 
ATOM     81  N   UNL A   1      29.551  25.936  24.027  1.00  0.00    -0.245 NA
ATOM     82  C   UNL A   1      31.569  26.458  22.831  1.00  0.00     0.161 A 
ATOM     83  C   UNL A   1      29.050  27.084  23.501  1.00  0.00     0.132 A 
ATOM     84  N   UNL A   1      31.023  27.593  22.275  1.00  0.00    -0.247 NA
ATOM     85  C   UNL A   1      29.770  27.895  22.646  1.00  0.00     0.132 A 
BRANCH  82  86
ATOM     86  C   UNL A   1      32.946  26.247  22.316  1.00  0.00     0.278 C 
ATOM     87  O   UNL A   1      33.109  25.652  21.253  1.00  0.00    -0.267 OA
ATOM     88  N   UNL A   1      34.028  26.553  23.132  1.00  0.00    -0.303 N 
ATOM     89  H   UNL A   1      34.783  25.930  23.231  1.00  0.00     0.172 HD
BRANCH  88  90
ATOM     90  C   UNL A   1      34.007  27.752  23.794  1.00  0.00     0.164 A 
ATOM     91  N   UNL A   1      34.100  28.831  23.033  1.00  0.00    -0.155 NA
ATOM     92  C   UNL A   1      33.528  28.062  25.089  1.00  0.00     0.063 A 
ATOM     93  N   UNL A   1      33.361  29.703  23.723  1.00  0.00    -0.259 N 
ATOM     94  C   UNL A   1      33.090  29.358  25.009  1.00  0.00     0.157 A 
ATOM     95  C   UNL A   1      33.224  27.393  26.264  1.00  0.00     0.017 A 
ATOM     96  H   UNL A   1      33.035  30.541  23.325  1.00  0.00     0.192 HD
ATOM     97  N   UNL A   1      32.371  30.045  25.923  1.00  0.00    -0.237 NA
ATOM     98  C   UNL A   1      32.497  28.042  27.262  1.00  0.00     0.021 A 
ATOM     99  C   UNL A   1      32.090  29.342  27.034  1.00  0.00     0.113 A 
ENDBRANCH  88  90
ENDBRANCH  82  86
ENDBRANCH  78  80
ENDBRANCH  77  78
ENDBRANCH  76  77
ENDBRANCH  75  76
ENDBRANCH  74  75
ENDBRANCH  73  74
ENDBRANCH   1  73
TORSDOF 19
ENDMDL
MODEL 3
REMARK VINA RESULT:     -11.3      1.385      2.602
REMARK SMILES O=C(OCCOCCOCCOC(=O)c1nccnc1C(=O)Nc1n[nH]c2ncccc12)c1ccc(-c2c3nc(c(-c4c(F)c(F)c(F)c(F)c4F)c4ccc([nH]4)c(-c4c(F)c(F)c(F)c(F)c4F)c4nc(c(-c5c(F)c(F)c(F)c(F)c5F)c5ccc2[nH]5)C=C4)C=C3)cc1
REMARK SMILES IDX 7 1 6 2 5 3 4 4 3 5 2 6 1 7 33 8 34 9 95 10 35 11 94 12
REMARK SMILES IDX 36 13 37 14 38 15 88 16 39 17 93 18 87 19 89 20 40 21 92 22
REMARK SMILES IDX 86 23 85 24 41 26 73 27 53 28 72 29 54 30 57 31 71 32 90 33
REMARK SMILES IDX 55 34 56 35 70 37 91 38 58 39 42 40 43 41 51 42 44 43 45 44
REMARK SMILES IDX 49 45 52 46 46 47 47 48 50 49 48 50 74 51 75 52 83 53 76 54
REMARK SMILES IDX 77 55 81 56 84 57 78 58 79 59 82 60 80 61 59 62 60 63 68 64
REMARK SMILES IDX 61 65 62 66 66 67 69 68 63 69 64 70 67 71 65 72 8 73 9 74
REMARK SMILES IDX 10 75 11 76 12 77 13 78 14 79 15 80 16 81 20 82 17 83 19 84
REMARK SMILES IDX 18 85 21 86 22 87 23 88 24 90 25 91 32 92 26 93 27 94 31 95
REMARK SMILES IDX 28 97 30 98 29 99
REMARK H PARENT 89 25 57 36 23 89 26 96
REMARK Flexibility Score: inf
ROOT
ATOM      1  C   UNL A   1      34.879  33.167  28.833  1.00  0.00     0.188 C 
ENDROOT
BRANCH   1   2
ATOM      2  O   UNL A   1      34.111  33.768  29.872  1.00  0.00    -0.376 OA
BRANCH   2   3
ATOM      3  C   UNL A   1      34.816  34.005  31.086  1.00  0.00     0.202 C 
BRANCH   3   4
ATOM      4  C   UNL A   1      34.389  33.053  32.214  1.00  0.00     0.261 C 
BRANCH   4   5
ATOM      5  O   UNL A   1      35.194  31.867  32.133  1.00  0.00    -0.460 OA
BRANCH   5   6
ATOM      6  C   UNL A   1      36.319  31.838  32.904  1.00  0.00     0.338 C 
ATOM      7  O   UNL A   1      36.439  32.254  34.026  1.00  0.00    -0.246 OA
BRANCH   6   8
ATOM      8  C   UNL A   1      37.397  31.198  32.091  1.00  0.00     0.060 A 
ATOM      9  C   UNL A   1      38.427  30.507  32.736  1.00  0.00     0.016 A 
ATOM     10  C   UNL A   1      37.377  31.255  30.690  1.00  0.00     0.016 A 
ATOM     11  C   UNL A   1      39.453  29.930  32.000  1.00  0.00     0.010 A 
ATOM     12  C   UNL A   1      38.419  30.675  29.940  1.00  0.00     0.010 A 
ATOM     13  C   UNL A   1      39.476  30.029  30.597  1.00  0.00    -0.014 A 
BRANCH  13  14
ATOM     14  C   UNL A   1      40.774  29.686  29.959  1.00  0.00     0.031 A 
ATOM     15  C   UNL A   1      40.843  28.335  29.328  1.00  0.00     0.074 A 
ATOM     16  C   UNL A   1      41.744  30.588  29.727  1.00  0.00     0.049 A 
ATOM     17  N   UNL A   1      41.730  27.855  28.503  1.00  0.00    -0.248 NA
ATOM     18  C   UNL A   1      39.753  27.404  29.666  1.00  0.00     0.031 C 
ATOM     19  C   UNL A   1      41.820  31.894  30.339  1.00  0.00     0.029 A 
ATOM     20  N   UNL A   1      42.828  30.585  28.885  1.00  0.00    -0.354 N 
ATOM     21  C   UNL A   1      41.305  26.569  28.223  1.00  0.00     0.074 A 
ATOM     22  C   UNL A   1      40.068  26.348  28.938  1.00  0.00     0.031 C 
ATOM     23  C   UNL A   1      42.725  32.656  29.717  1.00  0.00     0.029 A 
ATOM     24  C   UNL A   1      43.482  31.797  28.823  1.00  0.00     0.049 A 
ATOM     25  H   UNL A   1      43.110  29.793  28.373  1.00  0.00     0.167 HD
ATOM     26  C   UNL A   1      41.928  25.639  27.469  1.00  0.00     0.037 A 
ATOM     27  C   UNL A   1      44.628  32.152  28.210  1.00  0.00     0.037 A 
ATOM     28  C   UNL A   1      43.215  25.849  26.872  1.00  0.00     0.049 A 
ATOM     29  C   UNL A   1      45.363  31.069  27.482  1.00  0.00     0.074 A 
ATOM     30  C   UNL A   1      44.011  24.947  26.196  1.00  0.00     0.029 A 
ATOM     31  N   UNL A   1      43.914  27.051  26.922  1.00  0.00    -0.354 N 
ATOM     32  N   UNL A   1      44.980  29.834  27.257  1.00  0.00    -0.248 NA
ATOM     33  C   UNL A   1      46.701  31.392  26.979  1.00  0.00     0.031 C 
ATOM     34  C   UNL A   1      45.217  25.587  25.889  1.00  0.00     0.029 A 
ATOM     35  C   UNL A   1      45.144  26.907  26.311  1.00  0.00     0.049 A 
ATOM     36  H   UNL A   1      43.581  27.881  27.333  1.00  0.00     0.167 HD
ATOM     37  C   UNL A   1      46.027  29.227  26.589  1.00  0.00     0.074 A 
ATOM     38  C   UNL A   1      47.055  30.239  26.424  1.00  0.00     0.031 C 
ATOM     39  C   UNL A   1      46.132  27.947  26.159  1.00  0.00     0.037 A 
BRANCH  26  40
ATOM     40  C   UNL A   1      41.264  24.301  27.400  1.00  0.00     0.064 A 
ATOM     41  C   UNL A   1      41.811  23.171  28.026  1.00  0.00     0.173 A 
ATOM     42  C   UNL A   1      40.124  24.128  26.601  1.00  0.00     0.173 A 
ATOM     43  F   UNL A   1      42.931  23.279  28.756  1.00  0.00    -0.203 F 
ATOM     44  C   UNL A   1      41.259  21.908  27.826  1.00  0.00     0.198 A 
ATOM     45  C   UNL A   1      39.560  22.869  26.424  1.00  0.00     0.198 A 
ATOM     46  F   UNL A   1      39.584  25.174  25.959  1.00  0.00    -0.203 F 
ATOM     47  F   UNL A   1      41.841  20.830  28.369  1.00  0.00    -0.200 F 
ATOM     48  C   UNL A   1      40.134  21.759  27.027  1.00  0.00     0.200 A 
ATOM     49  F   UNL A   1      38.480  22.725  25.646  1.00  0.00    -0.200 F 
ATOM     50  F   UNL A   1      39.617  20.540  26.817  1.00  0.00    -0.200 F 
ENDBRANCH  26  40
BRANCH  27  51
ATOM     51  C   UNL A   1      45.192  33.525  28.372  1.00  0.00     0.064 A 
ATOM     52  C   UNL A   1      44.791  34.586  27.549  1.00  0.00     0.173 A 
ATOM     53  C   UNL A   1      46.126  33.817  29.383  1.00  0.00     0.173 A 
ATOM     54  F   UNL A   1      43.923  34.368  26.551  1.00  0.00    -0.203 F 
ATOM     55  C   UNL A   1      45.286  35.879  27.740  1.00  0.00     0.198 A 
ATOM     56  C   UNL A   1      46.585  35.115  29.601  1.00  0.00     0.198 A 
ATOM     57  F   UNL A   1      46.554  32.847  30.204  1.00  0.00    -0.203 F 
ATOM     58  F   UNL A   1      44.897  36.870  26.926  1.00  0.00    -0.200 F 
ATOM     59  C   UNL A   1      46.169  36.145  28.775  1.00  0.00     0.200 A 
ATOM     60  F   UNL A   1      47.404  35.368  30.630  1.00  0.00    -0.200 F 
ATOM     61  F   UNL A   1      46.610  37.392  28.984  1.00  0.00    -0.200 F 
ENDBRANCH  27  51
BRANCH  39  62
ATOM     62  C   UNL A   1      47.381  27.591  25.419  1.00  0.00     0.064 A 
ATOM     63  C   UNL A   1      48.475  26.995  26.059  1.00  0.00     0.173 A 
ATOM     64  C   UNL A   1      47.446  27.794  24.033  1.00  0.00     0.173 A 
ATOM     65  F   UNL A   1      48.460  26.803  27.387  1.00  0.00    -0.203 F 
ATOM     66  C   UNL A   1      49.601  26.621  25.333  1.00  0.00     0.198 A 
ATOM     67  C   UNL A   1      48.560  27.394  23.308  1.00  0.00     0.198 A 
ATOM     68  F   UNL A   1      46.417  28.362  23.384  1.00  0.00    -0.203 F 
ATOM     69  F   UNL A   1      50.654  26.085  25.964  1.00  0.00    -0.200 F 
ATOM     70  C   UNL A   1      49.638  26.811  23.959  1.00  0.00     0.200 A 
ATOM     71  F   UNL A   1      48.589  27.567  21.979  1.00  0.00    -0.200 F 
ATOM     72  F   UNL A   1      50.717  26.436  23.259  1.00  0.00    -0.200 F 
ENDBRANCH  39  62
ENDBRANCH  13  14
ENDBRANCH   6   8
ENDBRANCH   5   6
ENDBRANCH   4   5
ENDBRANCH   3   4
ENDBRANCH   2   3
ENDBRANCH   1   2
BRANCH   1  73
ATOM     73  C   UNL A   1      34.329  31.762  28.470  1.00  0.00     0.188 C 
BRANCH  73  74
ATOM     74  O   UNL A   1      35.323  30.823  27.981  1.00  0.00    -0.376 OA
BRANCH  74  75
ATOM     75  C   UNL A   1      34.816  29.568  27.476  1.00  0.00     0.202 C 
BRANCH  75  76
ATOM     76  C   UNL A   1      33.658  29.756  26.430  1.00  0.00     0.261 C 
BRANCH  76  77
ATOM     77  O   UNL A   1      33.108  28.559  25.786  1.00  0.00    -0.458 OA
BRANCH  77  78
ATOM     78  C   UNL A   1      33.172  28.395  24.423  1.00  0.00     0.359 C 
ATOM     79  O   UNL A   1      34.190  28.158  23.794  1.00  0.00    -0.244 OA
BRANCH  78  80
ATOM     80  C   UNL A   1      31.815  28.537  23.776  1.00  0.00     0.179 A 
ATOM     81  N   UNL A   1      31.111  29.669  24.117  1.00  0.00    -0.245 NA
ATOM     82  C   UNL A   1      31.255  27.607  22.891  1.00  0.00     0.161 A 
ATOM     83  C   UNL A   1      29.891  29.821  23.540  1.00  0.00     0.132 A 
ATOM     84  N   UNL A   1      29.997  27.763  22.354  1.00  0.00    -0.247 NA
ATOM     85  C   UNL A   1      29.346  28.891  22.677  1.00  0.00     0.132 A 
BRANCH  82  86
ATOM     86  C   UNL A   1      31.839  26.312  22.459  1.00  0.00     0.278 C 
ATOM     87  O   UNL A   1      32.582  26.279  21.482  1.00  0.00    -0.267 OA
ATOM     88  N   UNL A   1      31.386  25.137  23.048  1.00  0.00    -0.303 N 
ATOM     89  H   UNL A   1      31.158  24.350  22.502  1.00  0.00     0.172 HD
BRANCH  88  90
ATOM     90  C   UNL A   1      31.270  25.111  24.412  1.00  0.00     0.164 A 
ATOM     91  N   UNL A   1      30.062  25.365  24.890  1.00  0.00    -0.155 NA
ATOM     92  C   UNL A   1      32.100  24.497  25.379  1.00  0.00     0.063 A 
ATOM     93  N   UNL A   1      30.049  24.604  25.987  1.00  0.00    -0.259 N 
ATOM     94  C   UNL A   1      31.261  24.155  26.408  1.00  0.00     0.157 A 
ATOM     95  C   UNL A   1      33.394  24.008  25.467  1.00  0.00     0.017 A 
ATOM     96  H   UNL A   1      29.215  24.383  26.460  1.00  0.00     0.192 HD
ATOM     97  N   UNL A   1      31.537  23.374  27.474  1.00  0.00    -0.237 NA
ATOM     98  C   UNL A   1      33.759  23.207  26.549  1.00  0.00     0.021 A 
ATOM     99  C   UNL A   1      32.800  22.914  27.499  1.00  0.00     0.113 A 
ENDBRANCH  88  90
ENDBRANCH  82  86
ENDBRANCH  78  80
ENDBRANCH  77  78
ENDBRANCH  76  77
ENDBRANCH  75  76
ENDBRANCH  74  75
ENDBRANCH  73  74
ENDBRANCH   1  73
TORSDOF 19
ENDMDL
