MODEL 1
REMARK VINA RESULT:     -10.2      0.000      0.000
REMARK SMILES O=C(OCCOCCOCCOCCOC(=O)c1cncc(Nc2cccnc2)n1)c1ccc(-c2c3nc(c(-c4c(F)c(F)c(F)c(F)c4F)c4ccc([nH]4)c(-c4c(F)c(F)c(F)c(F)c4F)c4nc(c(-c5c(F)c(F)c(F)c(F)c5F)c5ccc2[nH]5)C=C4)C=C3)cc1
REMARK SMILES IDX 9 1 8 2 7 3 6 4 5 5 4 6 3 7 2 8 1 9 31 10 32 11 93 12 33 13
REMARK SMILES IDX 92 14 34 15 35 16 36 17 86 18 37 19 91 20 85 21 87 22 38 23
REMARK SMILES IDX 90 24 84 25 83 26 39 28 71 29 51 30 70 31 52 32 55 33 69 34
REMARK SMILES IDX 88 35 53 36 54 37 68 39 89 40 56 41 40 42 41 43 49 44 42 45
REMARK SMILES IDX 43 46 47 47 50 48 44 49 45 50 48 51 46 52 72 53 73 54 81 55
REMARK SMILES IDX 74 56 75 57 79 58 82 59 76 60 77 61 80 62 78 63 57 64 58 65
REMARK SMILES IDX 66 66 59 67 60 68 64 69 67 70 61 71 62 72 65 73 63 74 10 75
REMARK SMILES IDX 11 76 12 77 13 78 14 79 15 80 16 81 17 82 18 83 19 84 30 85
REMARK SMILES IDX 20 86 22 87 21 88 23 89 24 91 25 92 29 93 26 94 28 95 27 96
REMARK H PARENT 87 27 55 38 23 90
REMARK Flexibility Score: inf
ROOT
ATOM      1  O   UNL A   1      35.294  23.829  23.933  1.00  0.00    -0.377 OA
ENDROOT
BRANCH   1   2
ATOM      2  C   UNL A   1      35.837  23.910  25.253  1.00  0.00     0.188 C 
BRANCH   2   3
ATOM      3  C   UNL A   1      36.922  22.887  25.597  1.00  0.00     0.188 C 
BRANCH   3   4
ATOM      4  O   UNL A   1      36.659  21.627  24.987  1.00  0.00    -0.376 OA
BRANCH   4   5
ATOM      5  C   UNL A   1      37.701  20.661  24.963  1.00  0.00     0.202 C 
BRANCH   5   6
ATOM      6  C   UNL A   1      38.973  20.990  25.746  1.00  0.00     0.261 C 
BRANCH   6   7
ATOM      7  O   UNL A   1      39.885  19.894  25.953  1.00  0.00    -0.460 OA
BRANCH   7   8
ATOM      8  C   UNL A   1      41.230  19.874  26.098  1.00  0.00     0.338 C 
ATOM      9  O   UNL A   1      41.838  18.831  25.863  1.00  0.00    -0.246 OA
BRANCH   8  10
ATOM     10  C   UNL A   1      42.028  21.058  26.507  1.00  0.00     0.060 A 
ATOM     11  C   UNL A   1      42.277  21.418  27.825  1.00  0.00     0.016 A 
ATOM     12  C   UNL A   1      42.655  21.805  25.499  1.00  0.00     0.016 A 
ATOM     13  C   UNL A   1      42.938  22.588  28.151  1.00  0.00     0.010 A 
ATOM     14  C   UNL A   1      43.409  22.939  25.816  1.00  0.00     0.010 A 
ATOM     15  C   UNL A   1      43.483  23.375  27.146  1.00  0.00    -0.014 A 
BRANCH  15  16
ATOM     16  C   UNL A   1      43.915  24.738  27.505  1.00  0.00     0.031 A 
ATOM     17  C   UNL A   1      42.856  25.698  27.964  1.00  0.00     0.074 A 
ATOM     18  C   UNL A   1      45.224  25.039  27.594  1.00  0.00     0.049 A 
ATOM     19  N   UNL A   1      42.953  26.963  28.270  1.00  0.00    -0.248 NA
ATOM     20  C   UNL A   1      41.492  25.153  28.098  1.00  0.00     0.031 C 
ATOM     21  C   UNL A   1      46.325  24.112  27.322  1.00  0.00     0.029 A 
ATOM     22  N   UNL A   1      45.849  26.191  27.988  1.00  0.00    -0.354 N 
ATOM     23  C   UNL A   1      41.659  27.373  28.567  1.00  0.00     0.074 A 
ATOM     24  C   UNL A   1      40.792  26.231  28.407  1.00  0.00     0.031 C 
ATOM     25  C   UNL A   1      47.489  24.717  27.606  1.00  0.00     0.029 A 
ATOM     26  C   UNL A   1      47.220  26.099  27.986  1.00  0.00     0.049 A 
ATOM     27  H   UNL A   1      45.364  27.007  28.248  1.00  0.00     0.167 HD
ATOM     28  C   UNL A   1      41.241  28.606  28.934  1.00  0.00     0.037 A 
ATOM     29  C   UNL A   1      48.143  27.046  28.231  1.00  0.00     0.037 A 
ATOM     30  C   UNL A   1      42.141  29.707  29.126  1.00  0.00     0.049 A 
ATOM     31  C   UNL A   1      47.650  28.429  28.567  1.00  0.00     0.074 A 
ATOM     32  C   UNL A   1      41.853  31.022  29.436  1.00  0.00     0.029 A 
ATOM     33  N   UNL A   1      43.525  29.604  29.037  1.00  0.00    -0.354 N 
ATOM     34  N   UNL A   1      46.418  28.849  28.740  1.00  0.00    -0.248 NA
ATOM     35  C   UNL A   1      48.668  29.473  28.721  1.00  0.00     0.031 C 
ATOM     36  C   UNL A   1      43.063  31.724  29.491  1.00  0.00     0.029 A 
ATOM     37  C   UNL A   1      44.107  30.835  29.274  1.00  0.00     0.049 A 
ATOM     38  H   UNL A   1      44.017  28.776  28.835  1.00  0.00     0.167 HD
ATOM     39  C   UNL A   1      46.511  30.199  29.044  1.00  0.00     0.074 A 
ATOM     40  C   UNL A   1      47.925  30.520  29.052  1.00  0.00     0.031 C 
ATOM     41  C   UNL A   1      45.525  31.097  29.289  1.00  0.00     0.037 A 
BRANCH  28  42
ATOM     42  C   UNL A   1      39.760  28.817  29.053  1.00  0.00     0.064 A 
ATOM     43  C   UNL A   1      38.967  29.227  27.971  1.00  0.00     0.173 A 
ATOM     44  C   UNL A   1      39.134  28.661  30.301  1.00  0.00     0.173 A 
ATOM     45  F   UNL A   1      39.520  29.426  26.765  1.00  0.00    -0.203 F 
ATOM     46  C   UNL A   1      37.612  29.510  28.142  1.00  0.00     0.198 A 
ATOM     47  C   UNL A   1      37.775  28.914  30.461  1.00  0.00     0.198 A 
ATOM     48  F   UNL A   1      39.848  28.283  31.372  1.00  0.00    -0.203 F 
ATOM     49  F   UNL A   1      36.891  29.972  27.111  1.00  0.00    -0.200 F 
ATOM     50  C   UNL A   1      37.017  29.351  29.384  1.00  0.00     0.200 A 
ATOM     51  F   UNL A   1      37.203  28.758  31.662  1.00  0.00    -0.200 F 
ATOM     52  F   UNL A   1      35.718  29.635  29.549  1.00  0.00    -0.200 F 
ENDBRANCH  28  42
BRANCH  29  53
ATOM     53  C   UNL A   1      49.596  26.739  28.117  1.00  0.00     0.064 A 
ATOM     54  C   UNL A   1      50.378  26.483  29.253  1.00  0.00     0.173 A 
ATOM     55  C   UNL A   1      50.240  26.709  26.870  1.00  0.00     0.173 A 
ATOM     56  F   UNL A   1      49.821  26.520  30.473  1.00  0.00    -0.203 F 
ATOM     57  C   UNL A   1      51.746  26.229  29.146  1.00  0.00     0.198 A 
ATOM     58  C   UNL A   1      51.599  26.420  26.761  1.00  0.00     0.198 A 
ATOM     59  F   UNL A   1      49.544  26.950  25.748  1.00  0.00    -0.203 F 
ATOM     60  F   UNL A   1      52.478  26.038  30.252  1.00  0.00    -0.200 F 
ATOM     61  C   UNL A   1      52.353  26.190  27.900  1.00  0.00     0.200 A 
ATOM     62  F   UNL A   1      52.176  26.369  25.553  1.00  0.00    -0.200 F 
ATOM     63  F   UNL A   1      53.666  25.942  27.798  1.00  0.00    -0.200 F 
ENDBRANCH  29  53
BRANCH  41  64
ATOM     64  C   UNL A   1      45.954  32.489  29.638  1.00  0.00     0.064 A 
ATOM     65  C   UNL A   1      46.231  32.864  30.961  1.00  0.00     0.173 A 
ATOM     66  C   UNL A   1      46.127  33.445  28.627  1.00  0.00     0.173 A 
ATOM     67  F   UNL A   1      46.065  31.987  31.961  1.00  0.00    -0.203 F 
ATOM     68  C   UNL A   1      46.639  34.160  31.260  1.00  0.00     0.198 A 
ATOM     69  C   UNL A   1      46.568  34.728  28.927  1.00  0.00     0.198 A 
ATOM     70  F   UNL A   1      45.883  33.126  27.346  1.00  0.00    -0.203 F 
ATOM     71  F   UNL A   1      46.848  34.515  32.534  1.00  0.00    -0.200 F 
ATOM     72  C   UNL A   1      46.814  35.088  30.243  1.00  0.00     0.200 A 
ATOM     73  F   UNL A   1      46.752  35.618  27.941  1.00  0.00    -0.200 F 
ATOM     74  F   UNL A   1      47.214  36.333  30.533  1.00  0.00    -0.200 F 
ENDBRANCH  41  64
ENDBRANCH  15  16
ENDBRANCH   8  10
ENDBRANCH   7   8
ENDBRANCH   6   7
ENDBRANCH   5   6
ENDBRANCH   4   5
ENDBRANCH   3   4
ENDBRANCH   2   3
ENDBRANCH   1   2
BRANCH   1  75
ATOM     75  C   UNL A   1      34.385  24.861  23.559  1.00  0.00     0.188 C 
BRANCH  75  76
ATOM     76  C   UNL A   1      33.943  25.878  24.638  1.00  0.00     0.188 C 
BRANCH  76  77
ATOM     77  O   UNL A   1      32.684  26.469  24.370  1.00  0.00    -0.376 OA
BRANCH  77  78
ATOM     78  C   UNL A   1      31.926  26.982  25.455  1.00  0.00     0.202 C 
BRANCH  78  79
ATOM     79  C   UNL A   1      31.103  26.075  26.395  1.00  0.00     0.261 C 
BRANCH  79  80
ATOM     80  O   UNL A   1      31.719  24.867  26.854  1.00  0.00    -0.458 OA
BRANCH  80  81
ATOM     81  C   UNL A   1      31.048  23.698  26.667  1.00  0.00     0.358 C 
ATOM     82  O   UNL A   1      30.058  23.329  27.243  1.00  0.00    -0.244 OA
BRANCH  81  83
ATOM     83  C   UNL A   1      31.674  23.045  25.485  1.00  0.00     0.169 A 
ATOM     84  C   UNL A   1      31.144  23.252  24.223  1.00  0.00     0.147 A 
ATOM     85  N   UNL A   1      32.661  22.131  25.739  1.00  0.00    -0.220 NA
ATOM     86  N   UNL A   1      31.592  22.578  23.139  1.00  0.00    -0.258 NA
ATOM     87  C   UNL A   1      33.078  21.409  24.676  1.00  0.00     0.149 A 
ATOM     88  C   UNL A   1      32.550  21.652  23.400  1.00  0.00     0.158 A 
BRANCH  87  89
ATOM     89  N   UNL A   1      33.988  20.370  24.911  1.00  0.00    -0.338 N 
ATOM     90  H   UNL A   1      34.912  20.624  25.131  1.00  0.00     0.168 HD
BRANCH  89  91
ATOM     91  C   UNL A   1      33.699  19.003  24.860  1.00  0.00     0.058 A 
ATOM     92  C   UNL A   1      34.614  18.106  24.307  1.00  0.00     0.029 A 
ATOM     93  C   UNL A   1      32.536  18.465  25.405  1.00  0.00     0.137 A 
ATOM     94  C   UNL A   1      34.307  16.751  24.235  1.00  0.00     0.022 A 
ATOM     95  N   UNL A   1      32.206  17.152  25.348  1.00  0.00    -0.263 NA
ATOM     96  C   UNL A   1      33.095  16.328  24.751  1.00  0.00     0.111 A 
ENDBRANCH  89  91
ENDBRANCH  87  89
ENDBRANCH  81  83
ENDBRANCH  80  81
ENDBRANCH  79  80
ENDBRANCH  78  79
ENDBRANCH  77  78
ENDBRANCH  76  77
ENDBRANCH  75  76
ENDBRANCH   1  75
TORSDOF 22
ENDMDL
MODEL 2
REMARK VINA RESULT:      -9.9      1.113      7.421
REMARK SMILES O=C(OCCOCCOCCOCCOC(=O)c1cncc(Nc2cccnc2)n1)c1ccc(-c2c3nc(c(-c4c(F)c(F)c(F)c(F)c4F)c4ccc([nH]4)c(-c4c(F)c(F)c(F)c(F)c4F)c4nc(c(-c5c(F)c(F)c(F)c(F)c5F)c5ccc2[nH]5)C=C4)C=C3)cc1
REMARK SMILES IDX 9 1 8 2 7 3 6 4 5 5 4 6 3 7 2 8 1 9 31 10 32 11 93 12 33 13
REMARK SMILES IDX 92 14 34 15 35 16 36 17 86 18 37 19 91 20 85 21 87 22 38 23
REMARK SMILES IDX 90 24 84 25 83 26 39 28 71 29 51 30 70 31 52 32 55 33 69 34
REMARK SMILES IDX 88 35 53 36 54 37 68 39 89 40 56 41 40 42 41 43 49 44 42 45
REMARK SMILES IDX 43 46 47 47 50 48 44 49 45 50 48 51 46 52 72 53 73 54 81 55
REMARK SMILES IDX 74 56 75 57 79 58 82 59 76 60 77 61 80 62 78 63 57 64 58 65
REMARK SMILES IDX 66 66 59 67 60 68 64 69 67 70 61 71 62 72 65 73 63 74 10 75
REMARK SMILES IDX 11 76 12 77 13 78 14 79 15 80 16 81 17 82 18 83 19 84 30 85
REMARK SMILES IDX 20 86 22 87 21 88 23 89 24 91 25 92 29 93 26 94 28 95 27 96
REMARK H PARENT 87 27 55 38 23 90
REMARK Flexibility Score: inf
ROOT
ATOM      1  O   UNL A   1      35.272  23.734  24.619  1.00  0.00    -0.377 OA
ENDROOT
BRANCH   1   2
ATOM      2  C   UNL A   1      36.482  23.404  25.303  1.00  0.00     0.188 C 
BRANCH   2   3
ATOM      3  C   UNL A   1      37.418  22.431  24.581  1.00  0.00     0.188 C 
BRANCH   3   4
ATOM      4  O   UNL A   1      36.891  21.108  24.580  1.00  0.00    -0.376 OA
BRANCH   4   5
ATOM      5  C   UNL A   1      37.774  20.031  24.859  1.00  0.00     0.202 C 
BRANCH   5   6
ATOM      6  C   UNL A   1      39.005  20.344  25.712  1.00  0.00     0.261 C 
BRANCH   6   7
ATOM      7  O   UNL A   1      40.028  19.330  25.735  1.00  0.00    -0.460 OA
BRANCH   7   8
ATOM      8  C   UNL A   1      41.354  19.412  25.991  1.00  0.00     0.338 C 
ATOM      9  O   UNL A   1      42.046  18.403  25.869  1.00  0.00    -0.246 OA
BRANCH   8  10
ATOM     10  C   UNL A   1      42.034  20.670  26.393  1.00  0.00     0.060 A 
ATOM     11  C   UNL A   1      42.219  21.076  27.709  1.00  0.00     0.016 A 
ATOM     12  C   UNL A   1      42.616  21.450  25.384  1.00  0.00     0.016 A 
ATOM     13  C   UNL A   1      42.765  22.306  28.025  1.00  0.00     0.010 A 
ATOM     14  C   UNL A   1      43.260  22.652  25.694  1.00  0.00     0.010 A 
ATOM     15  C   UNL A   1      43.263  23.118  27.016  1.00  0.00    -0.014 A 
BRANCH  15  16
ATOM     16  C   UNL A   1      43.565  24.521  27.356  1.00  0.00     0.031 A 
ATOM     17  C   UNL A   1      44.922  25.044  26.984  1.00  0.00     0.074 A 
ATOM     18  C   UNL A   1      42.594  25.338  27.807  1.00  0.00     0.049 A 
ATOM     19  N   UNL A   1      45.462  26.207  27.226  1.00  0.00    -0.248 NA
ATOM     20  C   UNL A   1      45.793  24.125  26.229  1.00  0.00     0.031 C 
ATOM     21  C   UNL A   1      41.202  24.948  28.042  1.00  0.00     0.029 A 
ATOM     22  N   UNL A   1      42.619  26.675  28.098  1.00  0.00    -0.354 N 
ATOM     23  C   UNL A   1      46.751  26.130  26.713  1.00  0.00     0.074 A 
ATOM     24  C   UNL A   1      46.917  24.814  26.146  1.00  0.00     0.031 C 
ATOM     25  C   UNL A   1      40.495  26.034  28.393  1.00  0.00     0.029 A 
ATOM     26  C   UNL A   1      41.402  27.171  28.500  1.00  0.00     0.049 A 
ATOM     27  H   UNL A   1      43.430  27.228  28.027  1.00  0.00     0.167 HD
ATOM     28  C   UNL A   1      47.710  27.084  26.727  1.00  0.00     0.037 A 
ATOM     29  C   UNL A   1      41.080  28.401  28.937  1.00  0.00     0.037 A 
ATOM     30  C   UNL A   1      47.492  28.398  27.262  1.00  0.00     0.049 A 
ATOM     31  C   UNL A   1      42.183  29.425  29.011  1.00  0.00     0.074 A 
ATOM     32  C   UNL A   1      48.386  29.442  27.398  1.00  0.00     0.029 A 
ATOM     33  N   UNL A   1      46.265  28.849  27.739  1.00  0.00    -0.354 N 
ATOM     34  N   UNL A   1      43.435  29.322  28.629  1.00  0.00    -0.248 NA
ATOM     35  C   UNL A   1      41.838  30.725  29.594  1.00  0.00     0.031 C 
ATOM     36  C   UNL A   1      47.710  30.510  27.999  1.00  0.00     0.029 A 
ATOM     37  C   UNL A   1      46.381  30.153  28.183  1.00  0.00     0.049 A 
ATOM     38  H   UNL A   1      45.437  28.317  27.757  1.00  0.00     0.167 HD
ATOM     39  C   UNL A   1      44.023  30.548  28.904  1.00  0.00     0.074 A 
ATOM     40  C   UNL A   1      42.981  31.385  29.467  1.00  0.00     0.031 C 
ATOM     41  C   UNL A   1      45.305  30.949  28.718  1.00  0.00     0.037 A 
BRANCH  28  42
ATOM     42  C   UNL A   1      49.071  26.691  26.234  1.00  0.00     0.064 A 
ATOM     43  C   UNL A   1      50.046  26.132  27.074  1.00  0.00     0.173 A 
ATOM     44  C   UNL A   1      49.424  26.939  24.897  1.00  0.00     0.173 A 
ATOM     45  F   UNL A   1      49.774  25.907  28.369  1.00  0.00    -0.203 F 
ATOM     46  C   UNL A   1      51.333  25.872  26.604  1.00  0.00     0.198 A 
ATOM     47  C   UNL A   1      50.701  26.649  24.424  1.00  0.00     0.198 A 
ATOM     48  F   UNL A   1      48.535  27.485  24.054  1.00  0.00    -0.203 F 
ATOM     49  F   UNL A   1      52.268  25.407  27.445  1.00  0.00    -0.200 F 
ATOM     50  C   UNL A   1      51.658  26.127  25.281  1.00  0.00     0.200 A 
ATOM     51  F   UNL A   1      51.011  26.896  23.145  1.00  0.00    -0.200 F 
ATOM     52  F   UNL A   1      52.899  25.888  24.835  1.00  0.00    -0.200 F 
ENDBRANCH  28  42
BRANCH  29  53
ATOM     53  C   UNL A   1      39.693  28.712  29.380  1.00  0.00     0.064 A 
ATOM     54  C   UNL A   1      38.767  29.310  28.513  1.00  0.00     0.173 A 
ATOM     55  C   UNL A   1      39.265  28.431  30.688  1.00  0.00     0.173 A 
ATOM     56  F   UNL A   1      39.127  29.621  27.259  1.00  0.00    -0.203 F 
ATOM     57  C   UNL A   1      37.478  29.630  28.941  1.00  0.00     0.198 A 
ATOM     58  C   UNL A   1      37.966  28.718  31.104  1.00  0.00     0.198 A 
ATOM     59  F   UNL A   1      40.107  27.863  31.564  1.00  0.00    -0.203 F 
ATOM     60  F   UNL A   1      36.631  30.247  28.107  1.00  0.00    -0.200 F 
ATOM     61  C   UNL A   1      37.077  29.327  30.234  1.00  0.00     0.200 A 
ATOM     62  F   UNL A   1      37.580  28.409  32.350  1.00  0.00    -0.200 F 
ATOM     63  F   UNL A   1      35.837  29.632  30.643  1.00  0.00    -0.200 F 
ENDBRANCH  29  53
BRANCH  41  64
ATOM     64  C   UNL A   1      45.624  32.368  29.076  1.00  0.00     0.064 A 
ATOM     65  C   UNL A   1      45.448  33.417  28.161  1.00  0.00     0.173 A 
ATOM     66  C   UNL A   1      46.072  32.683  30.367  1.00  0.00     0.173 A 
ATOM     67  F   UNL A   1      45.036  33.160  26.911  1.00  0.00    -0.203 F 
ATOM     68  C   UNL A   1      45.741  34.728  28.520  1.00  0.00     0.198 A 
ATOM     69  C   UNL A   1      46.330  33.999  30.731  1.00  0.00     0.198 A 
ATOM     70  F   UNL A   1      46.245  31.712  31.278  1.00  0.00    -0.203 F 
ATOM     71  F   UNL A   1      45.618  35.709  27.616  1.00  0.00    -0.200 F 
ATOM     72  C   UNL A   1      46.174  35.019  29.806  1.00  0.00     0.200 A 
ATOM     73  F   UNL A   1      46.734  34.279  31.979  1.00  0.00    -0.200 F 
ATOM     74  F   UNL A   1      46.448  36.284  30.151  1.00  0.00    -0.200 F 
ENDBRANCH  41  64
ENDBRANCH  15  16
ENDBRANCH   8  10
ENDBRANCH   7   8
ENDBRANCH   6   7
ENDBRANCH   5   6
ENDBRANCH   4   5
ENDBRANCH   3   4
ENDBRANCH   2   3
ENDBRANCH   1   2
BRANCH   1  75
ATOM     75  C   UNL A   1      34.733  25.029  24.875  1.00  0.00     0.188 C 
BRANCH  75  76
ATOM     76  C   UNL A   1      33.609  25.553  23.950  1.00  0.00     0.188 C 
BRANCH  76  77
ATOM     77  O   UNL A   1      32.874  24.520  23.319  1.00  0.00    -0.376 OA
BRANCH  77  78
ATOM     78  C   UNL A   1      31.504  24.355  23.652  1.00  0.00     0.202 C 
BRANCH  78  79
ATOM     79  C   UNL A   1      30.850  25.071  24.853  1.00  0.00     0.261 C 
BRANCH  79  80
ATOM     80  O   UNL A   1      31.373  24.787  26.155  1.00  0.00    -0.458 OA
BRANCH  80  81
ATOM     81  C   UNL A   1      30.886  23.701  26.814  1.00  0.00     0.358 C 
ATOM     82  O   UNL A   1      29.760  23.532  27.205  1.00  0.00    -0.244 OA
BRANCH  81  83
ATOM     83  C   UNL A   1      31.975  22.685  26.800  1.00  0.00     0.169 A 
ATOM     84  C   UNL A   1      33.099  22.871  27.587  1.00  0.00     0.147 A 
ATOM     85  N   UNL A   1      31.871  21.686  25.870  1.00  0.00    -0.220 NA
ATOM     86  N   UNL A   1      34.170  22.050  27.509  1.00  0.00    -0.258 NA
ATOM     87  C   UNL A   1      32.958  20.893  25.740  1.00  0.00     0.149 A 
ATOM     88  C   UNL A   1      34.076  21.078  26.565  1.00  0.00     0.158 A 
BRANCH  87  89
ATOM     89  N   UNL A   1      32.951  19.944  24.710  1.00  0.00    -0.338 N 
ATOM     90  H   UNL A   1      32.721  20.262  23.808  1.00  0.00     0.168 HD
BRANCH  89  91
ATOM     91  C   UNL A   1      33.242  18.584  24.849  1.00  0.00     0.058 A 
ATOM     92  C   UNL A   1      34.451  18.067  24.380  1.00  0.00     0.029 A 
ATOM     93  C   UNL A   1      32.390  17.701  25.507  1.00  0.00     0.137 A 
ATOM     94  C   UNL A   1      34.721  16.708  24.498  1.00  0.00     0.022 A 
ATOM     95  N   UNL A   1      32.621  16.372  25.635  1.00  0.00    -0.263 NA
ATOM     96  C   UNL A   1      33.777  15.905  25.114  1.00  0.00     0.111 A 
ENDBRANCH  89  91
ENDBRANCH  87  89
ENDBRANCH  81  83
ENDBRANCH  80  81
ENDBRANCH  79  80
ENDBRANCH  78  79
ENDBRANCH  77  78
ENDBRANCH  76  77
ENDBRANCH  75  76
ENDBRANCH   1  75
TORSDOF 22
ENDMDL
MODEL 3
REMARK VINA RESULT:      -9.9      1.233      7.288
REMARK SMILES O=C(OCCOCCOCCOCCOC(=O)c1cncc(Nc2cccnc2)n1)c1ccc(-c2c3nc(c(-c4c(F)c(F)c(F)c(F)c4F)c4ccc([nH]4)c(-c4c(F)c(F)c(F)c(F)c4F)c4nc(c(-c5c(F)c(F)c(F)c(F)c5F)c5ccc2[nH]5)C=C4)C=C3)cc1
REMARK SMILES IDX 9 1 8 2 7 3 6 4 5 5 4 6 3 7 2 8 1 9 31 10 32 11 93 12 33 13
REMARK SMILES IDX 92 14 34 15 35 16 36 17 86 18 37 19 91 20 85 21 87 22 38 23
REMARK SMILES IDX 90 24 84 25 83 26 39 28 71 29 51 30 70 31 52 32 55 33 69 34
REMARK SMILES IDX 88 35 53 36 54 37 68 39 89 40 56 41 40 42 41 43 49 44 42 45
REMARK SMILES IDX 43 46 47 47 50 48 44 49 45 50 48 51 46 52 72 53 73 54 81 55
REMARK SMILES IDX 74 56 75 57 79 58 82 59 76 60 77 61 80 62 78 63 57 64 58 65
REMARK SMILES IDX 66 66 59 67 60 68 64 69 67 70 61 71 62 72 65 73 63 74 10 75
REMARK SMILES IDX 11 76 12 77 13 78 14 79 15 80 16 81 17 82 18 83 19 84 30 85
REMARK SMILES IDX 20 86 22 87 21 88 23 89 24 91 25 92 29 93 26 94 28 95 27 96
REMARK H PARENT 87 27 55 38 23 90
REMARK Flexibility Score: inf
ROOT
ATOM      1  O   UNL A   1      34.989  23.754  25.458  1.00  0.00    -0.377 OA
ENDROOT
BRANCH   1   2
ATOM      2  C   UNL A   1      36.351  23.321  25.428  1.00  0.00     0.188 C 
BRANCH   2   3
ATOM      3  C   UNL A   1      36.675  22.189  24.450  1.00  0.00     0.188 C 
BRANCH   3   4
ATOM      4  O   UNL A   1      36.583  20.916  25.082  1.00  0.00    -0.376 OA
BRANCH   4   5
ATOM      5  C   UNL A   1      37.680  20.021  24.955  1.00  0.00     0.202 C 
BRANCH   5   6
ATOM      6  C   UNL A   1      39.034  20.502  25.479  1.00  0.00     0.261 C 
BRANCH   6   7
ATOM      7  O   UNL A   1      40.000  19.471  25.762  1.00  0.00    -0.460 OA
BRANCH   7   8
ATOM      8  C   UNL A   1      41.318  19.548  26.058  1.00  0.00     0.338 C 
ATOM      9  O   UNL A   1      41.998  18.524  26.009  1.00  0.00    -0.246 OA
BRANCH   8  10
ATOM     10  C   UNL A   1      42.004  20.814  26.423  1.00  0.00     0.060 A 
ATOM     11  C   UNL A   1      42.389  21.154  27.713  1.00  0.00     0.016 A 
ATOM     12  C   UNL A   1      42.378  21.677  25.383  1.00  0.00     0.016 A 
ATOM     13  C   UNL A   1      42.930  22.391  28.013  1.00  0.00     0.010 A 
ATOM     14  C   UNL A   1      43.015  22.891  25.659  1.00  0.00     0.010 A 
ATOM     15  C   UNL A   1      43.219  23.282  26.989  1.00  0.00    -0.014 A 
BRANCH  15  16
ATOM     16  C   UNL A   1      43.516  24.678  27.363  1.00  0.00     0.031 A 
ATOM     17  C   UNL A   1      44.866  25.219  26.992  1.00  0.00     0.074 A 
ATOM     18  C   UNL A   1      42.545  25.476  27.845  1.00  0.00     0.049 A 
ATOM     19  N   UNL A   1      45.402  26.378  27.259  1.00  0.00    -0.248 NA
ATOM     20  C   UNL A   1      45.735  24.325  26.204  1.00  0.00     0.031 C 
ATOM     21  C   UNL A   1      41.158  25.072  28.084  1.00  0.00     0.029 A 
ATOM     22  N   UNL A   1      42.565  26.805  28.172  1.00  0.00    -0.354 N 
ATOM     23  C   UNL A   1      46.686  26.323  26.732  1.00  0.00     0.074 A 
ATOM     24  C   UNL A   1      46.854  25.024  26.128  1.00  0.00     0.031 C 
ATOM     25  C   UNL A   1      40.448  26.144  28.471  1.00  0.00     0.029 A 
ATOM     26  C   UNL A   1      41.349  27.282  28.598  1.00  0.00     0.049 A 
ATOM     27  H   UNL A   1      43.372  27.365  28.107  1.00  0.00     0.167 HD
ATOM     28  C   UNL A   1      47.639  27.283  26.762  1.00  0.00     0.037 A 
ATOM     29  C   UNL A   1      41.024  28.499  29.072  1.00  0.00     0.037 A 
ATOM     30  C   UNL A   1      47.419  28.580  27.333  1.00  0.00     0.049 A 
ATOM     31  C   UNL A   1      42.122  29.527  29.162  1.00  0.00     0.074 A 
ATOM     32  C   UNL A   1      48.308  29.626  27.488  1.00  0.00     0.029 A 
ATOM     33  N   UNL A   1      46.194  29.010  27.834  1.00  0.00    -0.354 N 
ATOM     34  N   UNL A   1      43.371  29.442  28.765  1.00  0.00    -0.248 NA
ATOM     35  C   UNL A   1      41.775  30.810  29.783  1.00  0.00     0.031 C 
ATOM     36  C   UNL A   1      47.631  30.673  28.124  1.00  0.00     0.029 A 
ATOM     37  C   UNL A   1      46.307  30.303  28.311  1.00  0.00     0.049 A 
ATOM     38  H   UNL A   1      45.370  28.473  27.847  1.00  0.00     0.167 HD
ATOM     39  C   UNL A   1      43.954  30.664  29.067  1.00  0.00     0.074 A 
ATOM     40  C   UNL A   1      42.913  31.479  29.662  1.00  0.00     0.031 C 
ATOM     41  C   UNL A   1      45.231  31.078  28.879  1.00  0.00     0.037 A 
BRANCH  28  42
ATOM     42  C   UNL A   1      48.998  26.911  26.244  1.00  0.00     0.064 A 
ATOM     43  C   UNL A   1      49.366  27.080  24.902  1.00  0.00     0.173 A 
ATOM     44  C   UNL A   1      49.931  26.315  27.109  1.00  0.00     0.173 A 
ATOM     45  F   UNL A   1      48.500  27.611  24.024  1.00  0.00    -0.203 F 
ATOM     46  C   UNL A   1      50.601  26.631  24.435  1.00  0.00     0.198 A 
ATOM     47  C   UNL A   1      51.175  25.896  26.646  1.00  0.00     0.198 A 
ATOM     48  F   UNL A   1      49.626  26.118  28.400  1.00  0.00    -0.203 F 
ATOM     49  F   UNL A   1      50.901  26.735  23.133  1.00  0.00    -0.200 F 
ATOM     50  C   UNL A   1      51.505  26.043  25.307  1.00  0.00     0.200 A 
ATOM     51  F   UNL A   1      52.047  25.330  27.491  1.00  0.00    -0.200 F 
ATOM     52  F   UNL A   1      52.686  25.602  24.854  1.00  0.00    -0.200 F 
ENDBRANCH  28  42
BRANCH  29  53
ATOM     53  C   UNL A   1      39.640  28.789  29.537  1.00  0.00     0.064 A 
ATOM     54  C   UNL A   1      39.235  28.500  30.848  1.00  0.00     0.173 A 
ATOM     55  C   UNL A   1      38.684  29.350  28.675  1.00  0.00     0.173 A 
ATOM     56  F   UNL A   1      40.100  27.943  31.709  1.00  0.00    -0.203 F 
ATOM     57  C   UNL A   1      37.928  28.742  31.271  1.00  0.00     0.198 A 
ATOM     58  C   UNL A   1      37.388  29.625  29.109  1.00  0.00     0.198 A 
ATOM     59  F   UNL A   1      39.011  29.646  27.407  1.00  0.00    -0.203 F 
ATOM     60  F   UNL A   1      37.556  28.408  32.514  1.00  0.00    -0.200 F 
ATOM     61  C   UNL A   1      37.008  29.311  30.403  1.00  0.00     0.200 A 
ATOM     62  F   UNL A   1      36.508  30.189  28.270  1.00  0.00    -0.200 F 
ATOM     63  F   UNL A   1      35.753  29.547  30.812  1.00  0.00    -0.200 F 
ENDBRANCH  29  53
BRANCH  41  64
ATOM     64  C   UNL A   1      45.546  32.489  29.271  1.00  0.00     0.064 A 
ATOM     65  C   UNL A   1      45.369  33.558  28.381  1.00  0.00     0.173 A 
ATOM     66  C   UNL A   1      45.991  32.774  30.570  1.00  0.00     0.173 A 
ATOM     67  F   UNL A   1      44.960  33.330  27.124  1.00  0.00    -0.203 F 
ATOM     68  C   UNL A   1      45.657  34.862  28.771  1.00  0.00     0.198 A 
ATOM     69  C   UNL A   1      46.244  34.081  30.966  1.00  0.00     0.198 A 
ATOM     70  F   UNL A   1      46.164  31.782  31.458  1.00  0.00    -0.203 F 
ATOM     71  F   UNL A   1      45.534  35.864  27.891  1.00  0.00    -0.200 F 
ATOM     72  C   UNL A   1      46.087  35.123  30.065  1.00  0.00     0.200 A 
ATOM     73  F   UNL A   1      46.644  34.333  32.221  1.00  0.00    -0.200 F 
ATOM     74  F   UNL A   1      46.356  36.380  30.441  1.00  0.00    -0.200 F 
ENDBRANCH  41  64
ENDBRANCH  15  16
ENDBRANCH   8  10
ENDBRANCH   7   8
ENDBRANCH   6   7
ENDBRANCH   5   6
ENDBRANCH   4   5
ENDBRANCH   3   4
ENDBRANCH   2   3
ENDBRANCH   1   2
BRANCH   1  75
ATOM     75  C   UNL A   1      34.768  25.156  25.321  1.00  0.00     0.188 C 
BRANCH  75  76
ATOM     76  C   UNL A   1      33.414  25.736  25.795  1.00  0.00     0.188 C 
BRANCH  76  77
ATOM     77  O   UNL A   1      32.948  26.804  24.990  1.00  0.00    -0.376 OA
BRANCH  77  78
ATOM     78  C   UNL A   1      33.240  26.789  23.601  1.00  0.00     0.202 C 
BRANCH  78  79
ATOM     79  C   UNL A   1      32.195  26.387  22.538  1.00  0.00     0.261 C 
BRANCH  79  80
ATOM     80  O   UNL A   1      31.684  25.051  22.587  1.00  0.00    -0.458 OA
BRANCH  80  81
ATOM     81  C   UNL A   1      32.547  24.029  22.337  1.00  0.00     0.358 C 
ATOM     82  O   UNL A   1      33.441  24.014  21.532  1.00  0.00    -0.244 OA
BRANCH  81  83
ATOM     83  C   UNL A   1      32.282  22.998  23.378  1.00  0.00     0.169 A 
ATOM     84  C   UNL A   1      31.316  23.228  24.344  1.00  0.00     0.147 A 
ATOM     85  N   UNL A   1      33.137  21.930  23.417  1.00  0.00    -0.220 NA
ATOM     86  N   UNL A   1      31.132  22.386  25.385  1.00  0.00    -0.258 NA
ATOM     87  C   UNL A   1      33.002  21.111  24.484  1.00  0.00     0.149 A 
ATOM     88  C   UNL A   1      32.001  21.344  25.437  1.00  0.00     0.158 A 
BRANCH  87  89
ATOM     89  N   UNL A   1      33.941  20.083  24.638  1.00  0.00    -0.338 N 
ATOM     90  H   UNL A   1      34.886  20.345  24.710  1.00  0.00     0.168 HD
BRANCH  89  91
ATOM     91  C   UNL A   1      33.654  18.716  24.698  1.00  0.00     0.058 A 
ATOM     92  C   UNL A   1      34.542  17.782  24.162  1.00  0.00     0.029 A 
ATOM     93  C   UNL A   1      32.523  18.217  25.338  1.00  0.00     0.137 A 
ATOM     94  C   UNL A   1      34.236  16.426  24.201  1.00  0.00     0.022 A 
ATOM     95  N   UNL A   1      32.194  16.904  25.391  1.00  0.00    -0.263 NA
ATOM     96  C   UNL A   1      33.053  16.040  24.807  1.00  0.00     0.111 A 
ENDBRANCH  89  91
ENDBRANCH  87  89
ENDBRANCH  81  83
ENDBRANCH  80  81
ENDBRANCH  79  80
ENDBRANCH  78  79
ENDBRANCH  77  78
ENDBRANCH  76  77
ENDBRANCH  75  76
ENDBRANCH   1  75
TORSDOF 22
ENDMDL
