MODEL 1
REMARK VINA RESULT:     -10.4      0.000      0.000
REMARK SMILES O=C(OCCOCCOCCOCCOC(=O)[C@H]1CC[C@@H](C(F)F)[NH2+]1)c1ccc(-c2c3nc(c(-c4c(F)c(F)c(F)c(F)c4F)c4ccc([nH]4)c(-c4c(F)c(F)c(F)c(F)c4F)c4nc(c(-c5c(F)c(F)c(F)c(F)c5F)c5ccc2[nH]5)C=C4)C=C3)cc1
REMARK SMILES IDX 8 1 7 2 6 3 5 4 4 5 3 6 2 7 1 8 26 9 27 10 88 11 28 12 87 13
REMARK SMILES IDX 29 14 30 15 31 16 81 17 32 18 86 19 80 20 82 21 33 22 85 23
REMARK SMILES IDX 79 24 78 25 34 27 66 28 46 29 65 30 47 31 50 32 64 33 83 34
REMARK SMILES IDX 48 35 49 36 63 38 84 39 51 40 35 41 36 42 44 43 37 44 38 45
REMARK SMILES IDX 42 46 45 47 39 48 40 49 43 50 41 51 67 52 68 53 76 54 69 55
REMARK SMILES IDX 70 56 74 57 77 58 71 59 72 60 75 61 73 62 52 63 53 64 61 65
REMARK SMILES IDX 54 66 55 67 59 68 62 69 56 70 57 71 60 72 58 73 9 74 10 75
REMARK SMILES IDX 11 76 12 77 13 78 14 79 15 80 16 81 17 82 18 83 19 84 25 85
REMARK SMILES IDX 20 86 21 87 22 90 23 91 24 92
REMARK H PARENT 82 26 50 37 25 88 25 89
REMARK Flexibility Score: inf
ROOT
ATOM      1  C   UNL A   1      32.428  26.823  24.015  1.00  0.00     0.188 C 
ENDROOT
BRANCH   1   2
ATOM      2  C   UNL A   1      33.281  27.059  25.259  1.00  0.00     0.188 C 
BRANCH   2   3
ATOM      3  O   UNL A   1      32.689  28.111  26.007  1.00  0.00    -0.376 OA
BRANCH   3   4
ATOM      4  C   UNL A   1      31.886  29.090  25.371  1.00  0.00     0.202 C 
BRANCH   4   5
ATOM      5  C   UNL A   1      31.840  30.472  26.004  1.00  0.00     0.261 C 
BRANCH   5   6
ATOM      6  O   UNL A   1      32.603  30.646  27.210  1.00  0.00    -0.460 OA
BRANCH   6   7
ATOM      7  C   UNL A   1      33.602  31.489  27.547  1.00  0.00     0.338 C 
ATOM      8  O   UNL A   1      33.405  32.698  27.425  1.00  0.00    -0.246 OA
BRANCH   7   9
ATOM      9  C   UNL A   1      34.929  31.073  28.072  1.00  0.00     0.060 A 
ATOM     10  C   UNL A   1      35.333  29.768  28.341  1.00  0.00     0.016 A 
ATOM     11  C   UNL A   1      35.891  32.086  28.186  1.00  0.00     0.016 A 
ATOM     12  C   UNL A   1      36.589  29.467  28.832  1.00  0.00     0.010 A 
ATOM     13  C   UNL A   1      37.180  31.797  28.628  1.00  0.00     0.010 A 
ATOM     14  C   UNL A   1      37.507  30.488  29.001  1.00  0.00    -0.014 A 
BRANCH  14  15
ATOM     15  C   UNL A   1      38.700  30.211  29.803  1.00  0.00     0.031 A 
ATOM     16  C   UNL A   1      39.742  29.356  29.162  1.00  0.00     0.074 A 
ATOM     17  C   UNL A   1      38.877  30.788  31.001  1.00  0.00     0.049 A 
ATOM     18  N   UNL A   1      40.731  28.705  29.699  1.00  0.00    -0.248 NA
ATOM     19  C   UNL A   1      39.631  29.194  27.700  1.00  0.00     0.031 C 
ATOM     20  C   UNL A   1      37.994  31.792  31.598  1.00  0.00     0.029 A 
ATOM     21  N   UNL A   1      39.865  30.613  31.926  1.00  0.00    -0.354 N 
ATOM     22  C   UNL A   1      41.298  27.982  28.660  1.00  0.00     0.074 A 
ATOM     23  C   UNL A   1      40.562  28.289  27.457  1.00  0.00     0.031 C 
ATOM     24  C   UNL A   1      38.480  32.139  32.801  1.00  0.00     0.029 A 
ATOM     25  C   UNL A   1      39.634  31.298  33.092  1.00  0.00     0.049 A 
ATOM     26  H   UNL A   1      40.661  30.053  31.774  1.00  0.00     0.167 HD
ATOM     27  C   UNL A   1      42.330  27.113  28.741  1.00  0.00     0.037 A 
ATOM     28  C   UNL A   1      40.246  31.175  34.283  1.00  0.00     0.037 A 
ATOM     29  C   UNL A   1      43.029  26.884  29.975  1.00  0.00     0.049 A 
ATOM     30  C   UNL A   1      41.347  30.153  34.383  1.00  0.00     0.074 A 
ATOM     31  C   UNL A   1      44.052  26.002  30.251  1.00  0.00     0.029 A 
ATOM     32  N   UNL A   1      42.758  27.576  31.155  1.00  0.00    -0.354 N 
ATOM     33  N   UNL A   1      41.817  29.355  33.450  1.00  0.00    -0.248 NA
ATOM     34  C   UNL A   1      41.984  29.992  35.692  1.00  0.00     0.031 C 
ATOM     35  C   UNL A   1      44.368  26.128  31.609  1.00  0.00     0.029 A 
ATOM     36  C   UNL A   1      43.588  27.136  32.165  1.00  0.00     0.049 A 
ATOM     37  H   UNL A   1      42.074  28.277  31.252  1.00  0.00     0.167 HD
ATOM     38  C   UNL A   1      42.822  28.611  34.047  1.00  0.00     0.074 A 
ATOM     39  C   UNL A   1      42.892  29.060  35.428  1.00  0.00     0.031 C 
ATOM     40  C   UNL A   1      43.617  27.648  33.516  1.00  0.00     0.037 A 
BRANCH  27  41
ATOM     41  C   UNL A   1      42.642  26.309  27.514  1.00  0.00     0.064 A 
ATOM     42  C   UNL A   1      42.011  25.087  27.230  1.00  0.00     0.173 A 
ATOM     43  C   UNL A   1      43.670  26.723  26.652  1.00  0.00     0.173 A 
ATOM     44  F   UNL A   1      41.046  24.621  28.039  1.00  0.00    -0.203 F 
ATOM     45  C   UNL A   1      42.433  24.289  26.168  1.00  0.00     0.198 A 
ATOM     46  C   UNL A   1      44.065  25.941  25.570  1.00  0.00     0.198 A 
ATOM     47  F   UNL A   1      44.319  27.875  26.879  1.00  0.00    -0.203 F 
ATOM     48  F   UNL A   1      41.878  23.084  25.975  1.00  0.00    -0.200 F 
ATOM     49  C   UNL A   1      43.459  24.717  25.338  1.00  0.00     0.200 A 
ATOM     50  F   UNL A   1      45.055  26.359  24.769  1.00  0.00    -0.200 F 
ATOM     51  F   UNL A   1      43.877  23.939  24.330  1.00  0.00    -0.200 F 
ENDBRANCH  27  41
BRANCH  28  52
ATOM     52  C   UNL A   1      39.776  31.975  35.444  1.00  0.00     0.064 A 
ATOM     53  C   UNL A   1      40.285  33.254  35.697  1.00  0.00     0.173 A 
ATOM     54  C   UNL A   1      38.765  31.500  36.296  1.00  0.00     0.173 A 
ATOM     55  F   UNL A   1      41.263  33.751  34.925  1.00  0.00    -0.203 F 
ATOM     56  C   UNL A   1      39.804  34.027  36.754  1.00  0.00     0.198 A 
ATOM     57  C   UNL A   1      38.262  32.284  37.332  1.00  0.00     0.198 A 
ATOM     58  F   UNL A   1      38.236  30.283  36.099  1.00  0.00    -0.203 F 
ATOM     59  F   UNL A   1      40.325  35.239  36.988  1.00  0.00    -0.200 F 
ATOM     60  C   UNL A   1      38.785  33.546  37.564  1.00  0.00     0.200 A 
ATOM     61  F   UNL A   1      37.263  31.821  38.097  1.00  0.00    -0.200 F 
ATOM     62  F   UNL A   1      38.309  34.297  38.566  1.00  0.00    -0.200 F 
ENDBRANCH  28  52
BRANCH  40  63
ATOM     63  C   UNL A   1      44.672  27.078  34.410  1.00  0.00     0.064 A 
ATOM     64  C   UNL A   1      44.448  25.924  35.172  1.00  0.00     0.173 A 
ATOM     65  C   UNL A   1      45.953  27.649  34.423  1.00  0.00     0.173 A 
ATOM     66  F   UNL A   1      43.233  25.358  35.198  1.00  0.00    -0.203 F 
ATOM     67  C   UNL A   1      45.473  25.365  35.926  1.00  0.00     0.198 A 
ATOM     68  C   UNL A   1      46.983  27.067  35.152  1.00  0.00     0.198 A 
ATOM     69  F   UNL A   1      46.211  28.749  33.700  1.00  0.00    -0.203 F 
ATOM     70  F   UNL A   1      45.235  24.279  36.674  1.00  0.00    -0.200 F 
ATOM     71  C   UNL A   1      46.741  25.928  35.905  1.00  0.00     0.200 A 
ATOM     72  F   UNL A   1      48.211  27.603  35.116  1.00  0.00    -0.200 F 
ATOM     73  F   UNL A   1      47.733  25.372  36.614  1.00  0.00    -0.200 F 
ENDBRANCH  40  63
ENDBRANCH  14  15
ENDBRANCH   7   9
ENDBRANCH   6   7
ENDBRANCH   5   6
ENDBRANCH   4   5
ENDBRANCH   3   4
ENDBRANCH   2   3
ENDBRANCH   1   2
BRANCH   1  74
ATOM     74  O   UNL A   1      31.718  25.592  24.017  1.00  0.00    -0.377 OA
BRANCH  74  75
ATOM     75  C   UNL A   1      31.628  24.917  22.765  1.00  0.00     0.188 C 
BRANCH  75  76
ATOM     76  C   UNL A   1      32.870  24.952  21.840  1.00  0.00     0.188 C 
BRANCH  76  77
ATOM     77  O   UNL A   1      33.763  23.875  22.025  1.00  0.00    -0.376 OA
BRANCH  77  78
ATOM     78  C   UNL A   1      34.503  23.827  23.235  1.00  0.00     0.202 C 
BRANCH  78  79
ATOM     79  C   UNL A   1      35.085  22.517  23.810  1.00  0.00     0.261 C 
BRANCH  79  80
ATOM     80  O   UNL A   1      34.364  21.859  24.870  1.00  0.00    -0.459 OA
BRANCH  80  81
ATOM     81  C   UNL A   1      34.410  20.503  24.981  1.00  0.00     0.364 C 
ATOM     82  O   UNL A   1      35.441  19.852  24.948  1.00  0.00    -0.245 OA
BRANCH  81  83
ATOM     83  C   UNL A   1      32.972  19.918  25.158  1.00  0.00     0.294 C 
ATOM     84  C   UNL A   1      32.397  19.400  23.849  1.00  0.00     0.084 C 
ATOM     85  N   UNL A   1      32.958  18.723  26.050  1.00  0.00    -0.327 N 
ATOM     86  C   UNL A   1      32.770  17.927  23.847  1.00  0.00     0.078 C 
ATOM     87  C   UNL A   1      32.530  17.528  25.291  1.00  0.00     0.251 C 
ATOM     88  H   UNL A   1      32.308  18.884  26.819  1.00  0.00     0.347 HD
ATOM     89  H   UNL A   1      33.897  18.568  26.416  1.00  0.00     0.347 HD
BRANCH  87  90
ATOM     90  C   UNL A   1      33.231  16.206  25.656  1.00  0.00     0.399 C 
ATOM     91  F   UNL A   1      32.722  15.183  24.920  1.00  0.00    -0.204 F 
ATOM     92  F   UNL A   1      34.548  16.285  25.335  1.00  0.00    -0.204 F 
ENDBRANCH  87  90
ENDBRANCH  81  83
ENDBRANCH  80  81
ENDBRANCH  79  80
ENDBRANCH  78  79
ENDBRANCH  77  78
ENDBRANCH  76  77
ENDBRANCH  75  76
ENDBRANCH  74  75
ENDBRANCH   1  74
TORSDOF 21
ENDMDL
MODEL 2
REMARK VINA RESULT:     -10.2      4.283      9.815
REMARK SMILES O=C(OCCOCCOCCOCCOC(=O)[C@H]1CC[C@@H](C(F)F)[NH2+]1)c1ccc(-c2c3nc(c(-c4c(F)c(F)c(F)c(F)c4F)c4ccc([nH]4)c(-c4c(F)c(F)c(F)c(F)c4F)c4nc(c(-c5c(F)c(F)c(F)c(F)c5F)c5ccc2[nH]5)C=C4)C=C3)cc1
REMARK SMILES IDX 8 1 7 2 6 3 5 4 4 5 3 6 2 7 1 8 26 9 27 10 88 11 28 12 87 13
REMARK SMILES IDX 29 14 30 15 31 16 81 17 32 18 86 19 80 20 82 21 33 22 85 23
REMARK SMILES IDX 79 24 78 25 34 27 66 28 46 29 65 30 47 31 50 32 64 33 83 34
REMARK SMILES IDX 48 35 49 36 63 38 84 39 51 40 35 41 36 42 44 43 37 44 38 45
REMARK SMILES IDX 42 46 45 47 39 48 40 49 43 50 41 51 67 52 68 53 76 54 69 55
REMARK SMILES IDX 70 56 74 57 77 58 71 59 72 60 75 61 73 62 52 63 53 64 61 65
REMARK SMILES IDX 54 66 55 67 59 68 62 69 56 70 57 71 60 72 58 73 9 74 10 75
REMARK SMILES IDX 11 76 12 77 13 78 14 79 15 80 16 81 17 82 18 83 19 84 25 85
REMARK SMILES IDX 20 86 21 87 22 90 23 91 24 92
REMARK H PARENT 82 26 50 37 25 88 25 89
REMARK Flexibility Score: inf
ROOT
ATOM      1  C   UNL A   1      34.559  31.605  28.076  1.00  0.00     0.188 C 
ENDROOT
BRANCH   1   2
ATOM      2  C   UNL A   1      34.465  32.745  29.087  1.00  0.00     0.188 C 
BRANCH   2   3
ATOM      3  O   UNL A   1      35.018  33.910  28.492  1.00  0.00    -0.376 OA
BRANCH   3   4
ATOM      4  C   UNL A   1      34.346  35.155  28.576  1.00  0.00     0.202 C 
BRANCH   4   5
ATOM      5  C   UNL A   1      32.884  35.131  28.991  1.00  0.00     0.261 C 
BRANCH   5   6
ATOM      6  O   UNL A   1      32.520  35.982  30.092  1.00  0.00    -0.460 OA
BRANCH   6   7
ATOM      7  C   UNL A   1      32.663  35.860  31.428  1.00  0.00     0.338 C 
ATOM      8  O   UNL A   1      31.803  36.362  32.152  1.00  0.00    -0.246 OA
BRANCH   7   9
ATOM      9  C   UNL A   1      33.779  35.148  32.106  1.00  0.00     0.060 A 
ATOM     10  C   UNL A   1      35.028  35.683  32.411  1.00  0.00     0.016 A 
ATOM     11  C   UNL A   1      33.491  33.863  32.584  1.00  0.00     0.016 A 
ATOM     12  C   UNL A   1      36.014  34.950  33.043  1.00  0.00     0.010 A 
ATOM     13  C   UNL A   1      34.452  33.126  33.271  1.00  0.00     0.010 A 
ATOM     14  C   UNL A   1      35.734  33.659  33.450  1.00  0.00    -0.014 A 
BRANCH  14  15
ATOM     15  C   UNL A   1      36.859  32.799  33.825  1.00  0.00     0.031 A 
ATOM     16  C   UNL A   1      37.405  32.990  35.201  1.00  0.00     0.074 A 
ATOM     17  C   UNL A   1      37.291  31.829  33.006  1.00  0.00     0.049 A 
ATOM     18  N   UNL A   1      38.544  32.616  35.704  1.00  0.00    -0.248 NA
ATOM     19  C   UNL A   1      36.545  33.739  36.137  1.00  0.00     0.031 C 
ATOM     20  C   UNL A   1      36.671  31.455  31.733  1.00  0.00     0.029 A 
ATOM     21  N   UNL A   1      38.352  30.979  33.129  1.00  0.00    -0.354 N 
ATOM     22  C   UNL A   1      38.578  33.165  36.977  1.00  0.00     0.074 A 
ATOM     23  C   UNL A   1      37.340  33.878  37.183  1.00  0.00     0.031 C 
ATOM     24  C   UNL A   1      37.374  30.449  31.186  1.00  0.00     0.029 A 
ATOM     25  C   UNL A   1      38.544  30.199  32.016  1.00  0.00     0.049 A 
ATOM     26  H   UNL A   1      38.920  30.930  33.932  1.00  0.00     0.167 HD
ATOM     27  C   UNL A   1      39.591  33.090  37.870  1.00  0.00     0.037 A 
ATOM     28  C   UNL A   1      39.605  29.442  31.686  1.00  0.00     0.037 A 
ATOM     29  C   UNL A   1      40.782  32.335  37.597  1.00  0.00     0.049 A 
ATOM     30  C   UNL A   1      40.758  29.422  32.653  1.00  0.00     0.074 A 
ATOM     31  C   UNL A   1      41.925  32.199  38.357  1.00  0.00     0.029 A 
ATOM     32  N   UNL A   1      40.965  31.571  36.447  1.00  0.00    -0.354 N 
ATOM     33  N   UNL A   1      40.877  30.041  33.806  1.00  0.00    -0.248 NA
ATOM     34  C   UNL A   1      41.929  28.630  32.270  1.00  0.00     0.031 C 
ATOM     35  C   UNL A   1      42.816  31.390  37.644  1.00  0.00     0.029 A 
ATOM     36  C   UNL A   1      42.205  30.966  36.470  1.00  0.00     0.049 A 
ATOM     37  H   UNL A   1      40.304  31.475  35.723  1.00  0.00     0.167 HD
ATOM     38  C   UNL A   1      42.123  29.697  34.304  1.00  0.00     0.074 A 
ATOM     39  C   UNL A   1      42.721  28.810  33.321  1.00  0.00     0.031 C 
ATOM     40  C   UNL A   1      42.726  30.071  35.461  1.00  0.00     0.037 A 
BRANCH  27  41
ATOM     41  C   UNL A   1      39.470  33.926  39.110  1.00  0.00     0.064 A 
ATOM     42  C   UNL A   1      39.981  35.231  39.195  1.00  0.00     0.173 A 
ATOM     43  C   UNL A   1      38.916  33.369  40.274  1.00  0.00     0.173 A 
ATOM     44  F   UNL A   1      40.555  35.803  38.125  1.00  0.00    -0.203 F 
ATOM     45  C   UNL A   1      39.991  35.921  40.406  1.00  0.00     0.198 A 
ATOM     46  C   UNL A   1      38.895  34.074  41.473  1.00  0.00     0.198 A 
ATOM     47  F   UNL A   1      38.423  32.121  40.257  1.00  0.00    -0.203 F 
ATOM     48  F   UNL A   1      40.570  37.128  40.483  1.00  0.00    -0.200 F 
ATOM     49  C   UNL A   1      39.448  35.343  41.544  1.00  0.00     0.200 A 
ATOM     50  F   UNL A   1      38.367  33.513  42.570  1.00  0.00    -0.200 F 
ATOM     51  F   UNL A   1      39.478  36.000  42.712  1.00  0.00    -0.200 F 
ENDBRANCH  27  41
BRANCH  28  52
ATOM     52  C   UNL A   1      39.631  28.733  30.380  1.00  0.00     0.064 A 
ATOM     53  C   UNL A   1      40.150  29.346  29.232  1.00  0.00     0.173 A 
ATOM     54  C   UNL A   1      39.187  27.405  30.260  1.00  0.00     0.173 A 
ATOM     55  F   UNL A   1      40.573  30.617  29.286  1.00  0.00    -0.203 F 
ATOM     56  C   UNL A   1      40.225  28.660  28.019  1.00  0.00     0.198 A 
ATOM     57  C   UNL A   1      39.291  26.711  29.057  1.00  0.00     0.198 A 
ATOM     58  F   UNL A   1      38.684  26.766  31.327  1.00  0.00    -0.203 F 
ATOM     59  F   UNL A   1      40.704  29.279  26.931  1.00  0.00    -0.200 F 
ATOM     60  C   UNL A   1      39.806  27.341  27.935  1.00  0.00     0.200 A 
ATOM     61  F   UNL A   1      38.904  25.429  28.988  1.00  0.00    -0.200 F 
ATOM     62  F   UNL A   1      39.896  26.677  26.775  1.00  0.00    -0.200 F 
ENDBRANCH  28  52
BRANCH  40  63
ATOM     63  C   UNL A   1      44.060  29.462  35.752  1.00  0.00     0.064 A 
ATOM     64  C   UNL A   1      45.254  30.084  35.366  1.00  0.00     0.173 A 
ATOM     65  C   UNL A   1      44.135  28.287  36.513  1.00  0.00     0.173 A 
ATOM     66  F   UNL A   1      45.225  31.201  34.625  1.00  0.00    -0.203 F 
ATOM     67  C   UNL A   1      46.483  29.542  35.726  1.00  0.00     0.198 A 
ATOM     68  C   UNL A   1      45.364  27.766  36.898  1.00  0.00     0.198 A 
ATOM     69  F   UNL A   1      43.014  27.665  36.910  1.00  0.00    -0.203 F 
ATOM     70  F   UNL A   1      47.616  30.131  35.323  1.00  0.00    -0.200 F 
ATOM     71  C   UNL A   1      46.536  28.393  36.502  1.00  0.00     0.200 A 
ATOM     72  F   UNL A   1      45.413  26.667  37.663  1.00  0.00    -0.200 F 
ATOM     73  F   UNL A   1      47.721  27.886  36.869  1.00  0.00    -0.200 F 
ENDBRANCH  40  63
ENDBRANCH  14  15
ENDBRANCH   7   9
ENDBRANCH   6   7
ENDBRANCH   5   6
ENDBRANCH   4   5
ENDBRANCH   3   4
ENDBRANCH   2   3
ENDBRANCH   1   2
BRANCH   1  74
ATOM     74  O   UNL A   1      33.398  31.438  27.273  1.00  0.00    -0.377 OA
BRANCH  74  75
ATOM     75  C   UNL A   1      33.260  30.177  26.623  1.00  0.00     0.188 C 
BRANCH  75  76
ATOM     76  C   UNL A   1      33.135  28.919  27.515  1.00  0.00     0.188 C 
BRANCH  76  77
ATOM     77  O   UNL A   1      33.625  27.735  26.923  1.00  0.00    -0.376 OA
BRANCH  77  78
ATOM     78  C   UNL A   1      33.546  27.617  25.510  1.00  0.00     0.202 C 
BRANCH  78  79
ATOM     79  C   UNL A   1      32.265  27.167  24.776  1.00  0.00     0.261 C 
BRANCH  79  80
ATOM     80  O   UNL A   1      31.388  28.182  24.251  1.00  0.00    -0.459 OA
BRANCH  80  81
ATOM     81  C   UNL A   1      31.692  28.801  23.077  1.00  0.00     0.364 C 
ATOM     82  O   UNL A   1      32.791  29.261  22.815  1.00  0.00    -0.245 OA
BRANCH  81  83
ATOM     83  C   UNL A   1      30.448  28.828  22.132  1.00  0.00     0.294 C 
ATOM     84  C   UNL A   1      29.154  28.542  22.878  1.00  0.00     0.084 C 
ATOM     85  N   UNL A   1      30.225  30.177  21.537  1.00  0.00    -0.327 N 
ATOM     86  C   UNL A   1      28.639  29.921  23.252  1.00  0.00     0.078 C 
ATOM     87  C   UNL A   1      28.935  30.730  22.002  1.00  0.00     0.251 C 
ATOM     88  H   UNL A   1      30.211  30.098  20.520  1.00  0.00     0.347 HD
ATOM     89  H   UNL A   1      30.979  30.799  21.826  1.00  0.00     0.347 HD
BRANCH  87  90
ATOM     90  C   UNL A   1      28.903  32.247  22.266  1.00  0.00     0.399 C 
ATOM     91  F   UNL A   1      28.288  32.892  21.240  1.00  0.00    -0.204 F 
ATOM     92  F   UNL A   1      28.160  32.501  23.374  1.00  0.00    -0.204 F 
ENDBRANCH  87  90
ENDBRANCH  81  83
ENDBRANCH  80  81
ENDBRANCH  79  80
ENDBRANCH  78  79
ENDBRANCH  77  78
ENDBRANCH  76  77
ENDBRANCH  75  76
ENDBRANCH  74  75
ENDBRANCH   1  74
TORSDOF 21
ENDMDL
MODEL 3
REMARK VINA RESULT:     -10.1      1.874      3.083
REMARK SMILES O=C(OCCOCCOCCOCCOC(=O)[C@H]1CC[C@@H](C(F)F)[NH2+]1)c1ccc(-c2c3nc(c(-c4c(F)c(F)c(F)c(F)c4F)c4ccc([nH]4)c(-c4c(F)c(F)c(F)c(F)c4F)c4nc(c(-c5c(F)c(F)c(F)c(F)c5F)c5ccc2[nH]5)C=C4)C=C3)cc1
REMARK SMILES IDX 8 1 7 2 6 3 5 4 4 5 3 6 2 7 1 8 26 9 27 10 88 11 28 12 87 13
REMARK SMILES IDX 29 14 30 15 31 16 81 17 32 18 86 19 80 20 82 21 33 22 85 23
REMARK SMILES IDX 79 24 78 25 34 27 66 28 46 29 65 30 47 31 50 32 64 33 83 34
REMARK SMILES IDX 48 35 49 36 63 38 84 39 51 40 35 41 36 42 44 43 37 44 38 45
REMARK SMILES IDX 42 46 45 47 39 48 40 49 43 50 41 51 67 52 68 53 76 54 69 55
REMARK SMILES IDX 70 56 74 57 77 58 71 59 72 60 75 61 73 62 52 63 53 64 61 65
REMARK SMILES IDX 54 66 55 67 59 68 62 69 56 70 57 71 60 72 58 73 9 74 10 75
REMARK SMILES IDX 11 76 12 77 13 78 14 79 15 80 16 81 17 82 18 83 19 84 25 85
REMARK SMILES IDX 20 86 21 87 22 90 23 91 24 92
REMARK H PARENT 82 26 50 37 25 88 25 89
REMARK Flexibility Score: inf
ROOT
ATOM      1  C   UNL A   1      30.722  27.719  23.177  1.00  0.00     0.188 C 
ENDROOT
BRANCH   1   2
ATOM      2  C   UNL A   1      32.122  27.562  23.765  1.00  0.00     0.188 C 
BRANCH   2   3
ATOM      3  O   UNL A   1      32.408  28.719  24.538  1.00  0.00    -0.376 OA
BRANCH   3   4
ATOM      4  C   UNL A   1      31.393  29.663  24.832  1.00  0.00     0.202 C 
BRANCH   4   5
ATOM      5  C   UNL A   1      31.681  30.676  25.929  1.00  0.00     0.261 C 
BRANCH   5   6
ATOM      6  O   UNL A   1      32.876  30.459  26.699  1.00  0.00    -0.460 OA
BRANCH   6   7
ATOM      7  C   UNL A   1      33.678  31.291  27.396  1.00  0.00     0.338 C 
ATOM      8  O   UNL A   1      33.301  32.450  27.569  1.00  0.00    -0.246 OA
BRANCH   7   9
ATOM      9  C   UNL A   1      34.987  30.914  27.991  1.00  0.00     0.060 A 
ATOM     10  C   UNL A   1      35.418  29.621  28.274  1.00  0.00     0.016 A 
ATOM     11  C   UNL A   1      35.907  31.957  28.165  1.00  0.00     0.016 A 
ATOM     12  C   UNL A   1      36.654  29.358  28.833  1.00  0.00     0.010 A 
ATOM     13  C   UNL A   1      37.179  31.707  28.676  1.00  0.00     0.010 A 
ATOM     14  C   UNL A   1      37.527  30.406  29.059  1.00  0.00    -0.014 A 
BRANCH  14  15
ATOM     15  C   UNL A   1      38.683  30.162  29.925  1.00  0.00     0.031 A 
ATOM     16  C   UNL A   1      39.765  29.308  29.354  1.00  0.00     0.074 A 
ATOM     17  C   UNL A   1      38.793  30.766  31.117  1.00  0.00     0.049 A 
ATOM     18  N   UNL A   1      40.735  28.681  29.953  1.00  0.00    -0.248 NA
ATOM     19  C   UNL A   1      39.728  29.113  27.891  1.00  0.00     0.031 C 
ATOM     20  C   UNL A   1      37.870  31.770  31.649  1.00  0.00     0.029 A 
ATOM     21  N   UNL A   1      39.737  30.623  32.093  1.00  0.00    -0.354 N 
ATOM     22  C   UNL A   1      41.361  27.944  28.958  1.00  0.00     0.074 A 
ATOM     23  C   UNL A   1      40.681  28.216  27.714  1.00  0.00     0.031 C 
ATOM     24  C   UNL A   1      38.292  32.149  32.866  1.00  0.00     0.029 A 
ATOM     25  C   UNL A   1      39.440  31.329  33.232  1.00  0.00     0.049 A 
ATOM     26  H   UNL A   1      40.546  30.071  31.992  1.00  0.00     0.167 HD
ATOM     27  C   UNL A   1      42.399  27.091  29.109  1.00  0.00     0.037 A 
ATOM     28  C   UNL A   1      39.994  31.239  34.453  1.00  0.00     0.037 A 
ATOM     29  C   UNL A   1      43.038  26.897  30.380  1.00  0.00     0.049 A 
ATOM     30  C   UNL A   1      41.101  30.235  34.629  1.00  0.00     0.074 A 
ATOM     31  C   UNL A   1      44.057  26.035  30.725  1.00  0.00     0.029 A 
ATOM     32  N   UNL A   1      42.701  27.609  31.530  1.00  0.00    -0.354 N 
ATOM     33  N   UNL A   1      41.626  29.424  33.738  1.00  0.00    -0.248 NA
ATOM     34  C   UNL A   1      41.674  30.109  35.971  1.00  0.00     0.031 C 
ATOM     35  C   UNL A   1      44.304  26.193  32.093  1.00  0.00     0.029 A 
ATOM     36  C   UNL A   1      43.485  27.201  32.589  1.00  0.00     0.049 A 
ATOM     37  H   UNL A   1      42.004  28.303  31.578  1.00  0.00     0.167 HD
ATOM     38  C   UNL A   1      42.609  28.706  34.399  1.00  0.00     0.074 A 
ATOM     39  C   UNL A   1      42.606  29.184  35.772  1.00  0.00     0.031 C 
ATOM     40  C   UNL A   1      43.442  27.742  33.928  1.00  0.00     0.037 A 
BRANCH  27  41
ATOM     41  C   UNL A   1      42.781  26.265  27.916  1.00  0.00     0.064 A 
ATOM     42  C   UNL A   1      43.754  26.677  26.991  1.00  0.00     0.173 A 
ATOM     43  C   UNL A   1      42.084  25.078  27.639  1.00  0.00     0.173 A 
ATOM     44  F   UNL A   1      44.427  27.823  27.184  1.00  0.00    -0.203 F 
ATOM     45  C   UNL A   1      43.974  25.964  25.814  1.00  0.00     0.198 A 
ATOM     46  C   UNL A   1      42.332  24.348  26.480  1.00  0.00     0.198 A 
ATOM     47  F   UNL A   1      41.134  24.641  28.479  1.00  0.00    -0.203 F 
ATOM     48  F   UNL A   1      44.841  26.430  24.903  1.00  0.00    -0.200 F 
ATOM     49  C   UNL A   1      43.264  24.800  25.559  1.00  0.00     0.200 A 
ATOM     50  F   UNL A   1      41.645  23.223  26.238  1.00  0.00    -0.200 F 
ATOM     51  F   UNL A   1      43.462  24.128  24.417  1.00  0.00    -0.200 F 
ENDBRANCH  27  41
BRANCH  28  52
ATOM     52  C   UNL A   1      39.457  32.057  35.572  1.00  0.00     0.064 A 
ATOM     53  C   UNL A   1      38.506  31.537  36.459  1.00  0.00     0.173 A 
ATOM     54  C   UNL A   1      39.925  33.360  35.814  1.00  0.00     0.173 A 
ATOM     55  F   UNL A   1      38.013  30.305  36.265  1.00  0.00    -0.203 F 
ATOM     56  C   UNL A   1      38.043  32.286  37.541  1.00  0.00     0.198 A 
ATOM     57  C   UNL A   1      39.486  34.095  36.913  1.00  0.00     0.198 A 
ATOM     58  F   UNL A   1      40.839  33.908  35.000  1.00  0.00    -0.203 F 
ATOM     59  F   UNL A   1      37.115  31.773  38.361  1.00  0.00    -0.200 F 
ATOM     60  C   UNL A   1      38.542  33.559  37.775  1.00  0.00     0.200 A 
ATOM     61  F   UNL A   1      39.988  35.316  37.145  1.00  0.00    -0.200 F 
ATOM     62  F   UNL A   1      38.112  34.270  38.826  1.00  0.00    -0.200 F 
ENDBRANCH  28  52
BRANCH  40  63
ATOM     63  C   UNL A   1      44.457  27.205  34.886  1.00  0.00     0.064 A 
ATOM     64  C   UNL A   1      45.704  27.818  35.060  1.00  0.00     0.173 A 
ATOM     65  C   UNL A   1      44.128  26.116  35.706  1.00  0.00     0.173 A 
ATOM     66  F   UNL A   1      46.061  28.853  34.285  1.00  0.00    -0.203 F 
ATOM     67  C   UNL A   1      46.594  27.352  36.020  1.00  0.00     0.198 A 
ATOM     68  C   UNL A   1      45.008  25.673  36.686  1.00  0.00     0.198 A 
ATOM     69  F   UNL A   1      42.940  25.506  35.576  1.00  0.00    -0.203 F 
ATOM     70  F   UNL A   1      47.796  27.929  36.153  1.00  0.00    -0.200 F 
ATOM     71  C   UNL A   1      46.241  26.289  36.840  1.00  0.00     0.200 A 
ATOM     72  F   UNL A   1      44.657  24.659  37.489  1.00  0.00    -0.200 F 
ATOM     73  F   UNL A   1      47.091  25.857  37.781  1.00  0.00    -0.200 F 
ENDBRANCH  40  63
ENDBRANCH  14  15
ENDBRANCH   7   9
ENDBRANCH   6   7
ENDBRANCH   5   6
ENDBRANCH   4   5
ENDBRANCH   3   4
ENDBRANCH   2   3
ENDBRANCH   1   2
BRANCH   1  74
ATOM     74  O   UNL A   1      29.740  26.880  23.772  1.00  0.00    -0.377 OA
BRANCH  74  75
ATOM     75  C   UNL A   1      30.226  25.711  24.425  1.00  0.00     0.188 C 
BRANCH  75  76
ATOM     76  C   UNL A   1      29.929  25.557  25.937  1.00  0.00     0.188 C 
BRANCH  76  77
ATOM     77  O   UNL A   1      30.775  24.647  26.606  1.00  0.00    -0.376 OA
BRANCH  77  78
ATOM     78  C   UNL A   1      30.464  23.264  26.518  1.00  0.00     0.202 C 
BRANCH  78  79
ATOM     79  C   UNL A   1      31.341  22.255  25.746  1.00  0.00     0.261 C 
BRANCH  79  80
ATOM     80  O   UNL A   1      32.739  22.559  25.574  1.00  0.00    -0.459 OA
BRANCH  80  81
ATOM     81  C   UNL A   1      33.681  21.643  25.931  1.00  0.00     0.364 C 
ATOM     82  O   UNL A   1      33.704  21.076  27.010  1.00  0.00    -0.245 OA
BRANCH  81  83
ATOM     83  C   UNL A   1      34.706  21.429  24.771  1.00  0.00     0.294 C 
ATOM     84  C   UNL A   1      34.915  22.692  23.949  1.00  0.00     0.084 C 
ATOM     85  N   UNL A   1      36.070  21.105  25.279  1.00  0.00    -0.327 N 
ATOM     86  C   UNL A   1      36.114  23.356  24.605  1.00  0.00     0.078 C 
ATOM     87  C   UNL A   1      37.019  22.174  24.902  1.00  0.00     0.251 C 
ATOM     88  H   UNL A   1      36.379  20.222  24.873  1.00  0.00     0.347 HD
ATOM     89  H   UNL A   1      36.038  21.028  26.295  1.00  0.00     0.347 HD
BRANCH  87  90
ATOM     90  C   UNL A   1      38.102  22.516  25.942  1.00  0.00     0.399 C 
ATOM     91  F   UNL A   1      39.190  21.718  25.771  1.00  0.00    -0.204 F 
ATOM     92  F   UNL A   1      38.532  23.790  25.751  1.00  0.00    -0.204 F 
ENDBRANCH  87  90
ENDBRANCH  81  83
ENDBRANCH  80  81
ENDBRANCH  79  80
ENDBRANCH  78  79
ENDBRANCH  77  78
ENDBRANCH  76  77
ENDBRANCH  75  76
ENDBRANCH  74  75
ENDBRANCH   1  74
TORSDOF 21
ENDMDL
