MODEL 1
REMARK VINA RESULT:      -8.2      0.000      0.000
REMARK SMILES Cc1cccc(C(=O)N2CCC[C@H]2c2nnc(SCC(=O)Nc3ccc(C(=O)OCCOCCOCCOCCOC(=O)c4ccc(-c5c6nc(c(-c7c(F)c(F)c(F)c(F)c7F)c7ccc([nH]7)c(-c7c(F)c(F)c(F)c(F)c7F)c7nc(c(-c8c(F)c(F)c(F)c(F)c8F)c8ccc5[nH]8)C=C7)C=C6)cc4)cc3)n2C)c1
REMARK SMILES IDX 33 1 32 2 31 3 30 4 29 5 27 6 28 7 26 8 23 9 24 10 108 11
REMARK SMILES IDX 25 12 107 13 22 14 20 15 21 16 19 18 18 19 17 20 14 21 15 22
REMARK SMILES IDX 109 23 16 24 110 25 13 26 9 27 10 28 11 29 12 30 7 31 8 32
REMARK SMILES IDX 6 33 1 34 2 35 3 36 111 37 4 38 5 39 34 40 35 41 36 42 37 43
REMARK SMILES IDX 38 44 39 45 40 46 41 47 42 48 43 49 44 50 45 51 106 52 46 53
REMARK SMILES IDX 105 54 47 55 48 56 49 57 99 58 50 59 104 60 98 61 100 62
REMARK SMILES IDX 51 63 103 64 97 65 96 66 52 68 84 69 64 70 83 71 65 72 68 73
REMARK SMILES IDX 82 74 101 75 66 76 67 77 81 79 102 80 69 81 53 82 54 83
REMARK SMILES IDX 62 84 55 85 56 86 60 87 63 88 57 89 58 90 61 91 59 92 85 93
REMARK SMILES IDX 86 94 94 95 87 96 88 97 92 98 95 99 89 100 90 101 93 102
REMARK SMILES IDX 91 103 70 104 71 105 79 106 72 107 73 108 77 109 80 110
REMARK SMILES IDX 74 111 75 112 78 113 76 114
REMARK H PARENT 22 17 100 67 68 78
REMARK Flexibility Score: inf
ROOT
ATOM      1  C   UNL A   1      41.548  29.258  35.614  1.00  0.00     0.188 C 
ENDROOT
BRANCH   1   2
ATOM      2  O   UNL A   1      40.260  29.490  36.160  1.00  0.00    -0.376 OA
BRANCH   2   3
ATOM      3  C   UNL A   1      39.551  30.584  35.595  1.00  0.00     0.202 C 
BRANCH   3   4
ATOM      4  C   UNL A   1      39.716  31.939  36.269  1.00  0.00     0.261 C 
BRANCH   4   5
ATOM      5  O   UNL A   1      38.938  32.913  35.601  1.00  0.00    -0.460 OA
BRANCH   5   6
ATOM      6  C   UNL A   1      37.624  32.880  35.883  1.00  0.00     0.338 C 
ATOM      7  O   UNL A   1      37.091  32.590  36.931  1.00  0.00    -0.246 OA
BRANCH   6   8
ATOM      8  C   UNL A   1      36.979  33.588  34.761  1.00  0.00     0.060 A 
ATOM      9  C   UNL A   1      35.761  35.101  32.826  1.00  0.00     0.041 A 
ATOM     10  C   UNL A   1      37.081  34.714  32.636  1.00  0.00     0.027 A 
ATOM     11  C   UNL A   1      35.118  34.926  34.051  1.00  0.00     0.027 A 
ATOM     12  C   UNL A   1      37.679  33.912  33.589  1.00  0.00     0.018 A 
ATOM     13  C   UNL A   1      35.728  34.149  35.021  1.00  0.00     0.018 A 
BRANCH   9  14
ATOM     14  N   UNL A   1      34.962  35.437  31.738  1.00  0.00    -0.325 N 
ATOM     15  C   UNL A   1      34.132  34.521  31.147  1.00  0.00     0.234 C 
ATOM     16  O   UNL A   1      33.057  34.943  30.704  1.00  0.00    -0.274 OA
ATOM     17  H   UNL A   1      34.993  36.356  31.386  1.00  0.00     0.169 HD
BRANCH  15  18
ATOM     18  C   UNL A   1      34.406  33.022  31.158  1.00  0.00     0.178 C 
BRANCH  18  19
ATOM     19  S   UNL A   1      35.178  32.276  29.702  1.00  0.00    -0.076 SA
BRANCH  19  20
ATOM     20  C   UNL A   1      36.865  32.120  30.009  1.00  0.00     0.191 A 
ATOM     21  C   UNL A   1      38.797  31.587  30.881  1.00  0.00     0.156 A 
ATOM     22  N   UNL A   1      39.014  32.484  29.940  1.00  0.00    -0.132 NA
ATOM     23  N   UNL A   1      37.439  31.409  31.018  1.00  0.00    -0.307 N 
ATOM     24  N   UNL A   1      37.794  32.817  29.392  1.00  0.00    -0.123 NA
ATOM     25  C   UNL A   1      36.830  30.642  32.073  1.00  0.00     0.154 C 
BRANCH  21  26
ATOM     26  C   UNL A   1      39.780  30.836  31.705  1.00  0.00     0.154 C 
ATOM     27  N   UNL A   1      40.453  29.771  30.982  1.00  0.00    -0.328 N 
ATOM     28  C   UNL A   1      41.897  29.955  31.045  1.00  0.00     0.120 C 
ATOM     29  C   UNL A   1      42.086  30.769  32.319  1.00  0.00     0.024 C 
ATOM     30  C   UNL A   1      40.892  31.717  32.275  1.00  0.00     0.035 C 
BRANCH  27  31
ATOM     31  C   UNL A   1      39.714  28.648  30.645  1.00  0.00     0.254 C 
ATOM     32  O   UNL A   1      39.082  27.991  31.473  1.00  0.00    -0.269 OA
BRANCH  31  33
ATOM     33  C   UNL A   1      39.845  28.055  29.290  1.00  0.00     0.040 A 
ATOM     34  C   UNL A   1      41.405  28.952  25.934  1.00  0.00     0.044 C 
ATOM     35  C   UNL A   1      40.768  28.162  27.038  1.00  0.00    -0.050 A 
ATOM     36  C   UNL A   1      40.513  26.796  26.884  1.00  0.00     0.003 A 
ATOM     37  C   UNL A   1      40.457  28.775  28.256  1.00  0.00     0.017 A 
ATOM     38  C   UNL A   1      39.934  26.061  27.921  1.00  0.00     0.001 A 
ATOM     39  C   UNL A   1      39.596  26.689  29.120  1.00  0.00     0.014 A 
ENDBRANCH  31  33
ENDBRANCH  27  31
ENDBRANCH  21  26
ENDBRANCH  19  20
ENDBRANCH  18  19
ENDBRANCH  15  18
ENDBRANCH   9  14
ENDBRANCH   6   8
ENDBRANCH   5   6
ENDBRANCH   4   5
ENDBRANCH   3   4
ENDBRANCH   2   3
ENDBRANCH   1   2
BRANCH   1  40
ATOM     40  C   UNL A   1      42.818  29.557  36.423  1.00  0.00     0.188 C 
BRANCH  40  41
ATOM     41  O   UNL A   1      42.708  30.444  37.537  1.00  0.00    -0.377 OA
BRANCH  41  42
ATOM     42  C   UNL A   1      43.990  31.011  37.838  1.00  0.00     0.188 C 
BRANCH  42  43
ATOM     43  C   UNL A   1      44.175  32.305  37.063  1.00  0.00     0.188 C 
BRANCH  43  44
ATOM     44  O   UNL A   1      43.351  33.387  37.474  1.00  0.00    -0.376 OA
BRANCH  44  45
ATOM     45  C   UNL A   1      43.878  34.392  38.329  1.00  0.00     0.202 C 
BRANCH  45  46
ATOM     46  C   UNL A   1      43.973  35.791  37.708  1.00  0.00     0.261 C 
BRANCH  46  47
ATOM     47  O   UNL A   1      43.641  35.711  36.303  1.00  0.00    -0.460 OA
BRANCH  47  48
ATOM     48  C   UNL A   1      42.415  36.193  35.948  1.00  0.00     0.338 C 
ATOM     49  O   UNL A   1      41.430  36.195  36.666  1.00  0.00    -0.246 OA
BRANCH  48  50
ATOM     50  C   UNL A   1      42.366  36.410  34.465  1.00  0.00     0.060 A 
ATOM     51  C   UNL A   1      41.934  35.376  33.613  1.00  0.00     0.016 A 
ATOM     52  C   UNL A   1      43.104  37.453  33.926  1.00  0.00     0.016 A 
ATOM     53  C   UNL A   1      42.435  35.275  32.295  1.00  0.00     0.010 A 
ATOM     54  C   UNL A   1      43.655  37.292  32.665  1.00  0.00     0.010 A 
ATOM     55  C   UNL A   1      43.402  36.172  31.850  1.00  0.00    -0.014 A 
BRANCH  55  56
ATOM     56  C   UNL A   1      44.311  35.977  30.679  1.00  0.00     0.031 A 
ATOM     57  C   UNL A   1      45.106  34.687  30.601  1.00  0.00     0.074 A 
ATOM     58  C   UNL A   1      44.130  36.724  29.546  1.00  0.00     0.049 A 
ATOM     59  N   UNL A   1      45.846  34.305  29.615  1.00  0.00    -0.248 NA
ATOM     60  C   UNL A   1      45.075  33.663  31.645  1.00  0.00     0.031 C 
ATOM     61  C   UNL A   1      44.445  36.321  28.168  1.00  0.00     0.029 A 
ATOM     62  N   UNL A   1      43.500  37.974  29.335  1.00  0.00    -0.354 N 
ATOM     63  C   UNL A   1      46.027  32.927  29.690  1.00  0.00     0.074 A 
ATOM     64  C   UNL A   1      45.617  32.605  31.031  1.00  0.00     0.031 C 
ATOM     65  C   UNL A   1      44.134  37.279  27.283  1.00  0.00     0.029 A 
ATOM     66  C   UNL A   1      43.947  38.463  28.071  1.00  0.00     0.049 A 
ATOM     67  H   UNL A   1      42.870  38.422  29.946  1.00  0.00     0.167 HD
ATOM     68  C   UNL A   1      46.355  32.228  28.550  1.00  0.00     0.037 A 
ATOM     69  C   UNL A   1      44.801  39.525  27.952  1.00  0.00     0.037 A 
ATOM     70  C   UNL A   1      46.625  33.157  27.427  1.00  0.00     0.049 A 
ATOM     71  C   UNL A   1      46.160  39.059  27.434  1.00  0.00     0.074 A 
ATOM     72  C   UNL A   1      46.149  33.296  26.133  1.00  0.00     0.029 A 
ATOM     73  N   UNL A   1      47.411  34.290  27.656  1.00  0.00    -0.354 N 
ATOM     74  N   UNL A   1      46.637  37.855  27.668  1.00  0.00    -0.248 NA
ATOM     75  C   UNL A   1      46.971  39.782  26.453  1.00  0.00     0.031 C 
ATOM     76  C   UNL A   1      46.548  34.576  25.645  1.00  0.00     0.029 A 
ATOM     77  C   UNL A   1      47.332  35.187  26.613  1.00  0.00     0.049 A 
ATOM     78  H   UNL A   1      47.953  34.431  28.465  1.00  0.00     0.167 HD
ATOM     79  C   UNL A   1      47.661  37.588  26.801  1.00  0.00     0.074 A 
ATOM     80  C   UNL A   1      47.882  38.849  26.112  1.00  0.00     0.031 C 
ATOM     81  C   UNL A   1      48.203  36.351  26.584  1.00  0.00     0.037 A 
BRANCH  68  82
ATOM     82  C   UNL A   1      46.257  30.699  28.322  1.00  0.00     0.064 A 
ATOM     83  C   UNL A   1      45.002  30.035  28.385  1.00  0.00     0.173 A 
ATOM     84  C   UNL A   1      47.338  29.813  28.113  1.00  0.00     0.173 A 
ATOM     85  F   UNL A   1      43.856  30.719  28.502  1.00  0.00    -0.203 F 
ATOM     86  C   UNL A   1      44.855  28.639  28.306  1.00  0.00     0.198 A 
ATOM     87  C   UNL A   1      47.185  28.421  27.979  1.00  0.00     0.198 A 
ATOM     88  F   UNL A   1      48.601  30.233  28.046  1.00  0.00    -0.203 F 
ATOM     89  F   UNL A   1      43.639  28.086  28.427  1.00  0.00    -0.200 F 
ATOM     90  C   UNL A   1      45.948  27.830  28.095  1.00  0.00     0.200 A 
ATOM     91  F   UNL A   1      48.262  27.656  27.741  1.00  0.00    -0.200 F 
ATOM     92  F   UNL A   1      45.810  26.501  27.992  1.00  0.00    -0.200 F 
ENDBRANCH  68  82
BRANCH  69  93
ATOM     93  C   UNL A   1      44.399  40.619  28.886  1.00  0.00     0.064 A 
ATOM     94  C   UNL A   1      43.020  40.940  28.817  1.00  0.00     0.173 A 
ATOM     95  C   UNL A   1      45.009  40.705  30.144  1.00  0.00     0.173 A 
ATOM     96  F   UNL A   1      42.399  40.952  27.627  1.00  0.00    -0.203 F 
ATOM     97  C   UNL A   1      42.239  40.995  29.970  1.00  0.00     0.198 A 
ATOM     98  C   UNL A   1      44.225  40.814  31.299  1.00  0.00     0.198 A 
ATOM     99  F   UNL A   1      46.323  40.473  30.273  1.00  0.00    -0.203 F 
ATOM    100  F   UNL A   1      40.901  41.030  29.876  1.00  0.00    -0.200 F 
ATOM    101  C   UNL A   1      42.840  40.868  31.210  1.00  0.00     0.200 A 
ATOM    102  F   UNL A   1      44.800  40.733  32.508  1.00  0.00    -0.200 F 
ATOM    103  F   UNL A   1      42.085  40.727  32.310  1.00  0.00    -0.200 F 
ENDBRANCH  69  93
BRANCH  81 104
ATOM    104  C   UNL A   1      49.669  36.111  26.293  1.00  0.00     0.064 A 
ATOM    105  C   UNL A   1      50.568  35.644  27.263  1.00  0.00     0.173 A 
ATOM    106  C   UNL A   1      50.160  36.111  24.960  1.00  0.00     0.173 A 
ATOM    107  F   UNL A   1      50.201  35.487  28.542  1.00  0.00    -0.203 F 
ATOM    108  C   UNL A   1      51.868  35.259  26.937  1.00  0.00     0.198 A 
ATOM    109  C   UNL A   1      51.435  35.663  24.631  1.00  0.00     0.198 A 
ATOM    110  F   UNL A   1      49.411  36.499  23.918  1.00  0.00    -0.203 F 
ATOM    111  F   UNL A   1      52.696  34.856  27.909  1.00  0.00    -0.200 F 
ATOM    112  C   UNL A   1      52.296  35.254  25.623  1.00  0.00     0.200 A 
ATOM    113  F   UNL A   1      51.808  35.603  23.344  1.00  0.00    -0.200 F 
ATOM    114  F   UNL A   1      53.529  34.836  25.313  1.00  0.00    -0.200 F 
ENDBRANCH  81 104
ENDBRANCH  55  56
ENDBRANCH  48  50
ENDBRANCH  47  48
ENDBRANCH  46  47
ENDBRANCH  45  46
ENDBRANCH  44  45
ENDBRANCH  43  44
ENDBRANCH  42  43
ENDBRANCH  41  42
ENDBRANCH  40  41
ENDBRANCH   1  40
TORSDOF 27
ENDMDL
MODEL 2
REMARK VINA RESULT:      -7.7      5.518      9.039
REMARK SMILES Cc1cccc(C(=O)N2CCC[C@H]2c2nnc(SCC(=O)Nc3ccc(C(=O)OCCOCCOCCOCCOC(=O)c4ccc(-c5c6nc(c(-c7c(F)c(F)c(F)c(F)c7F)c7ccc([nH]7)c(-c7c(F)c(F)c(F)c(F)c7F)c7nc(c(-c8c(F)c(F)c(F)c(F)c8F)c8ccc5[nH]8)C=C7)C=C6)cc4)cc3)n2C)c1
REMARK SMILES IDX 33 1 32 2 31 3 30 4 29 5 27 6 28 7 26 8 23 9 24 10 108 11
REMARK SMILES IDX 25 12 107 13 22 14 20 15 21 16 19 18 18 19 17 20 14 21 15 22
REMARK SMILES IDX 109 23 16 24 110 25 13 26 9 27 10 28 11 29 12 30 7 31 8 32
REMARK SMILES IDX 6 33 1 34 2 35 3 36 111 37 4 38 5 39 34 40 35 41 36 42 37 43
REMARK SMILES IDX 38 44 39 45 40 46 41 47 42 48 43 49 44 50 45 51 106 52 46 53
REMARK SMILES IDX 105 54 47 55 48 56 49 57 99 58 50 59 104 60 98 61 100 62
REMARK SMILES IDX 51 63 103 64 97 65 96 66 52 68 84 69 64 70 83 71 65 72 68 73
REMARK SMILES IDX 82 74 101 75 66 76 67 77 81 79 102 80 69 81 53 82 54 83
REMARK SMILES IDX 62 84 55 85 56 86 60 87 63 88 57 89 58 90 61 91 59 92 85 93
REMARK SMILES IDX 86 94 94 95 87 96 88 97 92 98 95 99 89 100 90 101 93 102
REMARK SMILES IDX 91 103 70 104 71 105 79 106 72 107 73 108 77 109 80 110
REMARK SMILES IDX 74 111 75 112 78 113 76 114
REMARK H PARENT 22 17 100 67 68 78
REMARK Flexibility Score: inf
ROOT
ATOM      1  C   UNL A   1      40.342  28.660  30.032  1.00  0.00     0.188 C 
ENDROOT
BRANCH   1   2
ATOM      2  O   UNL A   1      41.401  28.875  29.112  1.00  0.00    -0.376 OA
BRANCH   2   3
ATOM      3  C   UNL A   1      42.400  27.865  29.093  1.00  0.00     0.202 C 
BRANCH   3   4
ATOM      4  C   UNL A   1      42.459  26.972  27.862  1.00  0.00     0.261 C 
BRANCH   4   5
ATOM      5  O   UNL A   1      41.694  25.802  28.071  1.00  0.00    -0.460 OA
BRANCH   5   6
ATOM      6  C   UNL A   1      42.089  24.731  27.360  1.00  0.00     0.338 C 
ATOM      7  O   UNL A   1      43.210  24.291  27.233  1.00  0.00    -0.246 OA
BRANCH   6   8
ATOM      8  C   UNL A   1      40.844  24.008  27.041  1.00  0.00     0.060 A 
ATOM      9  C   UNL A   1      38.503  22.816  26.255  1.00  0.00     0.041 A 
ATOM     10  C   UNL A   1      39.678  22.081  26.192  1.00  0.00     0.027 A 
ATOM     11  C   UNL A   1      38.513  24.190  26.498  1.00  0.00     0.027 A 
ATOM     12  C   UNL A   1      40.849  22.666  26.633  1.00  0.00     0.018 A 
ATOM     13  C   UNL A   1      39.693  24.786  26.911  1.00  0.00     0.018 A 
BRANCH   9  14
ATOM     14  N   UNL A   1      37.272  22.173  26.332  1.00  0.00    -0.325 N 
ATOM     15  C   UNL A   1      36.589  21.794  25.208  1.00  0.00     0.234 C 
ATOM     16  O   UNL A   1      35.937  20.745  25.276  1.00  0.00    -0.274 OA
ATOM     17  H   UNL A   1      36.884  21.986  27.217  1.00  0.00     0.169 HD
BRANCH  15  18
ATOM     18  C   UNL A   1      36.728  22.508  23.869  1.00  0.00     0.178 C 
BRANCH  18  19
ATOM     19  S   UNL A   1      35.228  23.079  23.036  1.00  0.00    -0.076 SA
BRANCH  19  20
ATOM     20  C   UNL A   1      34.629  24.450  23.888  1.00  0.00     0.191 A 
ATOM     21  C   UNL A   1      33.667  26.344  24.401  1.00  0.00     0.156 A 
ATOM     22  N   UNL A   1      34.348  25.940  25.455  1.00  0.00    -0.132 NA
ATOM     23  N   UNL A   1      33.906  25.475  23.361  1.00  0.00    -0.307 N 
ATOM     24  N   UNL A   1      34.952  24.745  25.129  1.00  0.00    -0.123 NA
ATOM     25  C   UNL A   1      33.475  25.703  22.007  1.00  0.00     0.154 C 
BRANCH  21  26
ATOM     26  C   UNL A   1      32.766  27.518  24.261  1.00  0.00     0.154 C 
ATOM     27  N   UNL A   1      31.483  27.350  24.922  1.00  0.00    -0.328 N 
ATOM     28  C   UNL A   1      31.263  28.431  25.874  1.00  0.00     0.120 C 
ATOM     29  C   UNL A   1      32.125  29.559  25.321  1.00  0.00     0.024 C 
ATOM     30  C   UNL A   1      33.359  28.808  24.828  1.00  0.00     0.035 C 
BRANCH  27  31
ATOM     31  C   UNL A   1      30.582  26.454  24.369  1.00  0.00     0.254 C 
ATOM     32  O   UNL A   1      29.687  26.799  23.596  1.00  0.00    -0.269 OA
BRANCH  31  33
ATOM     33  C   UNL A   1      30.519  25.060  24.876  1.00  0.00     0.040 A 
ATOM     34  C   UNL A   1      31.812  21.617  23.888  1.00  0.00     0.044 C 
ATOM     35  C   UNL A   1      31.217  22.733  24.693  1.00  0.00    -0.050 A 
ATOM     36  C   UNL A   1      30.820  22.525  26.018  1.00  0.00     0.003 A 
ATOM     37  C   UNL A   1      31.090  24.011  24.142  1.00  0.00     0.017 A 
ATOM     38  C   UNL A   1      30.282  23.571  26.770  1.00  0.00     0.001 A 
ATOM     39  C   UNL A   1      30.127  24.836  26.199  1.00  0.00     0.014 A 
ENDBRANCH  31  33
ENDBRANCH  27  31
ENDBRANCH  21  26
ENDBRANCH  19  20
ENDBRANCH  18  19
ENDBRANCH  15  18
ENDBRANCH   9  14
ENDBRANCH   6   8
ENDBRANCH   5   6
ENDBRANCH   4   5
ENDBRANCH   3   4
ENDBRANCH   2   3
ENDBRANCH   1   2
BRANCH   1  40
ATOM     40  C   UNL A   1      38.876  28.811  29.603  1.00  0.00     0.188 C 
BRANCH  40  41
ATOM     41  O   UNL A   1      38.122  29.887  30.165  1.00  0.00    -0.377 OA
BRANCH  41  42
ATOM     42  C   UNL A   1      36.721  29.596  30.079  1.00  0.00     0.188 C 
BRANCH  42  43
ATOM     43  C   UNL A   1      35.931  30.641  30.849  1.00  0.00     0.188 C 
BRANCH  43  44
ATOM     44  O   UNL A   1      36.533  31.100  32.052  1.00  0.00    -0.376 OA
BRANCH  44  45
ATOM     45  C   UNL A   1      36.124  32.337  32.619  1.00  0.00     0.202 C 
BRANCH  45  46
ATOM     46  C   UNL A   1      36.744  32.664  33.983  1.00  0.00     0.261 C 
BRANCH  46  47
ATOM     47  O   UNL A   1      38.179  32.760  33.842  1.00  0.00    -0.460 OA
BRANCH  47  48
ATOM     48  C   UNL A   1      38.669  33.990  33.508  1.00  0.00     0.338 C 
ATOM     49  O   UNL A   1      38.148  35.052  33.802  1.00  0.00    -0.246 OA
BRANCH  48  50
ATOM     50  C   UNL A   1      39.737  33.844  32.466  1.00  0.00     0.060 A 
ATOM     51  C   UNL A   1      39.614  32.866  31.460  1.00  0.00     0.016 A 
ATOM     52  C   UNL A   1      40.989  34.382  32.724  1.00  0.00     0.016 A 
ATOM     53  C   UNL A   1      40.765  32.274  30.891  1.00  0.00     0.010 A 
ATOM     54  C   UNL A   1      42.105  33.731  32.224  1.00  0.00     0.010 A 
ATOM     55  C   UNL A   1      42.029  32.619  31.363  1.00  0.00    -0.014 A 
BRANCH  55  56
ATOM     56  C   UNL A   1      43.284  31.827  31.177  1.00  0.00     0.031 A 
ATOM     57  C   UNL A   1      43.690  30.867  32.277  1.00  0.00     0.074 A 
ATOM     58  C   UNL A   1      43.810  31.674  29.922  1.00  0.00     0.049 A 
ATOM     59  N   UNL A   1      44.672  30.029  32.236  1.00  0.00    -0.248 NA
ATOM     60  C   UNL A   1      42.952  30.728  33.532  1.00  0.00     0.031 C 
ATOM     61  C   UNL A   1      44.594  30.531  29.431  1.00  0.00     0.029 A 
ATOM     62  N   UNL A   1      43.664  32.440  28.741  1.00  0.00    -0.354 N 
ATOM     63  C   UNL A   1      44.459  29.032  33.183  1.00  0.00     0.074 A 
ATOM     64  C   UNL A   1      43.434  29.582  34.029  1.00  0.00     0.031 C 
ATOM     65  C   UNL A   1      44.950  30.683  28.148  1.00  0.00     0.029 A 
ATOM     66  C   UNL A   1      44.728  32.071  27.865  1.00  0.00     0.049 A 
ATOM     67  H   UNL A   1      42.959  33.104  28.557  1.00  0.00     0.167 HD
ATOM     68  C   UNL A   1      45.076  27.812  33.026  1.00  0.00     0.037 A 
ATOM     69  C   UNL A   1      45.777  32.905  27.587  1.00  0.00     0.037 A 
ATOM     70  C   UNL A   1      46.032  27.851  31.894  1.00  0.00     0.049 A 
ATOM     71  C   UNL A   1      47.066  32.362  28.200  1.00  0.00     0.074 A 
ATOM     72  C   UNL A   1      46.228  27.097  30.747  1.00  0.00     0.029 A 
ATOM     73  N   UNL A   1      46.885  28.950  31.763  1.00  0.00    -0.354 N 
ATOM     74  N   UNL A   1      47.081  31.629  29.293  1.00  0.00    -0.248 NA
ATOM     75  C   UNL A   1      48.375  32.388  27.548  1.00  0.00     0.031 C 
ATOM     76  C   UNL A   1      47.100  27.820  29.880  1.00  0.00     0.029 A 
ATOM     77  C   UNL A   1      47.498  28.980  30.529  1.00  0.00     0.049 A 
ATOM     78  H   UNL A   1      47.030  29.623  32.466  1.00  0.00     0.167 HD
ATOM     79  C   UNL A   1      48.283  30.985  29.400  1.00  0.00     0.074 A 
ATOM     80  C   UNL A   1      49.086  31.548  28.327  1.00  0.00     0.031 C 
ATOM     81  C   UNL A   1      48.546  29.951  30.256  1.00  0.00     0.037 A 
BRANCH  68  82
ATOM     82  C   UNL A   1      44.720  26.478  33.729  1.00  0.00     0.064 A 
ATOM     83  C   UNL A   1      45.715  25.490  33.957  1.00  0.00     0.173 A 
ATOM     84  C   UNL A   1      43.432  26.065  34.139  1.00  0.00     0.173 A 
ATOM     85  F   UNL A   1      47.009  25.730  33.702  1.00  0.00    -0.203 F 
ATOM     86  C   UNL A   1      45.441  24.214  34.480  1.00  0.00     0.198 A 
ATOM     87  C   UNL A   1      43.166  24.809  34.713  1.00  0.00     0.198 A 
ATOM     88  F   UNL A   1      42.355  26.838  33.991  1.00  0.00    -0.203 F 
ATOM     89  F   UNL A   1      46.430  23.319  34.615  1.00  0.00    -0.200 F 
ATOM     90  C   UNL A   1      44.165  23.875  34.866  1.00  0.00     0.200 A 
ATOM     91  F   UNL A   1      41.918  24.513  35.112  1.00  0.00    -0.200 F 
ATOM     92  F   UNL A   1      43.902  22.670  35.391  1.00  0.00    -0.200 F 
ENDBRANCH  68  82
BRANCH  69  93
ATOM     93  C   UNL A   1      45.283  34.294  27.343  1.00  0.00     0.064 A 
ATOM     94  C   UNL A   1      44.546  34.426  26.140  1.00  0.00     0.173 A 
ATOM     95  C   UNL A   1      44.871  35.075  28.430  1.00  0.00     0.173 A 
ATOM     96  F   UNL A   1      44.940  33.762  25.041  1.00  0.00    -0.203 F 
ATOM     97  C   UNL A   1      43.286  35.022  26.134  1.00  0.00     0.198 A 
ATOM     98  C   UNL A   1      43.627  35.717  28.402  1.00  0.00     0.198 A 
ATOM     99  F   UNL A   1      45.558  35.044  29.581  1.00  0.00    -0.203 F 
ATOM    100  F   UNL A   1      42.489  34.902  25.062  1.00  0.00    -0.200 F 
ATOM    101  C   UNL A   1      42.803  35.612  27.289  1.00  0.00     0.200 A 
ATOM    102  F   UNL A   1      43.165  36.328  29.502  1.00  0.00    -0.200 F 
ATOM    103  F   UNL A   1      41.525  36.017  27.352  1.00  0.00    -0.200 F 
ENDBRANCH  69  93
BRANCH  81 104
ATOM    104  C   UNL A   1      49.880  29.736  30.935  1.00  0.00     0.064 A 
ATOM    105  C   UNL A   1      50.254  30.413  32.106  1.00  0.00     0.173 A 
ATOM    106  C   UNL A   1      50.726  28.655  30.563  1.00  0.00     0.173 A 
ATOM    107  F   UNL A   1      49.489  31.378  32.633  1.00  0.00    -0.203 F 
ATOM    108  C   UNL A   1      51.406  30.075  32.816  1.00  0.00     0.198 A 
ATOM    109  C   UNL A   1      51.836  28.280  31.312  1.00  0.00     0.198 A 
ATOM    110  F   UNL A   1      50.485  27.892  29.487  1.00  0.00    -0.203 F 
ATOM    111  F   UNL A   1      51.735  30.779  33.906  1.00  0.00    -0.200 F 
ATOM    112  C   UNL A   1      52.187  29.002  32.429  1.00  0.00     0.200 A 
ATOM    113  F   UNL A   1      52.541  27.196  30.958  1.00  0.00    -0.200 F 
ATOM    114  F   UNL A   1      53.263  28.653  33.145  1.00  0.00    -0.200 F 
ENDBRANCH  81 104
ENDBRANCH  55  56
ENDBRANCH  48  50
ENDBRANCH  47  48
ENDBRANCH  46  47
ENDBRANCH  45  46
ENDBRANCH  44  45
ENDBRANCH  43  44
ENDBRANCH  42  43
ENDBRANCH  41  42
ENDBRANCH  40  41
ENDBRANCH   1  40
TORSDOF 27
ENDMDL
MODEL 3
REMARK VINA RESULT:      -7.7      5.493     11.649
REMARK SMILES Cc1cccc(C(=O)N2CCC[C@H]2c2nnc(SCC(=O)Nc3ccc(C(=O)OCCOCCOCCOCCOC(=O)c4ccc(-c5c6nc(c(-c7c(F)c(F)c(F)c(F)c7F)c7ccc([nH]7)c(-c7c(F)c(F)c(F)c(F)c7F)c7nc(c(-c8c(F)c(F)c(F)c(F)c8F)c8ccc5[nH]8)C=C7)C=C6)cc4)cc3)n2C)c1
REMARK SMILES IDX 33 1 32 2 31 3 30 4 29 5 27 6 28 7 26 8 23 9 24 10 108 11
REMARK SMILES IDX 25 12 107 13 22 14 20 15 21 16 19 18 18 19 17 20 14 21 15 22
REMARK SMILES IDX 109 23 16 24 110 25 13 26 9 27 10 28 11 29 12 30 7 31 8 32
REMARK SMILES IDX 6 33 1 34 2 35 3 36 111 37 4 38 5 39 34 40 35 41 36 42 37 43
REMARK SMILES IDX 38 44 39 45 40 46 41 47 42 48 43 49 44 50 45 51 106 52 46 53
REMARK SMILES IDX 105 54 47 55 48 56 49 57 99 58 50 59 104 60 98 61 100 62
REMARK SMILES IDX 51 63 103 64 97 65 96 66 52 68 84 69 64 70 83 71 65 72 68 73
REMARK SMILES IDX 82 74 101 75 66 76 67 77 81 79 102 80 69 81 53 82 54 83
REMARK SMILES IDX 62 84 55 85 56 86 60 87 63 88 57 89 58 90 61 91 59 92 85 93
REMARK SMILES IDX 86 94 94 95 87 96 88 97 92 98 95 99 89 100 90 101 93 102
REMARK SMILES IDX 91 103 70 104 71 105 79 106 72 107 73 108 77 109 80 110
REMARK SMILES IDX 74 111 75 112 78 113 76 114
REMARK H PARENT 22 17 100 67 68 78
REMARK Flexibility Score: inf
ROOT
ATOM      1  C   UNL A   1      46.994  25.251  28.862  1.00  0.00     0.188 C 
ENDROOT
BRANCH   1   2
ATOM      2  O   UNL A   1      45.739  24.991  28.255  1.00  0.00    -0.376 OA
BRANCH   2   3
ATOM      3  C   UNL A   1      45.737  23.944  27.294  1.00  0.00     0.202 C 
BRANCH   3   4
ATOM      4  C   UNL A   1      44.694  22.849  27.465  1.00  0.00     0.261 C 
BRANCH   4   5
ATOM      5  O   UNL A   1      43.885  23.118  28.593  1.00  0.00    -0.460 OA
BRANCH   5   6
ATOM      6  C   UNL A   1      42.561  23.035  28.373  1.00  0.00     0.338 C 
ATOM      7  O   UNL A   1      41.807  22.139  28.681  1.00  0.00    -0.246 OA
BRANCH   6   8
ATOM      8  C   UNL A   1      42.156  24.398  27.983  1.00  0.00     0.060 A 
ATOM      9  C   UNL A   1      41.171  26.848  27.245  1.00  0.00     0.041 A 
ATOM     10  C   UNL A   1      41.710  26.703  28.515  1.00  0.00     0.027 A 
ATOM     11  C   UNL A   1      40.924  25.746  26.426  1.00  0.00     0.027 A 
ATOM     12  C   UNL A   1      42.249  25.482  28.870  1.00  0.00     0.018 A 
ATOM     13  C   UNL A   1      41.436  24.514  26.793  1.00  0.00     0.018 A 
BRANCH   9  14
ATOM     14  N   UNL A   1      41.097  28.104  26.649  1.00  0.00    -0.325 N 
ATOM     15  C   UNL A   1      42.161  28.643  25.978  1.00  0.00     0.234 C 
ATOM     16  O   UNL A   1      41.904  29.340  24.989  1.00  0.00    -0.274 OA
ATOM     17  H   UNL A   1      40.258  28.615  26.712  1.00  0.00     0.169 HD
BRANCH  15  18
ATOM     18  C   UNL A   1      43.609  28.295  26.298  1.00  0.00     0.178 C 
BRANCH  18  19
ATOM     19  S   UNL A   1      44.385  26.926  25.407  1.00  0.00    -0.076 SA
BRANCH  19  20
ATOM     20  C   UNL A   1      45.998  27.384  25.016  1.00  0.00     0.191 A 
ATOM     21  C   UNL A   1      48.110  27.350  24.454  1.00  0.00     0.156 A 
ATOM     22  N   UNL A   1      47.816  28.575  24.844  1.00  0.00    -0.132 NA
ATOM     23  N   UNL A   1      47.007  26.549  24.647  1.00  0.00    -0.307 N 
ATOM     24  N   UNL A   1      46.484  28.593  25.197  1.00  0.00    -0.123 NA
ATOM     25  C   UNL A   1      47.018  25.118  24.504  1.00  0.00     0.154 C 
BRANCH  21  26
ATOM     26  C   UNL A   1      49.379  26.827  23.887  1.00  0.00     0.154 C 
ATOM     27  N   UNL A   1      50.043  27.755  22.988  1.00  0.00    -0.328 N 
ATOM     28  C   UNL A   1      51.403  28.011  23.445  1.00  0.00     0.120 C 
ATOM     29  C   UNL A   1      51.738  26.760  24.248  1.00  0.00     0.024 C 
ATOM     30  C   UNL A   1      50.416  26.466  24.951  1.00  0.00     0.035 C 
BRANCH  27  31
ATOM     31  C   UNL A   1      49.460  27.991  21.752  1.00  0.00     0.254 C 
ATOM     32  O   UNL A   1      48.363  28.535  21.625  1.00  0.00    -0.269 OA
BRANCH  31  33
ATOM     33  C   UNL A   1      50.043  27.380  20.531  1.00  0.00     0.040 A 
ATOM     34  C   UNL A   1      52.238  28.427  17.600  1.00  0.00     0.044 C 
ATOM     35  C   UNL A   1      51.486  27.574  18.578  1.00  0.00    -0.050 A 
ATOM     36  C   UNL A   1      51.526  26.179  18.487  1.00  0.00     0.003 A 
ATOM     37  C   UNL A   1      50.765  28.163  19.621  1.00  0.00     0.017 A 
ATOM     38  C   UNL A   1      50.837  25.388  19.409  1.00  0.00     0.001 A 
ATOM     39  C   UNL A   1      50.093  25.987  20.427  1.00  0.00     0.014 A 
ENDBRANCH  31  33
ENDBRANCH  27  31
ENDBRANCH  21  26
ENDBRANCH  19  20
ENDBRANCH  18  19
ENDBRANCH  15  18
ENDBRANCH   9  14
ENDBRANCH   6   8
ENDBRANCH   5   6
ENDBRANCH   4   5
ENDBRANCH   3   4
ENDBRANCH   2   3
ENDBRANCH   1   2
BRANCH   1  40
ATOM     40  C   UNL A   1      47.751  26.559  28.587  1.00  0.00     0.188 C 
BRANCH  40  41
ATOM     41  O   UNL A   1      46.986  27.758  28.453  1.00  0.00    -0.377 OA
BRANCH  41  42
ATOM     42  C   UNL A   1      47.858  28.896  28.475  1.00  0.00     0.188 C 
BRANCH  42  43
ATOM     43  C   UNL A   1      47.047  30.169  28.304  1.00  0.00     0.188 C 
BRANCH  43  44
ATOM     44  O   UNL A   1      47.779  31.308  27.871  1.00  0.00    -0.376 OA
BRANCH  44  45
ATOM     45  C   UNL A   1      47.208  32.193  26.916  1.00  0.00     0.202 C 
BRANCH  45  46
ATOM     46  C   UNL A   1      48.104  33.367  26.501  1.00  0.00     0.261 C 
BRANCH  46  47
ATOM     47  O   UNL A   1      47.693  34.554  27.216  1.00  0.00    -0.460 OA
BRANCH  47  48
ATOM     48  C   UNL A   1      46.970  35.465  26.501  1.00  0.00     0.338 C 
ATOM     49  O   UNL A   1      47.440  36.259  25.704  1.00  0.00    -0.246 OA
BRANCH  48  50
ATOM     50  C   UNL A   1      45.587  35.574  27.071  1.00  0.00     0.060 A 
ATOM     51  C   UNL A   1      45.358  36.342  28.228  1.00  0.00     0.016 A 
ATOM     52  C   UNL A   1      44.646  34.625  26.703  1.00  0.00     0.016 A 
ATOM     53  C   UNL A   1      44.319  35.999  29.123  1.00  0.00     0.010 A 
ATOM     54  C   UNL A   1      43.691  34.245  27.632  1.00  0.00     0.010 A 
ATOM     55  C   UNL A   1      43.550  34.862  28.891  1.00  0.00    -0.014 A 
BRANCH  55  56
ATOM     56  C   UNL A   1      42.716  34.141  29.901  1.00  0.00     0.031 A 
ATOM     57  C   UNL A   1      41.218  34.373  29.885  1.00  0.00     0.074 A 
ATOM     58  C   UNL A   1      43.219  33.034  30.530  1.00  0.00     0.049 A 
ATOM     59  N   UNL A   1      40.341  33.754  30.604  1.00  0.00    -0.248 NA
ATOM     60  C   UNL A   1      40.563  35.313  28.976  1.00  0.00     0.031 C 
ATOM     61  C   UNL A   1      42.451  31.887  31.037  1.00  0.00     0.029 A 
ATOM     62  N   UNL A   1      44.548  32.600  30.753  1.00  0.00    -0.354 N 
ATOM     63  C   UNL A   1      39.091  33.885  30.007  1.00  0.00     0.074 A 
ATOM     64  C   UNL A   1      39.276  34.954  29.063  1.00  0.00     0.031 C 
ATOM     65  C   UNL A   1      43.245  30.959  31.589  1.00  0.00     0.029 A 
ATOM     66  C   UNL A   1      44.503  31.618  31.787  1.00  0.00     0.049 A 
ATOM     67  H   UNL A   1      45.353  32.918  30.283  1.00  0.00     0.167 HD
ATOM     68  C   UNL A   1      38.111  32.960  30.290  1.00  0.00     0.037 A 
ATOM     69  C   UNL A   1      44.980  31.852  33.048  1.00  0.00     0.037 A 
ATOM     70  C   UNL A   1      38.554  32.041  31.364  1.00  0.00     0.049 A 
ATOM     71  C   UNL A   1      43.829  31.906  34.050  1.00  0.00     0.074 A 
ATOM     72  C   UNL A   1      38.645  30.664  31.502  1.00  0.00     0.029 A 
ATOM     73  N   UNL A   1      39.193  32.567  32.490  1.00  0.00    -0.354 N 
ATOM     74  N   UNL A   1      42.617  32.300  33.723  1.00  0.00    -0.248 NA
ATOM     75  C   UNL A   1      43.866  31.328  35.394  1.00  0.00     0.031 C 
ATOM     76  C   UNL A   1      39.453  30.382  32.643  1.00  0.00     0.029 A 
ATOM     77  C   UNL A   1      39.793  31.584  33.247  1.00  0.00     0.049 A 
ATOM     78  H   UNL A   1      39.215  33.525  32.714  1.00  0.00     0.167 HD
ATOM     79  C   UNL A   1      41.727  31.903  34.683  1.00  0.00     0.074 A 
ATOM     80  C   UNL A   1      42.565  31.365  35.743  1.00  0.00     0.031 C 
ATOM     81  C   UNL A   1      40.367  31.908  34.543  1.00  0.00     0.037 A 
BRANCH  68  82
ATOM     82  C   UNL A   1      36.804  32.701  29.500  1.00  0.00     0.064 A 
ATOM     83  C   UNL A   1      35.653  33.504  29.719  1.00  0.00     0.173 A 
ATOM     84  C   UNL A   1      36.577  31.654  28.578  1.00  0.00     0.173 A 
ATOM     85  F   UNL A   1      35.697  34.590  30.502  1.00  0.00    -0.203 F 
ATOM     86  C   UNL A   1      34.403  33.251  29.126  1.00  0.00     0.198 A 
ATOM     87  C   UNL A   1      35.341  31.434  27.943  1.00  0.00     0.198 A 
ATOM     88  F   UNL A   1      37.523  30.773  28.252  1.00  0.00    -0.203 F 
ATOM     89  F   UNL A   1      33.350  34.027  29.426  1.00  0.00    -0.200 F 
ATOM     90  C   UNL A   1      34.248  32.218  28.231  1.00  0.00     0.200 A 
ATOM     91  F   UNL A   1      35.223  30.440  27.048  1.00  0.00    -0.200 F 
ATOM     92  F   UNL A   1      33.065  31.989  27.642  1.00  0.00    -0.200 F 
ENDBRANCH  68  82
BRANCH  69  93
ATOM     93  C   UNL A   1      46.293  32.560  32.981  1.00  0.00     0.064 A 
ATOM     94  C   UNL A   1      47.359  31.732  32.547  1.00  0.00     0.173 A 
ATOM     95  C   UNL A   1      46.328  33.901  32.580  1.00  0.00     0.173 A 
ATOM     96  F   UNL A   1      47.421  30.457  32.963  1.00  0.00    -0.203 F 
ATOM     97  C   UNL A   1      48.196  32.128  31.506  1.00  0.00     0.198 A 
ATOM     98  C   UNL A   1      47.208  34.310  31.570  1.00  0.00     0.198 A 
ATOM     99  F   UNL A   1      45.385  34.755  33.002  1.00  0.00    -0.203 F 
ATOM    100  F   UNL A   1      49.018  31.240  30.927  1.00  0.00    -0.200 F 
ATOM    101  C   UNL A   1      48.074  33.401  30.977  1.00  0.00     0.200 A 
ATOM    102  F   UNL A   1      47.128  35.555  31.077  1.00  0.00    -0.200 F 
ATOM    103  F   UNL A   1      48.737  33.728  29.857  1.00  0.00    -0.200 F 
ENDBRANCH  69  93
BRANCH  81 104
ATOM    104  C   UNL A   1      39.404  32.215  35.669  1.00  0.00     0.064 A 
ATOM    105  C   UNL A   1      38.576  31.241  36.247  1.00  0.00     0.173 A 
ATOM    106  C   UNL A   1      39.464  33.452  36.367  1.00  0.00     0.173 A 
ATOM    107  F   UNL A   1      38.510  29.996  35.757  1.00  0.00    -0.203 F 
ATOM    108  C   UNL A   1      37.828  31.498  37.395  1.00  0.00     0.198 A 
ATOM    109  C   UNL A   1      38.768  33.679  37.549  1.00  0.00     0.198 A 
ATOM    110  F   UNL A   1      40.234  34.470  35.959  1.00  0.00    -0.203 F 
ATOM    111  F   UNL A   1      37.026  30.543  37.883  1.00  0.00    -0.200 F 
ATOM    112  C   UNL A   1      37.935  32.708  38.054  1.00  0.00     0.200 A 
ATOM    113  F   UNL A   1      38.937  34.835  38.208  1.00  0.00    -0.200 F 
ATOM    114  F   UNL A   1      37.252  32.928  39.184  1.00  0.00    -0.200 F 
ENDBRANCH  81 104
ENDBRANCH  55  56
ENDBRANCH  48  50
ENDBRANCH  47  48
ENDBRANCH  46  47
ENDBRANCH  45  46
ENDBRANCH  44  45
ENDBRANCH  43  44
ENDBRANCH  42  43
ENDBRANCH  41  42
ENDBRANCH  40  41
ENDBRANCH   1  40
TORSDOF 27
ENDMDL
