MODEL 1
REMARK VINA RESULT:     -10.9      0.000      0.000
REMARK SMILES Cn1c(=O)c(=O)n(C)c2cc(S(=O)(=O)N3CCC[C@H]3C(=O)OCCOCCOCCOCCOC(=O)c3ccc(-c4c5nc(c(-c6c(F)c(F)c(F)c(F)c6F)c6ccc([nH]6)c(-c6c(F)c(F)c(F)c(F)c6F)c6nc(c(-c7c(F)c(F)c(F)c(F)c7F)c7ccc4[nH]7)C=C6)C=C5)cc3)ccc21
REMARK SMILES IDX 28 1 27 2 26 3 25 4 24 5 23 6 22 7 20 8 21 9 19 10 15 11
REMARK SMILES IDX 16 12 17 13 18 14 12 15 13 16 14 17 11 18 1 19 2 20 3 21
REMARK SMILES IDX 102 22 4 23 5 24 9 25 101 26 6 27 7 28 10 29 100 30 8 31
REMARK SMILES IDX 29 32 30 33 31 34 32 35 33 36 34 37 35 38 36 39 37 40 38 41
REMARK SMILES IDX 99 42 39 43 98 44 40 45 41 46 42 47 92 48 43 49 97 50 91 51
REMARK SMILES IDX 93 52 44 53 96 54 90 55 89 56 45 58 77 59 57 60 76 61 58 62
REMARK SMILES IDX 61 63 75 64 94 65 59 66 60 67 74 69 95 70 62 71 46 72 47 73
REMARK SMILES IDX 55 74 48 75 49 76 53 77 56 78 50 79 51 80 54 81 52 82 78 83
REMARK SMILES IDX 79 84 87 85 80 86 81 87 85 88 88 89 82 90 83 91 86 92 84 93
REMARK SMILES IDX 63 94 64 95 72 96 65 97 66 98 70 99 73 100 67 101 68 102
REMARK SMILES IDX 71 103 69 104
REMARK H PARENT 93 57 61 68
REMARK Flexibility Score: inf
ROOT
ATOM      1  O   UNL A   1      30.492  30.440  23.828  1.00  0.00    -0.377 OA
ENDROOT
BRANCH   1   2
ATOM      2  C   UNL A   1      29.511  31.465  23.782  1.00  0.00     0.188 C 
BRANCH   2   3
ATOM      3  C   UNL A   1      28.738  31.769  22.474  1.00  0.00     0.188 C 
BRANCH   3   4
ATOM      4  O   UNL A   1      27.809  30.766  22.096  1.00  0.00    -0.376 OA
BRANCH   4   5
ATOM      5  C   UNL A   1      27.134  30.088  23.143  1.00  0.00     0.202 C 
BRANCH   5   6
ATOM      6  C   UNL A   1      27.222  28.556  23.126  1.00  0.00     0.261 C 
BRANCH   6   7
ATOM      7  O   UNL A   1      28.556  28.023  23.142  1.00  0.00    -0.462 OA
BRANCH   7   8
ATOM      8  C   UNL A   1      28.801  26.911  23.890  1.00  0.00     0.324 C 
ATOM      9  O   UNL A   1      27.941  26.152  24.313  1.00  0.00    -0.250 OA
BRANCH   8  10
ATOM     10  C   UNL A   1      30.314  26.679  23.968  1.00  0.00     0.183 C 
ATOM     11  N   UNL A   1      30.622  25.281  24.291  1.00  0.00    -0.184 NA
ATOM     12  C   UNL A   1      31.114  24.581  23.106  1.00  0.00     0.103 C 
ATOM     13  C   UNL A   1      31.816  25.660  22.308  1.00  0.00     0.019 C 
ATOM     14  C   UNL A   1      31.030  26.924  22.623  1.00  0.00     0.034 C 
BRANCH  11  15
ATOM     15  S   UNL A   1      31.046  24.872  25.848  1.00  0.00     0.243 S 
ATOM     16  O   UNL A   1      30.101  23.870  26.299  1.00  0.00    -0.207 OA
ATOM     17  O   UNL A   1      31.261  26.098  26.580  1.00  0.00    -0.207 OA
BRANCH  15  18
ATOM     18  C   UNL A   1      32.635  24.057  25.785  1.00  0.00     0.084 A 
ATOM     19  C   UNL A   1      37.574  22.647  25.506  1.00  0.00     0.154 C 
ATOM     20  N   UNL A   1      36.299  21.954  25.383  1.00  0.00    -0.305 N 
ATOM     21  C   UNL A   1      36.338  20.611  25.013  1.00  0.00     0.316 A 
ATOM     22  C   UNL A   1      35.069  22.645  25.544  1.00  0.00     0.068 A 
ATOM     23  O   UNL A   1      37.380  20.005  24.777  1.00  0.00    -0.263 OA
ATOM     24  C   UNL A   1      35.007  19.860  24.892  1.00  0.00     0.316 A 
ATOM     25  C   UNL A   1      33.845  21.978  25.352  1.00  0.00     0.069 A 
ATOM     26  C   UNL A   1      35.046  24.003  25.893  1.00  0.00     0.030 A 
ATOM     27  O   UNL A   1      35.033  18.655  24.656  1.00  0.00    -0.263 OA
ATOM     28  N   UNL A   1      33.830  20.590  25.054  1.00  0.00    -0.305 N 
ATOM     29  C   UNL A   1      32.640  22.698  25.461  1.00  0.00     0.050 A 
ATOM     30  C   UNL A   1      33.842  24.694  26.035  1.00  0.00     0.024 A 
ATOM     31  C   UNL A   1      32.566  19.877  24.942  1.00  0.00     0.154 C 
ENDBRANCH  15  18
ENDBRANCH  11  15
ENDBRANCH   8  10
ENDBRANCH   7   8
ENDBRANCH   6   7
ENDBRANCH   5   6
ENDBRANCH   4   5
ENDBRANCH   3   4
ENDBRANCH   2   3
ENDBRANCH   1   2
BRANCH   1  32
ATOM     32  C   UNL A   1      31.001  30.035  25.089  1.00  0.00     0.188 C 
BRANCH  32  33
ATOM     33  C   UNL A   1      31.338  31.115  26.142  1.00  0.00     0.188 C 
BRANCH  33  34
ATOM     34  O   UNL A   1      32.177  30.654  27.189  1.00  0.00    -0.376 OA
BRANCH  34  35
ATOM     35  C   UNL A   1      33.568  30.890  27.114  1.00  0.00     0.202 C 
BRANCH  35  36
ATOM     36  C   UNL A   1      34.144  32.110  27.844  1.00  0.00     0.261 C 
BRANCH  36  37
ATOM     37  O   UNL A   1      33.363  33.308  27.807  1.00  0.00    -0.460 OA
BRANCH  37  38
ATOM     38  C   UNL A   1      33.497  34.183  28.828  1.00  0.00     0.338 C 
ATOM     39  O   UNL A   1      32.714  35.052  29.164  1.00  0.00    -0.246 OA
BRANCH  38  40
ATOM     40  C   UNL A   1      34.681  33.744  29.597  1.00  0.00     0.060 A 
ATOM     41  C   UNL A   1      34.510  32.992  30.762  1.00  0.00     0.016 A 
ATOM     42  C   UNL A   1      35.959  34.168  29.205  1.00  0.00     0.016 A 
ATOM     43  C   UNL A   1      35.625  32.640  31.522  1.00  0.00     0.010 A 
ATOM     44  C   UNL A   1      37.071  33.839  29.983  1.00  0.00     0.010 A 
ATOM     45  C   UNL A   1      36.913  33.045  31.128  1.00  0.00    -0.014 A 
BRANCH  45  46
ATOM     46  C   UNL A   1      38.094  32.424  31.770  1.00  0.00     0.031 A 
ATOM     47  C   UNL A   1      38.628  32.869  33.093  1.00  0.00     0.074 A 
ATOM     48  C   UNL A   1      38.685  31.419  31.098  1.00  0.00     0.049 A 
ATOM     49  N   UNL A   1      39.595  32.341  33.801  1.00  0.00    -0.248 NA
ATOM     50  C   UNL A   1      38.013  34.056  33.698  1.00  0.00     0.031 C 
ATOM     51  C   UNL A   1      38.260  30.936  29.784  1.00  0.00     0.029 A 
ATOM     52  N   UNL A   1      39.748  30.618  31.423  1.00  0.00    -0.354 N 
ATOM     53  C   UNL A   1      39.692  33.113  34.949  1.00  0.00     0.074 A 
ATOM     54  C   UNL A   1      38.717  34.178  34.818  1.00  0.00     0.031 C 
ATOM     55  C   UNL A   1      39.029  29.899  29.428  1.00  0.00     0.029 A 
ATOM     56  C   UNL A   1      40.019  29.665  30.475  1.00  0.00     0.049 A 
ATOM     57  H   UNL A   1      40.265  30.718  32.255  1.00  0.00     0.167 HD
ATOM     58  C   UNL A   1      40.509  32.928  36.016  1.00  0.00     0.037 A 
ATOM     59  C   UNL A   1      40.955  28.699  30.452  1.00  0.00     0.037 A 
ATOM     60  C   UNL A   1      41.490  31.873  36.117  1.00  0.00     0.049 A 
ATOM     61  C   UNL A   1      41.875  28.546  31.628  1.00  0.00     0.074 A 
ATOM     62  C   UNL A   1      42.338  31.584  37.173  1.00  0.00     0.029 A 
ATOM     63  N   UNL A   1      41.771  30.948  35.120  1.00  0.00    -0.354 N 
ATOM     64  N   UNL A   1      41.902  29.228  32.746  1.00  0.00    -0.248 NA
ATOM     65  C   UNL A   1      42.885  27.485  31.543  1.00  0.00     0.031 C 
ATOM     66  C   UNL A   1      43.172  30.527  36.792  1.00  0.00     0.029 A 
ATOM     67  C   UNL A   1      42.801  30.111  35.524  1.00  0.00     0.049 A 
ATOM     68  H   UNL A   1      41.306  30.894  34.254  1.00  0.00     0.167 HD
ATOM     69  C   UNL A   1      42.917  28.668  33.509  1.00  0.00     0.074 A 
ATOM     70  C   UNL A   1      43.468  27.577  32.730  1.00  0.00     0.031 C 
ATOM     71  C   UNL A   1      43.351  29.029  34.741  1.00  0.00     0.037 A 
BRANCH  58  72
ATOM     72  C   UNL A   1      40.380  33.877  37.175  1.00  0.00     0.064 A 
ATOM     73  C   UNL A   1      41.166  35.036  37.261  1.00  0.00     0.173 A 
ATOM     74  C   UNL A   1      39.402  33.677  38.162  1.00  0.00     0.173 A 
ATOM     75  F   UNL A   1      42.115  35.278  36.344  1.00  0.00    -0.203 F 
ATOM     76  C   UNL A   1      40.990  35.950  38.299  1.00  0.00     0.198 A 
ATOM     77  C   UNL A   1      39.208  34.607  39.181  1.00  0.00     0.198 A 
ATOM     78  F   UNL A   1      38.612  32.593  38.123  1.00  0.00    -0.203 F 
ATOM     79  F   UNL A   1      41.775  37.033  38.375  1.00  0.00    -0.200 F 
ATOM     80  C   UNL A   1      40.005  35.739  39.252  1.00  0.00     0.200 A 
ATOM     81  F   UNL A   1      38.242  34.413  40.089  1.00  0.00    -0.200 F 
ATOM     82  F   UNL A   1      39.824  36.627  40.239  1.00  0.00    -0.200 F 
ENDBRANCH  58  72
BRANCH  59  83
ATOM     83  C   UNL A   1      41.014  27.779  29.289  1.00  0.00     0.064 A 
ATOM     84  C   UNL A   1      40.067  26.760  29.132  1.00  0.00     0.173 A 
ATOM     85  C   UNL A   1      41.976  27.943  28.280  1.00  0.00     0.173 A 
ATOM     86  F   UNL A   1      39.135  26.560  30.076  1.00  0.00    -0.203 F 
ATOM     87  C   UNL A   1      40.082  25.933  28.011  1.00  0.00     0.198 A 
ATOM     88  C   UNL A   1      41.971  27.135  27.146  1.00  0.00     0.198 A 
ATOM     89  F   UNL A   1      42.895  28.914  28.379  1.00  0.00    -0.203 F 
ATOM     90  F   UNL A   1      39.180  24.949  27.896  1.00  0.00    -0.200 F 
ATOM     91  C   UNL A   1      41.026  26.129  27.014  1.00  0.00     0.200 A 
ATOM     92  F   UNL A   1      42.869  27.343  26.174  1.00  0.00    -0.200 F 
ATOM     93  F   UNL A   1      41.025  25.348  25.926  1.00  0.00    -0.200 F 
ENDBRANCH  59  83
BRANCH  71  94
ATOM     94  C   UNL A   1      44.474  28.233  35.342  1.00  0.00     0.064 A 
ATOM     95  C   UNL A   1      45.814  28.616  35.185  1.00  0.00     0.173 A 
ATOM     96  C   UNL A   1      44.204  27.109  36.140  1.00  0.00     0.173 A 
ATOM     97  F   UNL A   1      46.129  29.673  34.420  1.00  0.00    -0.203 F 
ATOM     98  C   UNL A   1      46.842  27.896  35.790  1.00  0.00     0.198 A 
ATOM     99  C   UNL A   1      45.232  26.411  36.770  1.00  0.00     0.198 A 
ATOM    100  F   UNL A   1      42.940  26.700  36.327  1.00  0.00    -0.203 F 
ATOM    101  F   UNL A   1      48.117  28.258  35.591  1.00  0.00    -0.200 F 
ATOM    102  C   UNL A   1      46.549  26.802  36.590  1.00  0.00     0.200 A 
ATOM    103  F   UNL A   1      44.944  25.365  37.557  1.00  0.00    -0.200 F 
ATOM    104  F   UNL A   1      47.538  26.122  37.186  1.00  0.00    -0.200 F 
ENDBRANCH  71  94
ENDBRANCH  45  46
ENDBRANCH  38  40
ENDBRANCH  37  38
ENDBRANCH  36  37
ENDBRANCH  35  36
ENDBRANCH  34  35
ENDBRANCH  33  34
ENDBRANCH  32  33
ENDBRANCH   1  32
TORSDOF 22
ENDMDL
MODEL 2
REMARK VINA RESULT:     -10.9      0.454      6.995
REMARK SMILES Cn1c(=O)c(=O)n(C)c2cc(S(=O)(=O)N3CCC[C@H]3C(=O)OCCOCCOCCOCCOC(=O)c3ccc(-c4c5nc(c(-c6c(F)c(F)c(F)c(F)c6F)c6ccc([nH]6)c(-c6c(F)c(F)c(F)c(F)c6F)c6nc(c(-c7c(F)c(F)c(F)c(F)c7F)c7ccc4[nH]7)C=C6)C=C5)cc3)ccc21
REMARK SMILES IDX 28 1 27 2 26 3 25 4 24 5 23 6 22 7 20 8 21 9 19 10 15 11
REMARK SMILES IDX 16 12 17 13 18 14 12 15 13 16 14 17 11 18 1 19 2 20 3 21
REMARK SMILES IDX 102 22 4 23 5 24 9 25 101 26 6 27 7 28 10 29 100 30 8 31
REMARK SMILES IDX 29 32 30 33 31 34 32 35 33 36 34 37 35 38 36 39 37 40 38 41
REMARK SMILES IDX 99 42 39 43 98 44 40 45 41 46 42 47 92 48 43 49 97 50 91 51
REMARK SMILES IDX 93 52 44 53 96 54 90 55 89 56 45 58 77 59 57 60 76 61 58 62
REMARK SMILES IDX 61 63 75 64 94 65 59 66 60 67 74 69 95 70 62 71 46 72 47 73
REMARK SMILES IDX 55 74 48 75 49 76 53 77 56 78 50 79 51 80 54 81 52 82 78 83
REMARK SMILES IDX 79 84 87 85 80 86 81 87 85 88 88 89 82 90 83 91 86 92 84 93
REMARK SMILES IDX 63 94 64 95 72 96 65 97 66 98 70 99 73 100 67 101 68 102
REMARK SMILES IDX 71 103 69 104
REMARK H PARENT 93 57 61 68
REMARK Flexibility Score: inf
ROOT
ATOM      1  O   UNL A   1      30.630  29.912  23.926  1.00  0.00    -0.377 OA
ENDROOT
BRANCH   1   2
ATOM      2  C   UNL A   1      29.696  30.939  23.627  1.00  0.00     0.188 C 
BRANCH   2   3
ATOM      3  C   UNL A   1      29.083  31.068  22.210  1.00  0.00     0.188 C 
BRANCH   3   4
ATOM      4  O   UNL A   1      27.760  30.570  22.096  1.00  0.00    -0.376 OA
BRANCH   4   5
ATOM      5  C   UNL A   1      27.233  29.881  23.218  1.00  0.00     0.202 C 
BRANCH   5   6
ATOM      6  C   UNL A   1      27.212  28.350  23.126  1.00  0.00     0.261 C 
BRANCH   6   7
ATOM      7  O   UNL A   1      28.506  27.724  23.113  1.00  0.00    -0.462 OA
BRANCH   7   8
ATOM      8  C   UNL A   1      28.756  26.734  24.016  1.00  0.00     0.324 C 
ATOM      9  O   UNL A   1      27.895  26.089  24.599  1.00  0.00    -0.250 OA
BRANCH   8  10
ATOM     10  C   UNL A   1      30.262  26.452  24.051  1.00  0.00     0.183 C 
ATOM     11  N   UNL A   1      30.533  25.050  24.388  1.00  0.00    -0.184 NA
ATOM     12  C   UNL A   1      30.964  24.315  23.200  1.00  0.00     0.103 C 
ATOM     13  C   UNL A   1      31.676  25.357  22.363  1.00  0.00     0.019 C 
ATOM     14  C   UNL A   1      30.943  26.652  22.681  1.00  0.00     0.034 C 
BRANCH  11  15
ATOM     15  S   UNL A   1      30.992  24.651  25.938  1.00  0.00     0.243 S 
ATOM     16  O   UNL A   1      30.083  23.620  26.401  1.00  0.00    -0.207 OA
ATOM     17  O   UNL A   1      31.180  25.882  26.669  1.00  0.00    -0.207 OA
BRANCH  15  18
ATOM     18  C   UNL A   1      32.603  23.884  25.850  1.00  0.00     0.084 A 
ATOM     19  C   UNL A   1      37.578  22.624  25.502  1.00  0.00     0.154 C 
ATOM     20  N   UNL A   1      36.323  21.893  25.390  1.00  0.00    -0.305 N 
ATOM     21  C   UNL A   1      36.396  20.555  25.010  1.00  0.00     0.316 A 
ATOM     22  C   UNL A   1      35.074  22.547  25.570  1.00  0.00     0.068 A 
ATOM     23  O   UNL A   1      37.454  19.982  24.759  1.00  0.00    -0.263 OA
ATOM     24  C   UNL A   1      35.087  19.765  24.901  1.00  0.00     0.316 A 
ATOM     25  C   UNL A   1      33.869  21.845  25.389  1.00  0.00     0.069 A 
ATOM     26  C   UNL A   1      35.016  23.901  25.929  1.00  0.00     0.030 A 
ATOM     27  O   UNL A   1      35.145  18.563  24.656  1.00  0.00    -0.263 OA
ATOM     28  N   UNL A   1      33.891  20.459  25.082  1.00  0.00    -0.305 N 
ATOM     29  C   UNL A   1      32.644  22.528  25.517  1.00  0.00     0.050 A 
ATOM     30  C   UNL A   1      33.793  24.556  26.089  1.00  0.00     0.024 A 
ATOM     31  C   UNL A   1      32.647  19.709  24.980  1.00  0.00     0.154 C 
ENDBRANCH  15  18
ENDBRANCH  11  15
ENDBRANCH   8  10
ENDBRANCH   7   8
ENDBRANCH   6   7
ENDBRANCH   5   6
ENDBRANCH   4   5
ENDBRANCH   3   4
ENDBRANCH   2   3
ENDBRANCH   1   2
BRANCH   1  32
ATOM     32  C   UNL A   1      31.360  29.982  25.141  1.00  0.00     0.188 C 
BRANCH  32  33
ATOM     33  C   UNL A   1      31.201  31.231  26.038  1.00  0.00     0.188 C 
BRANCH  33  34
ATOM     34  O   UNL A   1      31.895  31.143  27.272  1.00  0.00    -0.376 OA
BRANCH  34  35
ATOM     35  C   UNL A   1      33.302  31.276  27.283  1.00  0.00     0.202 C 
BRANCH  35  36
ATOM     36  C   UNL A   1      33.907  32.636  27.648  1.00  0.00     0.261 C 
BRANCH  36  37
ATOM     37  O   UNL A   1      32.986  33.684  27.964  1.00  0.00    -0.460 OA
BRANCH  37  38
ATOM     38  C   UNL A   1      33.340  34.571  28.921  1.00  0.00     0.338 C 
ATOM     39  O   UNL A   1      32.743  35.578  29.252  1.00  0.00    -0.246 OA
BRANCH  38  40
ATOM     40  C   UNL A   1      34.486  33.971  29.639  1.00  0.00     0.060 A 
ATOM     41  C   UNL A   1      34.255  33.147  30.742  1.00  0.00     0.016 A 
ATOM     42  C   UNL A   1      35.794  34.311  29.266  1.00  0.00     0.016 A 
ATOM     43  C   UNL A   1      35.338  32.640  31.459  1.00  0.00     0.010 A 
ATOM     44  C   UNL A   1      36.877  33.826  30.002  1.00  0.00     0.010 A 
ATOM     45  C   UNL A   1      36.655  32.960  31.083  1.00  0.00    -0.014 A 
BRANCH  45  46
ATOM     46  C   UNL A   1      37.780  32.190  31.660  1.00  0.00     0.031 A 
ATOM     47  C   UNL A   1      38.444  31.060  30.943  1.00  0.00     0.074 A 
ATOM     48  C   UNL A   1      38.191  32.554  32.888  1.00  0.00     0.049 A 
ATOM     49  N   UNL A   1      39.500  30.373  31.303  1.00  0.00    -0.248 NA
ATOM     50  C   UNL A   1      37.853  30.636  29.667  1.00  0.00     0.031 C 
ATOM     51  C   UNL A   1      37.583  33.622  33.684  1.00  0.00     0.029 A 
ATOM     52  N   UNL A   1      39.212  32.088  33.674  1.00  0.00    -0.354 N 
ATOM     53  C   UNL A   1      39.719  29.451  30.290  1.00  0.00     0.074 A 
ATOM     54  C   UNL A   1      38.653  29.634  29.323  1.00  0.00     0.031 C 
ATOM     55  C   UNL A   1      38.264  33.754  34.830  1.00  0.00     0.029 A 
ATOM     56  C   UNL A   1      39.335  32.763  34.861  1.00  0.00     0.049 A 
ATOM     57  H   UNL A   1      39.799  31.342  33.411  1.00  0.00     0.167 HD
ATOM     58  C   UNL A   1      40.730  28.554  30.178  1.00  0.00     0.037 A 
ATOM     59  C   UNL A   1      40.219  32.611  35.863  1.00  0.00     0.037 A 
ATOM     60  C   UNL A   1      41.769  28.372  31.165  1.00  0.00     0.049 A 
ATOM     61  C   UNL A   1      41.301  31.580  35.732  1.00  0.00     0.074 A 
ATOM     62  C   UNL A   1      42.855  27.514  31.123  1.00  0.00     0.029 A 
ATOM     63  N   UNL A   1      41.842  29.042  32.379  1.00  0.00    -0.354 N 
ATOM     64  N   UNL A   1      41.550  30.770  34.733  1.00  0.00    -0.248 NA
ATOM     65  C   UNL A   1      42.229  31.447  36.862  1.00  0.00     0.031 C 
ATOM     66  C   UNL A   1      43.547  27.619  32.334  1.00  0.00     0.029 A 
ATOM     67  C   UNL A   1      42.933  28.592  33.107  1.00  0.00     0.049 A 
ATOM     68  H   UNL A   1      41.210  29.736  32.679  1.00  0.00     0.167 HD
ATOM     69  C   UNL A   1      42.675  30.046  35.101  1.00  0.00     0.074 A 
ATOM     70  C   UNL A   1      43.069  30.527  36.410  1.00  0.00     0.031 C 
ATOM     71  C   UNL A   1      43.318  29.070  34.414  1.00  0.00     0.037 A 
BRANCH  58  72
ATOM     72  C   UNL A   1      40.779  27.698  28.944  1.00  0.00     0.064 A 
ATOM     73  C   UNL A   1      39.977  26.553  28.816  1.00  0.00     0.173 A 
ATOM     74  C   UNL A   1      41.565  28.071  27.842  1.00  0.00     0.173 A 
ATOM     75  F   UNL A   1      39.206  26.151  29.837  1.00  0.00    -0.203 F 
ATOM     76  C   UNL A   1      39.973  25.806  27.639  1.00  0.00     0.198 A 
ATOM     77  C   UNL A   1      41.536  27.339  26.657  1.00  0.00     0.198 A 
ATOM     78  F   UNL A   1      42.340  29.164  27.903  1.00  0.00    -0.203 F 
ATOM     79  F   UNL A   1      39.223  24.699  27.554  1.00  0.00    -0.200 F 
ATOM     80  C   UNL A   1      40.745  26.205  26.559  1.00  0.00     0.200 A 
ATOM     81  F   UNL A   1      42.265  27.738  25.606  1.00  0.00    -0.200 F 
ATOM     82  F   UNL A   1      40.725  25.496  25.422  1.00  0.00    -0.200 F 
ENDBRANCH  58  72
BRANCH  59  83
ATOM     83  C   UNL A   1      40.130  33.505  37.045  1.00  0.00     0.064 A 
ATOM     84  C   UNL A   1      40.923  34.656  37.135  1.00  0.00     0.173 A 
ATOM     85  C   UNL A   1      39.207  33.262  38.074  1.00  0.00     0.173 A 
ATOM     86  F   UNL A   1      41.826  34.923  36.180  1.00  0.00    -0.203 F 
ATOM     87  C   UNL A   1      40.800  35.529  38.212  1.00  0.00     0.198 A 
ATOM     88  C   UNL A   1      39.064  34.152  39.135  1.00  0.00     0.198 A 
ATOM     89  F   UNL A   1      38.417  32.180  38.025  1.00  0.00    -0.203 F 
ATOM     90  F   UNL A   1      41.587  36.611  38.288  1.00  0.00    -0.200 F 
ATOM     91  C   UNL A   1      39.862  35.283  39.205  1.00  0.00     0.200 A 
ATOM     92  F   UNL A   1      38.141  33.923  40.079  1.00  0.00    -0.200 F 
ATOM     93  F   UNL A   1      39.730  36.136  40.230  1.00  0.00    -0.200 F 
ENDBRANCH  59  83
BRANCH  71  94
ATOM     94  C   UNL A   1      44.530  28.456  35.054  1.00  0.00     0.064 A 
ATOM     95  C   UNL A   1      44.453  27.257  35.778  1.00  0.00     0.173 A 
ATOM     96  C   UNL A   1      45.797  29.038  34.887  1.00  0.00     0.173 A 
ATOM     97  F   UNL A   1      43.264  26.667  35.981  1.00  0.00    -0.203 F 
ATOM     98  C   UNL A   1      45.593  26.672  36.324  1.00  0.00     0.198 A 
ATOM     99  C   UNL A   1      46.940  28.433  35.405  1.00  0.00     0.198 A 
ATOM    100  F   UNL A   1      45.930  30.182  34.199  1.00  0.00    -0.203 F 
ATOM    101  F   UNL A   1      45.487  25.549  37.046  1.00  0.00    -0.200 F 
ATOM    102  C   UNL A   1      46.836  27.255  36.126  1.00  0.00     0.200 A 
ATOM    103  F   UNL A   1      48.142  28.989  35.198  1.00  0.00    -0.200 F 
ATOM    104  F   UNL A   1      47.935  26.681  36.636  1.00  0.00    -0.200 F 
ENDBRANCH  71  94
ENDBRANCH  45  46
ENDBRANCH  38  40
ENDBRANCH  37  38
ENDBRANCH  36  37
ENDBRANCH  35  36
ENDBRANCH  34  35
ENDBRANCH  33  34
ENDBRANCH  32  33
ENDBRANCH   1  32
TORSDOF 22
ENDMDL
MODEL 3
REMARK VINA RESULT:     -10.8      2.504      4.138
REMARK SMILES Cn1c(=O)c(=O)n(C)c2cc(S(=O)(=O)N3CCC[C@H]3C(=O)OCCOCCOCCOCCOC(=O)c3ccc(-c4c5nc(c(-c6c(F)c(F)c(F)c(F)c6F)c6ccc([nH]6)c(-c6c(F)c(F)c(F)c(F)c6F)c6nc(c(-c7c(F)c(F)c(F)c(F)c7F)c7ccc4[nH]7)C=C6)C=C5)cc3)ccc21
REMARK SMILES IDX 28 1 27 2 26 3 25 4 24 5 23 6 22 7 20 8 21 9 19 10 15 11
REMARK SMILES IDX 16 12 17 13 18 14 12 15 13 16 14 17 11 18 1 19 2 20 3 21
REMARK SMILES IDX 102 22 4 23 5 24 9 25 101 26 6 27 7 28 10 29 100 30 8 31
REMARK SMILES IDX 29 32 30 33 31 34 32 35 33 36 34 37 35 38 36 39 37 40 38 41
REMARK SMILES IDX 99 42 39 43 98 44 40 45 41 46 42 47 92 48 43 49 97 50 91 51
REMARK SMILES IDX 93 52 44 53 96 54 90 55 89 56 45 58 77 59 57 60 76 61 58 62
REMARK SMILES IDX 61 63 75 64 94 65 59 66 60 67 74 69 95 70 62 71 46 72 47 73
REMARK SMILES IDX 55 74 48 75 49 76 53 77 56 78 50 79 51 80 54 81 52 82 78 83
REMARK SMILES IDX 79 84 87 85 80 86 81 87 85 88 88 89 82 90 83 91 86 92 84 93
REMARK SMILES IDX 63 94 64 95 72 96 65 97 66 98 70 99 73 100 67 101 68 102
REMARK SMILES IDX 71 103 69 104
REMARK H PARENT 93 57 61 68
REMARK Flexibility Score: inf
ROOT
ATOM      1  O   UNL A   1      31.526  26.843  22.347  1.00  0.00    -0.377 OA
ENDROOT
BRANCH   1   2
ATOM      2  C   UNL A   1      30.282  27.431  22.699  1.00  0.00     0.188 C 
BRANCH   2   3
ATOM      3  C   UNL A   1      29.496  26.944  23.941  1.00  0.00     0.188 C 
BRANCH   3   4
ATOM      4  O   UNL A   1      30.300  26.684  25.080  1.00  0.00    -0.376 OA
BRANCH   4   5
ATOM      5  C   UNL A   1      29.832  25.699  25.987  1.00  0.00     0.202 C 
BRANCH   5   6
ATOM      6  C   UNL A   1      30.623  24.385  26.027  1.00  0.00     0.261 C 
BRANCH   6   7
ATOM      7  O   UNL A   1      31.677  24.279  25.055  1.00  0.00    -0.462 OA
BRANCH   7   8
ATOM      8  C   UNL A   1      31.491  23.459  23.983  1.00  0.00     0.324 C 
ATOM      9  O   UNL A   1      30.549  23.530  23.206  1.00  0.00    -0.250 OA
BRANCH   8  10
ATOM     10  C   UNL A   1      32.720  22.559  23.817  1.00  0.00     0.183 C 
ATOM     11  N   UNL A   1      33.741  22.860  24.827  1.00  0.00    -0.184 NA
ATOM     12  C   UNL A   1      33.774  21.812  25.845  1.00  0.00     0.103 C 
ATOM     13  C   UNL A   1      33.366  20.560  25.096  1.00  0.00     0.019 C 
ATOM     14  C   UNL A   1      32.404  21.063  24.030  1.00  0.00     0.034 C 
BRANCH  11  15
ATOM     15  S   UNL A   1      35.060  23.786  24.412  1.00  0.00     0.243 S 
ATOM     16  O   UNL A   1      35.032  24.969  25.250  1.00  0.00    -0.207 OA
ATOM     17  O   UNL A   1      35.096  23.876  22.971  1.00  0.00    -0.207 OA
BRANCH  15  18
ATOM     18  C   UNL A   1      36.530  22.885  24.881  1.00  0.00     0.084 A 
ATOM     19  C   UNL A   1      40.241  19.480  25.925  1.00  0.00     0.154 C 
ATOM     20  N   UNL A   1      39.986  20.866  26.291  1.00  0.00    -0.305 N 
ATOM     21  C   UNL A   1      40.854  21.452  27.211  1.00  0.00     0.316 A 
ATOM     22  C   UNL A   1      38.846  21.557  25.801  1.00  0.00     0.068 A 
ATOM     23  O   UNL A   1      41.797  20.855  27.724  1.00  0.00    -0.263 OA
ATOM     24  C   UNL A   1      40.610  22.915  27.599  1.00  0.00     0.316 A 
ATOM     25  C   UNL A   1      38.574  22.873  26.220  1.00  0.00     0.069 A 
ATOM     26  C   UNL A   1      37.968  20.946  24.895  1.00  0.00     0.030 A 
ATOM     27  O   UNL A   1      41.421  23.469  28.337  1.00  0.00    -0.263 OA
ATOM     28  N   UNL A   1      39.473  23.542  27.093  1.00  0.00    -0.305 N 
ATOM     29  C   UNL A   1      37.407  23.517  25.765  1.00  0.00     0.050 A 
ATOM     30  C   UNL A   1      36.836  21.612  24.423  1.00  0.00     0.024 A 
ATOM     31  C   UNL A   1      39.242  24.932  27.458  1.00  0.00     0.154 C 
ENDBRANCH  15  18
ENDBRANCH  11  15
ENDBRANCH   8  10
ENDBRANCH   7   8
ENDBRANCH   6   7
ENDBRANCH   5   6
ENDBRANCH   4   5
ENDBRANCH   3   4
ENDBRANCH   2   3
ENDBRANCH   1   2
BRANCH   1  32
ATOM     32  C   UNL A   1      32.668  27.676  22.227  1.00  0.00     0.188 C 
BRANCH  32  33
ATOM     33  C   UNL A   1      33.811  27.531  23.258  1.00  0.00     0.188 C 
BRANCH  33  34
ATOM     34  O   UNL A   1      33.373  27.553  24.606  1.00  0.00    -0.376 OA
BRANCH  34  35
ATOM     35  C   UNL A   1      33.297  28.790  25.287  1.00  0.00     0.202 C 
BRANCH  35  36
ATOM     36  C   UNL A   1      34.062  28.948  26.607  1.00  0.00     0.261 C 
BRANCH  36  37
ATOM     37  O   UNL A   1      33.463  29.787  27.599  1.00  0.00    -0.460 OA
BRANCH  37  38
ATOM     38  C   UNL A   1      33.945  31.042  27.741  1.00  0.00     0.338 C 
ATOM     39  O   UNL A   1      33.330  32.087  27.635  1.00  0.00    -0.246 OA
BRANCH  38  40
ATOM     40  C   UNL A   1      35.322  30.901  28.261  1.00  0.00     0.060 A 
ATOM     41  C   UNL A   1      36.249  31.924  28.051  1.00  0.00     0.016 A 
ATOM     42  C   UNL A   1      35.713  29.702  28.875  1.00  0.00     0.016 A 
ATOM     43  C   UNL A   1      37.565  31.757  28.481  1.00  0.00     0.010 A 
ATOM     44  C   UNL A   1      37.037  29.526  29.280  1.00  0.00     0.010 A 
ATOM     45  C   UNL A   1      37.963  30.566  29.115  1.00  0.00    -0.014 A 
BRANCH  45  46
ATOM     46  C   UNL A   1      39.264  30.522  29.820  1.00  0.00     0.031 A 
ATOM     47  C   UNL A   1      39.501  31.197  31.132  1.00  0.00     0.074 A 
ATOM     48  C   UNL A   1      40.251  29.834  29.218  1.00  0.00     0.049 A 
ATOM     49  N   UNL A   1      40.566  31.149  31.893  1.00  0.00    -0.248 NA
ATOM     50  C   UNL A   1      38.419  32.037  31.658  1.00  0.00     0.031 C 
ATOM     51  C   UNL A   1      40.128  29.170  27.919  1.00  0.00     0.029 A 
ATOM     52  N   UNL A   1      41.535  29.565  29.613  1.00  0.00    -0.354 N 
ATOM     53  C   UNL A   1      40.278  31.931  33.002  1.00  0.00     0.074 A 
ATOM     54  C   UNL A   1      38.954  32.483  32.789  1.00  0.00     0.031 C 
ATOM     55  C   UNL A   1      41.276  28.540  27.640  1.00  0.00     0.029 A 
ATOM     56  C   UNL A   1      42.223  28.780  28.724  1.00  0.00     0.049 A 
ATOM     57  H   UNL A   1      41.924  29.902  30.452  1.00  0.00     0.167 HD
ATOM     58  C   UNL A   1      41.046  32.144  34.099  1.00  0.00     0.037 A 
ATOM     59  C   UNL A   1      43.477  28.295  28.777  1.00  0.00     0.037 A 
ATOM     60  C   UNL A   1      42.373  31.603  34.281  1.00  0.00     0.049 A 
ATOM     61  C   UNL A   1      44.321  28.585  29.983  1.00  0.00     0.074 A 
ATOM     62  C   UNL A   1      43.214  31.734  35.373  1.00  0.00     0.029 A 
ATOM     63  N   UNL A   1      43.061  30.846  33.342  1.00  0.00    -0.354 N 
ATOM     64  N   UNL A   1      44.009  29.255  31.065  1.00  0.00    -0.248 NA
ATOM     65  C   UNL A   1      45.685  28.044  29.981  1.00  0.00     0.031 C 
ATOM     66  C   UNL A   1      44.430  31.112  35.070  1.00  0.00     0.029 A 
ATOM     67  C   UNL A   1      44.327  30.533  33.816  1.00  0.00     0.049 A 
ATOM     68  H   UNL A   1      42.702  30.571  32.467  1.00  0.00     0.167 HD
ATOM     69  C   UNL A   1      45.129  29.200  31.883  1.00  0.00     0.074 A 
ATOM     70  C   UNL A   1      46.121  28.414  31.178  1.00  0.00     0.031 C 
ATOM     71  C   UNL A   1      45.314  29.754  33.106  1.00  0.00     0.037 A 
BRANCH  58  72
ATOM     72  C   UNL A   1      40.480  32.993  35.203  1.00  0.00     0.064 A 
ATOM     73  C   UNL A   1      40.574  34.392  35.171  1.00  0.00     0.173 A 
ATOM     74  C   UNL A   1      39.755  32.411  36.255  1.00  0.00     0.173 A 
ATOM     75  F   UNL A   1      41.253  35.001  34.187  1.00  0.00    -0.203 F 
ATOM     76  C   UNL A   1      39.982  35.176  36.159  1.00  0.00     0.198 A 
ATOM     77  C   UNL A   1      39.139  33.199  37.225  1.00  0.00     0.198 A 
ATOM     78  F   UNL A   1      39.620  31.079  36.329  1.00  0.00    -0.203 F 
ATOM     79  F   UNL A   1      40.114  36.509  36.123  1.00  0.00    -0.200 F 
ATOM     80  C   UNL A   1      39.257  34.579  37.179  1.00  0.00     0.200 A 
ATOM     81  F   UNL A   1      38.421  32.622  38.199  1.00  0.00    -0.200 F 
ATOM     82  F   UNL A   1      38.672  35.335  38.119  1.00  0.00    -0.200 F 
ENDBRANCH  58  72
BRANCH  59  83
ATOM     83  C   UNL A   1      43.969  27.444  27.665  1.00  0.00     0.064 A 
ATOM     84  C   UNL A   1      44.609  28.013  26.556  1.00  0.00     0.173 A 
ATOM     85  C   UNL A   1      43.870  26.046  27.720  1.00  0.00     0.173 A 
ATOM     86  F   UNL A   1      44.718  29.345  26.456  1.00  0.00    -0.203 F 
ATOM     87  C   UNL A   1      45.127  27.214  25.540  1.00  0.00     0.198 A 
ATOM     88  C   UNL A   1      44.415  25.248  26.718  1.00  0.00     0.198 A 
ATOM     89  F   UNL A   1      43.278  25.455  28.768  1.00  0.00    -0.203 F 
ATOM     90  F   UNL A   1      45.712  27.783  24.477  1.00  0.00    -0.200 F 
ATOM     91  C   UNL A   1      45.040  25.832  25.627  1.00  0.00     0.200 A 
ATOM     92  F   UNL A   1      44.350  23.913  26.818  1.00  0.00    -0.200 F 
ATOM     93  F   UNL A   1      45.558  25.064  24.659  1.00  0.00    -0.200 F 
ENDBRANCH  59  83
BRANCH  71  94
ATOM     94  C   UNL A   1      46.637  29.524  33.778  1.00  0.00     0.064 A 
ATOM     95  C   UNL A   1      47.717  30.402  33.597  1.00  0.00     0.173 A 
ATOM     96  C   UNL A   1      46.810  28.450  34.666  1.00  0.00     0.173 A 
ATOM     97  F   UNL A   1      47.611  31.436  32.748  1.00  0.00    -0.203 F 
ATOM     98  C   UNL A   1      48.923  30.204  34.266  1.00  0.00     0.198 A 
ATOM     99  C   UNL A   1      48.005  28.274  35.358  1.00  0.00     0.198 A 
ATOM    100  F   UNL A   1      45.809  27.582  34.879  1.00  0.00    -0.203 F 
ATOM    101  F   UNL A   1      49.952  31.033  34.045  1.00  0.00    -0.200 F 
ATOM    102  C   UNL A   1      49.061  29.148  35.154  1.00  0.00     0.200 A 
ATOM    103  F   UNL A   1      48.131  27.263  36.229  1.00  0.00    -0.200 F 
ATOM    104  F   UNL A   1      50.216  28.970  35.810  1.00  0.00    -0.200 F 
ENDBRANCH  71  94
ENDBRANCH  45  46
ENDBRANCH  38  40
ENDBRANCH  37  38
ENDBRANCH  36  37
ENDBRANCH  35  36
ENDBRANCH  34  35
ENDBRANCH  33  34
ENDBRANCH  32  33
ENDBRANCH   1  32
TORSDOF 22
ENDMDL
