MODEL 1
REMARK VINA RESULT:     -10.7      0.000      0.000
REMARK SMILES C=CCn1nc(C(=O)OCCOCCOCCOCCOC(=O)c2ccc(-c3c4nc(c(-c5c(F)c(F)c(F)c(F)c5F)c5ccc([nH]5)c(-c5c(F)c(F)c(F)c(F)c5F)c5nc(c(-c6c(F)c(F)c(F)c(F)c6F)c6ccc3[nH]6)C=C5)C=C4)cc2)c2c1CC[C@@H]([NH+]1CCC(C(C)(C)O)CC1)C2
REMARK SMILES IDX 14 1 13 2 12 3 11 4 10 5 9 6 7 7 8 8 6 9 4 10 5 11 88 12
REMARK SMILES IDX 87 13 89 14 102 15 90 16 91 17 3 18 2 19 1 20 92 21 93 22
REMARK SMILES IDX 101 23 94 25 100 26 95 27 96 28 97 29 98 30 99 31 15 33
REMARK SMILES IDX 16 34 17 35 18 36 19 37 20 38 21 39 22 40 23 41 24 42 25 43
REMARK SMILES IDX 86 44 26 45 85 46 27 47 28 48 29 49 79 50 30 51 84 52 78 53
REMARK SMILES IDX 80 54 31 55 83 56 77 57 76 58 32 60 64 61 44 62 63 63 45 64
REMARK SMILES IDX 48 65 62 66 81 67 46 68 47 69 61 71 82 72 49 73 33 74 34 75
REMARK SMILES IDX 42 76 35 77 36 78 40 79 43 80 37 81 38 82 41 83 39 84 65 85
REMARK SMILES IDX 66 86 74 87 67 88 68 89 72 90 75 91 69 92 70 93 73 94 71 95
REMARK SMILES IDX 50 96 51 97 59 98 52 99 53 100 57 101 60 102 54 103 55 104
REMARK SMILES IDX 58 105 56 106
REMARK H PARENT 92 24 99 32 80 59 48 70
REMARK Flexibility Score: inf
ROOT
ATOM      1  C   UNL A   1      42.154  22.750  27.593  1.00  0.00     0.188 C 
ENDROOT
BRANCH   1   2
ATOM      2  C   UNL A   1      41.721  22.036  26.290  1.00  0.00     0.188 C 
BRANCH   2   3
ATOM      3  O   UNL A   1      40.317  22.001  26.117  1.00  0.00    -0.376 OA
BRANCH   3   4
ATOM      4  C   UNL A   1      39.470  22.892  26.804  1.00  0.00     0.202 C 
BRANCH   4   5
ATOM      5  C   UNL A   1      38.251  23.369  26.015  1.00  0.00     0.261 C 
BRANCH   5   6
ATOM      6  O   UNL A   1      37.124  22.500  26.089  1.00  0.00    -0.458 OA
BRANCH   6   7
ATOM      7  C   UNL A   1      36.923  21.643  25.054  1.00  0.00     0.359 C 
ATOM      8  O   UNL A   1      37.835  21.066  24.455  1.00  0.00    -0.244 OA
BRANCH   7   9
ATOM      9  C   UNL A   1      35.491  21.456  24.804  1.00  0.00     0.174 A 
ATOM     10  N   UNL A   1      33.602  20.524  24.458  1.00  0.00    -0.265 N 
ATOM     11  N   UNL A   1      34.876  20.251  24.838  1.00  0.00    -0.165 NA
ATOM     12  C   UNL A   1      33.512  21.783  23.940  1.00  0.00     0.043 A 
ATOM     13  C   UNL A   1      34.546  22.478  24.516  1.00  0.00     0.014 A 
ATOM     14  C   UNL A   1      32.522  22.345  23.005  1.00  0.00     0.062 C 
ATOM     15  C   UNL A   1      34.609  23.970  24.541  1.00  0.00     0.105 C 
ATOM     16  C   UNL A   1      32.748  23.862  22.851  1.00  0.00     0.072 C 
ATOM     17  C   UNL A   1      33.249  24.620  24.109  1.00  0.00     0.189 C 
BRANCH  10  18
ATOM     18  C   UNL A   1      32.536  19.536  24.633  1.00  0.00     0.171 C 
BRANCH  18  19
ATOM     19  C   UNL A   1      32.264  18.721  23.388  1.00  0.00    -0.011 C 
ATOM     20  C   UNL A   1      32.943  17.630  23.003  1.00  0.00     0.006 C 
ENDBRANCH  18  19
ENDBRANCH  10  18
BRANCH  17  21
ATOM     21  N   UNL A   1      32.330  24.919  25.232  1.00  0.00    -0.332 N 
ATOM     22  C   UNL A   1      30.915  25.152  25.009  1.00  0.00     0.262 C 
ATOM     23  C   UNL A   1      32.819  25.848  26.243  1.00  0.00     0.262 C 
ATOM     24  H   UNL A   1      32.360  23.962  25.583  1.00  0.00     0.348 HD
ATOM     25  C   UNL A   1      30.519  26.585  24.641  1.00  0.00     0.068 C 
ATOM     26  C   UNL A   1      32.722  27.313  25.841  1.00  0.00     0.068 C 
ATOM     27  C   UNL A   1      31.384  27.750  25.192  1.00  0.00     0.031 C 
BRANCH  27  28
ATOM     28  C   UNL A   1      31.603  28.945  24.179  1.00  0.00     0.062 C 
ATOM     29  C   UNL A   1      32.812  28.760  23.252  1.00  0.00     0.042 C 
ATOM     30  C   UNL A   1      30.345  29.181  23.333  1.00  0.00     0.042 C 
BRANCH  28  31
ATOM     31  O   UNL A   1      31.824  30.165  24.892  1.00  0.00    -0.390 OA
ATOM     32  H   UNL A   1      30.973  30.600  25.060  1.00  0.00     0.211 HD
ENDBRANCH  28  31
ENDBRANCH  27  28
ENDBRANCH  17  21
ENDBRANCH   7   9
ENDBRANCH   6   7
ENDBRANCH   5   6
ENDBRANCH   4   5
ENDBRANCH   3   4
ENDBRANCH   2   3
ENDBRANCH   1   2
BRANCH   1  33
ATOM     33  O   UNL A   1      43.194  23.723  27.621  1.00  0.00    -0.377 OA
BRANCH  33  34
ATOM     34  C   UNL A   1      44.531  23.290  27.783  1.00  0.00     0.188 C 
BRANCH  34  35
ATOM     35  C   UNL A   1      45.346  23.150  26.476  1.00  0.00     0.188 C 
BRANCH  35  36
ATOM     36  O   UNL A   1      45.272  24.119  25.442  1.00  0.00    -0.376 OA
BRANCH  36  37
ATOM     37  C   UNL A   1      45.586  25.498  25.528  1.00  0.00     0.202 C 
BRANCH  37  38
ATOM     38  C   UNL A   1      44.632  26.672  25.350  1.00  0.00     0.261 C 
BRANCH  38  39
ATOM     39  O   UNL A   1      43.515  26.668  26.193  1.00  0.00    -0.460 OA
BRANCH  39  40
ATOM     40  C   UNL A   1      42.375  26.341  25.584  1.00  0.00     0.338 C 
ATOM     41  O   UNL A   1      42.219  25.555  24.649  1.00  0.00    -0.246 OA
BRANCH  40  42
ATOM     42  C   UNL A   1      41.326  27.192  26.136  1.00  0.00     0.060 A 
ATOM     43  C   UNL A   1      41.573  28.559  26.045  1.00  0.00     0.016 A 
ATOM     44  C   UNL A   1      40.490  26.626  27.111  1.00  0.00     0.016 A 
ATOM     45  C   UNL A   1      41.282  29.315  27.147  1.00  0.00     0.010 A 
ATOM     46  C   UNL A   1      40.238  27.369  28.227  1.00  0.00     0.010 A 
ATOM     47  C   UNL A   1      40.739  28.666  28.262  1.00  0.00    -0.014 A 
BRANCH  47  48
ATOM     48  C   UNL A   1      40.649  29.409  29.488  1.00  0.00     0.031 A 
ATOM     49  C   UNL A   1      39.448  30.256  29.528  1.00  0.00     0.074 A 
ATOM     50  C   UNL A   1      41.537  29.252  30.484  1.00  0.00     0.049 A 
ATOM     51  N   UNL A   1      39.402  31.541  29.451  1.00  0.00    -0.248 NA
ATOM     52  C   UNL A   1      38.141  29.588  29.425  1.00  0.00     0.031 C 
ATOM     53  C   UNL A   1      42.593  28.249  30.630  1.00  0.00     0.029 A 
ATOM     54  N   UNL A   1      41.602  29.937  31.652  1.00  0.00    -0.354 N 
ATOM     55  C   UNL A   1      38.052  31.856  29.487  1.00  0.00     0.074 A 
ATOM     56  C   UNL A   1      37.333  30.632  29.251  1.00  0.00     0.031 C 
ATOM     57  C   UNL A   1      43.033  28.254  31.910  1.00  0.00     0.029 A 
ATOM     58  C   UNL A   1      42.377  29.332  32.629  1.00  0.00     0.049 A 
ATOM     59  H   UNL A   1      41.136  30.793  31.795  1.00  0.00     0.167 HD
ATOM     60  C   UNL A   1      37.632  33.045  29.988  1.00  0.00     0.037 A 
ATOM     61  C   UNL A   1      42.365  29.666  33.944  1.00  0.00     0.037 A 
ATOM     62  C   UNL A   1      38.710  34.000  30.046  1.00  0.00     0.049 A 
ATOM     63  C   UNL A   1      41.782  31.034  34.046  1.00  0.00     0.074 A 
ATOM     64  C   UNL A   1      39.537  34.574  29.099  1.00  0.00     0.029 A 
ATOM     65  N   UNL A   1      39.334  34.191  31.256  1.00  0.00    -0.354 N 
ATOM     66  N   UNL A   1      42.384  32.108  33.612  1.00  0.00    -0.248 NA
ATOM     67  C   UNL A   1      40.333  31.146  34.180  1.00  0.00     0.031 C 
ATOM     68  C   UNL A   1      40.816  34.658  29.722  1.00  0.00     0.029 A 
ATOM     69  C   UNL A   1      40.688  34.190  31.029  1.00  0.00     0.049 A 
ATOM     70  H   UNL A   1      38.890  34.307  32.126  1.00  0.00     0.167 HD
ATOM     71  C   UNL A   1      41.380  32.864  33.019  1.00  0.00     0.074 A 
ATOM     72  C   UNL A   1      40.129  32.258  33.466  1.00  0.00     0.031 C 
ATOM     73  C   UNL A   1      41.658  33.714  31.988  1.00  0.00     0.037 A 
BRANCH  60  74
ATOM     74  C   UNL A   1      36.361  33.202  30.771  1.00  0.00     0.064 A 
ATOM     75  C   UNL A   1      35.297  33.922  30.204  1.00  0.00     0.173 A 
ATOM     76  C   UNL A   1      36.249  32.926  32.153  1.00  0.00     0.173 A 
ATOM     77  F   UNL A   1      35.319  34.262  28.907  1.00  0.00    -0.203 F 
ATOM     78  C   UNL A   1      34.232  34.386  30.978  1.00  0.00     0.198 A 
ATOM     79  C   UNL A   1      35.155  33.335  32.908  1.00  0.00     0.198 A 
ATOM     80  F   UNL A   1      37.237  32.358  32.855  1.00  0.00    -0.203 F 
ATOM     81  F   UNL A   1      33.303  35.175  30.422  1.00  0.00    -0.200 F 
ATOM     82  C   UNL A   1      34.163  34.094  32.329  1.00  0.00     0.200 A 
ATOM     83  F   UNL A   1      35.121  33.059  34.220  1.00  0.00    -0.200 F 
ATOM     84  F   UNL A   1      33.171  34.585  33.083  1.00  0.00    -0.200 F 
ENDBRANCH  60  74
BRANCH  61  85
ATOM     85  C   UNL A   1      42.492  28.763  35.113  1.00  0.00     0.064 A 
ATOM     86  C   UNL A   1      41.784  27.552  35.175  1.00  0.00     0.173 A 
ATOM     87  C   UNL A   1      43.512  28.938  36.070  1.00  0.00     0.173 A 
ATOM     88  F   UNL A   1      40.830  27.283  34.271  1.00  0.00    -0.203 F 
ATOM     89  C   UNL A   1      42.092  26.568  36.121  1.00  0.00     0.198 A 
ATOM     90  C   UNL A   1      43.813  27.960  37.019  1.00  0.00     0.198 A 
ATOM     91  F   UNL A   1      44.304  30.019  36.047  1.00  0.00    -0.203 F 
ATOM     92  F   UNL A   1      41.435  25.399  36.109  1.00  0.00    -0.200 F 
ATOM     93  C   UNL A   1      43.112  26.770  37.036  1.00  0.00     0.200 A 
ATOM     94  F   UNL A   1      44.828  28.153  37.874  1.00  0.00    -0.200 F 
ATOM     95  F   UNL A   1      43.447  25.804  37.904  1.00  0.00    -0.200 F 
ENDBRANCH  61  85
BRANCH  73  96
ATOM     96  C   UNL A   1      43.103  33.991  31.680  1.00  0.00     0.064 A 
ATOM     97  C   UNL A   1      43.886  33.204  30.816  1.00  0.00     0.173 A 
ATOM     98  C   UNL A   1      43.669  35.180  32.156  1.00  0.00     0.173 A 
ATOM     99  F   UNL A   1      43.382  32.109  30.235  1.00  0.00    -0.203 F 
ATOM    100  C   UNL A   1      45.191  33.569  30.487  1.00  0.00     0.198 A 
ATOM    101  C   UNL A   1      44.958  35.563  31.795  1.00  0.00     0.198 A 
ATOM    102  F   UNL A   1      42.948  36.001  32.936  1.00  0.00    -0.203 F 
ATOM    103  F   UNL A   1      45.922  32.793  29.673  1.00  0.00    -0.200 F 
ATOM    104  C   UNL A   1      45.722  34.753  30.971  1.00  0.00     0.200 A 
ATOM    105  F   UNL A   1      45.448  36.734  32.223  1.00  0.00    -0.200 F 
ATOM    106  F   UNL A   1      46.961  35.128  30.622  1.00  0.00    -0.200 F 
ENDBRANCH  73  96
ENDBRANCH  47  48
ENDBRANCH  40  42
ENDBRANCH  39  40
ENDBRANCH  38  39
ENDBRANCH  37  38
ENDBRANCH  36  37
ENDBRANCH  35  36
ENDBRANCH  34  35
ENDBRANCH  33  34
ENDBRANCH   1  33
TORSDOF 25
ENDMDL
MODEL 2
REMARK VINA RESULT:     -10.6      3.821      9.437
REMARK SMILES C=CCn1nc(C(=O)OCCOCCOCCOCCOC(=O)c2ccc(-c3c4nc(c(-c5c(F)c(F)c(F)c(F)c5F)c5ccc([nH]5)c(-c5c(F)c(F)c(F)c(F)c5F)c5nc(c(-c6c(F)c(F)c(F)c(F)c6F)c6ccc3[nH]6)C=C5)C=C4)cc2)c2c1CC[C@@H]([NH+]1CCC(C(C)(C)O)CC1)C2
REMARK SMILES IDX 14 1 13 2 12 3 11 4 10 5 9 6 7 7 8 8 6 9 4 10 5 11 88 12
REMARK SMILES IDX 87 13 89 14 102 15 90 16 91 17 3 18 2 19 1 20 92 21 93 22
REMARK SMILES IDX 101 23 94 25 100 26 95 27 96 28 97 29 98 30 99 31 15 33
REMARK SMILES IDX 16 34 17 35 18 36 19 37 20 38 21 39 22 40 23 41 24 42 25 43
REMARK SMILES IDX 86 44 26 45 85 46 27 47 28 48 29 49 79 50 30 51 84 52 78 53
REMARK SMILES IDX 80 54 31 55 83 56 77 57 76 58 32 60 64 61 44 62 63 63 45 64
REMARK SMILES IDX 48 65 62 66 81 67 46 68 47 69 61 71 82 72 49 73 33 74 34 75
REMARK SMILES IDX 42 76 35 77 36 78 40 79 43 80 37 81 38 82 41 83 39 84 65 85
REMARK SMILES IDX 66 86 74 87 67 88 68 89 72 90 75 91 69 92 70 93 73 94 71 95
REMARK SMILES IDX 50 96 51 97 59 98 52 99 53 100 57 101 60 102 54 103 55 104
REMARK SMILES IDX 58 105 56 106
REMARK H PARENT 92 24 99 32 80 59 48 70
REMARK Flexibility Score: inf
ROOT
ATOM      1  C   UNL A   1      32.874  35.630  29.887  1.00  0.00     0.188 C 
ENDROOT
BRANCH   1   2
ATOM      2  C   UNL A   1      33.937  35.618  28.762  1.00  0.00     0.188 C 
BRANCH   2   3
ATOM      3  O   UNL A   1      34.363  34.315  28.415  1.00  0.00    -0.376 OA
BRANCH   3   4
ATOM      4  C   UNL A   1      33.448  33.331  27.995  1.00  0.00     0.202 C 
BRANCH   4   5
ATOM      5  C   UNL A   1      34.017  31.916  27.889  1.00  0.00     0.261 C 
BRANCH   5   6
ATOM      6  O   UNL A   1      33.101  30.950  27.378  1.00  0.00    -0.458 OA
BRANCH   6   7
ATOM      7  C   UNL A   1      33.620  29.815  26.844  1.00  0.00     0.359 C 
ATOM      8  O   UNL A   1      34.747  29.387  27.107  1.00  0.00    -0.244 OA
BRANCH   7   9
ATOM      9  C   UNL A   1      32.640  29.150  25.981  1.00  0.00     0.174 A 
ATOM     10  N   UNL A   1      30.951  28.819  24.717  1.00  0.00    -0.265 N 
ATOM     11  N   UNL A   1      31.682  29.810  25.288  1.00  0.00    -0.165 NA
ATOM     12  C   UNL A   1      31.268  27.610  25.262  1.00  0.00     0.043 A 
ATOM     13  C   UNL A   1      32.552  27.754  25.726  1.00  0.00     0.014 A 
ATOM     14  C   UNL A   1      30.471  26.372  25.329  1.00  0.00     0.062 C 
ATOM     15  C   UNL A   1      33.436  26.595  26.050  1.00  0.00     0.105 C 
ATOM     16  C   UNL A   1      31.330  25.225  25.896  1.00  0.00     0.072 C 
ATOM     17  C   UNL A   1      32.838  25.241  25.530  1.00  0.00     0.189 C 
BRANCH  10  18
ATOM     18  C   UNL A   1      29.986  29.112  23.655  1.00  0.00     0.171 C 
BRANCH  18  19
ATOM     19  C   UNL A   1      29.518  30.551  23.652  1.00  0.00    -0.011 C 
ATOM     20  C   UNL A   1      28.315  30.982  23.241  1.00  0.00     0.006 C 
ENDBRANCH  18  19
ENDBRANCH  10  18
BRANCH  17  21
ATOM     21  N   UNL A   1      33.295  24.851  24.176  1.00  0.00    -0.332 N 
ATOM     22  C   UNL A   1      32.381  24.279  23.205  1.00  0.00     0.262 C 
ATOM     23  C   UNL A   1      34.578  24.163  24.096  1.00  0.00     0.262 C 
ATOM     24  H   UNL A   1      33.391  25.820  23.870  1.00  0.00     0.348 HD
ATOM     25  C   UNL A   1      32.172  22.764  23.291  1.00  0.00     0.068 C 
ATOM     26  C   UNL A   1      34.514  22.683  24.444  1.00  0.00     0.068 C 
ATOM     27  C   UNL A   1      33.344  21.888  23.812  1.00  0.00     0.031 C 
BRANCH  27  28
ATOM     28  C   UNL A   1      32.905  20.682  24.736  1.00  0.00     0.062 C 
ATOM     29  C   UNL A   1      32.526  19.413  23.963  1.00  0.00     0.042 C 
ATOM     30  C   UNL A   1      34.001  20.349  25.756  1.00  0.00     0.042 C 
BRANCH  28  31
ATOM     31  O   UNL A   1      31.756  21.044  25.508  1.00  0.00    -0.390 OA
ATOM     32  H   UNL A   1      30.994  21.162  24.918  1.00  0.00     0.211 HD
ENDBRANCH  28  31
ENDBRANCH  27  28
ENDBRANCH  17  21
ENDBRANCH   7   9
ENDBRANCH   6   7
ENDBRANCH   5   6
ENDBRANCH   4   5
ENDBRANCH   3   4
ENDBRANCH   2   3
ENDBRANCH   1   2
BRANCH   1  33
ATOM     33  O   UNL A   1      32.524  36.816  30.595  1.00  0.00    -0.377 OA
BRANCH  33  34
ATOM     34  C   UNL A   1      32.624  36.825  32.005  1.00  0.00     0.188 C 
BRANCH  34  35
ATOM     35  C   UNL A   1      34.045  37.070  32.568  1.00  0.00     0.188 C 
BRANCH  35  36
ATOM     36  O   UNL A   1      34.569  36.294  33.634  1.00  0.00    -0.376 OA
BRANCH  36  37
ATOM     37  C   UNL A   1      34.779  34.892  33.659  1.00  0.00     0.202 C 
BRANCH  37  38
ATOM     38  C   UNL A   1      34.371  33.882  32.595  1.00  0.00     0.261 C 
BRANCH  38  39
ATOM     39  O   UNL A   1      35.284  33.715  31.548  1.00  0.00    -0.460 OA
BRANCH  39  40
ATOM     40  C   UNL A   1      35.946  32.558  31.582  1.00  0.00     0.338 C 
ATOM     41  O   UNL A   1      35.544  31.473  32.001  1.00  0.00    -0.246 OA
BRANCH  40  42
ATOM     42  C   UNL A   1      37.314  32.826  31.150  1.00  0.00     0.060 A 
ATOM     43  C   UNL A   1      37.673  32.236  29.941  1.00  0.00     0.016 A 
ATOM     44  C   UNL A   1      38.245  33.164  32.146  1.00  0.00     0.016 A 
ATOM     45  C   UNL A   1      38.907  31.649  29.883  1.00  0.00     0.010 A 
ATOM     46  C   UNL A   1      39.458  32.542  32.105  1.00  0.00     0.010 A 
ATOM     47  C   UNL A   1      39.716  31.709  31.022  1.00  0.00    -0.014 A 
BRANCH  47  48
ATOM     48  C   UNL A   1      40.905  30.902  31.039  1.00  0.00     0.031 A 
ATOM     49  C   UNL A   1      41.987  31.506  30.248  1.00  0.00     0.074 A 
ATOM     50  C   UNL A   1      40.996  29.782  31.774  1.00  0.00     0.049 A 
ATOM     51  N   UNL A   1      42.448  31.089  29.119  1.00  0.00    -0.248 NA
ATOM     52  C   UNL A   1      42.461  32.840  30.648  1.00  0.00     0.031 C 
ATOM     53  C   UNL A   1      40.073  29.262  32.784  1.00  0.00     0.029 A 
ATOM     54  N   UNL A   1      42.029  28.903  31.822  1.00  0.00    -0.354 N 
ATOM     55  C   UNL A   1      43.417  32.014  28.761  1.00  0.00     0.074 A 
ATOM     56  C   UNL A   1      43.230  33.162  29.609  1.00  0.00     0.031 C 
ATOM     57  C   UNL A   1      40.697  28.293  33.496  1.00  0.00     0.029 A 
ATOM     58  C   UNL A   1      42.005  28.050  32.914  1.00  0.00     0.049 A 
ATOM     59  H   UNL A   1      42.736  28.874  31.137  1.00  0.00     0.167 HD
ATOM     60  C   UNL A   1      44.471  31.648  27.989  1.00  0.00     0.037 A 
ATOM     61  C   UNL A   1      43.054  27.297  33.331  1.00  0.00     0.037 A 
ATOM     62  C   UNL A   1      44.215  30.407  27.304  1.00  0.00     0.049 A 
ATOM     63  C   UNL A   1      43.999  27.184  32.182  1.00  0.00     0.074 A 
ATOM     64  C   UNL A   1      43.268  29.995  26.385  1.00  0.00     0.029 A 
ATOM     65  N   UNL A   1      44.747  29.257  27.837  1.00  0.00    -0.354 N 
ATOM     66  N   UNL A   1      43.735  26.510  31.096  1.00  0.00    -0.248 NA
ATOM     67  C   UNL A   1      45.018  28.217  32.040  1.00  0.00     0.031 C 
ATOM     68  C   UNL A   1      42.951  28.655  26.751  1.00  0.00     0.029 A 
ATOM     69  C   UNL A   1      43.762  28.301  27.829  1.00  0.00     0.049 A 
ATOM     70  H   UNL A   1      45.668  29.141  28.165  1.00  0.00     0.167 HD
ATOM     71  C   UNL A   1      44.221  27.299  30.061  1.00  0.00     0.074 A 
ATOM     72  C   UNL A   1      45.067  28.299  30.706  1.00  0.00     0.031 C 
ATOM     73  C   UNL A   1      43.656  27.255  28.819  1.00  0.00     0.037 A 
BRANCH  60  74
ATOM     74  C   UNL A   1      45.853  32.210  28.168  1.00  0.00     0.064 A 
ATOM     75  C   UNL A   1      46.472  32.849  27.082  1.00  0.00     0.173 A 
ATOM     76  C   UNL A   1      46.694  31.896  29.260  1.00  0.00     0.173 A 
ATOM     77  F   UNL A   1      45.769  33.163  25.984  1.00  0.00    -0.203 F 
ATOM     78  C   UNL A   1      47.846  33.098  27.066  1.00  0.00     0.198 A 
ATOM     79  C   UNL A   1      48.051  32.203  29.266  1.00  0.00     0.198 A 
ATOM     80  F   UNL A   1      46.273  31.181  30.310  1.00  0.00    -0.203 F 
ATOM     81  F   UNL A   1      48.417  33.594  25.960  1.00  0.00    -0.200 F 
ATOM     82  C   UNL A   1      48.634  32.773  28.156  1.00  0.00     0.200 A 
ATOM     83  F   UNL A   1      48.798  31.858  30.325  1.00  0.00    -0.200 F 
ATOM     84  F   UNL A   1      49.959  32.958  28.120  1.00  0.00    -0.200 F 
ENDBRANCH  60  74
BRANCH  61  85
ATOM     85  C   UNL A   1      43.448  26.975  34.723  1.00  0.00     0.064 A 
ATOM     86  C   UNL A   1      44.019  27.949  35.559  1.00  0.00     0.173 A 
ATOM     87  C   UNL A   1      43.029  25.784  35.350  1.00  0.00     0.173 A 
ATOM     88  F   UNL A   1      44.400  29.131  35.051  1.00  0.00    -0.203 F 
ATOM     89  C   UNL A   1      44.142  27.752  36.938  1.00  0.00     0.198 A 
ATOM     90  C   UNL A   1      43.160  25.586  36.725  1.00  0.00     0.198 A 
ATOM     91  F   UNL A   1      42.394  24.826  34.661  1.00  0.00    -0.203 F 
ATOM     92  F   UNL A   1      44.636  28.730  37.711  1.00  0.00    -0.200 F 
ATOM     93  C   UNL A   1      43.705  26.574  37.521  1.00  0.00     0.200 A 
ATOM     94  F   UNL A   1      42.697  24.456  37.281  1.00  0.00    -0.200 F 
ATOM     95  F   UNL A   1      43.768  26.409  38.850  1.00  0.00    -0.200 F 
ENDBRANCH  61  85
BRANCH  73  96
ATOM     96  C   UNL A   1      42.664  26.160  28.541  1.00  0.00     0.064 A 
ATOM     97  C   UNL A   1      41.279  26.284  28.753  1.00  0.00     0.173 A 
ATOM     98  C   UNL A   1      43.115  25.002  27.896  1.00  0.00     0.173 A 
ATOM     99  F   UNL A   1      40.758  27.405  29.267  1.00  0.00    -0.203 F 
ATOM    100  C   UNL A   1      40.396  25.272  28.379  1.00  0.00     0.198 A 
ATOM    101  C   UNL A   1      42.227  24.010  27.488  1.00  0.00     0.198 A 
ATOM    102  F   UNL A   1      44.419  24.855  27.614  1.00  0.00    -0.203 F 
ATOM    103  F   UNL A   1      39.081  25.409  28.605  1.00  0.00    -0.200 F 
ATOM    104  C   UNL A   1      40.870  24.140  27.739  1.00  0.00     0.200 A 
ATOM    105  F   UNL A   1      42.685  22.941  26.822  1.00  0.00    -0.200 F 
ATOM    106  F   UNL A   1      40.019  23.184  27.340  1.00  0.00    -0.200 F 
ENDBRANCH  73  96
ENDBRANCH  47  48
ENDBRANCH  40  42
ENDBRANCH  39  40
ENDBRANCH  38  39
ENDBRANCH  37  38
ENDBRANCH  36  37
ENDBRANCH  35  36
ENDBRANCH  34  35
ENDBRANCH  33  34
ENDBRANCH   1  33
TORSDOF 25
ENDMDL
MODEL 3
REMARK VINA RESULT:     -10.4      4.483     10.185
REMARK SMILES C=CCn1nc(C(=O)OCCOCCOCCOCCOC(=O)c2ccc(-c3c4nc(c(-c5c(F)c(F)c(F)c(F)c5F)c5ccc([nH]5)c(-c5c(F)c(F)c(F)c(F)c5F)c5nc(c(-c6c(F)c(F)c(F)c(F)c6F)c6ccc3[nH]6)C=C5)C=C4)cc2)c2c1CC[C@@H]([NH+]1CCC(C(C)(C)O)CC1)C2
REMARK SMILES IDX 14 1 13 2 12 3 11 4 10 5 9 6 7 7 8 8 6 9 4 10 5 11 88 12
REMARK SMILES IDX 87 13 89 14 102 15 90 16 91 17 3 18 2 19 1 20 92 21 93 22
REMARK SMILES IDX 101 23 94 25 100 26 95 27 96 28 97 29 98 30 99 31 15 33
REMARK SMILES IDX 16 34 17 35 18 36 19 37 20 38 21 39 22 40 23 41 24 42 25 43
REMARK SMILES IDX 86 44 26 45 85 46 27 47 28 48 29 49 79 50 30 51 84 52 78 53
REMARK SMILES IDX 80 54 31 55 83 56 77 57 76 58 32 60 64 61 44 62 63 63 45 64
REMARK SMILES IDX 48 65 62 66 81 67 46 68 47 69 61 71 82 72 49 73 33 74 34 75
REMARK SMILES IDX 42 76 35 77 36 78 40 79 43 80 37 81 38 82 41 83 39 84 65 85
REMARK SMILES IDX 66 86 74 87 67 88 68 89 72 90 75 91 69 92 70 93 73 94 71 95
REMARK SMILES IDX 50 96 51 97 59 98 52 99 53 100 57 101 60 102 54 103 55 104
REMARK SMILES IDX 58 105 56 106
REMARK H PARENT 92 24 99 32 80 59 48 70
REMARK Flexibility Score: inf
ROOT
ATOM      1  C   UNL A   1      34.726  34.495  27.992  1.00  0.00     0.188 C 
ENDROOT
BRANCH   1   2
ATOM      2  C   UNL A   1      33.240  34.253  28.349  1.00  0.00     0.188 C 
BRANCH   2   3
ATOM      3  O   UNL A   1      32.722  33.062  27.790  1.00  0.00    -0.376 OA
BRANCH   3   4
ATOM      4  C   UNL A   1      31.746  33.090  26.775  1.00  0.00     0.202 C 
BRANCH   4   5
ATOM      5  C   UNL A   1      31.235  31.722  26.325  1.00  0.00     0.261 C 
BRANCH   5   6
ATOM      6  O   UNL A   1      31.917  30.616  26.912  1.00  0.00    -0.458 OA
BRANCH   6   7
ATOM      7  C   UNL A   1      32.668  29.835  26.094  1.00  0.00     0.359 C 
ATOM      8  O   UNL A   1      33.900  29.784  26.138  1.00  0.00    -0.244 OA
BRANCH   7   9
ATOM      9  C   UNL A   1      31.815  29.028  25.218  1.00  0.00     0.174 A 
ATOM     10  N   UNL A   1      30.283  28.469  23.840  1.00  0.00    -0.265 N 
ATOM     11  N   UNL A   1      30.902  29.555  24.367  1.00  0.00    -0.165 NA
ATOM     12  C   UNL A   1      30.601  27.343  24.541  1.00  0.00     0.043 A 
ATOM     13  C   UNL A   1      31.821  27.610  25.108  1.00  0.00     0.014 A 
ATOM     14  C   UNL A   1      29.863  26.074  24.664  1.00  0.00     0.062 C 
ATOM     15  C   UNL A   1      32.723  26.545  25.640  1.00  0.00     0.105 C 
ATOM     16  C   UNL A   1      30.714  25.045  25.433  1.00  0.00     0.072 C 
ATOM     17  C   UNL A   1      32.249  25.112  25.215  1.00  0.00     0.189 C 
BRANCH  10  18
ATOM     18  C   UNL A   1      29.418  28.593  22.664  1.00  0.00     0.171 C 
BRANCH  18  19
ATOM     19  C   UNL A   1      29.085  30.026  22.314  1.00  0.00    -0.011 C 
ATOM     20  C   UNL A   1      27.982  30.439  21.672  1.00  0.00     0.006 C 
ENDBRANCH  18  19
ENDBRANCH  10  18
BRANCH  17  21
ATOM     21  N   UNL A   1      32.861  24.612  23.962  1.00  0.00    -0.332 N 
ATOM     22  C   UNL A   1      32.132  23.739  23.061  1.00  0.00     0.262 C 
ATOM     23  C   UNL A   1      34.248  24.171  24.046  1.00  0.00     0.262 C 
ATOM     24  H   UNL A   1      32.804  25.524  23.507  1.00  0.00     0.348 HD
ATOM     25  C   UNL A   1      32.189  22.243  23.383  1.00  0.00     0.068 C 
ATOM     26  C   UNL A   1      34.423  22.775  24.628  1.00  0.00     0.068 C 
ATOM     27  C   UNL A   1      33.458  21.690  24.086  1.00  0.00     0.031 C 
BRANCH  27  28
ATOM     28  C   UNL A   1      33.177  20.579  25.175  1.00  0.00     0.062 C 
ATOM     29  C   UNL A   1      33.761  19.204  24.826  1.00  0.00     0.042 C 
ATOM     30  C   UNL A   1      33.696  21.018  26.550  1.00  0.00     0.042 C 
BRANCH  28  31
ATOM     31  O   UNL A   1      31.768  20.389  25.336  1.00  0.00    -0.390 OA
ATOM     32  H   UNL A   1      31.582  20.113  26.248  1.00  0.00     0.211 HD
ENDBRANCH  28  31
ENDBRANCH  27  28
ENDBRANCH  17  21
ENDBRANCH   7   9
ENDBRANCH   6   7
ENDBRANCH   5   6
ENDBRANCH   4   5
ENDBRANCH   3   4
ENDBRANCH   2   3
ENDBRANCH   1   2
BRANCH   1  33
ATOM     33  O   UNL A   1      35.607  33.436  27.626  1.00  0.00    -0.377 OA
BRANCH  33  34
ATOM     34  C   UNL A   1      36.164  32.628  28.644  1.00  0.00     0.188 C 
BRANCH  34  35
ATOM     35  C   UNL A   1      36.503  33.362  29.963  1.00  0.00     0.188 C 
BRANCH  35  36
ATOM     36  O   UNL A   1      35.580  33.428  31.039  1.00  0.00    -0.376 OA
BRANCH  36  37
ATOM     37  C   UNL A   1      35.290  32.418  31.990  1.00  0.00     0.202 C 
BRANCH  37  38
ATOM     38  C   UNL A   1      36.288  31.551  32.745  1.00  0.00     0.261 C 
BRANCH  38  39
ATOM     39  O   UNL A   1      37.147  30.791  31.944  1.00  0.00    -0.460 OA
BRANCH  39  40
ATOM     40  C   UNL A   1      37.227  29.508  32.296  1.00  0.00     0.338 C 
ATOM     41  O   UNL A   1      37.012  29.016  33.405  1.00  0.00    -0.246 OA
BRANCH  40  42
ATOM     42  C   UNL A   1      37.756  28.773  31.152  1.00  0.00     0.060 A 
ATOM     43  C   UNL A   1      38.388  27.573  31.468  1.00  0.00     0.016 A 
ATOM     44  C   UNL A   1      38.050  29.514  29.996  1.00  0.00     0.016 A 
ATOM     45  C   UNL A   1      39.565  27.306  30.823  1.00  0.00     0.010 A 
ATOM     46  C   UNL A   1      39.244  29.272  29.383  1.00  0.00     0.010 A 
ATOM     47  C   UNL A   1      40.026  28.238  29.887  1.00  0.00    -0.014 A 
BRANCH  47  48
ATOM     48  C   UNL A   1      41.362  28.073  29.384  1.00  0.00     0.031 A 
ATOM     49  C   UNL A   1      41.558  26.750  28.775  1.00  0.00     0.074 A 
ATOM     50  C   UNL A   1      42.262  29.070  29.414  1.00  0.00     0.049 A 
ATOM     51  N   UNL A   1      42.263  25.778  29.244  1.00  0.00    -0.248 NA
ATOM     52  C   UNL A   1      40.706  26.393  27.631  1.00  0.00     0.031 C 
ATOM     53  C   UNL A   1      42.068  30.481  29.754  1.00  0.00     0.029 A 
ATOM     54  N   UNL A   1      43.564  29.021  29.038  1.00  0.00    -0.354 N 
ATOM     55  C   UNL A   1      42.094  24.741  28.338  1.00  0.00     0.074 A 
ATOM     56  C   UNL A   1      40.975  25.095  27.505  1.00  0.00     0.031 C 
ATOM     57  C   UNL A   1      43.151  31.185  29.348  1.00  0.00     0.029 A 
ATOM     58  C   UNL A   1      44.149  30.262  28.837  1.00  0.00     0.049 A 
ATOM     59  H   UNL A   1      44.054  28.175  28.918  1.00  0.00     0.167 HD
ATOM     60  C   UNL A   1      43.064  23.808  28.166  1.00  0.00     0.037 A 
ATOM     61  C   UNL A   1      45.326  30.468  28.195  1.00  0.00     0.037 A 
ATOM     62  C   UNL A   1      43.991  23.805  29.269  1.00  0.00     0.049 A 
ATOM     63  C   UNL A   1      46.061  29.170  28.193  1.00  0.00     0.074 A 
ATOM     64  C   UNL A   1      43.867  23.574  30.626  1.00  0.00     0.029 A 
ATOM     65  N   UNL A   1      45.185  24.465  29.107  1.00  0.00    -0.354 N 
ATOM     66  N   UNL A   1      46.557  28.622  29.269  1.00  0.00    -0.248 NA
ATOM     67  C   UNL A   1      45.813  28.253  27.087  1.00  0.00     0.031 C 
ATOM     68  C   UNL A   1      44.747  24.509  31.245  1.00  0.00     0.029 A 
ATOM     69  C   UNL A   1      45.403  25.214  30.235  1.00  0.00     0.049 A 
ATOM     70  H   UNL A   1      45.777  24.410  28.322  1.00  0.00     0.167 HD
ATOM     71  C   UNL A   1      46.284  27.267  29.136  1.00  0.00     0.074 A 
ATOM     72  C   UNL A   1      45.893  27.089  27.741  1.00  0.00     0.031 C 
ATOM     73  C   UNL A   1      46.107  26.475  30.234  1.00  0.00     0.037 A 
BRANCH  60  74
ATOM     74  C   UNL A   1      43.379  23.189  26.834  1.00  0.00     0.064 A 
ATOM     75  C   UNL A   1      43.126  21.821  26.644  1.00  0.00     0.173 A 
ATOM     76  C   UNL A   1      44.176  23.812  25.847  1.00  0.00     0.173 A 
ATOM     77  F   UNL A   1      42.406  21.130  27.539  1.00  0.00    -0.203 F 
ATOM     78  C   UNL A   1      43.684  21.116  25.576  1.00  0.00     0.198 A 
ATOM     79  C   UNL A   1      44.679  23.118  24.751  1.00  0.00     0.198 A 
ATOM     80  F   UNL A   1      44.601  25.076  25.956  1.00  0.00    -0.203 F 
ATOM     81  F   UNL A   1      43.521  19.788  25.502  1.00  0.00    -0.200 F 
ATOM     82  C   UNL A   1      44.461  21.764  24.632  1.00  0.00     0.200 A 
ATOM     83  F   UNL A   1      45.447  23.763  23.861  1.00  0.00    -0.200 F 
ATOM     84  F   UNL A   1      45.043  21.078  23.641  1.00  0.00    -0.200 F 
ENDBRANCH  60  74
BRANCH  61  85
ATOM     85  C   UNL A   1      45.690  31.592  27.298  1.00  0.00     0.064 A 
ATOM     86  C   UNL A   1      44.762  32.120  26.385  1.00  0.00     0.173 A 
ATOM     87  C   UNL A   1      46.862  32.347  27.503  1.00  0.00     0.173 A 
ATOM     88  F   UNL A   1      43.598  31.489  26.167  1.00  0.00    -0.203 F 
ATOM     89  C   UNL A   1      44.985  33.338  25.734  1.00  0.00     0.198 A 
ATOM     90  C   UNL A   1      47.086  33.558  26.847  1.00  0.00     0.198 A 
ATOM     91  F   UNL A   1      47.772  31.978  28.416  1.00  0.00    -0.203 F 
ATOM     92  F   UNL A   1      44.048  33.839  24.915  1.00  0.00    -0.200 F 
ATOM     93  C   UNL A   1      46.142  34.060  25.972  1.00  0.00     0.200 A 
ATOM     94  F   UNL A   1      48.194  34.265  27.116  1.00  0.00    -0.200 F 
ATOM     95  F   UNL A   1      46.329  35.255  25.395  1.00  0.00    -0.200 F 
ENDBRANCH  61  85
BRANCH  73  96
ATOM     96  C   UNL A   1      46.458  27.054  31.577  1.00  0.00     0.064 A 
ATOM     97  C   UNL A   1      45.557  27.778  32.379  1.00  0.00     0.173 A 
ATOM     98  C   UNL A   1      47.701  26.732  32.136  1.00  0.00     0.173 A 
ATOM     99  F   UNL A   1      44.312  28.033  31.958  1.00  0.00    -0.203 F 
ATOM    100  C   UNL A   1      45.908  28.201  33.661  1.00  0.00     0.198 A 
ATOM    101  C   UNL A   1      48.034  27.122  33.430  1.00  0.00     0.198 A 
ATOM    102  F   UNL A   1      48.578  25.992  31.440  1.00  0.00    -0.203 F 
ATOM    103  F   UNL A   1      45.035  28.903  34.399  1.00  0.00    -0.200 F 
ATOM    104  C   UNL A   1      47.143  27.865  34.188  1.00  0.00     0.200 A 
ATOM    105  F   UNL A   1      49.209  26.749  33.955  1.00  0.00    -0.200 F 
ATOM    106  F   UNL A   1      47.466  28.233  35.436  1.00  0.00    -0.200 F 
ENDBRANCH  73  96
ENDBRANCH  47  48
ENDBRANCH  40  42
ENDBRANCH  39  40
ENDBRANCH  38  39
ENDBRANCH  37  38
ENDBRANCH  36  37
ENDBRANCH  35  36
ENDBRANCH  34  35
ENDBRANCH  33  34
ENDBRANCH   1  33
TORSDOF 25
ENDMDL
