MODEL 1
REMARK VINA RESULT:     -10.5      0.000      0.000
REMARK SMILES CN(C)C(=O)CCNC(=O)NC[C@H]1CC[C@@H](C(=O)OCCOCCOCCOCCOC(=O)c2ccc(-c3c4nc(c(-c5c(F)c(F)c(F)c(F)c5F)c5ccc([nH]5)c(-c5c(F)c(F)c(F)c(F)c5F)c5nc(c(-c6c(F)c(F)c(F)c(F)c6F)c6ccc3[nH]6)C=C5)C=C4)cc2)CC1
REMARK SMILES IDX 23 1 22 2 21 3 20 4 19 5 17 6 18 7 16 8 13 9 14 10 98 11
REMARK SMILES IDX 15 12 97 13 12 14 11 15 8 16 9 17 10 19 7 21 6 22 4 23 1 24
REMARK SMILES IDX 2 25 3 26 5 27 24 28 25 29 26 30 27 31 28 32 29 33 30 34
REMARK SMILES IDX 31 35 32 36 33 37 34 38 35 39 96 40 36 41 95 42 37 43 38 44
REMARK SMILES IDX 39 45 89 46 40 47 94 48 88 49 90 50 41 51 93 52 87 53 86 54
REMARK SMILES IDX 42 56 74 57 54 58 73 59 55 60 58 61 72 62 91 63 56 64 57 65
REMARK SMILES IDX 71 67 92 68 59 69 43 70 44 71 52 72 45 73 46 74 50 75 53 76
REMARK SMILES IDX 47 77 48 78 51 79 49 80 75 81 76 82 84 83 77 84 78 85 82 86
REMARK SMILES IDX 85 87 79 88 80 89 83 90 81 91 60 92 61 93 69 94 62 95 63 96
REMARK SMILES IDX 67 97 70 98 64 99 65 100 68 101 66 102
REMARK H PARENT 8 18 11 20 90 55 58 66
REMARK Flexibility Score: inf
ROOT
ATOM      1  C   UNL A   1      34.914  30.500  27.525  1.00  0.00     0.188 C 
ENDROOT
BRANCH   1   2
ATOM      2  O   UNL A   1      33.914  29.514  27.388  1.00  0.00    -0.376 OA
BRANCH   2   3
ATOM      3  C   UNL A   1      33.503  29.145  26.089  1.00  0.00     0.202 C 
BRANCH   3   4
ATOM      4  C   UNL A   1      32.999  27.724  25.781  1.00  0.00     0.261 C 
BRANCH   4   5
ATOM      5  O   UNL A   1      31.608  27.531  25.475  1.00  0.00    -0.463 OA
BRANCH   5   6
ATOM      6  C   UNL A   1      31.302  27.033  24.255  1.00  0.00     0.309 C 
ATOM      7  O   UNL A   1      31.690  27.532  23.205  1.00  0.00    -0.252 OA
BRANCH   6   8
ATOM      8  C   UNL A   1      30.296  25.872  24.290  1.00  0.00     0.099 C 
ATOM      9  C   UNL A   1      31.736  23.611  25.630  1.00  0.00     0.008 C 
ATOM     10  C   UNL A   1      31.240  24.864  26.387  1.00  0.00     0.006 C 
ATOM     11  C   UNL A   1      31.759  23.774  24.103  1.00  0.00     0.006 C 
ATOM     12  C   UNL A   1      30.031  25.546  25.754  1.00  0.00     0.015 C 
ATOM     13  C   UNL A   1      30.561  24.544  23.568  1.00  0.00     0.015 C 
BRANCH   9  14
ATOM     14  C   UNL A   1      33.136  23.130  26.093  1.00  0.00     0.121 C 
BRANCH  14  15
ATOM     15  N   UNL A   1      34.109  23.000  25.031  1.00  0.00    -0.338 N 
ATOM     16  N   UNL A   1      34.412  20.680  24.817  1.00  0.00    -0.338 N 
ATOM     17  C   UNL A   1      34.808  21.942  24.599  1.00  0.00     0.314 C 
ATOM     18  H   UNL A   1      35.141  20.018  24.798  1.00  0.00     0.165 HD
ATOM     19  O   UNL A   1      35.857  22.146  23.988  1.00  0.00    -0.249 OA
ATOM     20  H   UNL A   1      34.290  23.834  24.541  1.00  0.00     0.165 HD
BRANCH  16  21
ATOM     21  C   UNL A   1      33.099  20.115  25.077  1.00  0.00     0.127 C 
BRANCH  21  22
ATOM     22  C   UNL A   1      32.691  19.063  24.054  1.00  0.00     0.121 C 
BRANCH  22  23
ATOM     23  C   UNL A   1      32.561  17.713  24.729  1.00  0.00     0.223 C 
ATOM     24  C   UNL A   1      33.319  15.428  25.059  1.00  0.00     0.146 C 
ATOM     25  N   UNL A   1      33.334  16.656  24.286  1.00  0.00    -0.349 N 
ATOM     26  C   UNL A   1      34.126  16.626  23.069  1.00  0.00     0.146 C 
ATOM     27  O   UNL A   1      31.816  17.607  25.708  1.00  0.00    -0.275 OA
ENDBRANCH  22  23
ENDBRANCH  21  22
ENDBRANCH  16  21
ENDBRANCH  14  15
ENDBRANCH   9  14
ENDBRANCH   6   8
ENDBRANCH   5   6
ENDBRANCH   4   5
ENDBRANCH   3   4
ENDBRANCH   2   3
ENDBRANCH   1   2
BRANCH   1  28
ATOM     28  C   UNL A   1      34.350  31.901  27.811  1.00  0.00     0.188 C 
BRANCH  28  29
ATOM     29  O   UNL A   1      35.155  33.058  27.614  1.00  0.00    -0.377 OA
BRANCH  29  30
ATOM     30  C   UNL A   1      34.773  34.293  28.213  1.00  0.00     0.188 C 
BRANCH  30  31
ATOM     31  C   UNL A   1      33.850  34.287  29.450  1.00  0.00     0.188 C 
BRANCH  31  32
ATOM     32  O   UNL A   1      34.162  35.274  30.416  1.00  0.00    -0.376 OA
BRANCH  32  33
ATOM     33  C   UNL A   1      33.988  34.933  31.782  1.00  0.00     0.202 C 
BRANCH  33  34
ATOM     34  C   UNL A   1      35.205  35.024  32.718  1.00  0.00     0.261 C 
BRANCH  34  35
ATOM     35  O   UNL A   1      35.937  33.807  32.946  1.00  0.00    -0.460 OA
BRANCH  35  36
ATOM     36  C   UNL A   1      35.441  32.660  32.428  1.00  0.00     0.338 C 
ATOM     37  O   UNL A   1      34.281  32.322  32.353  1.00  0.00    -0.246 OA
BRANCH  36  38
ATOM     38  C   UNL A   1      36.570  31.948  31.788  1.00  0.00     0.060 A 
ATOM     39  C   UNL A   1      37.457  31.211  32.584  1.00  0.00     0.016 A 
ATOM     40  C   UNL A   1      36.740  31.998  30.404  1.00  0.00     0.016 A 
ATOM     41  C   UNL A   1      38.522  30.527  31.997  1.00  0.00     0.010 A 
ATOM     42  C   UNL A   1      37.824  31.335  29.820  1.00  0.00     0.010 A 
ATOM     43  C   UNL A   1      38.732  30.613  30.614  1.00  0.00    -0.014 A 
BRANCH  43  44
ATOM     44  C   UNL A   1      39.981  30.077  30.021  1.00  0.00     0.031 A 
ATOM     45  C   UNL A   1      41.161  30.996  29.869  1.00  0.00     0.074 A 
ATOM     46  C   UNL A   1      40.077  28.791  29.639  1.00  0.00     0.049 A 
ATOM     47  N   UNL A   1      42.325  30.772  29.313  1.00  0.00    -0.248 NA
ATOM     48  C   UNL A   1      41.007  32.354  30.417  1.00  0.00     0.031 C 
ATOM     49  C   UNL A   1      39.026  27.784  29.776  1.00  0.00     0.029 A 
ATOM     50  N   UNL A   1      41.114  28.116  29.043  1.00  0.00    -0.354 N 
ATOM     51  C   UNL A   1      43.034  31.960  29.431  1.00  0.00     0.074 A 
ATOM     52  C   UNL A   1      42.167  32.908  30.096  1.00  0.00     0.031 C 
ATOM     53  C   UNL A   1      39.469  26.621  29.266  1.00  0.00     0.029 A 
ATOM     54  C   UNL A   1      40.816  26.812  28.731  1.00  0.00     0.049 A 
ATOM     55  H   UNL A   1      41.990  28.527  28.858  1.00  0.00     0.167 HD
ATOM     56  C   UNL A   1      44.295  32.233  29.021  1.00  0.00     0.037 A 
ATOM     57  C   UNL A   1      41.536  25.895  28.055  1.00  0.00     0.037 A 
ATOM     58  C   UNL A   1      45.160  31.287  28.368  1.00  0.00     0.049 A 
ATOM     59  C   UNL A   1      42.896  26.262  27.520  1.00  0.00     0.074 A 
ATOM     60  C   UNL A   1      46.471  31.460  27.958  1.00  0.00     0.029 A 
ATOM     61  N   UNL A   1      44.799  29.997  28.017  1.00  0.00    -0.354 N 
ATOM     62  N   UNL A   1      43.573  27.375  27.661  1.00  0.00    -0.248 NA
ATOM     63  C   UNL A   1      43.588  25.242  26.716  1.00  0.00     0.031 C 
ATOM     64  C   UNL A   1      46.878  30.301  27.294  1.00  0.00     0.029 A 
ATOM     65  C   UNL A   1      45.847  29.379  27.352  1.00  0.00     0.049 A 
ATOM     66  H   UNL A   1      43.928  29.580  28.209  1.00  0.00     0.167 HD
ATOM     67  C   UNL A   1      44.776  27.178  26.993  1.00  0.00     0.074 A 
ATOM     68  C   UNL A   1      44.745  25.833  26.462  1.00  0.00     0.031 C 
ATOM     69  C   UNL A   1      45.812  28.037  26.832  1.00  0.00     0.037 A 
BRANCH  56  70
ATOM     70  C   UNL A   1      44.816  33.625  29.227  1.00  0.00     0.064 A 
ATOM     71  C   UNL A   1      45.543  33.983  30.372  1.00  0.00     0.173 A 
ATOM     72  C   UNL A   1      44.652  34.592  28.223  1.00  0.00     0.173 A 
ATOM     73  F   UNL A   1      45.716  33.100  31.366  1.00  0.00    -0.203 F 
ATOM     74  C   UNL A   1      46.077  35.263  30.507  1.00  0.00     0.198 A 
ATOM     75  C   UNL A   1      45.213  35.859  28.349  1.00  0.00     0.198 A 
ATOM     76  F   UNL A   1      43.967  34.298  27.108  1.00  0.00    -0.203 F 
ATOM     77  F   UNL A   1      46.742  35.594  31.622  1.00  0.00    -0.200 F 
ATOM     78  C   UNL A   1      45.922  36.195  29.491  1.00  0.00     0.200 A 
ATOM     79  F   UNL A   1      45.075  36.752  27.358  1.00  0.00    -0.200 F 
ATOM     80  F   UNL A   1      46.456  37.417  29.614  1.00  0.00    -0.200 F 
ENDBRANCH  56  70
BRANCH  57  81
ATOM     81  C   UNL A   1      40.970  24.553  27.766  1.00  0.00     0.064 A 
ATOM     82  C   UNL A   1      41.528  23.388  28.313  1.00  0.00     0.173 A 
ATOM     83  C   UNL A   1      39.924  24.406  26.849  1.00  0.00     0.173 A 
ATOM     84  F   UNL A   1      42.564  23.477  29.160  1.00  0.00    -0.203 F 
ATOM     85  C   UNL A   1      41.076  22.125  27.932  1.00  0.00     0.198 A 
ATOM     86  C   UNL A   1      39.464  23.145  26.489  1.00  0.00     0.198 A 
ATOM     87  F   UNL A   1      39.361  25.483  26.284  1.00  0.00    -0.203 F 
ATOM     88  F   UNL A   1      41.674  21.027  28.414  1.00  0.00    -0.200 F 
ATOM     89  C   UNL A   1      40.041  22.004  27.021  1.00  0.00     0.200 A 
ATOM     90  F   UNL A   1      38.482  23.034  25.593  1.00  0.00    -0.200 F 
ATOM     91  F   UNL A   1      39.617  20.794  26.634  1.00  0.00    -0.200 F 
ENDBRANCH  57  81
BRANCH  69  92
ATOM     92  C   UNL A   1      47.017  27.537  26.088  1.00  0.00     0.064 A 
ATOM     93  C   UNL A   1      48.037  26.818  26.727  1.00  0.00     0.173 A 
ATOM     94  C   UNL A   1      47.136  27.754  24.705  1.00  0.00     0.173 A 
ATOM     95  F   UNL A   1      47.981  26.600  28.050  1.00  0.00    -0.203 F 
ATOM     96  C   UNL A   1      49.143  26.359  26.017  1.00  0.00     0.198 A 
ATOM     97  C   UNL A   1      48.224  27.261  23.993  1.00  0.00     0.198 A 
ATOM     98  F   UNL A   1      46.185  28.430  24.042  1.00  0.00    -0.203 F 
ATOM     99  F   UNL A   1      50.132  25.723  26.661  1.00  0.00    -0.200 F 
ATOM    100  C   UNL A   1      49.231  26.573  24.650  1.00  0.00     0.200 A 
ATOM    101  F   UNL A   1      48.299  27.454  22.669  1.00  0.00    -0.200 F 
ATOM    102  F   UNL A   1      50.293  26.122  23.967  1.00  0.00    -0.200 F 
ENDBRANCH  69  92
ENDBRANCH  43  44
ENDBRANCH  36  38
ENDBRANCH  35  36
ENDBRANCH  34  35
ENDBRANCH  33  34
ENDBRANCH  32  33
ENDBRANCH  31  32
ENDBRANCH  30  31
ENDBRANCH  29  30
ENDBRANCH  28  29
ENDBRANCH   1  28
TORSDOF 25
ENDMDL
MODEL 2
REMARK VINA RESULT:     -10.2      5.158      9.223
REMARK SMILES CN(C)C(=O)CCNC(=O)NC[C@H]1CC[C@@H](C(=O)OCCOCCOCCOCCOC(=O)c2ccc(-c3c4nc(c(-c5c(F)c(F)c(F)c(F)c5F)c5ccc([nH]5)c(-c5c(F)c(F)c(F)c(F)c5F)c5nc(c(-c6c(F)c(F)c(F)c(F)c6F)c6ccc3[nH]6)C=C5)C=C4)cc2)CC1
REMARK SMILES IDX 23 1 22 2 21 3 20 4 19 5 17 6 18 7 16 8 13 9 14 10 98 11
REMARK SMILES IDX 15 12 97 13 12 14 11 15 8 16 9 17 10 19 7 21 6 22 4 23 1 24
REMARK SMILES IDX 2 25 3 26 5 27 24 28 25 29 26 30 27 31 28 32 29 33 30 34
REMARK SMILES IDX 31 35 32 36 33 37 34 38 35 39 96 40 36 41 95 42 37 43 38 44
REMARK SMILES IDX 39 45 89 46 40 47 94 48 88 49 90 50 41 51 93 52 87 53 86 54
REMARK SMILES IDX 42 56 74 57 54 58 73 59 55 60 58 61 72 62 91 63 56 64 57 65
REMARK SMILES IDX 71 67 92 68 59 69 43 70 44 71 52 72 45 73 46 74 50 75 53 76
REMARK SMILES IDX 47 77 48 78 51 79 49 80 75 81 76 82 84 83 77 84 78 85 82 86
REMARK SMILES IDX 85 87 79 88 80 89 83 90 81 91 60 92 61 93 69 94 62 95 63 96
REMARK SMILES IDX 67 97 70 98 64 99 65 100 68 101 66 102
REMARK H PARENT 8 18 11 20 90 55 58 66
REMARK Flexibility Score: inf
ROOT
ATOM      1  C   UNL A   1      34.665  29.054  27.251  1.00  0.00     0.188 C 
ENDROOT
BRANCH   1   2
ATOM      2  O   UNL A   1      33.373  29.619  27.200  1.00  0.00    -0.376 OA
BRANCH   2   3
ATOM      3  C   UNL A   1      32.864  30.025  25.948  1.00  0.00     0.202 C 
BRANCH   3   4
ATOM      4  C   UNL A   1      33.034  29.150  24.693  1.00  0.00     0.261 C 
BRANCH   4   5
ATOM      5  O   UNL A   1      32.636  27.771  24.748  1.00  0.00    -0.463 OA
BRANCH   5   6
ATOM      6  C   UNL A   1      31.346  27.505  25.057  1.00  0.00     0.309 C 
ATOM      7  O   UNL A   1      30.942  27.364  26.206  1.00  0.00    -0.252 OA
BRANCH   6   8
ATOM      8  C   UNL A   1      30.452  27.245  23.834  1.00  0.00     0.099 C 
ATOM      9  C   UNL A   1      31.355  24.607  22.736  1.00  0.00     0.008 C 
ATOM     10  C   UNL A   1      30.555  24.746  24.050  1.00  0.00     0.006 C 
ATOM     11  C   UNL A   1      31.958  25.927  22.231  1.00  0.00     0.006 C 
ATOM     12  C   UNL A   1      29.657  25.978  24.117  1.00  0.00     0.015 C 
ATOM     13  C   UNL A   1      31.029  27.116  22.418  1.00  0.00     0.015 C 
BRANCH   9  14
ATOM     14  C   UNL A   1      32.486  23.550  22.816  1.00  0.00     0.121 C 
BRANCH  14  15
ATOM     15  N   UNL A   1      32.085  22.211  22.442  1.00  0.00    -0.338 N 
ATOM     16  N   UNL A   1      32.236  20.992  24.445  1.00  0.00    -0.338 N 
ATOM     17  C   UNL A   1      32.154  21.051  23.108  1.00  0.00     0.314 C 
ATOM     18  H   UNL A   1      32.643  20.164  24.790  1.00  0.00     0.165 HD
ATOM     19  O   UNL A   1      32.152  20.005  22.459  1.00  0.00    -0.249 OA
ATOM     20  H   UNL A   1      31.694  22.140  21.543  1.00  0.00     0.165 HD
BRANCH  16  21
ATOM     21  C   UNL A   1      31.830  21.932  25.476  1.00  0.00     0.127 C 
BRANCH  21  22
ATOM     22  C   UNL A   1      32.895  22.138  26.545  1.00  0.00     0.121 C 
BRANCH  22  23
ATOM     23  C   UNL A   1      33.869  23.210  26.098  1.00  0.00     0.223 C 
ATOM     24  C   UNL A   1      35.951  23.868  25.032  1.00  0.00     0.146 C 
ATOM     25  N   UNL A   1      35.110  22.839  25.614  1.00  0.00    -0.349 N 
ATOM     26  C   UNL A   1      35.696  21.511  25.686  1.00  0.00     0.146 C 
ATOM     27  O   UNL A   1      33.504  24.389  26.112  1.00  0.00    -0.275 OA
ENDBRANCH  22  23
ENDBRANCH  21  22
ENDBRANCH  16  21
ENDBRANCH  14  15
ENDBRANCH   9  14
ENDBRANCH   6   8
ENDBRANCH   5   6
ENDBRANCH   4   5
ENDBRANCH   3   4
ENDBRANCH   2   3
ENDBRANCH   1   2
BRANCH   1  28
ATOM     28  C   UNL A   1      35.738  30.034  27.750  1.00  0.00     0.188 C 
BRANCH  28  29
ATOM     29  O   UNL A   1      35.392  31.100  28.628  1.00  0.00    -0.377 OA
BRANCH  29  30
ATOM     30  C   UNL A   1      34.965  32.347  28.090  1.00  0.00     0.188 C 
BRANCH  30  31
ATOM     31  C   UNL A   1      35.777  33.625  28.390  1.00  0.00     0.188 C 
BRANCH  31  32
ATOM     32  O   UNL A   1      35.082  34.595  29.152  1.00  0.00    -0.376 OA
BRANCH  32  33
ATOM     33  C   UNL A   1      33.666  34.516  29.179  1.00  0.00     0.202 C 
BRANCH  33  34
ATOM     34  C   UNL A   1      32.876  35.738  29.680  1.00  0.00     0.261 C 
BRANCH  34  35
ATOM     35  O   UNL A   1      33.174  36.199  31.009  1.00  0.00    -0.460 OA
BRANCH  35  36
ATOM     36  C   UNL A   1      32.818  35.411  32.050  1.00  0.00     0.338 C 
ATOM     37  O   UNL A   1      31.700  35.105  32.399  1.00  0.00    -0.246 OA
BRANCH  36  38
ATOM     38  C   UNL A   1      34.063  34.822  32.594  1.00  0.00     0.060 A 
ATOM     39  C   UNL A   1      35.268  35.524  32.462  1.00  0.00     0.016 A 
ATOM     40  C   UNL A   1      34.033  33.588  33.246  1.00  0.00     0.016 A 
ATOM     41  C   UNL A   1      36.450  34.989  32.976  1.00  0.00     0.010 A 
ATOM     42  C   UNL A   1      35.222  33.040  33.736  1.00  0.00     0.010 A 
ATOM     43  C   UNL A   1      36.439  33.727  33.587  1.00  0.00    -0.014 A 
BRANCH  43  44
ATOM     44  C   UNL A   1      37.720  33.061  33.930  1.00  0.00     0.031 A 
ATOM     45  C   UNL A   1      38.268  32.022  32.992  1.00  0.00     0.074 A 
ATOM     46  C   UNL A   1      38.396  33.383  35.047  1.00  0.00     0.049 A 
ATOM     47  N   UNL A   1      39.325  31.259  33.120  1.00  0.00    -0.248 NA
ATOM     48  C   UNL A   1      37.523  31.814  31.739  1.00  0.00     0.031 C 
ATOM     49  C   UNL A   1      38.000  34.405  36.015  1.00  0.00     0.029 A 
ATOM     50  N   UNL A   1      39.562  32.868  35.560  1.00  0.00    -0.354 N 
ATOM     51  C   UNL A   1      39.363  30.474  31.975  1.00  0.00     0.074 A 
ATOM     52  C   UNL A   1      38.217  30.839  31.171  1.00  0.00     0.031 C 
ATOM     53  C   UNL A   1      38.903  34.432  37.012  1.00  0.00     0.029 A 
ATOM     54  C   UNL A   1      39.915  33.404  36.774  1.00  0.00     0.049 A 
ATOM     55  H   UNL A   1      40.095  32.179  35.100  1.00  0.00     0.167 HD
ATOM     56  C   UNL A   1      40.273  29.533  31.629  1.00  0.00     0.037 A 
ATOM     57  C   UNL A   1      40.917  33.072  37.611  1.00  0.00     0.037 A 
ATOM     58  C   UNL A   1      41.418  29.178  32.425  1.00  0.00     0.049 A 
ATOM     59  C   UNL A   1      41.853  31.949  37.245  1.00  0.00     0.074 A 
ATOM     60  C   UNL A   1      42.420  28.269  32.133  1.00  0.00     0.029 A 
ATOM     61  N   UNL A   1      41.705  29.702  33.675  1.00  0.00    -0.354 N 
ATOM     62  N   UNL A   1      41.903  31.232  36.150  1.00  0.00    -0.248 NA
ATOM     63  C   UNL A   1      42.868  31.581  38.244  1.00  0.00     0.031 C 
ATOM     64  C   UNL A   1      43.273  28.189  33.236  1.00  0.00     0.029 A 
ATOM     65  C   UNL A   1      42.844  29.100  34.187  1.00  0.00     0.049 A 
ATOM     66  H   UNL A   1      41.180  30.397  34.132  1.00  0.00     0.167 HD
ATOM     67  C   UNL A   1      42.967  30.354  36.316  1.00  0.00     0.074 A 
ATOM     68  C   UNL A   1      43.548  30.640  37.608  1.00  0.00     0.031 C 
ATOM     69  C   UNL A   1      43.421  29.394  35.472  1.00  0.00     0.037 A 
BRANCH  56  70
ATOM     70  C   UNL A   1      40.057  28.785  30.347  1.00  0.00     0.064 A 
ATOM     71  C   UNL A   1      40.565  29.247  29.124  1.00  0.00     0.173 A 
ATOM     72  C   UNL A   1      39.401  27.544  30.360  1.00  0.00     0.173 A 
ATOM     73  F   UNL A   1      41.189  30.432  29.055  1.00  0.00    -0.203 F 
ATOM     74  C   UNL A   1      40.413  28.498  27.959  1.00  0.00     0.198 A 
ATOM     75  C   UNL A   1      39.278  26.786  29.200  1.00  0.00     0.198 A 
ATOM     76  F   UNL A   1      38.900  27.057  31.505  1.00  0.00    -0.203 F 
ATOM     77  F   UNL A   1      40.879  28.971  26.795  1.00  0.00    -0.200 F 
ATOM     78  C   UNL A   1      39.781  27.263  28.001  1.00  0.00     0.200 A 
ATOM     79  F   UNL A   1      38.681  25.586  29.247  1.00  0.00    -0.200 F 
ATOM     80  F   UNL A   1      39.656  26.535  26.883  1.00  0.00    -0.200 F 
ENDBRANCH  56  70
BRANCH  57  81
ATOM     81  C   UNL A   1      41.060  33.749  38.925  1.00  0.00     0.064 A 
ATOM     82  C   UNL A   1      42.019  34.751  39.133  1.00  0.00     0.173 A 
ATOM     83  C   UNL A   1      40.308  33.327  40.027  1.00  0.00     0.173 A 
ATOM     84  F   UNL A   1      42.796  35.153  38.117  1.00  0.00    -0.203 F 
ATOM     85  C   UNL A   1      42.238  35.286  40.402  1.00  0.00     0.198 A 
ATOM     86  C   UNL A   1      40.516  33.880  41.285  1.00  0.00     0.198 A 
ATOM     87  F   UNL A   1      39.386  32.364  39.890  1.00  0.00    -0.203 F 
ATOM     88  F   UNL A   1      43.210  36.189  40.589  1.00  0.00    -0.200 F 
ATOM     89  C   UNL A   1      41.483  34.852  41.478  1.00  0.00     0.200 A 
ATOM     90  F   UNL A   1      39.802  33.441  42.322  1.00  0.00    -0.200 F 
ATOM     91  F   UNL A   1      41.703  35.345  42.703  1.00  0.00    -0.200 F 
ENDBRANCH  57  81
BRANCH  69  92
ATOM     92  C   UNL A   1      44.628  28.610  35.900  1.00  0.00     0.064 A 
ATOM     93  C   UNL A   1      45.931  29.029  35.591  1.00  0.00     0.173 A 
ATOM     94  C   UNL A   1      44.480  27.439  36.660  1.00  0.00     0.173 A 
ATOM     95  F   UNL A   1      46.127  30.132  34.852  1.00  0.00    -0.203 F 
ATOM     96  C   UNL A   1      47.037  28.290  36.002  1.00  0.00     0.198 A 
ATOM     97  C   UNL A   1      45.589  26.723  37.100  1.00  0.00     0.198 A 
ATOM     98  F   UNL A   1      43.257  26.996  36.989  1.00  0.00    -0.203 F 
ATOM     99  F   UNL A   1      48.269  28.680  35.646  1.00  0.00    -0.200 F 
ATOM    100  C   UNL A   1      46.866  27.144  36.763  1.00  0.00     0.200 A 
ATOM    101  F   UNL A   1      45.422  25.625  37.850  1.00  0.00    -0.200 F 
ATOM    102  F   UNL A   1      47.934  26.440  37.165  1.00  0.00    -0.200 F 
ENDBRANCH  69  92
ENDBRANCH  43  44
ENDBRANCH  36  38
ENDBRANCH  35  36
ENDBRANCH  34  35
ENDBRANCH  33  34
ENDBRANCH  32  33
ENDBRANCH  31  32
ENDBRANCH  30  31
ENDBRANCH  29  30
ENDBRANCH  28  29
ENDBRANCH   1  28
TORSDOF 25
ENDMDL
MODEL 3
REMARK VINA RESULT:      -9.0      3.831      9.209
REMARK SMILES CN(C)C(=O)CCNC(=O)NC[C@H]1CC[C@@H](C(=O)OCCOCCOCCOCCOC(=O)c2ccc(-c3c4nc(c(-c5c(F)c(F)c(F)c(F)c5F)c5ccc([nH]5)c(-c5c(F)c(F)c(F)c(F)c5F)c5nc(c(-c6c(F)c(F)c(F)c(F)c6F)c6ccc3[nH]6)C=C5)C=C4)cc2)CC1
REMARK SMILES IDX 23 1 22 2 21 3 20 4 19 5 17 6 18 7 16 8 13 9 14 10 98 11
REMARK SMILES IDX 15 12 97 13 12 14 11 15 8 16 9 17 10 19 7 21 6 22 4 23 1 24
REMARK SMILES IDX 2 25 3 26 5 27 24 28 25 29 26 30 27 31 28 32 29 33 30 34
REMARK SMILES IDX 31 35 32 36 33 37 34 38 35 39 96 40 36 41 95 42 37 43 38 44
REMARK SMILES IDX 39 45 89 46 40 47 94 48 88 49 90 50 41 51 93 52 87 53 86 54
REMARK SMILES IDX 42 56 74 57 54 58 73 59 55 60 58 61 72 62 91 63 56 64 57 65
REMARK SMILES IDX 71 67 92 68 59 69 43 70 44 71 52 72 45 73 46 74 50 75 53 76
REMARK SMILES IDX 47 77 48 78 51 79 49 80 75 81 76 82 84 83 77 84 78 85 82 86
REMARK SMILES IDX 85 87 79 88 80 89 83 90 81 91 60 92 61 93 69 94 62 95 63 96
REMARK SMILES IDX 67 97 70 98 64 99 65 100 68 101 66 102
REMARK H PARENT 8 18 11 20 90 55 58 66
REMARK Flexibility Score: inf
ROOT
ATOM      1  C   UNL A   1      36.759  29.474  27.573  1.00  0.00     0.188 C 
ENDROOT
BRANCH   1   2
ATOM      2  O   UNL A   1      35.427  29.208  27.958  1.00  0.00    -0.376 OA
BRANCH   2   3
ATOM      3  C   UNL A   1      34.383  29.861  27.269  1.00  0.00     0.202 C 
BRANCH   3   4
ATOM      4  C   UNL A   1      33.190  29.077  26.692  1.00  0.00     0.261 C 
BRANCH   4   5
ATOM      5  O   UNL A   1      33.291  28.536  25.365  1.00  0.00    -0.463 OA
BRANCH   5   6
ATOM      6  C   UNL A   1      32.193  27.935  24.852  1.00  0.00     0.309 C 
ATOM      7  O   UNL A   1      31.290  27.476  25.544  1.00  0.00    -0.252 OA
BRANCH   6   8
ATOM      8  C   UNL A   1      32.243  27.738  23.329  1.00  0.00     0.099 C 
ATOM      9  C   UNL A   1      31.938  24.788  22.897  1.00  0.00     0.008 C 
ATOM     10  C   UNL A   1      30.776  25.701  23.350  1.00  0.00     0.006 C 
ATOM     11  C   UNL A   1      33.325  25.432  23.034  1.00  0.00     0.006 C 
ATOM     12  C   UNL A   1      30.903  27.154  22.904  1.00  0.00     0.015 C 
ATOM     13  C   UNL A   1      33.340  26.904  22.653  1.00  0.00     0.015 C 
BRANCH   9  14
ATOM     14  C   UNL A   1      31.958  23.418  23.622  1.00  0.00     0.121 C 
BRANCH  14  15
ATOM     15  N   UNL A   1      31.965  23.501  25.066  1.00  0.00    -0.338 N 
ATOM     16  N   UNL A   1      32.200  21.269  25.763  1.00  0.00    -0.338 N 
ATOM     17  C   UNL A   1      31.882  22.549  26.005  1.00  0.00     0.314 C 
ATOM     18  H   UNL A   1      31.767  20.623  26.367  1.00  0.00     0.165 HD
ATOM     19  O   UNL A   1      31.489  22.869  27.126  1.00  0.00    -0.249 OA
ATOM     20  H   UNL A   1      32.045  24.415  25.420  1.00  0.00     0.165 HD
BRANCH  16  21
ATOM     21  C   UNL A   1      33.070  20.665  24.768  1.00  0.00     0.127 C 
BRANCH  21  22
ATOM     22  C   UNL A   1      32.471  19.416  24.135  1.00  0.00     0.121 C 
BRANCH  22  23
ATOM     23  C   UNL A   1      32.784  18.206  24.993  1.00  0.00     0.223 C 
ATOM     24  C   UNL A   1      34.007  16.142  25.379  1.00  0.00     0.146 C 
ATOM     25  N   UNL A   1      33.581  17.199  24.480  1.00  0.00    -0.349 N 
ATOM     26  C   UNL A   1      33.992  17.054  23.095  1.00  0.00     0.146 C 
ATOM     27  O   UNL A   1      32.375  18.181  26.157  1.00  0.00    -0.275 OA
ENDBRANCH  22  23
ENDBRANCH  21  22
ENDBRANCH  16  21
ENDBRANCH  14  15
ENDBRANCH   9  14
ENDBRANCH   6   8
ENDBRANCH   5   6
ENDBRANCH   4   5
ENDBRANCH   3   4
ENDBRANCH   2   3
ENDBRANCH   1   2
BRANCH   1  28
ATOM     28  C   UNL A   1      37.473  30.468  28.502  1.00  0.00     0.188 C 
BRANCH  28  29
ATOM     29  O   UNL A   1      38.493  30.024  29.389  1.00  0.00    -0.377 OA
BRANCH  29  30
ATOM     30  C   UNL A   1      39.004  30.913  30.378  1.00  0.00     0.188 C 
BRANCH  30  31
ATOM     31  C   UNL A   1      39.067  30.458  31.852  1.00  0.00     0.188 C 
BRANCH  31  32
ATOM     32  O   UNL A   1      38.052  31.001  32.675  1.00  0.00    -0.376 OA
BRANCH  32  33
ATOM     33  C   UNL A   1      36.750  31.115  32.124  1.00  0.00     0.202 C 
BRANCH  33  34
ATOM     34  C   UNL A   1      36.107  32.511  32.054  1.00  0.00     0.261 C 
BRANCH  34  35
ATOM     35  O   UNL A   1      36.794  33.500  31.267  1.00  0.00    -0.460 OA
BRANCH  35  36
ATOM     36  C   UNL A   1      37.545  34.420  31.915  1.00  0.00     0.338 C 
ATOM     37  O   UNL A   1      37.287  34.989  32.952  1.00  0.00    -0.246 OA
BRANCH  36  38
ATOM     38  C   UNL A   1      38.851  34.481  31.221  1.00  0.00     0.060 A 
ATOM     39  C   UNL A   1      40.031  34.337  31.964  1.00  0.00     0.016 A 
ATOM     40  C   UNL A   1      38.906  34.664  29.838  1.00  0.00     0.016 A 
ATOM     41  C   UNL A   1      41.270  34.383  31.325  1.00  0.00     0.010 A 
ATOM     42  C   UNL A   1      40.150  34.738  29.204  1.00  0.00     0.010 A 
ATOM     43  C   UNL A   1      41.338  34.618  29.945  1.00  0.00    -0.014 A 
BRANCH  43  44
ATOM     44  C   UNL A   1      42.649  34.890  29.305  1.00  0.00     0.031 A 
ATOM     45  C   UNL A   1      43.572  33.734  29.033  1.00  0.00     0.074 A 
ATOM     46  C   UNL A   1      43.010  36.137  28.955  1.00  0.00     0.049 A 
ATOM     47  N   UNL A   1      44.791  33.738  28.554  1.00  0.00    -0.248 NA
ATOM     48  C   UNL A   1      43.051  32.393  29.344  1.00  0.00     0.031 C 
ATOM     49  C   UNL A   1      42.190  37.335  29.118  1.00  0.00     0.029 A 
ATOM     50  N   UNL A   1      44.175  36.600  28.395  1.00  0.00    -0.354 N 
ATOM     51  C   UNL A   1      45.186  32.407  28.520  1.00  0.00     0.074 A 
ATOM     52  C   UNL A   1      44.086  31.624  29.041  1.00  0.00     0.031 C 
ATOM     53  C   UNL A   1      42.884  38.401  28.679  1.00  0.00     0.029 A 
ATOM     54  C   UNL A   1      44.210  37.964  28.243  1.00  0.00     0.049 A 
ATOM     55  H   UNL A   1      44.917  36.010  28.126  1.00  0.00     0.167 HD
ATOM     56  C   UNL A   1      46.361  31.888  28.093  1.00  0.00     0.037 A 
ATOM     57  C   UNL A   1      45.213  38.767  27.837  1.00  0.00     0.037 A 
ATOM     58  C   UNL A   1      47.450  32.666  27.566  1.00  0.00     0.049 A 
ATOM     59  C   UNL A   1      46.545  38.168  27.466  1.00  0.00     0.074 A 
ATOM     60  C   UNL A   1      48.662  32.222  27.066  1.00  0.00     0.029 A 
ATOM     61  N   UNL A   1      47.468  34.049  27.486  1.00  0.00    -0.354 N 
ATOM     62  N   UNL A   1      46.902  36.909  27.407  1.00  0.00    -0.248 NA
ATOM     63  C   UNL A   1      47.620  39.109  27.118  1.00  0.00     0.031 C 
ATOM     64  C   UNL A   1      49.440  33.338  26.751  1.00  0.00     0.029 A 
ATOM     65  C   UNL A   1      48.689  34.476  26.988  1.00  0.00     0.049 A 
ATOM     66  H   UNL A   1      46.725  34.641  27.745  1.00  0.00     0.167 HD
ATOM     67  C   UNL A   1      48.227  36.907  26.987  1.00  0.00     0.074 A 
ATOM     68  C   UNL A   1      48.605  38.288  26.788  1.00  0.00     0.031 C 
ATOM     69  C   UNL A   1      49.056  35.854  26.787  1.00  0.00     0.037 A 
BRANCH  56  70
ATOM     70  C   UNL A   1      46.557  30.405  28.207  1.00  0.00     0.064 A 
ATOM     71  C   UNL A   1      46.978  29.801  29.401  1.00  0.00     0.173 A 
ATOM     72  C   UNL A   1      46.240  29.569  27.125  1.00  0.00     0.173 A 
ATOM     73  F   UNL A   1      47.306  30.556  30.460  1.00  0.00    -0.203 F 
ATOM     74  C   UNL A   1      47.085  28.416  29.503  1.00  0.00     0.198 A 
ATOM     75  C   UNL A   1      46.319  28.185  27.240  1.00  0.00     0.198 A 
ATOM     76  F   UNL A   1      45.830  30.097  25.962  1.00  0.00    -0.203 F 
ATOM     77  F   UNL A   1      47.518  27.861  30.643  1.00  0.00    -0.200 F 
ATOM     78  C   UNL A   1      46.743  27.609  28.427  1.00  0.00     0.200 A 
ATOM     79  F   UNL A   1      45.973  27.408  26.204  1.00  0.00    -0.200 F 
ATOM     80  F   UNL A   1      46.825  26.277  28.535  1.00  0.00    -0.200 F 
ENDBRANCH  56  70
BRANCH  57  81
ATOM     81  C   UNL A   1      45.042  40.243  27.826  1.00  0.00     0.064 A 
ATOM     82  C   UNL A   1      44.549  40.916  26.698  1.00  0.00     0.173 A 
ATOM     83  C   UNL A   1      45.472  41.016  28.910  1.00  0.00     0.173 A 
ATOM     84  F   UNL A   1      44.170  40.219  25.617  1.00  0.00    -0.203 F 
ATOM     85  C   UNL A   1      44.518  42.309  26.647  1.00  0.00     0.198 A 
ATOM     86  C   UNL A   1      45.419  42.403  28.861  1.00  0.00     0.198 A 
ATOM     87  F   UNL A   1      45.965  40.427  30.009  1.00  0.00    -0.203 F 
ATOM     88  F   UNL A   1      44.111  42.929  25.531  1.00  0.00    -0.200 F 
ATOM     89  C   UNL A   1      44.951  43.053  27.730  1.00  0.00     0.200 A 
ATOM     90  F   UNL A   1      45.860  43.115  29.899  1.00  0.00    -0.200 F 
ATOM     91  F   UNL A   1      44.946  44.391  27.680  1.00  0.00    -0.200 F 
ENDBRANCH  57  81
BRANCH  69  92
ATOM     92  C   UNL A   1      50.442  36.148  26.289  1.00  0.00     0.064 A 
ATOM     93  C   UNL A   1      50.722  36.298  24.923  1.00  0.00     0.173 A 
ATOM     94  C   UNL A   1      51.501  36.315  27.197  1.00  0.00     0.173 A 
ATOM     95  F   UNL A   1      49.750  36.130  24.012  1.00  0.00    -0.203 F 
ATOM     96  C   UNL A   1      52.013  36.576  24.482  1.00  0.00     0.198 A 
ATOM     97  C   UNL A   1      52.782  36.630  26.755  1.00  0.00     0.198 A 
ATOM     98  F   UNL A   1      51.287  36.189  28.515  1.00  0.00    -0.203 F 
ATOM     99  F   UNL A   1      52.268  36.659  23.169  1.00  0.00    -0.200 F 
ATOM    100  C   UNL A   1      53.039  36.751  25.398  1.00  0.00     0.200 A 
ATOM    101  F   UNL A   1      53.768  36.815  27.643  1.00  0.00    -0.200 F 
ATOM    102  F   UNL A   1      54.280  37.028  24.972  1.00  0.00    -0.200 F 
ENDBRANCH  69  92
ENDBRANCH  43  44
ENDBRANCH  36  38
ENDBRANCH  35  36
ENDBRANCH  34  35
ENDBRANCH  33  34
ENDBRANCH  32  33
ENDBRANCH  31  32
ENDBRANCH  30  31
ENDBRANCH  29  30
ENDBRANCH  28  29
ENDBRANCH   1  28
TORSDOF 25
ENDMDL
