MODEL 1
REMARK VINA RESULT:      -9.9      0.000      0.000
REMARK SMILES C[NH2+][C@]1(C(=O)OCCOCCOCCOCCOC(=O)c2ccc(-c3c4nc(c(-c5c(F)c(F)c(F)c(F)c5F)c5ccc([nH]5)c(-c5c(F)c(F)c(F)c(F)c5F)c5nc(c(-c6c(F)c(F)c(F)c(F)c6F)c6ccc3[nH]6)C=C5)C=C4)cc2)CCC[C@@H](Sc2nncs2)C1
REMARK SMILES IDX 12 1 11 2 10 3 9 4 8 5 7 6 6 7 4 8 5 9 3 10 84 11 94 12
REMARK SMILES IDX 85 13 87 14 86 15 2 16 1 17 88 20 89 21 90 22 93 23 91 24
REMARK SMILES IDX 92 25 13 26 14 27 15 28 16 29 17 30 18 31 19 32 20 33 21 34
REMARK SMILES IDX 22 35 83 36 23 37 82 38 24 39 25 40 26 41 76 42 27 43 81 44
REMARK SMILES IDX 75 45 77 46 28 47 80 48 74 49 73 50 29 52 61 53 41 54 60 55
REMARK SMILES IDX 42 56 45 57 59 58 78 59 43 60 44 61 58 63 79 64 46 65 30 66
REMARK SMILES IDX 31 67 39 68 32 69 33 70 37 71 40 72 34 73 35 74 38 75 36 76
REMARK SMILES IDX 62 77 63 78 71 79 64 80 65 81 69 82 72 83 66 84 67 85 70 86
REMARK SMILES IDX 68 87 47 88 48 89 56 90 49 91 50 92 54 93 57 94 51 95 52 96
REMARK SMILES IDX 55 97 53 98
REMARK H PARENT 2 18 2 19 77 51 45 62
REMARK Flexibility Score: inf
ROOT
ATOM      1  O   UNL A   1      32.488  36.114  29.088  1.00  0.00    -0.377 OA
ENDROOT
BRANCH   1   2
ATOM      2  C   UNL A   1      32.908  35.003  28.321  1.00  0.00     0.188 C 
BRANCH   2   3
ATOM      3  C   UNL A   1      34.269  34.412  28.712  1.00  0.00     0.188 C 
BRANCH   3   4
ATOM      4  O   UNL A   1      34.295  33.197  29.431  1.00  0.00    -0.376 OA
BRANCH   4   5
ATOM      5  C   UNL A   1      34.444  31.934  28.803  1.00  0.00     0.202 C 
BRANCH   5   6
ATOM      6  C   UNL A   1      33.748  31.437  27.521  1.00  0.00     0.261 C 
BRANCH   6   7
ATOM      7  O   UNL A   1      32.846  30.337  27.621  1.00  0.00    -0.459 OA
BRANCH   7   8
ATOM      8  C   UNL A   1      32.067  30.129  26.533  1.00  0.00     0.368 C 
ATOM      9  O   UNL A   1      31.448  31.025  25.966  1.00  0.00    -0.245 OA
BRANCH   8  10
ATOM     10  C   UNL A   1      32.047  28.637  26.059  1.00  0.00     0.195 C 
ATOM     11  C   UNL A   1      31.107  27.716  26.894  1.00  0.00     0.081 C 
ATOM     12  C   UNL A   1      31.440  28.725  24.647  1.00  0.00     0.096 C 
ATOM     13  C   UNL A   1      30.932  26.322  26.281  1.00  0.00     0.008 C 
ATOM     14  C   UNL A   1      31.162  27.380  23.984  1.00  0.00     0.061 C 
ATOM     15  C   UNL A   1      30.366  26.415  24.870  1.00  0.00     0.015 C 
BRANCH  10  16
ATOM     16  N   UNL A   1      33.425  28.065  26.119  1.00  0.00    -0.335 N 
ATOM     17  C   UNL A   1      34.362  28.520  25.102  1.00  0.00     0.331 C 
ATOM     18  H   UNL A   1      33.818  28.299  27.030  1.00  0.00     0.347 HD
ATOM     19  H   UNL A   1      33.309  27.065  25.953  1.00  0.00     0.347 HD
ENDBRANCH  10  16
BRANCH  14  20
ATOM     20  S   UNL A   1      30.342  27.601  22.352  1.00  0.00    -0.090 SA
BRANCH  20  21
ATOM     21  C   UNL A   1      29.113  28.796  22.715  1.00  0.00     0.174 A 
ATOM     22  N   UNL A   1      27.937  28.477  23.210  1.00  0.00    -0.132 NA
ATOM     23  S   UNL A   1      29.321  30.475  22.440  1.00  0.00    -0.094 S 
ATOM     24  N   UNL A   1      27.093  29.563  23.311  1.00  0.00    -0.146 NA
ATOM     25  C   UNL A   1      27.695  30.674  22.947  1.00  0.00     0.203 A 
ENDBRANCH  20  21
ENDBRANCH  14  20
ENDBRANCH   8  10
ENDBRANCH   7   8
ENDBRANCH   6   7
ENDBRANCH   5   6
ENDBRANCH   4   5
ENDBRANCH   3   4
ENDBRANCH   2   3
ENDBRANCH   1   2
BRANCH   1  26
ATOM     26  C   UNL A   1      33.185  36.415  30.288  1.00  0.00     0.188 C 
BRANCH  26  27
ATOM     27  C   UNL A   1      32.710  35.852  31.643  1.00  0.00     0.188 C 
BRANCH  27  28
ATOM     28  O   UNL A   1      33.527  36.178  32.754  1.00  0.00    -0.376 OA
BRANCH  28  29
ATOM     29  C   UNL A   1      34.938  36.126  32.618  1.00  0.00     0.202 C 
BRANCH  29  30
ATOM     30  C   UNL A   1      35.699  34.997  33.331  1.00  0.00     0.261 C 
BRANCH  30  31
ATOM     31  O   UNL A   1      36.224  33.949  32.500  1.00  0.00    -0.460 OA
BRANCH  31  32
ATOM     32  C   UNL A   1      36.248  32.696  32.994  1.00  0.00     0.338 C 
ATOM     33  O   UNL A   1      35.503  32.214  33.831  1.00  0.00    -0.246 OA
BRANCH  32  34
ATOM     34  C   UNL A   1      37.221  31.919  32.200  1.00  0.00     0.060 A 
ATOM     35  C   UNL A   1      38.081  31.029  32.857  1.00  0.00     0.016 A 
ATOM     36  C   UNL A   1      37.287  32.071  30.813  1.00  0.00     0.016 A 
ATOM     37  C   UNL A   1      39.041  30.320  32.135  1.00  0.00     0.010 A 
ATOM     38  C   UNL A   1      38.264  31.379  30.093  1.00  0.00     0.010 A 
ATOM     39  C   UNL A   1      39.169  30.531  30.757  1.00  0.00    -0.014 A 
BRANCH  39  40
ATOM     40  C   UNL A   1      40.377  30.038  30.049  1.00  0.00     0.031 A 
ATOM     41  C   UNL A   1      41.508  31.002  29.821  1.00  0.00     0.074 A 
ATOM     42  C   UNL A   1      40.481  28.762  29.640  1.00  0.00     0.049 A 
ATOM     43  N   UNL A   1      42.634  30.831  29.176  1.00  0.00    -0.248 NA
ATOM     44  C   UNL A   1      41.343  32.346  30.399  1.00  0.00     0.031 C 
ATOM     45  C   UNL A   1      39.477  27.722  29.847  1.00  0.00     0.029 A 
ATOM     46  N   UNL A   1      41.488  28.130  28.951  1.00  0.00    -0.354 N 
ATOM     47  C   UNL A   1      43.303  32.045  29.264  1.00  0.00     0.074 A 
ATOM     48  C   UNL A   1      42.446  32.954  29.991  1.00  0.00     0.031 C 
ATOM     49  C   UNL A   1      39.911  26.582  29.282  1.00  0.00     0.029 A 
ATOM     50  C   UNL A   1      41.205  26.824  28.641  1.00  0.00     0.049 A 
ATOM     51  H   UNL A   1      42.332  28.572  28.704  1.00  0.00     0.167 HD
ATOM     52  C   UNL A   1      44.530  32.368  28.787  1.00  0.00     0.037 A 
ATOM     53  C   UNL A   1      41.898  25.937  27.901  1.00  0.00     0.037 A 
ATOM     54  C   UNL A   1      45.378  31.463  28.059  1.00  0.00     0.049 A 
ATOM     55  C   UNL A   1      43.224  26.348  27.306  1.00  0.00     0.074 A 
ATOM     56  C   UNL A   1      46.640  31.690  27.543  1.00  0.00     0.029 A 
ATOM     57  N   UNL A   1      45.041  30.156  27.736  1.00  0.00    -0.354 N 
ATOM     58  N   UNL A   1      43.862  27.490  27.406  1.00  0.00    -0.248 NA
ATOM     59  C   UNL A   1      43.926  25.343  26.494  1.00  0.00     0.031 C 
ATOM     60  C   UNL A   1      47.042  30.542  26.851  1.00  0.00     0.029 A 
ATOM     61  C   UNL A   1      46.061  29.575  26.998  1.00  0.00     0.049 A 
ATOM     62  H   UNL A   1      44.203  29.708  27.991  1.00  0.00     0.167 HD
ATOM     63  C   UNL A   1      45.051  27.329  26.705  1.00  0.00     0.074 A 
ATOM     64  C   UNL A   1      45.052  25.975  26.194  1.00  0.00     0.031 C 
ATOM     65  C   UNL A   1      46.053  28.220  26.504  1.00  0.00     0.037 A 
BRANCH  52  66
ATOM     66  C   UNL A   1      45.010  33.774  29.009  1.00  0.00     0.064 A 
ATOM     67  C   UNL A   1      44.952  34.746  27.999  1.00  0.00     0.173 A 
ATOM     68  C   UNL A   1      45.513  34.161  30.262  1.00  0.00     0.173 A 
ATOM     69  F   UNL A   1      44.496  34.426  26.779  1.00  0.00    -0.203 F 
ATOM     70  C   UNL A   1      45.405  36.044  28.226  1.00  0.00     0.198 A 
ATOM     71  C   UNL A   1      45.932  35.468  30.495  1.00  0.00     0.198 A 
ATOM     72  F   UNL A   1      45.589  33.272  31.264  1.00  0.00    -0.203 F 
ATOM     73  F   UNL A   1      45.390  36.941  27.230  1.00  0.00    -0.200 F 
ATOM     74  C   UNL A   1      45.887  36.406  29.475  1.00  0.00     0.200 A 
ATOM     75  F   UNL A   1      46.382  35.818  31.708  1.00  0.00    -0.200 F 
ATOM     76  F   UNL A   1      46.314  37.656  29.695  1.00  0.00    -0.200 F 
ENDBRANCH  52  66
BRANCH  53  77
ATOM     77  C   UNL A   1      41.351  24.575  27.659  1.00  0.00     0.064 A 
ATOM     78  C   UNL A   1      41.927  23.443  28.252  1.00  0.00     0.173 A 
ATOM     79  C   UNL A   1      40.256  24.374  26.804  1.00  0.00     0.173 A 
ATOM     80  F   UNL A   1      42.993  23.578  29.055  1.00  0.00    -0.203 F 
ATOM     81  C   UNL A   1      41.447  22.163  27.981  1.00  0.00     0.198 A 
ATOM     82  C   UNL A   1      39.755  23.097  26.561  1.00  0.00     0.198 A 
ATOM     83  F   UNL A   1      39.669  25.421  26.206  1.00  0.00    -0.203 F 
ATOM     84  F   UNL A   1      42.055  21.095  28.516  1.00  0.00    -0.200 F 
ATOM     85  C   UNL A   1      40.358  21.991  27.140  1.00  0.00     0.200 A 
ATOM     86  F   UNL A   1      38.695  22.938  25.757  1.00  0.00    -0.200 F 
ATOM     87  F   UNL A   1      39.896  20.761  26.880  1.00  0.00    -0.200 F 
ENDBRANCH  53  77
BRANCH  65  88
ATOM     88  C   UNL A   1      47.260  27.752  25.738  1.00  0.00     0.064 A 
ATOM     89  C   UNL A   1      48.388  27.223  26.380  1.00  0.00     0.173 A 
ATOM     90  C   UNL A   1      47.266  27.793  24.334  1.00  0.00     0.173 A 
ATOM     91  F   UNL A   1      48.440  27.171  27.721  1.00  0.00    -0.203 F 
ATOM     92  C   UNL A   1      49.488  26.781  25.649  1.00  0.00     0.198 A 
ATOM     93  C   UNL A   1      48.352  27.317  23.606  1.00  0.00     0.198 A 
ATOM     94  F   UNL A   1      46.208  28.280  23.666  1.00  0.00    -0.203 F 
ATOM     95  F   UNL A   1      50.577  26.330  26.287  1.00  0.00    -0.200 F 
ATOM     96  C   UNL A   1      49.466  26.820  24.263  1.00  0.00     0.200 A 
ATOM     97  F   UNL A   1      48.318  27.338  22.266  1.00  0.00    -0.200 F 
ATOM     98  F   UNL A   1      50.522  26.385  23.561  1.00  0.00    -0.200 F 
ENDBRANCH  65  88
ENDBRANCH  39  40
ENDBRANCH  32  34
ENDBRANCH  31  32
ENDBRANCH  30  31
ENDBRANCH  29  30
ENDBRANCH  28  29
ENDBRANCH  27  28
ENDBRANCH  26  27
ENDBRANCH   1  26
TORSDOF 23
ENDMDL
MODEL 2
REMARK VINA RESULT:      -9.5      1.567      2.458
REMARK SMILES C[NH2+][C@]1(C(=O)OCCOCCOCCOCCOC(=O)c2ccc(-c3c4nc(c(-c5c(F)c(F)c(F)c(F)c5F)c5ccc([nH]5)c(-c5c(F)c(F)c(F)c(F)c5F)c5nc(c(-c6c(F)c(F)c(F)c(F)c6F)c6ccc3[nH]6)C=C5)C=C4)cc2)CCC[C@@H](Sc2nncs2)C1
REMARK SMILES IDX 12 1 11 2 10 3 9 4 8 5 7 6 6 7 4 8 5 9 3 10 84 11 94 12
REMARK SMILES IDX 85 13 87 14 86 15 2 16 1 17 88 20 89 21 90 22 93 23 91 24
REMARK SMILES IDX 92 25 13 26 14 27 15 28 16 29 17 30 18 31 19 32 20 33 21 34
REMARK SMILES IDX 22 35 83 36 23 37 82 38 24 39 25 40 26 41 76 42 27 43 81 44
REMARK SMILES IDX 75 45 77 46 28 47 80 48 74 49 73 50 29 52 61 53 41 54 60 55
REMARK SMILES IDX 42 56 45 57 59 58 78 59 43 60 44 61 58 63 79 64 46 65 30 66
REMARK SMILES IDX 31 67 39 68 32 69 33 70 37 71 40 72 34 73 35 74 38 75 36 76
REMARK SMILES IDX 62 77 63 78 71 79 64 80 65 81 69 82 72 83 66 84 67 85 70 86
REMARK SMILES IDX 68 87 47 88 48 89 56 90 49 91 50 92 54 93 57 94 51 95 52 96
REMARK SMILES IDX 55 97 53 98
REMARK H PARENT 2 18 2 19 77 51 45 62
REMARK Flexibility Score: inf
ROOT
ATOM      1  O   UNL A   1      32.601  35.363  29.246  1.00  0.00    -0.377 OA
ENDROOT
BRANCH   1   2
ATOM      2  C   UNL A   1      33.374  34.587  28.352  1.00  0.00     0.188 C 
BRANCH   2   3
ATOM      3  C   UNL A   1      34.549  33.830  28.986  1.00  0.00     0.188 C 
BRANCH   3   4
ATOM      4  O   UNL A   1      34.364  32.477  29.347  1.00  0.00    -0.376 OA
BRANCH   4   5
ATOM      5  C   UNL A   1      35.041  31.409  28.705  1.00  0.00     0.202 C 
BRANCH   5   6
ATOM      6  C   UNL A   1      34.776  30.844  27.296  1.00  0.00     0.261 C 
BRANCH   6   7
ATOM      7  O   UNL A   1      33.703  29.920  27.126  1.00  0.00    -0.459 OA
BRANCH   7   8
ATOM      8  C   UNL A   1      32.563  30.444  26.617  1.00  0.00     0.368 C 
ATOM      9  O   UNL A   1      32.173  31.581  26.870  1.00  0.00    -0.245 OA
BRANCH   8  10
ATOM     10  C   UNL A   1      31.803  29.468  25.659  1.00  0.00     0.195 C 
ATOM     11  C   UNL A   1      30.673  30.144  24.825  1.00  0.00     0.081 C 
ATOM     12  C   UNL A   1      32.892  29.036  24.660  1.00  0.00     0.096 C 
ATOM     13  C   UNL A   1      30.095  29.228  23.741  1.00  0.00     0.008 C 
ATOM     14  C   UNL A   1      32.394  28.177  23.501  1.00  0.00     0.061 C 
ATOM     15  C   UNL A   1      31.182  28.772  22.777  1.00  0.00     0.015 C 
BRANCH  10  16
ATOM     16  N   UNL A   1      31.191  28.356  26.446  1.00  0.00    -0.335 N 
ATOM     17  C   UNL A   1      31.760  27.030  26.248  1.00  0.00     0.331 C 
ATOM     18  H   UNL A   1      31.283  28.588  27.434  1.00  0.00     0.347 HD
ATOM     19  H   UNL A   1      30.228  28.290  26.116  1.00  0.00     0.347 HD
ENDBRANCH  10  16
BRANCH  14  20
ATOM     20  S   UNL A   1      33.753  27.809  22.316  1.00  0.00    -0.090 SA
BRANCH  20  21
ATOM     21  C   UNL A   1      33.665  26.065  22.185  1.00  0.00     0.174 A 
ATOM     22  N   UNL A   1      33.287  25.453  21.084  1.00  0.00    -0.132 NA
ATOM     23  S   UNL A   1      34.041  25.003  23.478  1.00  0.00    -0.094 S 
ATOM     24  N   UNL A   1      33.187  24.087  21.244  1.00  0.00    -0.146 NA
ATOM     25  C   UNL A   1      33.559  23.717  22.449  1.00  0.00     0.203 A 
ENDBRANCH  20  21
ENDBRANCH  14  20
ENDBRANCH   8  10
ENDBRANCH   7   8
ENDBRANCH   6   7
ENDBRANCH   5   6
ENDBRANCH   4   5
ENDBRANCH   3   4
ENDBRANCH   2   3
ENDBRANCH   1   2
BRANCH   1  26
ATOM     26  C   UNL A   1      33.194  35.791  30.463  1.00  0.00     0.188 C 
BRANCH  26  27
ATOM     27  C   UNL A   1      32.640  35.318  31.823  1.00  0.00     0.188 C 
BRANCH  27  28
ATOM     28  O   UNL A   1      33.233  35.922  32.960  1.00  0.00    -0.376 OA
BRANCH  28  29
ATOM     29  C   UNL A   1      34.627  36.182  32.962  1.00  0.00     0.202 C 
BRANCH  29  30
ATOM     30  C   UNL A   1      35.588  35.011  33.225  1.00  0.00     0.261 C 
BRANCH  30  31
ATOM     31  O   UNL A   1      35.973  34.225  32.084  1.00  0.00    -0.460 OA
BRANCH  31  32
ATOM     32  C   UNL A   1      36.159  32.902  32.255  1.00  0.00     0.338 C 
ATOM     33  O   UNL A   1      35.342  32.081  32.637  1.00  0.00    -0.246 OA
BRANCH  32  34
ATOM     34  C   UNL A   1      37.489  32.562  31.709  1.00  0.00     0.060 A 
ATOM     35  C   UNL A   1      37.779  32.882  30.376  1.00  0.00     0.016 A 
ATOM     36  C   UNL A   1      38.443  31.927  32.508  1.00  0.00     0.016 A 
ATOM     37  C   UNL A   1      39.010  32.527  29.824  1.00  0.00     0.010 A 
ATOM     38  C   UNL A   1      39.666  31.552  31.948  1.00  0.00     0.010 A 
ATOM     39  C   UNL A   1      39.939  31.816  30.593  1.00  0.00    -0.014 A 
BRANCH  39  40
ATOM     40  C   UNL A   1      41.093  31.162  29.929  1.00  0.00     0.031 A 
ATOM     41  C   UNL A   1      42.334  31.979  29.698  1.00  0.00     0.074 A 
ATOM     42  C   UNL A   1      41.055  29.869  29.563  1.00  0.00     0.049 A 
ATOM     43  N   UNL A   1      43.445  31.656  29.085  1.00  0.00    -0.248 NA
ATOM     44  C   UNL A   1      42.317  33.352  30.229  1.00  0.00     0.031 C 
ATOM     45  C   UNL A   1      39.932  28.962  29.779  1.00  0.00     0.029 A 
ATOM     46  N   UNL A   1      41.994  29.101  28.918  1.00  0.00    -0.354 N 
ATOM     47  C   UNL A   1      44.251  32.786  29.150  1.00  0.00     0.074 A 
ATOM     48  C   UNL A   1      43.492  33.813  29.828  1.00  0.00     0.031 C 
ATOM     49  C   UNL A   1      40.240  27.760  29.260  1.00  0.00     0.029 A 
ATOM     50  C   UNL A   1      41.566  27.827  28.643  1.00  0.00     0.049 A 
ATOM     51  H   UNL A   1      42.889  29.434  28.677  1.00  0.00     0.167 HD
ATOM     52  C   UNL A   1      45.516  32.948  28.692  1.00  0.00     0.037 A 
ATOM     53  C   UNL A   1      42.165  26.841  27.948  1.00  0.00     0.037 A 
ATOM     54  C   UNL A   1      46.265  31.925  28.014  1.00  0.00     0.049 A 
ATOM     55  C   UNL A   1      43.540  27.074  27.371  1.00  0.00     0.074 A 
ATOM     56  C   UNL A   1      47.556  31.986  27.520  1.00  0.00     0.029 A 
ATOM     57  N   UNL A   1      45.784  30.656  27.723  1.00  0.00    -0.354 N 
ATOM     58  N   UNL A   1      44.306  28.136  27.450  1.00  0.00    -0.248 NA
ATOM     59  C   UNL A   1      44.136  25.967  26.608  1.00  0.00     0.031 C 
ATOM     60  C   UNL A   1      47.833  30.776  26.874  1.00  0.00     0.029 A 
ATOM     61  C   UNL A   1      46.743  29.935  27.029  1.00  0.00     0.049 A 
ATOM     62  H   UNL A   1      44.894  30.318  27.973  1.00  0.00     0.167 HD
ATOM     63  C   UNL A   1      45.482  27.814  26.782  1.00  0.00     0.074 A 
ATOM     64  C   UNL A   1      45.334  26.453  26.314  1.00  0.00     0.031 C 
ATOM     65  C   UNL A   1      46.585  28.575  26.577  1.00  0.00     0.037 A 
BRANCH  52  66
ATOM     66  C   UNL A   1      46.153  34.294  28.882  1.00  0.00     0.064 A 
ATOM     67  C   UNL A   1      46.904  34.606  30.025  1.00  0.00     0.173 A 
ATOM     68  C   UNL A   1      46.033  35.280  27.890  1.00  0.00     0.173 A 
ATOM     69  F   UNL A   1      47.038  33.706  31.011  1.00  0.00    -0.203 F 
ATOM     70  C   UNL A   1      47.486  35.862  30.181  1.00  0.00     0.198 A 
ATOM     71  C   UNL A   1      46.645  36.522  28.033  1.00  0.00     0.198 A 
ATOM     72  F   UNL A   1      45.328  35.036  26.774  1.00  0.00    -0.203 F 
ATOM     73  F   UNL A   1      48.153  36.154  31.306  1.00  0.00    -0.200 F 
ATOM     74  C   UNL A   1      47.363  36.815  29.182  1.00  0.00     0.200 A 
ATOM     75  F   UNL A   1      46.538  37.436  27.059  1.00  0.00    -0.200 F 
ATOM     76  F   UNL A   1      47.930  38.020  29.329  1.00  0.00    -0.200 F 
ENDBRANCH  52  66
BRANCH  53  77
ATOM     77  C   UNL A   1      41.466  25.545  27.736  1.00  0.00     0.064 A 
ATOM     78  C   UNL A   1      41.875  24.380  28.400  1.00  0.00     0.173 A 
ATOM     79  C   UNL A   1      40.391  25.438  26.840  1.00  0.00     0.173 A 
ATOM     80  F   UNL A   1      42.916  24.423  29.244  1.00  0.00    -0.203 F 
ATOM     81  C   UNL A   1      41.254  23.156  28.158  1.00  0.00     0.198 A 
ATOM     82  C   UNL A   1      39.748  24.220  26.625  1.00  0.00     0.198 A 
ATOM     83  F   UNL A   1      39.960  26.520  26.173  1.00  0.00    -0.203 F 
ATOM     84  F   UNL A   1      41.706  22.049  28.763  1.00  0.00    -0.200 F 
ATOM     85  C   UNL A   1      40.188  23.078  27.276  1.00  0.00     0.200 A 
ATOM     86  F   UNL A   1      38.711  24.153  25.780  1.00  0.00    -0.200 F 
ATOM     87  F   UNL A   1      39.590  21.901  27.045  1.00  0.00    -0.200 F 
ENDBRANCH  53  77
BRANCH  65  88
ATOM     88  C   UNL A   1      47.743  27.943  25.855  1.00  0.00     0.064 A 
ATOM     89  C   UNL A   1      48.840  27.401  26.540  1.00  0.00     0.173 A 
ATOM     90  C   UNL A   1      47.732  27.840  24.454  1.00  0.00     0.173 A 
ATOM     91  F   UNL A   1      48.908  27.483  27.878  1.00  0.00    -0.203 F 
ATOM     92  C   UNL A   1      49.894  26.807  25.850  1.00  0.00     0.198 A 
ATOM     93  C   UNL A   1      48.769  27.213  23.770  1.00  0.00     0.198 A 
ATOM     94  F   UNL A   1      46.702  28.332  23.747  1.00  0.00    -0.203 F 
ATOM     95  F   UNL A   1      50.957  26.344  26.523  1.00  0.00    -0.200 F 
ATOM     96  C   UNL A   1      49.854  26.706  24.467  1.00  0.00     0.200 A 
ATOM     97  F   UNL A   1      48.717  27.099  22.436  1.00  0.00    -0.200 F 
ATOM     98  F   UNL A   1      50.865  26.125  23.806  1.00  0.00    -0.200 F 
ENDBRANCH  65  88
ENDBRANCH  39  40
ENDBRANCH  32  34
ENDBRANCH  31  32
ENDBRANCH  30  31
ENDBRANCH  29  30
ENDBRANCH  28  29
ENDBRANCH  27  28
ENDBRANCH  26  27
ENDBRANCH   1  26
TORSDOF 23
ENDMDL
MODEL 3
REMARK VINA RESULT:      -8.8      7.067      9.826
REMARK SMILES C[NH2+][C@]1(C(=O)OCCOCCOCCOCCOC(=O)c2ccc(-c3c4nc(c(-c5c(F)c(F)c(F)c(F)c5F)c5ccc([nH]5)c(-c5c(F)c(F)c(F)c(F)c5F)c5nc(c(-c6c(F)c(F)c(F)c(F)c6F)c6ccc3[nH]6)C=C5)C=C4)cc2)CCC[C@@H](Sc2nncs2)C1
REMARK SMILES IDX 12 1 11 2 10 3 9 4 8 5 7 6 6 7 4 8 5 9 3 10 84 11 94 12
REMARK SMILES IDX 85 13 87 14 86 15 2 16 1 17 88 20 89 21 90 22 93 23 91 24
REMARK SMILES IDX 92 25 13 26 14 27 15 28 16 29 17 30 18 31 19 32 20 33 21 34
REMARK SMILES IDX 22 35 83 36 23 37 82 38 24 39 25 40 26 41 76 42 27 43 81 44
REMARK SMILES IDX 75 45 77 46 28 47 80 48 74 49 73 50 29 52 61 53 41 54 60 55
REMARK SMILES IDX 42 56 45 57 59 58 78 59 43 60 44 61 58 63 79 64 46 65 30 66
REMARK SMILES IDX 31 67 39 68 32 69 33 70 37 71 40 72 34 73 35 74 38 75 36 76
REMARK SMILES IDX 62 77 63 78 71 79 64 80 65 81 69 82 72 83 66 84 67 85 70 86
REMARK SMILES IDX 68 87 47 88 48 89 56 90 49 91 50 92 54 93 57 94 51 95 52 96
REMARK SMILES IDX 55 97 53 98
REMARK H PARENT 2 18 2 19 77 51 45 62
REMARK Flexibility Score: inf
ROOT
ATOM      1  O   UNL A   1      35.330  34.547  28.829  1.00  0.00    -0.377 OA
ENDROOT
BRANCH   1   2
ATOM      2  C   UNL A   1      35.463  33.482  27.908  1.00  0.00     0.188 C 
BRANCH   2   3
ATOM      3  C   UNL A   1      35.671  32.096  28.532  1.00  0.00     0.188 C 
BRANCH   3   4
ATOM      4  O   UNL A   1      35.009  30.989  27.954  1.00  0.00    -0.376 OA
BRANCH   4   5
ATOM      5  C   UNL A   1      33.750  31.096  27.310  1.00  0.00     0.202 C 
BRANCH   5   6
ATOM      6  C   UNL A   1      32.594  30.077  27.337  1.00  0.00     0.261 C 
BRANCH   6   7
ATOM      7  O   UNL A   1      32.885  28.714  27.037  1.00  0.00    -0.459 OA
BRANCH   7   8
ATOM      8  C   UNL A   1      31.811  27.890  26.994  1.00  0.00     0.368 C 
ATOM      9  O   UNL A   1      31.040  27.738  27.938  1.00  0.00    -0.245 OA
BRANCH   8  10
ATOM     10  C   UNL A   1      31.638  27.166  25.617  1.00  0.00     0.195 C 
ATOM     11  C   UNL A   1      30.382  26.246  25.535  1.00  0.00     0.081 C 
ATOM     12  C   UNL A   1      31.398  28.328  24.636  1.00  0.00     0.096 C 
ATOM     13  C   UNL A   1      30.110  25.725  24.119  1.00  0.00     0.008 C 
ATOM     14  C   UNL A   1      31.048  27.904  23.213  1.00  0.00     0.061 C 
ATOM     15  C   UNL A   1      29.912  26.878  23.144  1.00  0.00     0.015 C 
BRANCH  10  16
ATOM     16  N   UNL A   1      32.841  26.331  25.326  1.00  0.00    -0.335 N 
ATOM     17  C   UNL A   1      33.062  25.185  26.196  1.00  0.00     0.331 C 
ATOM     18  H   UNL A   1      32.754  25.984  24.371  1.00  0.00     0.347 HD
ATOM     19  H   UNL A   1      33.640  26.946  25.480  1.00  0.00     0.347 HD
ENDBRANCH  10  16
BRANCH  14  20
ATOM     20  S   UNL A   1      30.679  29.364  22.157  1.00  0.00    -0.090 SA
BRANCH  20  21
ATOM     21  C   UNL A   1      29.178  29.948  22.845  1.00  0.00     0.174 A 
ATOM     22  N   UNL A   1      28.058  29.260  22.794  1.00  0.00    -0.132 NA
ATOM     23  S   UNL A   1      29.027  31.469  23.622  1.00  0.00    -0.094 S 
ATOM     24  N   UNL A   1      26.983  29.960  23.299  1.00  0.00    -0.146 NA
ATOM     25  C   UNL A   1      27.352  31.130  23.773  1.00  0.00     0.203 A 
ENDBRANCH  20  21
ENDBRANCH  14  20
ENDBRANCH   8  10
ENDBRANCH   7   8
ENDBRANCH   6   7
ENDBRANCH   5   6
ENDBRANCH   4   5
ENDBRANCH   3   4
ENDBRANCH   2   3
ENDBRANCH   1   2
BRANCH   1  26
ATOM     26  C   UNL A   1      34.370  35.559  28.564  1.00  0.00     0.188 C 
BRANCH  26  27
ATOM     27  C   UNL A   1      33.011  35.573  29.293  1.00  0.00     0.188 C 
BRANCH  27  28
ATOM     28  O   UNL A   1      32.872  36.567  30.293  1.00  0.00    -0.376 OA
BRANCH  28  29
ATOM     29  C   UNL A   1      32.536  36.182  31.616  1.00  0.00     0.202 C 
BRANCH  29  30
ATOM     30  C   UNL A   1      33.672  36.001  32.635  1.00  0.00     0.261 C 
BRANCH  30  31
ATOM     31  O   UNL A   1      34.902  35.447  32.137  1.00  0.00    -0.460 OA
BRANCH  31  32
ATOM     32  C   UNL A   1      35.160  34.147  32.382  1.00  0.00     0.338 C 
ATOM     33  O   UNL A   1      34.704  33.178  31.800  1.00  0.00    -0.246 OA
BRANCH  32  34
ATOM     34  C   UNL A   1      36.261  34.086  33.364  1.00  0.00     0.060 A 
ATOM     35  C   UNL A   1      37.546  34.486  32.973  1.00  0.00     0.016 A 
ATOM     36  C   UNL A   1      36.027  33.633  34.665  1.00  0.00     0.016 A 
ATOM     37  C   UNL A   1      38.611  34.392  33.869  1.00  0.00     0.010 A 
ATOM     38  C   UNL A   1      37.099  33.517  35.553  1.00  0.00     0.010 A 
ATOM     39  C   UNL A   1      38.401  33.859  35.146  1.00  0.00    -0.014 A 
BRANCH  39  40
ATOM     40  C   UNL A   1      39.565  33.459  35.975  1.00  0.00     0.031 A 
ATOM     41  C   UNL A   1      40.057  34.422  37.019  1.00  0.00     0.074 A 
ATOM     42  C   UNL A   1      40.157  32.261  35.825  1.00  0.00     0.049 A 
ATOM     43  N   UNL A   1      41.088  34.331  37.820  1.00  0.00    -0.248 NA
ATOM     44  C   UNL A   1      39.278  35.661  37.179  1.00  0.00     0.031 C 
ATOM     45  C   UNL A   1      39.741  31.224  34.885  1.00  0.00     0.029 A 
ATOM     46  N   UNL A   1      41.248  31.725  36.463  1.00  0.00    -0.354 N 
ATOM     47  C   UNL A   1      41.085  35.501  38.568  1.00  0.00     0.074 A 
ATOM     48  C   UNL A   1      39.975  36.302  38.104  1.00  0.00     0.031 C 
ATOM     49  C   UNL A   1      40.579  30.178  34.996  1.00  0.00     0.029 A 
ATOM     50  C   UNL A   1      41.611  30.490  35.986  1.00  0.00     0.049 A 
ATOM     51  H   UNL A   1      41.725  32.182  37.193  1.00  0.00     0.167 HD
ATOM     52  C   UNL A   1      41.930  35.869  39.562  1.00  0.00     0.037 A 
ATOM     53  C   UNL A   1      42.670  29.716  36.295  1.00  0.00     0.037 A 
ATOM     54  C   UNL A   1      43.037  35.072  40.017  1.00  0.00     0.049 A 
ATOM     55  C   UNL A   1      43.648  30.188  37.345  1.00  0.00     0.074 A 
ATOM     56  C   UNL A   1      43.945  35.351  41.022  1.00  0.00     0.029 A 
ATOM     57  N   UNL A   1      43.393  33.840  39.486  1.00  0.00    -0.354 N 
ATOM     58  N   UNL A   1      43.632  31.286  38.063  1.00  0.00    -0.248 NA
ATOM     59  C   UNL A   1      44.792  29.309  37.627  1.00  0.00     0.031 C 
ATOM     60  C   UNL A   1      44.888  34.319  41.057  1.00  0.00     0.029 A 
ATOM     61  C   UNL A   1      44.527  33.361  40.123  1.00  0.00     0.049 A 
ATOM     62  H   UNL A   1      42.911  33.376  38.763  1.00  0.00     0.167 HD
ATOM     63  C   UNL A   1      44.737  31.212  38.903  1.00  0.00     0.074 A 
ATOM     64  C   UNL A   1      45.395  29.956  38.614  1.00  0.00     0.031 C 
ATOM     65  C   UNL A   1      45.167  32.102  39.831  1.00  0.00     0.037 A 
BRANCH  52  66
ATOM     66  C   UNL A   1      41.708  37.212  40.198  1.00  0.00     0.064 A 
ATOM     67  C   UNL A   1      42.257  38.387  39.663  1.00  0.00     0.173 A 
ATOM     68  C   UNL A   1      40.909  37.327  41.347  1.00  0.00     0.173 A 
ATOM     69  F   UNL A   1      43.040  38.332  38.576  1.00  0.00    -0.203 F 
ATOM     70  C   UNL A   1      42.039  39.621  40.270  1.00  0.00     0.198 A 
ATOM     71  C   UNL A   1      40.665  38.567  41.931  1.00  0.00     0.198 A 
ATOM     72  F   UNL A   1      40.358  36.236  41.900  1.00  0.00    -0.203 F 
ATOM     73  F   UNL A   1      42.619  40.723  39.772  1.00  0.00    -0.200 F 
ATOM     74  C   UNL A   1      41.238  39.711  41.398  1.00  0.00     0.200 A 
ATOM     75  F   UNL A   1      39.878  38.653  43.012  1.00  0.00    -0.200 F 
ATOM     76  F   UNL A   1      41.022  40.901  41.977  1.00  0.00    -0.200 F 
ENDBRANCH  52  66
BRANCH  53  77
ATOM     77  C   UNL A   1      42.880  28.422  35.593  1.00  0.00     0.064 A 
ATOM     78  C   UNL A   1      43.766  28.317  34.511  1.00  0.00     0.173 A 
ATOM     79  C   UNL A   1      42.175  27.269  35.969  1.00  0.00     0.173 A 
ATOM     80  F   UNL A   1      44.442  29.397  34.094  1.00  0.00    -0.203 F 
ATOM     81  C   UNL A   1      43.921  27.117  33.819  1.00  0.00     0.198 A 
ATOM     82  C   UNL A   1      42.356  26.061  35.298  1.00  0.00     0.198 A 
ATOM     83  F   UNL A   1      41.310  27.313  36.994  1.00  0.00    -0.203 F 
ATOM     84  F   UNL A   1      44.730  27.062  32.753  1.00  0.00    -0.200 F 
ATOM     85  C   UNL A   1      43.220  25.989  34.217  1.00  0.00     0.200 A 
ATOM     86  F   UNL A   1      41.685  24.971  35.694  1.00  0.00    -0.200 F 
ATOM     87  F   UNL A   1      43.369  24.835  33.552  1.00  0.00    -0.200 F 
ENDBRANCH  53  77
BRANCH  65  88
ATOM     88  C   UNL A   1      46.380  31.735  40.640  1.00  0.00     0.064 A 
ATOM     89  C   UNL A   1      46.280  31.055  41.863  1.00  0.00     0.173 A 
ATOM     90  C   UNL A   1      47.666  32.030  40.159  1.00  0.00     0.173 A 
ATOM     91  F   UNL A   1      45.075  30.760  42.375  1.00  0.00    -0.203 F 
ATOM     92  C   UNL A   1      47.419  30.712  42.587  1.00  0.00     0.198 A 
ATOM     93  C   UNL A   1      48.803  31.652  40.868  1.00  0.00     0.198 A 
ATOM     94  F   UNL A   1      47.822  32.669  38.989  1.00  0.00    -0.203 F 
ATOM     95  F   UNL A   1      47.297  30.112  43.779  1.00  0.00    -0.200 F 
ATOM     96  C   UNL A   1      48.679  31.003  42.085  1.00  0.00     0.200 A 
ATOM     97  F   UNL A   1      50.019  31.917  40.370  1.00  0.00    -0.200 F 
ATOM     98  F   UNL A   1      49.774  30.662  42.780  1.00  0.00    -0.200 F 
ENDBRANCH  65  88
ENDBRANCH  39  40
ENDBRANCH  32  34
ENDBRANCH  31  32
ENDBRANCH  30  31
ENDBRANCH  29  30
ENDBRANCH  28  29
ENDBRANCH  27  28
ENDBRANCH  26  27
ENDBRANCH   1  26
TORSDOF 23
ENDMDL
