MODEL 1
REMARK VINA RESULT:     -10.7      0.000      0.000
REMARK SMILES CC(C)c1cc(C(=O)N[C@@H](Cc2c[nH]c3ccccc23)C(=O)OCCOCCOCCOCCOC(=O)c2ccc(-c3c4nc(c(-c5c(F)c(F)c(F)c(F)c5F)c5ccc([nH]5)c(-c5c(F)c(F)c(F)c(F)c5F)c5nc(c(-c6c(F)c(F)c(F)c(F)c6F)c6ccc3[nH]6)C=C5)C=C4)cc2)n(C)n1
REMARK SMILES IDX 28 1 27 2 26 3 25 4 24 5 23 6 21 7 22 8 10 9 9 10 7 11 8 12
REMARK SMILES IDX 6 14 4 15 5 16 103 17 101 18 102 19 2 20 1 21 3 22 11 23
REMARK SMILES IDX 12 24 13 25 20 26 14 27 15 28 19 29 16 31 18 32 17 33 29 34
REMARK SMILES IDX 30 35 31 36 32 37 33 38 34 39 35 40 36 41 37 42 38 43 39 44
REMARK SMILES IDX 100 45 40 46 99 47 41 48 42 49 43 50 93 51 44 52 98 53 92 54
REMARK SMILES IDX 94 55 45 56 97 57 91 58 90 59 46 61 78 62 58 63 77 64 59 65
REMARK SMILES IDX 62 66 76 67 95 68 60 69 61 70 75 72 96 73 63 74 47 75 48 76
REMARK SMILES IDX 56 77 49 78 50 79 54 80 57 81 51 82 52 83 55 84 53 85 79 86
REMARK SMILES IDX 80 87 88 88 81 89 82 90 86 91 89 92 83 93 84 94 87 95 85 96
REMARK SMILES IDX 64 97 65 98 73 99 66 100 67 101 71 102 74 103 68 104 69 105
REMARK SMILES IDX 72 106 70 107
REMARK H PARENT 9 13 14 30 94 60 62 71
REMARK Flexibility Score: inf
ROOT
ATOM      1  C   UNL A   1      38.488  22.497  26.279  1.00  0.00     0.188 C 
ENDROOT
BRANCH   1   2
ATOM      2  C   UNL A   1      37.661  23.615  25.630  1.00  0.00     0.188 C 
BRANCH   2   3
ATOM      3  O   UNL A   1      36.369  23.939  26.118  1.00  0.00    -0.376 OA
BRANCH   3   4
ATOM      4  C   UNL A   1      35.243  24.031  25.256  1.00  0.00     0.202 C 
BRANCH   4   5
ATOM      5  C   UNL A   1      34.508  25.348  24.961  1.00  0.00     0.261 C 
BRANCH   5   6
ATOM      6  O   UNL A   1      33.902  25.985  26.093  1.00  0.00    -0.462 OA
BRANCH   6   7
ATOM      7  C   UNL A   1      33.408  27.218  25.864  1.00  0.00     0.329 C 
ATOM      8  O   UNL A   1      34.073  28.253  25.892  1.00  0.00    -0.250 OA
BRANCH   7   9
ATOM      9  C   UNL A   1      31.901  27.272  25.570  1.00  0.00     0.197 C 
BRANCH   9  10
ATOM     10  N   UNL A   1      30.847  26.594  26.309  1.00  0.00    -0.337 N 
ATOM     11  C   UNL A   1      30.344  25.314  26.246  1.00  0.00     0.270 C 
ATOM     12  O   UNL A   1      29.263  25.188  26.834  1.00  0.00    -0.268 OA
ATOM     13  H   UNL A   1      30.409  27.161  26.985  1.00  0.00     0.164 HD
BRANCH  11  14
ATOM     14  C   UNL A   1      31.002  24.133  25.674  1.00  0.00     0.126 A 
ATOM     15  C   UNL A   1      31.635  22.666  24.064  1.00  0.00     0.066 A 
ATOM     16  C   UNL A   1      31.001  23.899  24.289  1.00  0.00     0.059 A 
ATOM     17  N   UNL A   1      31.969  22.112  25.223  1.00  0.00    -0.177 NA
ATOM     18  N   UNL A   1      31.728  23.054  26.147  1.00  0.00    -0.263 N 
ATOM     19  C   UNL A   1      32.398  22.776  27.394  1.00  0.00     0.174 C 
BRANCH  15  20
ATOM     20  C   UNL A   1      32.006  21.976  22.785  1.00  0.00     0.034 C 
ATOM     21  C   UNL A   1      33.151  22.732  22.097  1.00  0.00     0.014 C 
ATOM     22  C   UNL A   1      32.414  20.515  23.013  1.00  0.00     0.014 C 
ENDBRANCH  15  20
ENDBRANCH  11  14
ENDBRANCH   9  10
BRANCH   9  23
ATOM     23  C   UNL A   1      31.495  28.731  25.347  1.00  0.00     0.074 C 
BRANCH  23  24
ATOM     24  C   UNL A   1      31.011  28.937  23.947  1.00  0.00    -0.020 A 
ATOM     25  C   UNL A   1      31.254  28.137  22.849  1.00  0.00     0.087 A 
ATOM     26  C   UNL A   1      30.098  29.955  23.532  1.00  0.00     0.003 A 
ATOM     27  N   UNL A   1      30.510  28.613  21.803  1.00  0.00    -0.361 N 
ATOM     28  C   UNL A   1      29.789  29.717  22.195  1.00  0.00     0.046 A 
ATOM     29  C   UNL A   1      29.469  31.028  24.195  1.00  0.00     0.010 A 
ATOM     30  H   UNL A   1      30.493  28.222  20.900  1.00  0.00     0.166 HD
ATOM     31  C   UNL A   1      28.886  30.512  21.482  1.00  0.00     0.026 A 
ATOM     32  C   UNL A   1      28.562  31.830  23.500  1.00  0.00     0.001 A 
ATOM     33  C   UNL A   1      28.279  31.575  22.161  1.00  0.00     0.002 A 
ENDBRANCH  23  24
ENDBRANCH   9  23
ENDBRANCH   7   9
ENDBRANCH   6   7
ENDBRANCH   5   6
ENDBRANCH   4   5
ENDBRANCH   3   4
ENDBRANCH   2   3
ENDBRANCH   1   2
BRANCH   1  34
ATOM     34  O   UNL A   1      39.879  22.555  26.051  1.00  0.00    -0.377 OA
BRANCH  34  35
ATOM     35  C   UNL A   1      40.736  22.094  27.082  1.00  0.00     0.188 C 
BRANCH  35  36
ATOM     36  C   UNL A   1      41.067  20.589  27.178  1.00  0.00     0.188 C 
BRANCH  36  37
ATOM     37  O   UNL A   1      41.649  20.024  26.016  1.00  0.00    -0.376 OA
BRANCH  37  38
ATOM     38  C   UNL A   1      42.175  18.706  26.065  1.00  0.00     0.202 C 
BRANCH  38  39
ATOM     39  C   UNL A   1      43.579  18.438  25.495  1.00  0.00     0.261 C 
BRANCH  39  40
ATOM     40  O   UNL A   1      43.964  19.193  24.335  1.00  0.00    -0.460 OA
BRANCH  40  41
ATOM     41  C   UNL A   1      45.147  19.836  24.350  1.00  0.00     0.338 C 
ATOM     42  O   UNL A   1      46.201  19.459  23.866  1.00  0.00    -0.246 OA
BRANCH  41  43
ATOM     43  C   UNL A   1      44.909  21.196  24.882  1.00  0.00     0.060 A 
ATOM     44  C   UNL A   1      44.676  22.246  23.981  1.00  0.00     0.016 A 
ATOM     45  C   UNL A   1      44.901  21.433  26.258  1.00  0.00     0.016 A 
ATOM     46  C   UNL A   1      44.478  23.542  24.454  1.00  0.00     0.010 A 
ATOM     47  C   UNL A   1      44.729  22.737  26.729  1.00  0.00     0.010 A 
ATOM     48  C   UNL A   1      44.557  23.803  25.827  1.00  0.00    -0.014 A 
BRANCH  48  49
ATOM     49  C   UNL A   1      44.689  25.201  26.301  1.00  0.00     0.031 A 
ATOM     50  C   UNL A   1      46.044  25.848  26.225  1.00  0.00     0.074 A 
ATOM     51  C   UNL A   1      43.635  25.894  26.761  1.00  0.00     0.049 A 
ATOM     52  N   UNL A   1      46.426  27.040  26.608  1.00  0.00    -0.248 NA
ATOM     53  C   UNL A   1      47.117  25.032  25.638  1.00  0.00     0.031 C 
ATOM     54  C   UNL A   1      42.263  25.401  26.826  1.00  0.00     0.029 A 
ATOM     55  N   UNL A   1      43.564  27.169  27.266  1.00  0.00    -0.354 N 
ATOM     56  C   UNL A   1      47.782  27.109  26.320  1.00  0.00     0.074 A 
ATOM     57  C   UNL A   1      48.165  25.829  25.767  1.00  0.00     0.031 C 
ATOM     58  C   UNL A   1      41.481  26.366  27.342  1.00  0.00     0.029 A 
ATOM     59  C   UNL A   1      42.306  27.527  27.678  1.00  0.00     0.049 A 
ATOM     60  H   UNL A   1      44.342  27.769  27.326  1.00  0.00     0.167 HD
ATOM     61  C   UNL A   1      48.632  28.150  26.492  1.00  0.00     0.037 A 
ATOM     62  C   UNL A   1      41.879  28.658  28.273  1.00  0.00     0.037 A 
ATOM     63  C   UNL A   1      48.249  29.418  27.056  1.00  0.00     0.049 A 
ATOM     64  C   UNL A   1      42.864  29.764  28.557  1.00  0.00     0.074 A 
ATOM     65  C   UNL A   1      49.027  30.544  27.260  1.00  0.00     0.029 A 
ATOM     66  N   UNL A   1      46.978  29.720  27.525  1.00  0.00    -0.354 N 
ATOM     67  N   UNL A   1      44.139  29.837  28.260  1.00  0.00    -0.248 NA
ATOM     68  C   UNL A   1      42.346  30.945  29.261  1.00  0.00     0.031 C 
ATOM     69  C   UNL A   1      48.246  31.500  27.919  1.00  0.00     0.029 A 
ATOM     70  C   UNL A   1      46.960  31.001  28.057  1.00  0.00     0.049 A 
ATOM     71  H   UNL A   1      46.203  29.115  27.487  1.00  0.00     0.167 HD
ATOM     72  C   UNL A   1      44.566  31.084  28.705  1.00  0.00     0.074 A 
ATOM     73  C   UNL A   1      43.410  31.734  29.287  1.00  0.00     0.031 C 
ATOM     74  C   UNL A   1      45.802  31.639  28.632  1.00  0.00     0.037 A 
BRANCH  61  75
ATOM     75  C   UNL A   1      50.071  27.928  26.112  1.00  0.00     0.064 A 
ATOM     76  C   UNL A   1      50.495  27.914  24.775  1.00  0.00     0.173 A 
ATOM     77  C   UNL A   1      51.036  27.701  27.106  1.00  0.00     0.173 A 
ATOM     78  F   UNL A   1      49.612  28.112  23.783  1.00  0.00    -0.203 F 
ATOM     79  C   UNL A   1      51.817  27.624  24.444  1.00  0.00     0.198 A 
ATOM     80  C   UNL A   1      52.365  27.453  26.773  1.00  0.00     0.198 A 
ATOM     81  F   UNL A   1      50.690  27.708  28.402  1.00  0.00    -0.203 F 
ATOM     82  F   UNL A   1      52.180  27.535  23.156  1.00  0.00    -0.200 F 
ATOM     83  C   UNL A   1      52.751  27.398  25.443  1.00  0.00     0.200 A 
ATOM     84  F   UNL A   1      53.268  27.248  27.741  1.00  0.00    -0.200 F 
ATOM     85  F   UNL A   1      54.021  27.113  25.124  1.00  0.00    -0.200 F 
ENDBRANCH  61  75
BRANCH  62  86
ATOM     86  C   UNL A   1      40.443  28.809  28.629  1.00  0.00     0.064 A 
ATOM     87  C   UNL A   1      39.994  28.539  29.928  1.00  0.00     0.173 A 
ATOM     88  C   UNL A   1      39.493  29.228  27.685  1.00  0.00     0.173 A 
ATOM     89  F   UNL A   1      40.859  28.110  30.860  1.00  0.00    -0.203 F 
ATOM     90  C   UNL A   1      38.650  28.673  30.270  1.00  0.00     0.198 A 
ATOM     91  C   UNL A   1      38.154  29.392  28.035  1.00  0.00     0.198 A 
ATOM     92  F   UNL A   1      39.869  29.499  26.427  1.00  0.00    -0.203 F 
ATOM     93  F   UNL A   1      38.242  28.373  31.510  1.00  0.00    -0.200 F 
ATOM     94  C   UNL A   1      37.733  29.109  29.325  1.00  0.00     0.200 A 
ATOM     95  F   UNL A   1      37.276  29.828  27.123  1.00  0.00    -0.200 F 
ATOM     96  F   UNL A   1      36.443  29.252  29.656  1.00  0.00    -0.200 F 
ENDBRANCH  62  86
BRANCH  74  97
ATOM     97  C   UNL A   1      45.965  33.042  29.154  1.00  0.00     0.064 A 
ATOM     98  C   UNL A   1      46.374  33.303  30.470  1.00  0.00     0.173 A 
ATOM     99  C   UNL A   1      45.748  34.141  28.307  1.00  0.00     0.173 A 
ATOM    100  F   UNL A   1      46.581  32.292  31.326  1.00  0.00    -0.203 F 
ATOM    101  C   UNL A   1      46.529  34.610  30.927  1.00  0.00     0.198 A 
ATOM    102  C   UNL A   1      45.941  35.445  28.755  1.00  0.00     0.198 A 
ATOM    103  F   UNL A   1      45.364  33.950  27.035  1.00  0.00    -0.203 F 
ATOM    104  F   UNL A   1      46.866  34.836  32.204  1.00  0.00    -0.200 F 
ATOM    105  C   UNL A   1      46.322  35.679  30.068  1.00  0.00     0.200 A 
ATOM    106  F   UNL A   1      45.758  36.474  27.917  1.00  0.00    -0.200 F 
ATOM    107  F   UNL A   1      46.481  36.935  30.506  1.00  0.00    -0.200 F 
ENDBRANCH  74  97
ENDBRANCH  48  49
ENDBRANCH  41  43
ENDBRANCH  40  41
ENDBRANCH  39  40
ENDBRANCH  38  39
ENDBRANCH  37  38
ENDBRANCH  36  37
ENDBRANCH  35  36
ENDBRANCH  34  35
ENDBRANCH   1  34
TORSDOF 25
ENDMDL
MODEL 2
REMARK VINA RESULT:     -10.4      3.213      8.411
REMARK SMILES CC(C)c1cc(C(=O)N[C@@H](Cc2c[nH]c3ccccc23)C(=O)OCCOCCOCCOCCOC(=O)c2ccc(-c3c4nc(c(-c5c(F)c(F)c(F)c(F)c5F)c5ccc([nH]5)c(-c5c(F)c(F)c(F)c(F)c5F)c5nc(c(-c6c(F)c(F)c(F)c(F)c6F)c6ccc3[nH]6)C=C5)C=C4)cc2)n(C)n1
REMARK SMILES IDX 28 1 27 2 26 3 25 4 24 5 23 6 21 7 22 8 10 9 9 10 7 11 8 12
REMARK SMILES IDX 6 14 4 15 5 16 103 17 101 18 102 19 2 20 1 21 3 22 11 23
REMARK SMILES IDX 12 24 13 25 20 26 14 27 15 28 19 29 16 31 18 32 17 33 29 34
REMARK SMILES IDX 30 35 31 36 32 37 33 38 34 39 35 40 36 41 37 42 38 43 39 44
REMARK SMILES IDX 100 45 40 46 99 47 41 48 42 49 43 50 93 51 44 52 98 53 92 54
REMARK SMILES IDX 94 55 45 56 97 57 91 58 90 59 46 61 78 62 58 63 77 64 59 65
REMARK SMILES IDX 62 66 76 67 95 68 60 69 61 70 75 72 96 73 63 74 47 75 48 76
REMARK SMILES IDX 56 77 49 78 50 79 54 80 57 81 51 82 52 83 55 84 53 85 79 86
REMARK SMILES IDX 80 87 88 88 81 89 82 90 86 91 89 92 83 93 84 94 87 95 85 96
REMARK SMILES IDX 64 97 65 98 73 99 66 100 67 101 71 102 74 103 68 104 69 105
REMARK SMILES IDX 72 106 70 107
REMARK H PARENT 9 13 14 30 94 60 62 71
REMARK Flexibility Score: inf
ROOT
ATOM      1  C   UNL A   1      35.762  30.237  27.679  1.00  0.00     0.188 C 
ENDROOT
BRANCH   1   2
ATOM      2  C   UNL A   1      35.146  29.086  26.871  1.00  0.00     0.188 C 
BRANCH   2   3
ATOM      3  O   UNL A   1      33.975  28.426  27.324  1.00  0.00    -0.376 OA
BRANCH   3   4
ATOM      4  C   UNL A   1      32.686  29.008  27.190  1.00  0.00     0.202 C 
BRANCH   4   5
ATOM      5  C   UNL A   1      31.379  28.209  27.322  1.00  0.00     0.261 C 
BRANCH   5   6
ATOM      6  O   UNL A   1      31.512  26.785  27.216  1.00  0.00    -0.462 OA
BRANCH   6   7
ATOM      7  C   UNL A   1      30.715  26.200  26.300  1.00  0.00     0.329 C 
ATOM      8  O   UNL A   1      29.873  25.340  26.555  1.00  0.00    -0.250 OA
BRANCH   7   9
ATOM      9  C   UNL A   1      30.933  26.667  24.853  1.00  0.00     0.197 C 
BRANCH   9  10
ATOM     10  N   UNL A   1      32.200  26.726  24.140  1.00  0.00    -0.337 N 
ATOM     11  C   UNL A   1      33.261  25.852  24.056  1.00  0.00     0.270 C 
ATOM     12  O   UNL A   1      34.279  26.369  23.582  1.00  0.00    -0.268 OA
ATOM     13  H   UNL A   1      32.322  27.550  23.616  1.00  0.00     0.164 HD
BRANCH  11  14
ATOM     14  C   UNL A   1      33.247  24.415  24.357  1.00  0.00     0.126 A 
ATOM     15  C   UNL A   1      32.615  22.245  24.169  1.00  0.00     0.066 A 
ATOM     16  C   UNL A   1      32.482  23.519  23.592  1.00  0.00     0.059 A 
ATOM     17  N   UNL A   1      33.363  22.319  25.262  1.00  0.00    -0.177 NA
ATOM     18  N   UNL A   1      33.850  23.570  25.272  1.00  0.00    -0.263 N 
ATOM     19  C   UNL A   1      34.984  23.705  26.154  1.00  0.00     0.174 C 
BRANCH  15  20
ATOM     20  C   UNL A   1      32.110  20.908  23.714  1.00  0.00     0.034 C 
ATOM     21  C   UNL A   1      32.070  20.860  22.181  1.00  0.00     0.014 C 
ATOM     22  C   UNL A   1      32.967  19.754  24.246  1.00  0.00     0.014 C 
ENDBRANCH  15  20
ENDBRANCH  11  14
ENDBRANCH   9  10
BRANCH   9  23
ATOM     23  C   UNL A   1      29.888  25.998  23.957  1.00  0.00     0.074 C 
BRANCH  23  24
ATOM     24  C   UNL A   1      28.783  26.953  23.629  1.00  0.00    -0.020 A 
ATOM     25  C   UNL A   1      27.455  26.857  23.995  1.00  0.00     0.087 A 
ATOM     26  C   UNL A   1      28.949  28.210  22.971  1.00  0.00     0.003 A 
ATOM     27  N   UNL A   1      26.824  28.008  23.608  1.00  0.00    -0.361 N 
ATOM     28  C   UNL A   1      27.715  28.854  22.988  1.00  0.00     0.046 A 
ATOM     29  C   UNL A   1      30.056  28.875  22.407  1.00  0.00     0.010 A 
ATOM     30  H   UNL A   1      25.870  28.204  23.752  1.00  0.00     0.166 HD
ATOM     31  C   UNL A   1      27.530  30.134  22.455  1.00  0.00     0.026 A 
ATOM     32  C   UNL A   1      29.892  30.154  21.874  1.00  0.00     0.001 A 
ATOM     33  C   UNL A   1      28.644  30.772  21.896  1.00  0.00     0.002 A 
ENDBRANCH  23  24
ENDBRANCH   9  23
ENDBRANCH   7   9
ENDBRANCH   6   7
ENDBRANCH   5   6
ENDBRANCH   4   5
ENDBRANCH   3   4
ENDBRANCH   2   3
ENDBRANCH   1   2
BRANCH   1  34
ATOM     34  O   UNL A   1      35.245  31.521  27.405  1.00  0.00    -0.377 OA
BRANCH  34  35
ATOM     35  C   UNL A   1      35.414  32.525  28.393  1.00  0.00     0.188 C 
BRANCH  35  36
ATOM     36  C   UNL A   1      34.221  32.913  29.292  1.00  0.00     0.188 C 
BRANCH  36  37
ATOM     37  O   UNL A   1      34.366  32.583  30.662  1.00  0.00    -0.376 OA
BRANCH  37  38
ATOM     38  C   UNL A   1      34.424  33.621  31.630  1.00  0.00     0.202 C 
BRANCH  38  39
ATOM     39  C   UNL A   1      34.700  33.258  33.100  1.00  0.00     0.261 C 
BRANCH  39  40
ATOM     40  O   UNL A   1      35.746  32.305  33.349  1.00  0.00    -0.460 OA
BRANCH  40  41
ATOM     41  C   UNL A   1      37.003  32.759  33.510  1.00  0.00     0.338 C 
ATOM     42  O   UNL A   1      37.406  33.542  34.355  1.00  0.00    -0.246 OA
BRANCH  41  43
ATOM     43  C   UNL A   1      37.878  31.981  32.606  1.00  0.00     0.060 A 
ATOM     44  C   UNL A   1      38.702  30.985  33.150  1.00  0.00     0.016 A 
ATOM     45  C   UNL A   1      37.877  32.222  31.230  1.00  0.00     0.016 A 
ATOM     46  C   UNL A   1      39.558  30.257  32.324  1.00  0.00     0.010 A 
ATOM     47  C   UNL A   1      38.755  31.511  30.408  1.00  0.00     0.010 A 
ATOM     48  C   UNL A   1      39.627  30.554  30.958  1.00  0.00    -0.014 A 
BRANCH  48  49
ATOM     49  C   UNL A   1      40.756  30.034  30.152  1.00  0.00     0.031 A 
ATOM     50  C   UNL A   1      41.930  30.944  29.910  1.00  0.00     0.074 A 
ATOM     51  C   UNL A   1      40.763  28.782  29.666  1.00  0.00     0.049 A 
ATOM     52  N   UNL A   1      43.017  30.741  29.211  1.00  0.00    -0.248 NA
ATOM     53  C   UNL A   1      41.860  32.269  30.544  1.00  0.00     0.031 C 
ATOM     54  C   UNL A   1      39.718  27.787  29.884  1.00  0.00     0.029 A 
ATOM     55  N   UNL A   1      41.689  28.139  28.884  1.00  0.00    -0.354 N 
ATOM     56  C   UNL A   1      43.752  31.914  29.313  1.00  0.00     0.074 A 
ATOM     57  C   UNL A   1      42.971  32.837  30.106  1.00  0.00     0.031 C 
ATOM     58  C   UNL A   1      40.062  26.652  29.248  1.00  0.00     0.029 A 
ATOM     59  C   UNL A   1      41.331  26.858  28.550  1.00  0.00     0.049 A 
ATOM     60  H   UNL A   1      42.531  28.557  28.592  1.00  0.00     0.167 HD
ATOM     61  C   UNL A   1      44.974  32.195  28.798  1.00  0.00     0.037 A 
ATOM     62  C   UNL A   1      41.953  25.964  27.756  1.00  0.00     0.037 A 
ATOM     63  C   UNL A   1      45.741  31.278  27.996  1.00  0.00     0.049 A 
ATOM     64  C   UNL A   1      43.261  26.336  27.103  1.00  0.00     0.074 A 
ATOM     65  C   UNL A   1      46.995  31.456  27.439  1.00  0.00     0.029 A 
ATOM     66  N   UNL A   1      45.313  30.011  27.622  1.00  0.00    -0.354 N 
ATOM     67  N   UNL A   1      43.965  27.435  27.221  1.00  0.00    -0.248 NA
ATOM     68  C   UNL A   1      43.856  25.338  26.203  1.00  0.00     0.031 C 
ATOM     69  C   UNL A   1      47.293  30.328  26.668  1.00  0.00     0.029 A 
ATOM     70  C   UNL A   1      46.261  29.412  26.806  1.00  0.00     0.049 A 
ATOM     71  H   UNL A   1      44.463  29.598  27.895  1.00  0.00     0.167 HD
ATOM     72  C   UNL A   1      45.103  27.248  26.444  1.00  0.00     0.074 A 
ATOM     73  C   UNL A   1      44.996  25.924  25.865  1.00  0.00     0.031 C 
ATOM     74  C   UNL A   1      46.144  28.092  26.236  1.00  0.00     0.037 A 
BRANCH  61  75
ATOM     75  C   UNL A   1      45.519  33.575  29.047  1.00  0.00     0.064 A 
ATOM     76  C   UNL A   1      45.235  34.654  28.197  1.00  0.00     0.173 A 
ATOM     77  C   UNL A   1      46.362  33.813  30.145  1.00  0.00     0.173 A 
ATOM     78  F   UNL A   1      44.446  34.480  27.125  1.00  0.00    -0.203 F 
ATOM     79  C   UNL A   1      45.817  35.903  28.402  1.00  0.00     0.198 A 
ATOM     80  C   UNL A   1      46.910  35.073  30.370  1.00  0.00     0.198 A 
ATOM     81  F   UNL A   1      46.665  32.820  30.995  1.00  0.00    -0.203 F 
ATOM     82  F   UNL A   1      45.595  36.896  27.528  1.00  0.00    -0.200 F 
ATOM     83  C   UNL A   1      46.651  36.112  29.489  1.00  0.00     0.200 A 
ATOM     84  F   UNL A   1      47.703  35.276  31.430  1.00  0.00    -0.200 F 
ATOM     85  F   UNL A   1      47.216  37.311  29.682  1.00  0.00    -0.200 F 
ENDBRANCH  61  75
BRANCH  62  86
ATOM     86  C   UNL A   1      41.355  24.619  27.547  1.00  0.00     0.064 A 
ATOM     87  C   UNL A   1      40.241  24.452  26.713  1.00  0.00     0.173 A 
ATOM     88  C   UNL A   1      41.880  23.476  28.169  1.00  0.00     0.173 A 
ATOM     89  F   UNL A   1      39.686  25.518  26.116  1.00  0.00    -0.203 F 
ATOM     90  C   UNL A   1      39.670  23.196  26.514  1.00  0.00     0.198 A 
ATOM     91  C   UNL A   1      41.327  22.217  27.946  1.00  0.00     0.198 A 
ATOM     92  F   UNL A   1      42.944  23.580  28.979  1.00  0.00    -0.203 F 
ATOM     93  F   UNL A   1      38.584  23.071  25.740  1.00  0.00    -0.200 F 
ATOM     94  C   UNL A   1      40.220  22.079  27.124  1.00  0.00     0.200 A 
ATOM     95  F   UNL A   1      41.872  21.138  28.525  1.00  0.00    -0.200 F 
ATOM     96  F   UNL A   1      39.680  20.869  26.922  1.00  0.00    -0.200 F 
ENDBRANCH  62  86
BRANCH  74  97
ATOM     97  C   UNL A   1      47.279  27.599  25.379  1.00  0.00     0.064 A 
ATOM     98  C   UNL A   1      47.349  27.876  24.006  1.00  0.00     0.173 A 
ATOM     99  C   UNL A   1      48.335  26.872  25.953  1.00  0.00     0.173 A 
ATOM    100  F   UNL A   1      46.362  28.555  23.403  1.00  0.00    -0.203 F 
ATOM    101  C   UNL A   1      48.416  27.418  23.235  1.00  0.00     0.198 A 
ATOM    102  C   UNL A   1      49.417  26.449  25.188  1.00  0.00     0.198 A 
ATOM    103  F   UNL A   1      48.324  26.585  27.264  1.00  0.00    -0.203 F 
ATOM    104  F   UNL A   1      48.434  27.648  21.915  1.00  0.00    -0.200 F 
ATOM    105  C   UNL A   1      49.453  26.714  23.828  1.00  0.00     0.200 A 
ATOM    106  F   UNL A   1      50.427  25.784  25.768  1.00  0.00    -0.200 F 
ATOM    107  F   UNL A   1      50.483  26.283  23.087  1.00  0.00    -0.200 F 
ENDBRANCH  74  97
ENDBRANCH  48  49
ENDBRANCH  41  43
ENDBRANCH  40  41
ENDBRANCH  39  40
ENDBRANCH  38  39
ENDBRANCH  37  38
ENDBRANCH  36  37
ENDBRANCH  35  36
ENDBRANCH  34  35
ENDBRANCH   1  34
TORSDOF 25
ENDMDL
MODEL 3
REMARK VINA RESULT:      -9.7      6.272     11.393
REMARK SMILES CC(C)c1cc(C(=O)N[C@@H](Cc2c[nH]c3ccccc23)C(=O)OCCOCCOCCOCCOC(=O)c2ccc(-c3c4nc(c(-c5c(F)c(F)c(F)c(F)c5F)c5ccc([nH]5)c(-c5c(F)c(F)c(F)c(F)c5F)c5nc(c(-c6c(F)c(F)c(F)c(F)c6F)c6ccc3[nH]6)C=C5)C=C4)cc2)n(C)n1
REMARK SMILES IDX 28 1 27 2 26 3 25 4 24 5 23 6 21 7 22 8 10 9 9 10 7 11 8 12
REMARK SMILES IDX 6 14 4 15 5 16 103 17 101 18 102 19 2 20 1 21 3 22 11 23
REMARK SMILES IDX 12 24 13 25 20 26 14 27 15 28 19 29 16 31 18 32 17 33 29 34
REMARK SMILES IDX 30 35 31 36 32 37 33 38 34 39 35 40 36 41 37 42 38 43 39 44
REMARK SMILES IDX 100 45 40 46 99 47 41 48 42 49 43 50 93 51 44 52 98 53 92 54
REMARK SMILES IDX 94 55 45 56 97 57 91 58 90 59 46 61 78 62 58 63 77 64 59 65
REMARK SMILES IDX 62 66 76 67 95 68 60 69 61 70 75 72 96 73 63 74 47 75 48 76
REMARK SMILES IDX 56 77 49 78 50 79 54 80 57 81 51 82 52 83 55 84 53 85 79 86
REMARK SMILES IDX 80 87 88 88 81 89 82 90 86 91 89 92 83 93 84 94 87 95 85 96
REMARK SMILES IDX 64 97 65 98 73 99 66 100 67 101 71 102 74 103 68 104 69 105
REMARK SMILES IDX 72 106 70 107
REMARK H PARENT 9 13 14 30 94 60 62 71
REMARK Flexibility Score: inf
ROOT
ATOM      1  C   UNL A   1      38.674  31.176  34.733  1.00  0.00     0.188 C 
ENDROOT
BRANCH   1   2
ATOM      2  C   UNL A   1      39.522  30.057  34.112  1.00  0.00     0.188 C 
BRANCH   2   3
ATOM      3  O   UNL A   1      39.910  30.112  32.749  1.00  0.00    -0.376 OA
BRANCH   3   4
ATOM      4  C   UNL A   1      39.597  29.069  31.837  1.00  0.00     0.202 C 
BRANCH   4   5
ATOM      5  C   UNL A   1      38.434  29.143  30.834  1.00  0.00     0.261 C 
BRANCH   5   6
ATOM      6  O   UNL A   1      37.916  30.456  30.583  1.00  0.00    -0.462 OA
BRANCH   6   7
ATOM      7  C   UNL A   1      36.857  30.811  31.339  1.00  0.00     0.329 C 
ATOM      8  O   UNL A   1      36.299  30.072  32.149  1.00  0.00    -0.250 OA
BRANCH   7   9
ATOM      9  C   UNL A   1      36.347  32.243  31.115  1.00  0.00     0.197 C 
BRANCH   9  10
ATOM     10  N   UNL A   1      36.537  33.057  29.924  1.00  0.00    -0.337 N 
ATOM     11  C   UNL A   1      36.117  32.909  28.620  1.00  0.00     0.270 C 
ATOM     12  O   UNL A   1      36.709  33.657  27.833  1.00  0.00    -0.268 OA
ATOM     13  H   UNL A   1      37.067  33.871  30.081  1.00  0.00     0.164 HD
BRANCH  11  14
ATOM     14  C   UNL A   1      35.013  32.071  28.138  1.00  0.00     0.126 A 
ATOM     15  C   UNL A   1      33.964  30.174  27.472  1.00  0.00     0.066 A 
ATOM     16  C   UNL A   1      35.151  30.677  28.030  1.00  0.00     0.059 A 
ATOM     17  N   UNL A   1      33.140  31.173  27.183  1.00  0.00    -0.177 NA
ATOM     18  N   UNL A   1      33.708  32.264  27.720  1.00  0.00    -0.263 N 
ATOM     19  C   UNL A   1      32.772  33.355  27.851  1.00  0.00     0.174 C 
BRANCH  15  20
ATOM     20  C   UNL A   1      33.518  28.762  27.232  1.00  0.00     0.034 C 
ATOM     21  C   UNL A   1      31.994  28.663  27.381  1.00  0.00     0.014 C 
ATOM     22  C   UNL A   1      33.938  28.249  25.850  1.00  0.00     0.014 C 
ENDBRANCH  15  20
ENDBRANCH  11  14
ENDBRANCH   9  10
BRANCH   9  23
ATOM     23  C   UNL A   1      34.878  32.313  31.538  1.00  0.00     0.074 C 
BRANCH  23  24
ATOM     24  C   UNL A   1      34.666  33.409  32.535  1.00  0.00    -0.020 A 
ATOM     25  C   UNL A   1      35.013  33.406  33.871  1.00  0.00     0.087 A 
ATOM     26  C   UNL A   1      34.168  34.714  32.231  1.00  0.00     0.003 A 
ATOM     27  N   UNL A   1      34.768  34.655  34.376  1.00  0.00    -0.361 N 
ATOM     28  C   UNL A   1      34.261  35.475  33.394  1.00  0.00     0.046 A 
ATOM     29  C   UNL A   1      33.695  35.326  31.053  1.00  0.00     0.010 A 
ATOM     30  H   UNL A   1      34.932  34.928  35.307  1.00  0.00     0.166 HD
ATOM     31  C   UNL A   1      33.890  36.822  33.439  1.00  0.00     0.026 A 
ATOM     32  C   UNL A   1      33.323  36.670  31.078  1.00  0.00     0.001 A 
ATOM     33  C   UNL A   1      33.417  37.405  32.257  1.00  0.00     0.002 A 
ENDBRANCH  23  24
ENDBRANCH   9  23
ENDBRANCH   7   9
ENDBRANCH   6   7
ENDBRANCH   5   6
ENDBRANCH   4   5
ENDBRANCH   3   4
ENDBRANCH   2   3
ENDBRANCH   1   2
BRANCH   1  34
ATOM     34  O   UNL A   1      38.929  31.452  36.093  1.00  0.00    -0.377 OA
BRANCH  34  35
ATOM     35  C   UNL A   1      38.140  32.448  36.723  1.00  0.00     0.188 C 
BRANCH  35  36
ATOM     36  C   UNL A   1      37.942  32.403  38.253  1.00  0.00     0.188 C 
BRANCH  36  37
ATOM     37  O   UNL A   1      38.889  33.142  39.006  1.00  0.00    -0.376 OA
BRANCH  37  38
ATOM     38  C   UNL A   1      38.475  34.311  39.698  1.00  0.00     0.202 C 
BRANCH  38  39
ATOM     39  C   UNL A   1      39.528  35.154  40.439  1.00  0.00     0.261 C 
BRANCH  39  40
ATOM     40  O   UNL A   1      40.810  35.295  39.807  1.00  0.00    -0.460 OA
BRANCH  40  41
ATOM     41  C   UNL A   1      40.980  36.289  38.914  1.00  0.00     0.338 C 
ATOM     42  O   UNL A   1      40.943  37.490  39.127  1.00  0.00    -0.246 OA
BRANCH  41  43
ATOM     43  C   UNL A   1      41.433  35.677  37.646  1.00  0.00     0.060 A 
ATOM     44  C   UNL A   1      40.477  35.325  36.682  1.00  0.00     0.016 A 
ATOM     45  C   UNL A   1      42.792  35.465  37.402  1.00  0.00     0.016 A 
ATOM     46  C   UNL A   1      40.874  34.719  35.491  1.00  0.00     0.010 A 
ATOM     47  C   UNL A   1      43.186  34.834  36.219  1.00  0.00     0.010 A 
ATOM     48  C   UNL A   1      42.225  34.423  35.277  1.00  0.00    -0.014 A 
BRANCH  48  49
ATOM     49  C   UNL A   1      42.607  33.490  34.191  1.00  0.00     0.031 A 
ATOM     50  C   UNL A   1      42.872  34.064  32.826  1.00  0.00     0.074 A 
ATOM     51  C   UNL A   1      42.745  32.172  34.407  1.00  0.00     0.049 A 
ATOM     52  N   UNL A   1      43.182  33.458  31.708  1.00  0.00    -0.248 NA
ATOM     53  C   UNL A   1      42.765  35.526  32.709  1.00  0.00     0.031 C 
ATOM     54  C   UNL A   1      42.579  31.504  35.694  1.00  0.00     0.029 A 
ATOM     55  N   UNL A   1      43.057  31.158  33.535  1.00  0.00    -0.354 N 
ATOM     56  C   UNL A   1      43.296  34.462  30.757  1.00  0.00     0.074 A 
ATOM     57  C   UNL A   1      42.983  35.711  31.418  1.00  0.00     0.031 C 
ATOM     58  C   UNL A   1      42.792  30.187  35.529  1.00  0.00     0.029 A 
ATOM     59  C   UNL A   1      43.071  29.918  34.118  1.00  0.00     0.049 A 
ATOM     60  H   UNL A   1      43.253  31.308  32.582  1.00  0.00     0.167 HD
ATOM     61  C   UNL A   1      43.639  34.356  29.451  1.00  0.00     0.037 A 
ATOM     62  C   UNL A   1      43.270  28.703  33.567  1.00  0.00     0.037 A 
ATOM     63  C   UNL A   1      43.935  33.110  28.794  1.00  0.00     0.049 A 
ATOM     64  C   UNL A   1      43.542  28.597  32.087  1.00  0.00     0.074 A 
ATOM     65  C   UNL A   1      44.308  32.892  27.480  1.00  0.00     0.029 A 
ATOM     66  N   UNL A   1      43.872  31.864  29.403  1.00  0.00    -0.354 N 
ATOM     67  N   UNL A   1      43.675  29.548  31.196  1.00  0.00    -0.248 NA
ATOM     68  C   UNL A   1      43.691  27.241  31.540  1.00  0.00     0.031 C 
ATOM     69  C   UNL A   1      44.399  31.512  27.275  1.00  0.00     0.029 A 
ATOM     70  C   UNL A   1      44.158  30.869  28.481  1.00  0.00     0.049 A 
ATOM     71  H   UNL A   1      43.655  31.709  30.351  1.00  0.00     0.167 HD
ATOM     72  C   UNL A   1      43.960  28.913  29.993  1.00  0.00     0.074 A 
ATOM     73  C   UNL A   1      43.987  27.491  30.273  1.00  0.00     0.031 C 
ATOM     74  C   UNL A   1      44.185  29.457  28.771  1.00  0.00     0.037 A 
BRANCH  61  75
ATOM     75  C   UNL A   1      43.653  35.625  28.643  1.00  0.00     0.064 A 
ATOM     76  C   UNL A   1      42.490  36.150  28.058  1.00  0.00     0.173 A 
ATOM     77  C   UNL A   1      44.858  36.314  28.430  1.00  0.00     0.173 A 
ATOM     78  F   UNL A   1      41.313  35.526  28.217  1.00  0.00    -0.203 F 
ATOM     79  C   UNL A   1      42.543  37.281  27.246  1.00  0.00     0.198 A 
ATOM     80  C   UNL A   1      44.900  37.467  27.652  1.00  0.00     0.198 A 
ATOM     81  F   UNL A   1      46.001  35.862  28.969  1.00  0.00    -0.203 F 
ATOM     82  F   UNL A   1      41.432  37.715  26.632  1.00  0.00    -0.200 F 
ATOM     83  C   UNL A   1      43.746  37.940  27.047  1.00  0.00     0.200 A 
ATOM     84  F   UNL A   1      46.061  38.110  27.473  1.00  0.00    -0.200 F 
ATOM     85  F   UNL A   1      43.796  39.024  26.261  1.00  0.00    -0.200 F 
ENDBRANCH  61  75
BRANCH  62  86
ATOM     86  C   UNL A   1      43.236  27.488  34.423  1.00  0.00     0.064 A 
ATOM     87  C   UNL A   1      44.399  27.017  35.046  1.00  0.00     0.173 A 
ATOM     88  C   UNL A   1      42.047  26.776  34.640  1.00  0.00     0.173 A 
ATOM     89  F   UNL A   1      45.567  27.648  34.849  1.00  0.00    -0.203 F 
ATOM     90  C   UNL A   1      44.378  25.876  35.846  1.00  0.00     0.198 A 
ATOM     91  C   UNL A   1      42.021  25.653  35.465  1.00  0.00     0.198 A 
ATOM     92  F   UNL A   1      40.905  27.183  34.067  1.00  0.00    -0.203 F 
ATOM     93  F   UNL A   1      45.513  25.428  36.400  1.00  0.00    -0.200 F 
ATOM     94  C   UNL A   1      43.186  25.201  36.062  1.00  0.00     0.200 A 
ATOM     95  F   UNL A   1      40.863  25.014  35.683  1.00  0.00    -0.200 F 
ATOM     96  F   UNL A   1      43.163  24.113  36.843  1.00  0.00    -0.200 F 
ENDBRANCH  62  86
BRANCH  74  97
ATOM     97  C   UNL A   1      44.526  28.519  27.644  1.00  0.00     0.064 A 
ATOM     98  C   UNL A   1      45.840  28.087  27.409  1.00  0.00     0.173 A 
ATOM     99  C   UNL A   1      43.514  28.011  26.814  1.00  0.00     0.173 A 
ATOM    100  F   UNL A   1      46.848  28.550  28.162  1.00  0.00    -0.203 F 
ATOM    101  C   UNL A   1      46.130  27.209  26.367  1.00  0.00     0.198 A 
ATOM    102  C   UNL A   1      43.802  27.105  25.798  1.00  0.00     0.198 A 
ATOM    103  F   UNL A   1      42.237  28.383  26.999  1.00  0.00    -0.203 F 
ATOM    104  F   UNL A   1      47.400  26.854  26.126  1.00  0.00    -0.200 F 
ATOM    105  C   UNL A   1      45.111  26.711  25.569  1.00  0.00     0.200 A 
ATOM    106  F   UNL A   1      42.812  26.612  25.041  1.00  0.00    -0.200 F 
ATOM    107  F   UNL A   1      45.391  25.859  24.574  1.00  0.00    -0.200 F 
ENDBRANCH  74  97
ENDBRANCH  48  49
ENDBRANCH  41  43
ENDBRANCH  40  41
ENDBRANCH  39  40
ENDBRANCH  38  39
ENDBRANCH  37  38
ENDBRANCH  36  37
ENDBRANCH  35  36
ENDBRANCH  34  35
ENDBRANCH   1  34
TORSDOF 25
ENDMDL
