MODEL 1
REMARK VINA RESULT:     -10.5      0.000      0.000
REMARK SMILES CS(=O)(=O)[C@@H]1CCC[C@@H](Sc2ccc(C(=O)OCCOCCOCCOCCOC(=O)c3ccc(-c4c5nc(c(-c6c(F)c(F)c(F)c(F)c6F)c6ccc([nH]6)c(-c6c(F)c(F)c(F)c(F)c6F)c6nc(c(-c7c(F)c(F)c(F)c(F)c7F)c7ccc4[nH]7)C=C6)C=C5)cc3)cn2)C1
REMARK SMILES IDX 22 1 21 2 20 3 19 4 18 5 17 6 15 7 16 8 14 9 11 10 12 11
REMARK SMILES IDX 96 12 13 13 95 14 10 15 9 16 5 17 6 18 97 19 7 20 8 21 2 22
REMARK SMILES IDX 1 23 3 24 4 25 23 26 24 27 25 28 26 29 27 30 28 31 29 32
REMARK SMILES IDX 30 33 31 34 32 35 33 36 94 37 34 38 93 39 35 40 36 41 37 42
REMARK SMILES IDX 87 43 38 44 92 45 86 46 88 47 39 48 91 49 85 50 84 51 40 53
REMARK SMILES IDX 72 54 52 55 71 56 53 57 56 58 70 59 89 60 54 61 55 62 69 64
REMARK SMILES IDX 90 65 57 66 41 67 42 68 50 69 43 70 44 71 48 72 51 73 45 74
REMARK SMILES IDX 46 75 49 76 47 77 73 78 74 79 82 80 75 81 76 82 80 83 83 84
REMARK SMILES IDX 77 85 78 86 81 87 79 88 58 89 59 90 67 91 60 92 61 93 65 94
REMARK SMILES IDX 68 95 62 96 63 97 66 98 64 99
REMARK H PARENT 88 52 56 63
REMARK Flexibility Score: inf
ROOT
ATOM      1  C   UNL A   1      34.655  34.193  28.155  1.00  0.00     0.188 C 
ENDROOT
BRANCH   1   2
ATOM      2  C   UNL A   1      34.415  32.671  28.149  1.00  0.00     0.188 C 
BRANCH   2   3
ATOM      3  O   UNL A   1      33.116  32.318  27.674  1.00  0.00    -0.376 OA
BRANCH   3   4
ATOM      4  C   UNL A   1      32.907  30.967  27.291  1.00  0.00     0.202 C 
BRANCH   4   5
ATOM      5  C   UNL A   1      31.839  30.750  26.218  1.00  0.00     0.261 C 
BRANCH   5   6
ATOM      6  O   UNL A   1      32.228  29.856  25.167  1.00  0.00    -0.460 OA
BRANCH   6   7
ATOM      7  C   UNL A   1      31.390  28.873  24.768  1.00  0.00     0.339 C 
ATOM      8  O   UNL A   1      30.426  28.970  24.033  1.00  0.00    -0.246 OA
BRANCH   7   9
ATOM      9  C   UNL A   1      31.980  27.610  25.251  1.00  0.00     0.078 A 
ATOM     10  C   UNL A   1      33.017  25.098  25.844  1.00  0.00     0.096 A 
ATOM     11  C   UNL A   1      33.825  26.099  25.351  1.00  0.00     0.036 A 
ATOM     12  N   UNL A   1      31.697  25.336  26.041  1.00  0.00    -0.249 NA
ATOM     13  C   UNL A   1      33.332  27.364  25.083  1.00  0.00     0.020 A 
ATOM     14  C   UNL A   1      31.202  26.574  25.738  1.00  0.00     0.128 A 
BRANCH  10  15
ATOM     15  S   UNL A   1      33.555  23.427  26.116  1.00  0.00    -0.103 SA
BRANCH  15  16
ATOM     16  C   UNL A   1      34.133  22.628  24.524  1.00  0.00     0.054 C 
ATOM     17  C   UNL A   1      32.996  20.369  24.355  1.00  0.00     0.109 C 
ATOM     18  C   UNL A   1      32.436  20.723  22.967  1.00  0.00     0.020 C 
ATOM     19  C   UNL A   1      34.302  21.102  24.610  1.00  0.00     0.034 C 
ATOM     20  C   UNL A   1      32.417  22.214  22.597  1.00  0.00     0.002 C 
ATOM     21  C   UNL A   1      33.522  23.085  23.197  1.00  0.00     0.015 C 
BRANCH  17  22
ATOM     22  S   UNL A   1      33.119  18.585  24.591  1.00  0.00     0.150 S 
ATOM     23  C   UNL A   1      32.363  17.954  23.104  1.00  0.00     0.158 C 
ATOM     24  O   UNL A   1      32.260  18.197  25.693  1.00  0.00    -0.229 OA
ATOM     25  O   UNL A   1      34.515  18.197  24.571  1.00  0.00    -0.229 OA
ENDBRANCH  17  22
ENDBRANCH  15  16
ENDBRANCH  10  15
ENDBRANCH   7   9
ENDBRANCH   6   7
ENDBRANCH   5   6
ENDBRANCH   4   5
ENDBRANCH   3   4
ENDBRANCH   2   3
ENDBRANCH   1   2
BRANCH   1  26
ATOM     26  O   UNL A   1      34.784  34.740  29.459  1.00  0.00    -0.377 OA
BRANCH  26  27
ATOM     27  C   UNL A   1      33.579  35.001  30.189  1.00  0.00     0.188 C 
BRANCH  27  28
ATOM     28  C   UNL A   1      33.596  35.588  31.619  1.00  0.00     0.188 C 
BRANCH  28  29
ATOM     29  O   UNL A   1      34.861  35.477  32.268  1.00  0.00    -0.376 OA
BRANCH  29  30
ATOM     30  C   UNL A   1      34.844  35.166  33.654  1.00  0.00     0.202 C 
BRANCH  30  31
ATOM     31  C   UNL A   1      34.640  33.670  33.918  1.00  0.00     0.261 C 
BRANCH  31  32
ATOM     32  O   UNL A   1      35.730  32.840  33.485  1.00  0.00    -0.460 OA
BRANCH  32  33
ATOM     33  C   UNL A   1      35.575  32.210  32.299  1.00  0.00     0.338 C 
ATOM     34  O   UNL A   1      34.541  32.021  31.688  1.00  0.00    -0.246 OA
BRANCH  33  35
ATOM     35  C   UNL A   1      36.918  31.939  31.760  1.00  0.00     0.060 A 
ATOM     36  C   UNL A   1      37.181  32.232  30.416  1.00  0.00     0.016 A 
ATOM     37  C   UNL A   1      37.906  31.385  32.577  1.00  0.00     0.016 A 
ATOM     38  C   UNL A   1      38.430  31.932  29.873  1.00  0.00     0.010 A 
ATOM     39  C   UNL A   1      39.148  31.070  32.029  1.00  0.00     0.010 A 
ATOM     40  C   UNL A   1      39.402  31.309  30.667  1.00  0.00    -0.014 A 
BRANCH  40  41
ATOM     41  C   UNL A   1      40.601  30.714  30.036  1.00  0.00     0.031 A 
ATOM     42  C   UNL A   1      41.808  31.590  29.844  1.00  0.00     0.074 A 
ATOM     43  C   UNL A   1      40.621  29.430  29.642  1.00  0.00     0.049 A 
ATOM     44  N   UNL A   1      42.950  31.320  29.266  1.00  0.00    -0.248 NA
ATOM     45  C   UNL A   1      41.710  32.960  30.374  1.00  0.00     0.031 C 
ATOM     46  C   UNL A   1      39.526  28.477  29.808  1.00  0.00     0.029 A 
ATOM     47  N   UNL A   1      41.602  28.713  29.005  1.00  0.00    -0.354 N 
ATOM     48  C   UNL A   1      43.703  32.481  29.365  1.00  0.00     0.074 A 
ATOM     49  C   UNL A   1      42.880  33.470  30.026  1.00  0.00     0.031 C 
ATOM     50  C   UNL A   1      39.893  27.299  29.272  1.00  0.00     0.029 A 
ATOM     51  C   UNL A   1      41.233  27.427  28.700  1.00  0.00     0.049 A 
ATOM     52  H   UNL A   1      42.488  29.086  28.789  1.00  0.00     0.167 HD
ATOM     53  C   UNL A   1      44.973  32.701  28.951  1.00  0.00     0.037 A 
ATOM     54  C   UNL A   1      41.897  26.475  28.017  1.00  0.00     0.037 A 
ATOM     55  C   UNL A   1      45.785  31.721  28.281  1.00  0.00     0.049 A 
ATOM     56  C   UNL A   1      43.280  26.772  27.492  1.00  0.00     0.074 A 
ATOM     57  C   UNL A   1      47.085  31.842  27.824  1.00  0.00     0.029 A 
ATOM     58  N   UNL A   1      45.366  30.438  27.965  1.00  0.00    -0.354 N 
ATOM     59  N   UNL A   1      43.998  27.862  27.613  1.00  0.00    -0.248 NA
ATOM     60  C   UNL A   1      43.945  25.702  26.733  1.00  0.00     0.031 C 
ATOM     61  C   UNL A   1      47.437  30.647  27.188  1.00  0.00     0.029 A 
ATOM     62  C   UNL A   1      46.376  29.764  27.297  1.00  0.00     0.049 A 
ATOM     63  H   UNL A   1      44.484  30.060  28.183  1.00  0.00     0.167 HD
ATOM     64  C   UNL A   1      45.206  27.599  26.979  1.00  0.00     0.074 A 
ATOM     65  C   UNL A   1      45.128  26.241  26.482  1.00  0.00     0.031 C 
ATOM     66  C   UNL A   1      46.284  28.406  26.823  1.00  0.00     0.037 A 
BRANCH  53  67
ATOM     67  C   UNL A   1      45.550  34.064  29.193  1.00  0.00     0.064 A 
ATOM     68  C   UNL A   1      46.262  34.362  30.365  1.00  0.00     0.173 A 
ATOM     69  C   UNL A   1      45.406  35.077  28.235  1.00  0.00     0.173 A 
ATOM     70  F   UNL A   1      46.411  33.432  31.320  1.00  0.00    -0.203 F 
ATOM     71  C   UNL A   1      46.789  35.633  30.579  1.00  0.00     0.198 A 
ATOM     72  C   UNL A   1      45.957  36.339  28.440  1.00  0.00     0.198 A 
ATOM     73  F   UNL A   1      44.732  34.844  27.098  1.00  0.00    -0.203 F 
ATOM     74  F   UNL A   1      47.424  35.910  31.725  1.00  0.00    -0.200 F 
ATOM     75  C   UNL A   1      46.642  36.618  29.613  1.00  0.00     0.200 A 
ATOM     76  F   UNL A   1      45.822  37.287  27.502  1.00  0.00    -0.200 F 
ATOM     77  F   UNL A   1      47.154  37.839  29.818  1.00  0.00    -0.200 F 
ENDBRANCH  53  67
BRANCH  54  78
ATOM     78  C   UNL A   1      41.268  25.150  27.776  1.00  0.00     0.064 A 
ATOM     79  C   UNL A   1      41.743  23.996  28.414  1.00  0.00     0.173 A 
ATOM     80  C   UNL A   1      40.201  25.005  26.877  1.00  0.00     0.173 A 
ATOM     81  F   UNL A   1      42.779  24.080  29.263  1.00  0.00    -0.203 F 
ATOM     82  C   UNL A   1      41.191  22.745  28.147  1.00  0.00     0.198 A 
ATOM     83  C   UNL A   1      39.630  23.757  26.632  1.00  0.00     0.198 A 
ATOM     84  F   UNL A   1      39.709  26.076  26.239  1.00  0.00    -0.203 F 
ATOM     85  F   UNL A   1      41.700  21.652  28.732  1.00  0.00    -0.200 F 
ATOM     86  C   UNL A   1      40.133  22.627  27.259  1.00  0.00     0.200 A 
ATOM     87  F   UNL A   1      38.600  23.649  25.783  1.00  0.00    -0.200 F 
ATOM     88  F   UNL A   1      39.602  21.424  27.002  1.00  0.00    -0.200 F 
ENDBRANCH  54  78
BRANCH  66  89
ATOM     89  C   UNL A   1      47.484  27.833  26.125  1.00  0.00     0.064 A 
ATOM     90  C   UNL A   1      48.517  27.200  26.831  1.00  0.00     0.173 A 
ATOM     91  C   UNL A   1      47.576  27.876  24.725  1.00  0.00     0.173 A 
ATOM     92  F   UNL A   1      48.482  27.145  28.172  1.00  0.00    -0.203 F 
ATOM     93  C   UNL A   1      49.610  26.654  26.164  1.00  0.00     0.198 A 
ATOM     94  C   UNL A   1      48.655  27.301  24.059  1.00  0.00     0.198 A 
ATOM     95  F   UNL A   1      46.611  28.462  24.001  1.00  0.00    -0.203 F 
ATOM     96  F   UNL A   1      50.607  26.094  26.863  1.00  0.00    -0.200 F 
ATOM     97  C   UNL A   1      49.674  26.697  24.779  1.00  0.00     0.200 A 
ATOM     98  F   UNL A   1      48.708  27.332  22.720  1.00  0.00    -0.200 F 
ATOM     99  F   UNL A   1      50.723  26.163  24.138  1.00  0.00    -0.200 F 
ENDBRANCH  66  89
ENDBRANCH  40  41
ENDBRANCH  33  35
ENDBRANCH  32  33
ENDBRANCH  31  32
ENDBRANCH  30  31
ENDBRANCH  29  30
ENDBRANCH  28  29
ENDBRANCH  27  28
ENDBRANCH  26  27
ENDBRANCH   1  26
TORSDOF 23
ENDMDL
MODEL 2
REMARK VINA RESULT:      -9.8      4.398      8.706
REMARK SMILES CS(=O)(=O)[C@@H]1CCC[C@@H](Sc2ccc(C(=O)OCCOCCOCCOCCOC(=O)c3ccc(-c4c5nc(c(-c6c(F)c(F)c(F)c(F)c6F)c6ccc([nH]6)c(-c6c(F)c(F)c(F)c(F)c6F)c6nc(c(-c7c(F)c(F)c(F)c(F)c7F)c7ccc4[nH]7)C=C6)C=C5)cc3)cn2)C1
REMARK SMILES IDX 22 1 21 2 20 3 19 4 18 5 17 6 15 7 16 8 14 9 11 10 12 11
REMARK SMILES IDX 96 12 13 13 95 14 10 15 9 16 5 17 6 18 97 19 7 20 8 21 2 22
REMARK SMILES IDX 1 23 3 24 4 25 23 26 24 27 25 28 26 29 27 30 28 31 29 32
REMARK SMILES IDX 30 33 31 34 32 35 33 36 94 37 34 38 93 39 35 40 36 41 37 42
REMARK SMILES IDX 87 43 38 44 92 45 86 46 88 47 39 48 91 49 85 50 84 51 40 53
REMARK SMILES IDX 72 54 52 55 71 56 53 57 56 58 70 59 89 60 54 61 55 62 69 64
REMARK SMILES IDX 90 65 57 66 41 67 42 68 50 69 43 70 44 71 48 72 51 73 45 74
REMARK SMILES IDX 46 75 49 76 47 77 73 78 74 79 82 80 75 81 76 82 80 83 83 84
REMARK SMILES IDX 77 85 78 86 81 87 79 88 58 89 59 90 67 91 60 92 61 93 65 94
REMARK SMILES IDX 68 95 62 96 63 97 66 98 64 99
REMARK H PARENT 88 52 56 63
REMARK Flexibility Score: inf
ROOT
ATOM      1  C   UNL A   1      30.287  25.836  25.259  1.00  0.00     0.188 C 
ENDROOT
BRANCH   1   2
ATOM      2  C   UNL A   1      29.161  26.557  24.494  1.00  0.00     0.188 C 
BRANCH   2   3
ATOM      3  O   UNL A   1      29.636  27.274  23.356  1.00  0.00    -0.376 OA
BRANCH   3   4
ATOM      4  C   UNL A   1      30.128  28.589  23.571  1.00  0.00     0.202 C 
BRANCH   4   5
ATOM      5  C   UNL A   1      31.266  29.021  22.646  1.00  0.00     0.261 C 
BRANCH   5   6
ATOM      6  O   UNL A   1      32.574  28.659  23.106  1.00  0.00    -0.460 OA
BRANCH   6   7
ATOM      7  C   UNL A   1      33.358  27.852  22.356  1.00  0.00     0.339 C 
ATOM      8  O   UNL A   1      34.296  28.173  21.651  1.00  0.00    -0.246 OA
BRANCH   7   9
ATOM      9  C   UNL A   1      32.974  26.470  22.701  1.00  0.00     0.078 A 
ATOM     10  C   UNL A   1      32.477  23.764  23.103  1.00  0.00     0.096 A 
ATOM     11  C   UNL A   1      33.432  24.425  23.842  1.00  0.00     0.036 A 
ATOM     12  N   UNL A   1      31.769  24.437  22.163  1.00  0.00    -0.249 NA
ATOM     13  C   UNL A   1      33.668  25.778  23.679  1.00  0.00     0.020 A 
ATOM     14  C   UNL A   1      32.031  25.766  21.974  1.00  0.00     0.128 A 
BRANCH  10  15
ATOM     15  S   UNL A   1      32.188  22.012  23.186  1.00  0.00    -0.103 SA
BRANCH  15  16
ATOM     16  C   UNL A   1      32.844  21.287  24.782  1.00  0.00     0.054 C 
ATOM     17  C   UNL A   1      35.223  22.115  25.070  1.00  0.00     0.109 C 
ATOM     18  C   UNL A   1      34.890  22.674  26.464  1.00  0.00     0.020 C 
ATOM     19  C   UNL A   1      34.338  20.924  24.743  1.00  0.00     0.034 C 
ATOM     20  C   UNL A   1      33.400  22.874  26.783  1.00  0.00     0.002 C 
ATOM     21  C   UNL A   1      32.419  21.911  26.114  1.00  0.00     0.015 C 
BRANCH  17  22
ATOM     22  S   UNL A   1      36.984  21.770  24.891  1.00  0.00     0.150 S 
ATOM     23  C   UNL A   1      37.032  19.991  25.001  1.00  0.00     0.158 C 
ATOM     24  O   UNL A   1      37.682  22.280  26.055  1.00  0.00    -0.229 OA
ATOM     25  O   UNL A   1      37.408  22.138  23.555  1.00  0.00    -0.229 OA
ENDBRANCH  17  22
ENDBRANCH  15  16
ENDBRANCH  10  15
ENDBRANCH   7   9
ENDBRANCH   6   7
ENDBRANCH   5   6
ENDBRANCH   4   5
ENDBRANCH   3   4
ENDBRANCH   2   3
ENDBRANCH   1   2
BRANCH   1  26
ATOM     26  O   UNL A   1      30.640  26.472  26.479  1.00  0.00    -0.377 OA
BRANCH  26  27
ATOM     27  C   UNL A   1      31.775  27.345  26.465  1.00  0.00     0.188 C 
BRANCH  27  28
ATOM     28  C   UNL A   1      31.807  28.664  27.271  1.00  0.00     0.188 C 
BRANCH  28  29
ATOM     29  O   UNL A   1      31.482  29.816  26.496  1.00  0.00    -0.376 OA
BRANCH  29  30
ATOM     30  C   UNL A   1      32.474  30.829  26.409  1.00  0.00     0.202 C 
BRANCH  30  31
ATOM     31  C   UNL A   1      31.997  32.169  26.979  1.00  0.00     0.261 C 
BRANCH  31  32
ATOM     32  O   UNL A   1      32.960  33.231  26.875  1.00  0.00    -0.460 OA
BRANCH  32  33
ATOM     33  C   UNL A   1      33.327  33.828  28.031  1.00  0.00     0.338 C 
ATOM     34  O   UNL A   1      32.716  34.672  28.658  1.00  0.00    -0.246 OA
BRANCH  33  35
ATOM     35  C   UNL A   1      34.535  33.143  28.522  1.00  0.00     0.060 A 
ATOM     36  C   UNL A   1      34.404  31.887  29.128  1.00  0.00     0.016 A 
ATOM     37  C   UNL A   1      35.787  33.748  28.395  1.00  0.00     0.016 A 
ATOM     38  C   UNL A   1      35.529  31.248  29.647  1.00  0.00     0.010 A 
ATOM     39  C   UNL A   1      36.908  33.116  28.931  1.00  0.00     0.010 A 
ATOM     40  C   UNL A   1      36.777  31.882  29.590  1.00  0.00    -0.014 A 
BRANCH  40  41
ATOM     41  C   UNL A   1      37.906  31.365  30.396  1.00  0.00     0.031 A 
ATOM     42  C   UNL A   1      38.810  30.338  29.773  1.00  0.00     0.074 A 
ATOM     43  C   UNL A   1      38.124  31.794  31.650  1.00  0.00     0.049 A 
ATOM     44  N   UNL A   1      39.823  29.694  30.293  1.00  0.00    -0.248 NA
ATOM     45  C   UNL A   1      38.528  29.988  28.371  1.00  0.00     0.031 C 
ATOM     46  C   UNL A   1      37.339  32.810  32.346  1.00  0.00     0.029 A 
ATOM     47  N   UNL A   1      39.072  31.412  32.565  1.00  0.00    -0.354 N 
ATOM     48  C   UNL A   1      40.298  28.868  29.285  1.00  0.00     0.074 A 
ATOM     49  C   UNL A   1      39.444  29.062  28.133  1.00  0.00     0.031 C 
ATOM     50  C   UNL A   1      37.830  32.962  33.589  1.00  0.00     0.029 A 
ATOM     51  C   UNL A   1      38.943  32.033  33.782  1.00  0.00     0.049 A 
ATOM     52  H   UNL A   1      39.779  30.756  32.367  1.00  0.00     0.167 HD
ATOM     53  C   UNL A   1      41.358  28.028  29.312  1.00  0.00     0.037 A 
ATOM     54  C   UNL A   1      39.633  31.851  34.925  1.00  0.00     0.037 A 
ATOM     55  C   UNL A   1      42.198  27.825  30.462  1.00  0.00     0.049 A 
ATOM     56  C   UNL A   1      40.758  30.846  34.955  1.00  0.00     0.074 A 
ATOM     57  C   UNL A   1      43.300  26.998  30.592  1.00  0.00     0.029 A 
ATOM     58  N   UNL A   1      42.018  28.451  31.686  1.00  0.00    -0.354 N 
ATOM     59  N   UNL A   1      41.222  30.088  33.991  1.00  0.00    -0.248 NA
ATOM     60  C   UNL A   1      41.458  30.673  36.237  1.00  0.00     0.031 C 
ATOM     61  C   UNL A   1      43.759  27.089  31.910  1.00  0.00     0.029 A 
ATOM     62  C   UNL A   1      42.976  28.012  32.585  1.00  0.00     0.049 A 
ATOM     63  H   UNL A   1      41.316  29.109  31.887  1.00  0.00     0.167 HD
ATOM     64  C   UNL A   1      42.283  29.377  34.537  1.00  0.00     0.074 A 
ATOM     65  C   UNL A   1      42.402  29.801  35.916  1.00  0.00     0.031 C 
ATOM     66  C   UNL A   1      43.088  28.457  33.951  1.00  0.00     0.037 A 
BRANCH  53  67
ATOM     67  C   UNL A   1      41.653  27.250  28.064  1.00  0.00     0.064 A 
ATOM     68  C   UNL A   1      42.544  27.731  27.092  1.00  0.00     0.173 A 
ATOM     69  C   UNL A   1      41.055  26.001  27.846  1.00  0.00     0.173 A 
ATOM     70  F   UNL A   1      43.128  28.929  27.244  1.00  0.00    -0.203 F 
ATOM     71  C   UNL A   1      42.805  27.000  25.936  1.00  0.00     0.198 A 
ATOM     72  C   UNL A   1      41.339  25.260  26.703  1.00  0.00     0.198 A 
ATOM     73  F   UNL A   1      40.195  25.496  28.745  1.00  0.00    -0.203 F 
ATOM     74  F   UNL A   1      43.621  27.501  24.999  1.00  0.00    -0.200 F 
ATOM     75  C   UNL A   1      42.208  25.763  25.745  1.00  0.00     0.200 A 
ATOM     76  F   UNL A   1      40.769  24.061  26.525  1.00  0.00    -0.200 F 
ATOM     77  F   UNL A   1      42.464  25.058  24.635  1.00  0.00    -0.200 F 
ENDBRANCH  53  67
BRANCH  54  78
ATOM     78  C   UNL A   1      39.280  32.624  36.144  1.00  0.00     0.064 A 
ATOM     79  C   UNL A   1      39.877  33.863  36.413  1.00  0.00     0.173 A 
ATOM     80  C   UNL A   1      38.364  32.125  37.082  1.00  0.00     0.173 A 
ATOM     81  F   UNL A   1      40.779  34.371  35.559  1.00  0.00    -0.203 F 
ATOM     82  C   UNL A   1      39.589  34.563  37.583  1.00  0.00     0.198 A 
ATOM     83  C   UNL A   1      38.056  32.839  38.238  1.00  0.00     0.198 A 
ATOM     84  F   UNL A   1      37.766  30.943  36.875  1.00  0.00    -0.203 F 
ATOM     85  F   UNL A   1      40.214  35.721  37.839  1.00  0.00    -0.200 F 
ATOM     86  C   UNL A   1      38.676  34.053  38.493  1.00  0.00     0.200 A 
ATOM     87  F   UNL A   1      37.164  32.348  39.109  1.00  0.00    -0.200 F 
ATOM     88  F   UNL A   1      38.400  34.725  39.618  1.00  0.00    -0.200 F 
ENDBRANCH  54  78
BRANCH  66  89
ATOM     89  C   UNL A   1      44.197  27.878  34.781  1.00  0.00     0.064 A 
ATOM     90  C   UNL A   1      44.042  26.676  35.487  1.00  0.00     0.173 A 
ATOM     91  C   UNL A   1      45.449  28.512  34.830  1.00  0.00     0.173 A 
ATOM     92  F   UNL A   1      42.861  26.040  35.483  1.00  0.00    -0.203 F 
ATOM     93  C   UNL A   1      45.091  26.144  36.232  1.00  0.00     0.198 A 
ATOM     94  C   UNL A   1      46.505  27.960  35.550  1.00  0.00     0.198 A 
ATOM     95  F   UNL A   1      45.653  29.659  34.165  1.00  0.00    -0.203 F 
ATOM     96  F   UNL A   1      44.905  25.018  36.935  1.00  0.00    -0.200 F 
ATOM     97  C   UNL A   1      46.323  26.781  36.256  1.00  0.00     0.200 A 
ATOM     98  F   UNL A   1      47.698  28.570  35.562  1.00  0.00    -0.200 F 
ATOM     99  F   UNL A   1      47.334  26.262  36.967  1.00  0.00    -0.200 F 
ENDBRANCH  66  89
ENDBRANCH  40  41
ENDBRANCH  33  35
ENDBRANCH  32  33
ENDBRANCH  31  32
ENDBRANCH  30  31
ENDBRANCH  29  30
ENDBRANCH  28  29
ENDBRANCH  27  28
ENDBRANCH  26  27
ENDBRANCH   1  26
TORSDOF 23
ENDMDL
MODEL 3
REMARK VINA RESULT:      -9.5      5.343     12.654
REMARK SMILES CS(=O)(=O)[C@@H]1CCC[C@@H](Sc2ccc(C(=O)OCCOCCOCCOCCOC(=O)c3ccc(-c4c5nc(c(-c6c(F)c(F)c(F)c(F)c6F)c6ccc([nH]6)c(-c6c(F)c(F)c(F)c(F)c6F)c6nc(c(-c7c(F)c(F)c(F)c(F)c7F)c7ccc4[nH]7)C=C6)C=C5)cc3)cn2)C1
REMARK SMILES IDX 22 1 21 2 20 3 19 4 18 5 17 6 15 7 16 8 14 9 11 10 12 11
REMARK SMILES IDX 96 12 13 13 95 14 10 15 9 16 5 17 6 18 97 19 7 20 8 21 2 22
REMARK SMILES IDX 1 23 3 24 4 25 23 26 24 27 25 28 26 29 27 30 28 31 29 32
REMARK SMILES IDX 30 33 31 34 32 35 33 36 94 37 34 38 93 39 35 40 36 41 37 42
REMARK SMILES IDX 87 43 38 44 92 45 86 46 88 47 39 48 91 49 85 50 84 51 40 53
REMARK SMILES IDX 72 54 52 55 71 56 53 57 56 58 70 59 89 60 54 61 55 62 69 64
REMARK SMILES IDX 90 65 57 66 41 67 42 68 50 69 43 70 44 71 48 72 51 73 45 74
REMARK SMILES IDX 46 75 49 76 47 77 73 78 74 79 82 80 75 81 76 82 80 83 83 84
REMARK SMILES IDX 77 85 78 86 81 87 79 88 58 89 59 90 67 91 60 92 61 93 65 94
REMARK SMILES IDX 68 95 62 96 63 97 66 98 64 99
REMARK H PARENT 88 52 56 63
REMARK Flexibility Score: inf
ROOT
ATOM      1  C   UNL A   1      41.686  20.249  26.174  1.00  0.00     0.188 C 
ENDROOT
BRANCH   1   2
ATOM      2  C   UNL A   1      42.351  21.564  26.622  1.00  0.00     0.188 C 
BRANCH   2   3
ATOM      3  O   UNL A   1      42.194  22.615  25.669  1.00  0.00    -0.376 OA
BRANCH   3   4
ATOM      4  C   UNL A   1      41.983  23.926  26.173  1.00  0.00     0.202 C 
BRANCH   4   5
ATOM      5  C   UNL A   1      42.644  24.223  27.519  1.00  0.00     0.261 C 
BRANCH   5   6
ATOM      6  O   UNL A   1      41.778  24.835  28.483  1.00  0.00    -0.460 OA
BRANCH   6   7
ATOM      7  C   UNL A   1      40.495  25.114  28.161  1.00  0.00     0.339 C 
ATOM      8  O   UNL A   1      39.697  24.392  27.592  1.00  0.00    -0.246 OA
BRANCH   7   9
ATOM      9  C   UNL A   1      40.182  26.407  28.799  1.00  0.00     0.078 A 
ATOM     10  C   UNL A   1      39.663  28.685  30.307  1.00  0.00     0.096 A 
ATOM     11  C   UNL A   1      40.917  28.451  29.789  1.00  0.00     0.036 A 
ATOM     12  N   UNL A   1      38.666  27.794  30.084  1.00  0.00    -0.249 NA
ATOM     13  C   UNL A   1      41.184  27.340  29.008  1.00  0.00     0.020 A 
ATOM     14  C   UNL A   1      38.940  26.676  29.346  1.00  0.00     0.128 A 
BRANCH  10  15
ATOM     15  S   UNL A   1      39.271  30.032  31.397  1.00  0.00    -0.103 SA
BRANCH  15  16
ATOM     16  C   UNL A   1      38.595  31.501  30.454  1.00  0.00     0.054 C 
ATOM     17  C   UNL A   1      37.064  32.771  32.024  1.00  0.00     0.109 C 
ATOM     18  C   UNL A   1      37.852  34.070  31.786  1.00  0.00     0.020 C 
ATOM     19  C   UNL A   1      37.144  31.864  30.808  1.00  0.00     0.034 C 
ATOM     20  C   UNL A   1      39.260  33.919  31.191  1.00  0.00     0.002 C 
ATOM     21  C   UNL A   1      39.485  32.731  30.254  1.00  0.00     0.015 C 
BRANCH  17  22
ATOM     22  S   UNL A   1      35.375  33.102  32.562  1.00  0.00     0.150 S 
ATOM     23  C   UNL A   1      35.169  34.818  32.125  1.00  0.00     0.158 C 
ATOM     24  O   UNL A   1      35.319  33.029  34.008  1.00  0.00    -0.229 OA
ATOM     25  O   UNL A   1      34.457  32.329  31.748  1.00  0.00    -0.229 OA
ENDBRANCH  17  22
ENDBRANCH  15  16
ENDBRANCH  10  15
ENDBRANCH   7   9
ENDBRANCH   6   7
ENDBRANCH   5   6
ENDBRANCH   4   5
ENDBRANCH   3   4
ENDBRANCH   2   3
ENDBRANCH   1   2
BRANCH   1  26
ATOM     26  O   UNL A   1      42.426  19.549  25.184  1.00  0.00    -0.377 OA
BRANCH  26  27
ATOM     27  C   UNL A   1      43.828  19.366  25.413  1.00  0.00     0.188 C 
BRANCH  27  28
ATOM     28  C   UNL A   1      44.888  19.725  24.346  1.00  0.00     0.188 C 
BRANCH  28  29
ATOM     29  O   UNL A   1      45.759  20.784  24.738  1.00  0.00    -0.376 OA
BRANCH  29  30
ATOM     30  C   UNL A   1      45.395  22.095  24.331  1.00  0.00     0.202 C 
BRANCH  30  31
ATOM     31  C   UNL A   1      45.670  23.145  25.413  1.00  0.00     0.261 C 
BRANCH  31  32
ATOM     32  O   UNL A   1      45.309  24.485  25.043  1.00  0.00    -0.460 OA
BRANCH  32  33
ATOM     33  C   UNL A   1      46.311  25.390  25.000  1.00  0.00     0.338 C 
ATOM     34  O   UNL A   1      47.306  25.367  24.300  1.00  0.00    -0.246 OA
BRANCH  33  35
ATOM     35  C   UNL A   1      45.910  26.539  25.831  1.00  0.00     0.060 A 
ATOM     36  C   UNL A   1      46.898  27.267  26.505  1.00  0.00     0.016 A 
ATOM     37  C   UNL A   1      44.562  26.883  25.951  1.00  0.00     0.016 A 
ATOM     38  C   UNL A   1      46.533  28.323  27.338  1.00  0.00     0.010 A 
ATOM     39  C   UNL A   1      44.196  27.928  26.798  1.00  0.00     0.010 A 
ATOM     40  C   UNL A   1      45.177  28.628  27.521  1.00  0.00    -0.014 A 
BRANCH  40  41
ATOM     41  C   UNL A   1      44.765  29.529  28.621  1.00  0.00     0.031 A 
ATOM     42  C   UNL A   1      44.464  28.917  29.961  1.00  0.00     0.074 A 
ATOM     43  C   UNL A   1      44.661  30.855  28.437  1.00  0.00     0.049 A 
ATOM     44  N   UNL A   1      44.030  29.485  31.057  1.00  0.00    -0.248 NA
ATOM     45  C   UNL A   1      44.677  27.466  30.078  1.00  0.00     0.031 C 
ATOM     46  C   UNL A   1      44.962  31.564  27.196  1.00  0.00     0.029 A 
ATOM     47  N   UNL A   1      44.257  31.841  29.303  1.00  0.00    -0.354 N 
ATOM     48  C   UNL A   1      43.921  28.464  31.989  1.00  0.00     0.074 A 
ATOM     49  C   UNL A   1      44.299  27.235  31.325  1.00  0.00     0.031 C 
ATOM     50  C   UNL A   1      44.717  32.875  27.376  1.00  0.00     0.029 A 
ATOM     51  C   UNL A   1      44.216  33.088  28.733  1.00  0.00     0.049 A 
ATOM     52  H   UNL A   1      44.020  31.669  30.243  1.00  0.00     0.167 HD
ATOM     53  C   UNL A   1      43.549  28.542  33.288  1.00  0.00     0.037 A 
ATOM     54  C   UNL A   1      43.798  34.262  29.247  1.00  0.00     0.037 A 
ATOM     55  C   UNL A   1      43.159  29.762  33.943  1.00  0.00     0.049 A 
ATOM     56  C   UNL A   1      43.307  34.309  30.673  1.00  0.00     0.074 A 
ATOM     57  C   UNL A   1      42.768  29.950  35.257  1.00  0.00     0.029 A 
ATOM     58  N   UNL A   1      43.103  31.002  33.326  1.00  0.00    -0.354 N 
ATOM     59  N   UNL A   1      43.234  33.345  31.559  1.00  0.00    -0.248 NA
ATOM     60  C   UNL A   1      42.841  35.612  31.171  1.00  0.00     0.031 C 
ATOM     61  C   UNL A   1      42.429  31.297  35.422  1.00  0.00     0.029 A 
ATOM     62  C   UNL A   1      42.661  31.957  34.226  1.00  0.00     0.049 A 
ATOM     63  H   UNL A   1      43.342  31.178  32.388  1.00  0.00     0.167 HD
ATOM     64  C   UNL A   1      42.748  33.929  32.723  1.00  0.00     0.074 A 
ATOM     65  C   UNL A   1      42.553  35.334  32.434  1.00  0.00     0.031 C 
ATOM     66  C   UNL A   1      42.487  33.355  33.923  1.00  0.00     0.037 A 
BRANCH  53  67
ATOM     67  C   UNL A   1      43.525  27.267  34.077  1.00  0.00     0.064 A 
ATOM     68  C   UNL A   1      42.321  26.616  34.386  1.00  0.00     0.173 A 
ATOM     69  C   UNL A   1      44.721  26.678  34.512  1.00  0.00     0.173 A 
ATOM     70  F   UNL A   1      41.149  27.149  34.008  1.00  0.00    -0.203 F 
ATOM     71  C   UNL A   1      42.314  25.435  35.123  1.00  0.00     0.198 A 
ATOM     72  C   UNL A   1      44.712  25.482  35.225  1.00  0.00     0.198 A 
ATOM     73  F   UNL A   1      45.900  27.261  34.244  1.00  0.00    -0.203 F 
ATOM     74  F   UNL A   1      41.150  24.857  35.447  1.00  0.00    -0.200 F 
ATOM     75  C   UNL A   1      43.509  24.866  35.535  1.00  0.00     0.200 A 
ATOM     76  F   UNL A   1      45.869  24.929  35.615  1.00  0.00    -0.200 F 
ATOM     77  F   UNL A   1      43.502  23.726  36.240  1.00  0.00    -0.200 F 
ENDBRANCH  53  67
BRANCH  54  78
ATOM     78  C   UNL A   1      43.811  35.492  28.413  1.00  0.00     0.064 A 
ATOM     79  C   UNL A   1      44.993  36.219  28.215  1.00  0.00     0.173 A 
ATOM     80  C   UNL A   1      42.637  35.984  27.826  1.00  0.00     0.173 A 
ATOM     81  F   UNL A   1      46.137  35.803  28.779  1.00  0.00    -0.203 F 
ATOM     82  C   UNL A   1      44.996  37.403  27.481  1.00  0.00     0.198 A 
ATOM     83  C   UNL A   1      42.646  37.153  27.067  1.00  0.00     0.198 A 
ATOM     84  F   UNL A   1      41.478  35.329  27.986  1.00  0.00    -0.203 F 
ATOM     85  F   UNL A   1      46.130  38.105  27.351  1.00  0.00    -0.200 F 
ATOM     86  C   UNL A   1      43.824  37.867  26.904  1.00  0.00     0.200 A 
ATOM     87  F   UNL A   1      41.514  37.592  26.501  1.00  0.00    -0.200 F 
ATOM     88  F   UNL A   1      43.827  39.006  26.197  1.00  0.00    -0.200 F 
ENDBRANCH  54  78
BRANCH  66  89
ATOM     89  C   UNL A   1      42.006  34.250  35.029  1.00  0.00     0.064 A 
ATOM     90  C   UNL A   1      40.643  34.388  35.329  1.00  0.00     0.173 A 
ATOM     91  C   UNL A   1      42.928  34.942  35.831  1.00  0.00     0.173 A 
ATOM     92  F   UNL A   1      39.722  33.758  34.583  1.00  0.00    -0.203 F 
ATOM     93  C   UNL A   1      40.219  35.205  36.373  1.00  0.00     0.198 A 
ATOM     94  C   UNL A   1      42.503  35.733  36.894  1.00  0.00     0.198 A 
ATOM     95  F   UNL A   1      44.244  34.838  35.592  1.00  0.00    -0.203 F 
ATOM     96  F   UNL A   1      38.909  35.357  36.612  1.00  0.00    -0.200 F 
ATOM     97  C   UNL A   1      41.148  35.869  37.160  1.00  0.00     0.200 A 
ATOM     98  F   UNL A   1      43.402  36.363  37.661  1.00  0.00    -0.200 F 
ATOM     99  F   UNL A   1      40.738  36.648  38.171  1.00  0.00    -0.200 F 
ENDBRANCH  66  89
ENDBRANCH  40  41
ENDBRANCH  33  35
ENDBRANCH  32  33
ENDBRANCH  31  32
ENDBRANCH  30  31
ENDBRANCH  29  30
ENDBRANCH  28  29
ENDBRANCH  27  28
ENDBRANCH  26  27
ENDBRANCH   1  26
TORSDOF 23
ENDMDL
