MODEL 1
REMARK VINA RESULT:      -7.5      0.000      0.000
REMARK SMILES CCSc1ccc(-c2cc(Cl)cc3c2O[C@@H](C(F)(F)F)C(C(=O)OCCOCCOCCOCCOC(=O)c2ccc(-c4c5nc(c(-c6c(F)c(F)c(F)c(F)c6F)c6ccc([nH]6)c(-c6c(F)c(F)c(F)c(F)c6F)c6nc(c(-c7c(F)c(F)c(F)c(F)c7F)c7ccc4[nH]7)C=C6)C=C5)cc2)=C3)cc1
REMARK SMILES IDX 29 1 28 2 27 3 26 4 25 5 24 6 22 7 23 8 21 9 8 10 9 11 14 12
REMARK SMILES IDX 10 13 13 14 15 15 11 16 12 17 102 18 16 19 7 20 4 21 5 22
REMARK SMILES IDX 104 23 6 24 103 25 3 26 2 27 1 28 17 29 18 30 19 31 20 32
REMARK SMILES IDX 30 33 31 34 32 35 33 36 34 37 35 38 36 39 37 40 38 41 39 42
REMARK SMILES IDX 40 43 101 44 41 45 100 46 42 47 43 48 44 49 94 50 45 51
REMARK SMILES IDX 99 52 93 53 95 54 46 55 98 56 92 57 91 58 47 60 79 61 59 62
REMARK SMILES IDX 78 63 60 64 63 65 77 66 96 67 61 68 62 69 76 71 97 72 64 73
REMARK SMILES IDX 48 74 49 75 57 76 50 77 51 78 55 79 58 80 52 81 53 82 56 83
REMARK SMILES IDX 54 84 80 85 81 86 89 87 82 88 83 89 87 90 90 91 84 92 85 93
REMARK SMILES IDX 88 94 86 95 65 96 66 97 74 98 67 99 68 100 72 101 75 102
REMARK SMILES IDX 69 103 70 104 73 105 71 106
REMARK H PARENT 95 59 63 70
REMARK Flexibility Score: inf
ROOT
ATOM      1  C   UNL A   1      38.083  34.595  33.248  1.00  0.00     0.188 C 
ENDROOT
BRANCH   1   2
ATOM      2  C   UNL A   1      38.577  34.155  31.863  1.00  0.00     0.188 C 
BRANCH   2   3
ATOM      3  O   UNL A   1      39.891  34.605  31.548  1.00  0.00    -0.376 OA
BRANCH   3   4
ATOM      4  C   UNL A   1      40.391  34.318  30.242  1.00  0.00     0.202 C 
BRANCH   4   5
ATOM      5  C   UNL A   1      41.893  34.515  30.009  1.00  0.00     0.261 C 
BRANCH   5   6
ATOM      6  O   UNL A   1      42.582  33.246  30.065  1.00  0.00    -0.460 OA
BRANCH   6   7
ATOM      7  C   UNL A   1      43.474  33.021  29.086  1.00  0.00     0.338 C 
ATOM      8  O   UNL A   1      43.536  33.654  28.040  1.00  0.00    -0.246 OA
BRANCH   7   9
ATOM      9  C   UNL A   1      44.512  32.036  29.476  1.00  0.00     0.087 C 
ATOM     10  C   UNL A   1      45.010  28.842  26.880  1.00  0.00     0.026 A 
ATOM     11  C   UNL A   1      43.765  28.618  26.245  1.00  0.00     0.033 A 
ATOM     12  C   UNL A   1      45.017  29.832  27.882  1.00  0.00     0.135 A 
ATOM     13  C   UNL A   1      42.577  29.079  26.808  1.00  0.00     0.042 A 
ATOM     14  C   UNL A   1      43.825  30.095  28.573  1.00  0.00     0.019 A 
ATOM     15  O   UNL A   1      46.096  30.697  28.022  1.00  0.00    -0.475 OA
ATOM     16  Cl  UNL A   1      41.080  28.761  26.027  1.00  0.00    -0.084 Cl
ATOM     17  C   UNL A   1      42.597  29.726  28.035  1.00  0.00     0.032 A 
ATOM     18  C   UNL A   1      43.906  30.885  29.820  1.00  0.00     0.027 C 
ATOM     19  C   UNL A   1      45.921  31.871  28.929  1.00  0.00     0.316 C 
BRANCH  10  20
ATOM     20  C   UNL A   1      45.910  27.638  26.893  1.00  0.00    -0.015 A 
ATOM     21  C   UNL A   1      48.380  26.206  26.833  1.00  0.00     0.007 A 
ATOM     22  C   UNL A   1      47.763  26.521  28.046  1.00  0.00     0.015 A 
ATOM     23  C   UNL A   1      47.710  26.507  25.648  1.00  0.00     0.015 A 
ATOM     24  C   UNL A   1      46.535  27.204  28.077  1.00  0.00     0.010 A 
ATOM     25  C   UNL A   1      46.487  27.201  25.679  1.00  0.00     0.010 A 
BRANCH  21  26
ATOM     26  S   UNL A   1      50.070  25.626  26.861  1.00  0.00    -0.126 SA
BRANCH  26  27
ATOM     27  C   UNL A   1      50.580  25.998  28.570  1.00  0.00     0.071 C 
ATOM     28  C   UNL A   1      52.061  26.317  28.647  1.00  0.00     0.016 C 
ENDBRANCH  26  27
ENDBRANCH  21  26
ENDBRANCH  10  20
BRANCH  19  29
ATOM     29  C   UNL A   1      46.695  33.149  28.520  1.00  0.00     0.430 C 
ATOM     30  F   UNL A   1      47.989  33.045  28.933  1.00  0.00    -0.167 F 
ATOM     31  F   UNL A   1      46.735  33.292  27.174  1.00  0.00    -0.167 F 
ATOM     32  F   UNL A   1      46.236  34.304  29.022  1.00  0.00    -0.167 F 
ENDBRANCH  19  29
ENDBRANCH   7   9
ENDBRANCH   6   7
ENDBRANCH   5   6
ENDBRANCH   4   5
ENDBRANCH   3   4
ENDBRANCH   2   3
ENDBRANCH   1   2
BRANCH   1  33
ATOM     33  O   UNL A   1      36.685  34.809  33.291  1.00  0.00    -0.377 OA
BRANCH  33  34
ATOM     34  C   UNL A   1      35.846  33.661  33.355  1.00  0.00     0.188 C 
BRANCH  34  35
ATOM     35  C   UNL A   1      34.950  33.237  32.168  1.00  0.00     0.188 C 
BRANCH  35  36
ATOM     36  O   UNL A   1      35.241  33.901  30.940  1.00  0.00    -0.376 OA
BRANCH  36  37
ATOM     37  C   UNL A   1      34.135  34.359  30.175  1.00  0.00     0.202 C 
BRANCH  37  38
ATOM     38  C   UNL A   1      33.912  33.569  28.880  1.00  0.00     0.261 C 
BRANCH  38  39
ATOM     39  O   UNL A   1      35.019  32.746  28.482  1.00  0.00    -0.460 OA
BRANCH  39  40
ATOM     40  C   UNL A   1      34.744  31.467  28.147  1.00  0.00     0.338 C 
ATOM     41  O   UNL A   1      33.772  31.054  27.538  1.00  0.00    -0.246 OA
BRANCH  40  42
ATOM     42  C   UNL A   1      35.928  30.651  28.474  1.00  0.00     0.060 A 
ATOM     43  C   UNL A   1      35.910  29.877  29.642  1.00  0.00     0.016 A 
ATOM     44  C   UNL A   1      37.036  30.634  27.625  1.00  0.00     0.016 A 
ATOM     45  C   UNL A   1      37.025  29.114  29.986  1.00  0.00     0.010 A 
ATOM     46  C   UNL A   1      38.159  29.887  27.980  1.00  0.00     0.010 A 
ATOM     47  C   UNL A   1      38.170  29.155  29.179  1.00  0.00    -0.014 A 
BRANCH  47  48
ATOM     48  C   UNL A   1      39.453  28.624  29.696  1.00  0.00     0.031 A 
ATOM     49  C   UNL A   1      40.131  29.382  30.802  1.00  0.00     0.074 A 
ATOM     50  C   UNL A   1      40.002  27.503  29.202  1.00  0.00     0.049 A 
ATOM     51  N   UNL A   1      41.278  29.154  31.389  1.00  0.00    -0.248 NA
ATOM     52  C   UNL A   1      39.417  30.563  31.314  1.00  0.00     0.031 C 
ATOM     53  C   UNL A   1      39.425  26.667  28.151  1.00  0.00     0.029 A 
ATOM     54  N   UNL A   1      41.185  26.882  29.517  1.00  0.00    -0.354 N 
ATOM     55  C   UNL A   1      41.419  30.158  32.336  1.00  0.00     0.074 A 
ATOM     56  C   UNL A   1      40.262  31.018  32.225  1.00  0.00     0.031 C 
ATOM     57  C   UNL A   1      40.267  25.651  27.894  1.00  0.00     0.029 A 
ATOM     58  C   UNL A   1      41.451  25.781  28.743  1.00  0.00     0.049 A 
ATOM     59  H   UNL A   1      41.786  27.197  30.230  1.00  0.00     0.167 HD
ATOM     60  C   UNL A   1      42.420  30.342  33.227  1.00  0.00     0.037 A 
ATOM     61  C   UNL A   1      42.539  24.986  28.714  1.00  0.00     0.037 A 
ATOM     62  C   UNL A   1      43.579  29.497  33.326  1.00  0.00     0.049 A 
ATOM     63  C   UNL A   1      43.677  25.255  29.665  1.00  0.00     0.074 A 
ATOM     64  C   UNL A   1      44.649  29.596  34.196  1.00  0.00     0.029 A 
ATOM     65  N   UNL A   1      43.823  28.402  32.510  1.00  0.00    -0.354 N 
ATOM     66  N   UNL A   1      43.792  26.186  30.581  1.00  0.00    -0.248 NA
ATOM     67  C   UNL A   1      44.839  24.358  29.580  1.00  0.00     0.031 C 
ATOM     68  C   UNL A   1      45.564  28.588  33.877  1.00  0.00     0.029 A 
ATOM     69  C   UNL A   1      45.039  27.828  32.843  1.00  0.00     0.049 A 
ATOM     70  H   UNL A   1      43.222  28.079  31.801  1.00  0.00     0.167 HD
ATOM     71  C   UNL A   1      45.019  25.971  31.197  1.00  0.00     0.074 A 
ATOM     72  C   UNL A   1      45.608  24.812  30.560  1.00  0.00     0.031 C 
ATOM     73  C   UNL A   1      45.605  26.668  32.203  1.00  0.00     0.037 A 
BRANCH  60  74
ATOM     74  C   UNL A   1      42.310  31.521  34.149  1.00  0.00     0.064 A 
ATOM     75  C   UNL A   1      42.917  32.749  33.847  1.00  0.00     0.173 A 
ATOM     76  C   UNL A   1      41.578  31.423  35.341  1.00  0.00     0.173 A 
ATOM     77  F   UNL A   1      43.644  32.886  32.728  1.00  0.00    -0.203 F 
ATOM     78  C   UNL A   1      42.818  33.829  34.720  1.00  0.00     0.198 A 
ATOM     79  C   UNL A   1      41.458  32.514  36.198  1.00  0.00     0.198 A 
ATOM     80  F   UNL A   1      40.980  30.271  35.676  1.00  0.00    -0.203 F 
ATOM     81  F   UNL A   1      43.449  34.977  34.437  1.00  0.00    -0.200 F 
ATOM     82  C   UNL A   1      42.084  33.713  35.890  1.00  0.00     0.200 A 
ATOM     83  F   UNL A   1      40.741  32.403  37.325  1.00  0.00    -0.200 F 
ATOM     84  F   UNL A   1      41.987  34.754  36.728  1.00  0.00    -0.200 F 
ENDBRANCH  60  74
BRANCH  61  85
ATOM     85  C   UNL A   1      42.615  23.865  27.740  1.00  0.00     0.064 A 
ATOM     86  C   UNL A   1      43.171  24.048  26.467  1.00  0.00     0.173 A 
ATOM     87  C   UNL A   1      42.107  22.595  28.054  1.00  0.00     0.173 A 
ATOM     88  F   UNL A   1      43.642  25.251  26.109  1.00  0.00    -0.203 F 
ATOM     89  C   UNL A   1      43.202  23.009  25.539  1.00  0.00     0.198 A 
ATOM     90  C   UNL A   1      42.164  21.549  27.135  1.00  0.00     0.198 A 
ATOM     91  F   UNL A   1      41.559  22.370  29.256  1.00  0.00    -0.203 F 
ATOM     92  F   UNL A   1      43.694  23.223  24.311  1.00  0.00    -0.200 F 
ATOM     93  C   UNL A   1      42.703  21.759  25.876  1.00  0.00     0.200 A 
ATOM     94  F   UNL A   1      41.688  20.342  27.468  1.00  0.00    -0.200 F 
ATOM     95  F   UNL A   1      42.732  20.761  24.982  1.00  0.00    -0.200 F 
ENDBRANCH  61  85
BRANCH  73  96
ATOM     96  C   UNL A   1      46.933  26.178  32.703  1.00  0.00     0.064 A 
ATOM     97  C   UNL A   1      47.029  25.192  33.696  1.00  0.00     0.173 A 
ATOM     98  C   UNL A   1      48.125  26.663  32.141  1.00  0.00     0.173 A 
ATOM     99  F   UNL A   1      45.920  24.706  34.274  1.00  0.00    -0.203 F 
ATOM    100  C   UNL A   1      48.270  24.728  34.125  1.00  0.00     0.198 A 
ATOM    101  C   UNL A   1      49.361  26.175  32.552  1.00  0.00     0.198 A 
ATOM    102  F   UNL A   1      48.086  27.599  31.180  1.00  0.00    -0.203 F 
ATOM    103  F   UNL A   1      48.339  23.818  35.107  1.00  0.00    -0.200 F 
ATOM    104  C   UNL A   1      49.433  25.214  33.548  1.00  0.00     0.200 A 
ATOM    105  F   UNL A   1      50.484  26.633  31.980  1.00  0.00    -0.200 F 
ATOM    106  F   UNL A   1      50.626  24.757  33.955  1.00  0.00    -0.200 F 
ENDBRANCH  73  96
ENDBRANCH  47  48
ENDBRANCH  40  42
ENDBRANCH  39  40
ENDBRANCH  38  39
ENDBRANCH  37  38
ENDBRANCH  36  37
ENDBRANCH  35  36
ENDBRANCH  34  35
ENDBRANCH  33  34
ENDBRANCH   1  33
TORSDOF 24
ENDMDL
MODEL 2
REMARK VINA RESULT:      -7.4      5.446      9.701
REMARK SMILES CCSc1ccc(-c2cc(Cl)cc3c2O[C@@H](C(F)(F)F)C(C(=O)OCCOCCOCCOCCOC(=O)c2ccc(-c4c5nc(c(-c6c(F)c(F)c(F)c(F)c6F)c6ccc([nH]6)c(-c6c(F)c(F)c(F)c(F)c6F)c6nc(c(-c7c(F)c(F)c(F)c(F)c7F)c7ccc4[nH]7)C=C6)C=C5)cc2)=C3)cc1
REMARK SMILES IDX 29 1 28 2 27 3 26 4 25 5 24 6 22 7 23 8 21 9 8 10 9 11 14 12
REMARK SMILES IDX 10 13 13 14 15 15 11 16 12 17 102 18 16 19 7 20 4 21 5 22
REMARK SMILES IDX 104 23 6 24 103 25 3 26 2 27 1 28 17 29 18 30 19 31 20 32
REMARK SMILES IDX 30 33 31 34 32 35 33 36 34 37 35 38 36 39 37 40 38 41 39 42
REMARK SMILES IDX 40 43 101 44 41 45 100 46 42 47 43 48 44 49 94 50 45 51
REMARK SMILES IDX 99 52 93 53 95 54 46 55 98 56 92 57 91 58 47 60 79 61 59 62
REMARK SMILES IDX 78 63 60 64 63 65 77 66 96 67 61 68 62 69 76 71 97 72 64 73
REMARK SMILES IDX 48 74 49 75 57 76 50 77 51 78 55 79 58 80 52 81 53 82 56 83
REMARK SMILES IDX 54 84 80 85 81 86 89 87 82 88 83 89 87 90 90 91 84 92 85 93
REMARK SMILES IDX 88 94 86 95 65 96 66 97 74 98 67 99 68 100 72 101 75 102
REMARK SMILES IDX 69 103 70 104 73 105 71 106
REMARK H PARENT 95 59 63 70
REMARK Flexibility Score: inf
ROOT
ATOM      1  C   UNL A   1      34.944  31.613  29.000  1.00  0.00     0.188 C 
ENDROOT
BRANCH   1   2
ATOM      2  C   UNL A   1      34.777  30.685  27.790  1.00  0.00     0.188 C 
BRANCH   2   3
ATOM      3  O   UNL A   1      33.439  30.243  27.579  1.00  0.00    -0.376 OA
BRANCH   3   4
ATOM      4  C   UNL A   1      32.795  30.645  26.370  1.00  0.00     0.202 C 
BRANCH   4   5
ATOM      5  C   UNL A   1      32.497  29.551  25.339  1.00  0.00     0.261 C 
BRANCH   5   6
ATOM      6  O   UNL A   1      31.981  28.369  25.994  1.00  0.00    -0.460 OA
BRANCH   6   7
ATOM      7  C   UNL A   1      31.615  27.364  25.182  1.00  0.00     0.338 C 
ATOM      8  O   UNL A   1      30.494  27.219  24.712  1.00  0.00    -0.246 OA
BRANCH   7   9
ATOM      9  C   UNL A   1      32.765  26.531  24.753  1.00  0.00     0.087 C 
ATOM     10  C   UNL A   1      32.011  22.467  24.442  1.00  0.00     0.026 A 
ATOM     11  C   UNL A   1      30.984  22.157  25.368  1.00  0.00     0.033 A 
ATOM     12  C   UNL A   1      32.480  23.794  24.471  1.00  0.00     0.135 A 
ATOM     13  C   UNL A   1      30.717  22.992  26.450  1.00  0.00     0.042 A 
ATOM     14  C   UNL A   1      32.384  24.514  25.671  1.00  0.00     0.019 A 
ATOM     15  O   UNL A   1      32.805  24.460  23.294  1.00  0.00    -0.475 OA
ATOM     16  Cl  UNL A   1      29.486  22.569  27.572  1.00  0.00    -0.084 Cl
ATOM     17  C   UNL A   1      31.494  24.121  26.664  1.00  0.00     0.032 A 
ATOM     18  C   UNL A   1      33.156  25.769  25.791  1.00  0.00     0.027 C 
ATOM     19  C   UNL A   1      33.048  25.932  23.385  1.00  0.00     0.316 C 
BRANCH  10  20
ATOM     20  C   UNL A   1      32.866  21.288  24.069  1.00  0.00    -0.015 A 
ATOM     21  C   UNL A   1      33.932  18.648  24.280  1.00  0.00     0.007 A 
ATOM     22  C   UNL A   1      32.862  18.922  23.425  1.00  0.00     0.015 A 
ATOM     23  C   UNL A   1      34.542  19.710  24.945  1.00  0.00     0.015 A 
ATOM     24  C   UNL A   1      32.351  20.226  23.301  1.00  0.00     0.010 A 
ATOM     25  C   UNL A   1      34.024  21.013  24.830  1.00  0.00     0.010 A 
BRANCH  21  26
ATOM     26  S   UNL A   1      34.328  16.940  24.630  1.00  0.00    -0.126 SA
BRANCH  26  27
ATOM     27  C   UNL A   1      32.683  16.159  24.664  1.00  0.00     0.071 C 
ATOM     28  C   UNL A   1      32.437  15.448  25.980  1.00  0.00     0.016 C 
ENDBRANCH  26  27
ENDBRANCH  21  26
ENDBRANCH  10  20
BRANCH  19  29
ATOM     29  C   UNL A   1      32.640  26.751  22.134  1.00  0.00     0.430 C 
ATOM     30  F   UNL A   1      33.169  26.170  21.022  1.00  0.00    -0.167 F 
ATOM     31  F   UNL A   1      31.297  26.753  21.963  1.00  0.00    -0.167 F 
ATOM     32  F   UNL A   1      33.039  28.030  22.111  1.00  0.00    -0.167 F 
ENDBRANCH  19  29
ENDBRANCH   7   9
ENDBRANCH   6   7
ENDBRANCH   5   6
ENDBRANCH   4   5
ENDBRANCH   3   4
ENDBRANCH   2   3
ENDBRANCH   1   2
BRANCH   1  33
ATOM     33  O   UNL A   1      35.091  32.972  28.634  1.00  0.00    -0.377 OA
BRANCH  33  34
ATOM     34  C   UNL A   1      34.221  33.916  29.249  1.00  0.00     0.188 C 
BRANCH  34  35
ATOM     35  C   UNL A   1      34.365  34.310  30.738  1.00  0.00     0.188 C 
BRANCH  35  36
ATOM     36  O   UNL A   1      33.921  33.315  31.659  1.00  0.00    -0.376 OA
BRANCH  36  37
ATOM     37  C   UNL A   1      34.599  33.240  32.905  1.00  0.00     0.202 C 
BRANCH  37  38
ATOM     38  C   UNL A   1      35.536  34.424  33.170  1.00  0.00     0.261 C 
BRANCH  38  39
ATOM     39  O   UNL A   1      36.927  34.079  33.262  1.00  0.00    -0.460 OA
BRANCH  39  40
ATOM     40  C   UNL A   1      37.222  32.801  33.581  1.00  0.00     0.338 C 
ATOM     41  O   UNL A   1      36.538  32.019  34.218  1.00  0.00    -0.246 OA
BRANCH  40  42
ATOM     42  C   UNL A   1      38.451  32.428  32.855  1.00  0.00     0.060 A 
ATOM     43  C   UNL A   1      38.590  32.826  31.519  1.00  0.00     0.016 A 
ATOM     44  C   UNL A   1      39.465  31.712  33.495  1.00  0.00     0.016 A 
ATOM     45  C   UNL A   1      39.733  32.467  30.804  1.00  0.00     0.010 A 
ATOM     46  C   UNL A   1      40.599  31.337  32.774  1.00  0.00     0.010 A 
ATOM     47  C   UNL A   1      40.718  31.681  31.417  1.00  0.00    -0.014 A 
BRANCH  47  48
ATOM     48  C   UNL A   1      41.756  31.026  30.588  1.00  0.00     0.031 A 
ATOM     49  C   UNL A   1      43.015  31.795  30.301  1.00  0.00     0.074 A 
ATOM     50  C   UNL A   1      41.590  29.786  30.101  1.00  0.00     0.049 A 
ATOM     51  N   UNL A   1      44.045  31.466  29.566  1.00  0.00    -0.248 NA
ATOM     52  C   UNL A   1      43.123  33.122  30.932  1.00  0.00     0.031 C 
ATOM     53  C   UNL A   1      40.427  28.932  30.334  1.00  0.00     0.029 A 
ATOM     54  N   UNL A   1      42.406  29.035  29.293  1.00  0.00    -0.354 N 
ATOM     55  C   UNL A   1      44.920  32.539  29.647  1.00  0.00     0.074 A 
ATOM     56  C   UNL A   1      44.290  33.545  30.472  1.00  0.00     0.031 C 
ATOM     57  C   UNL A   1      40.596  27.777  29.666  1.00  0.00     0.029 A 
ATOM     58  C   UNL A   1      41.865  27.824  28.939  1.00  0.00     0.049 A 
ATOM     59  H   UNL A   1      43.295  29.335  28.995  1.00  0.00     0.167 HD
ATOM     60  C   UNL A   1      46.147  32.672  29.091  1.00  0.00     0.037 A 
ATOM     61  C   UNL A   1      42.336  26.876  28.106  1.00  0.00     0.037 A 
ATOM     62  C   UNL A   1      46.766  31.678  28.256  1.00  0.00     0.049 A 
ATOM     63  C   UNL A   1      43.673  27.077  27.436  1.00  0.00     0.074 A 
ATOM     64  C   UNL A   1      48.007  31.714  27.646  1.00  0.00     0.029 A 
ATOM     65  N   UNL A   1      46.178  30.472  27.903  1.00  0.00    -0.354 N 
ATOM     66  N   UNL A   1      44.511  28.080  27.541  1.00  0.00    -0.248 NA
ATOM     67  C   UNL A   1      44.130  26.012  26.532  1.00  0.00     0.031 C 
ATOM     68  C   UNL A   1      48.151  30.549  26.885  1.00  0.00     0.029 A 
ATOM     69  C   UNL A   1      47.022  29.764  27.064  1.00  0.00     0.049 A 
ATOM     70  H   UNL A   1      45.293  30.165  28.204  1.00  0.00     0.167 HD
ATOM     71  C   UNL A   1      45.602  27.755  26.744  1.00  0.00     0.074 A 
ATOM     72  C   UNL A   1      45.326  26.455  26.170  1.00  0.00     0.031 C 
ATOM     73  C   UNL A   1      46.733  28.466  26.510  1.00  0.00     0.037 A 
BRANCH  60  74
ATOM     74  C   UNL A   1      46.884  33.951  29.353  1.00  0.00     0.064 A 
ATOM     75  C   UNL A   1      46.720  35.075  28.531  1.00  0.00     0.173 A 
ATOM     76  C   UNL A   1      47.757  34.056  30.446  1.00  0.00     0.173 A 
ATOM     77  F   UNL A   1      45.912  35.019  27.462  1.00  0.00    -0.203 F 
ATOM     78  C   UNL A   1      47.424  36.252  28.779  1.00  0.00     0.198 A 
ATOM     79  C   UNL A   1      48.436  35.242  30.708  1.00  0.00     0.198 A 
ATOM     80  F   UNL A   1      47.950  33.009  31.262  1.00  0.00    -0.203 F 
ATOM     81  F   UNL A   1      47.291  37.297  27.951  1.00  0.00    -0.200 F 
ATOM     82  C   UNL A   1      48.275  36.336  29.870  1.00  0.00     0.200 A 
ATOM     83  F   UNL A   1      49.253  35.325  31.767  1.00  0.00    -0.200 F 
ATOM     84  F   UNL A   1      48.949  37.469  30.109  1.00  0.00    -0.200 F 
ENDBRANCH  60  74
BRANCH  61  85
ATOM     85  C   UNL A   1      41.535  25.652  27.842  1.00  0.00     0.064 A 
ATOM     86  C   UNL A   1      41.858  24.430  28.446  1.00  0.00     0.173 A 
ATOM     87  C   UNL A   1      40.445  25.675  26.958  1.00  0.00     0.173 A 
ATOM     88  F   UNL A   1      42.908  24.350  29.275  1.00  0.00    -0.203 F 
ATOM     89  C   UNL A   1      41.133  23.273  28.164  1.00  0.00     0.198 A 
ATOM     90  C   UNL A   1      39.703  24.524  26.698  1.00  0.00     0.198 A 
ATOM     91  F   UNL A   1      40.099  26.818  26.349  1.00  0.00    -0.203 F 
ATOM     92  F   UNL A   1      41.493  22.107  28.717  1.00  0.00    -0.200 F 
ATOM     93  C   UNL A   1      40.053  23.323  27.294  1.00  0.00     0.200 A 
ATOM     94  F   UNL A   1      38.657  24.579  25.863  1.00  0.00    -0.200 F 
ATOM     95  F   UNL A   1      39.357  22.210  27.022  1.00  0.00    -0.200 F 
ENDBRANCH  61  85
BRANCH  73  96
ATOM     96  C   UNL A   1      47.774  27.842  25.625  1.00  0.00     0.064 A 
ATOM     97  C   UNL A   1      47.684  27.899  24.227  1.00  0.00     0.173 A 
ATOM     98  C   UNL A   1      48.904  27.228  26.187  1.00  0.00     0.173 A 
ATOM     99  F   UNL A   1      46.617  28.464  23.641  1.00  0.00    -0.203 F 
ATOM    100  C   UNL A   1      48.675  27.341  23.423  1.00  0.00     0.198 A 
ATOM    101  C   UNL A   1      49.907  26.698  25.380  1.00  0.00     0.198 A 
ATOM    102  F   UNL A   1      49.043  27.157  27.519  1.00  0.00    -0.203 F 
ATOM    103  F   UNL A   1      48.546  27.368  22.089  1.00  0.00    -0.200 F 
ATOM    104  C   UNL A   1      49.788  26.749  24.000  1.00  0.00     0.200 A 
ATOM    105  F   UNL A   1      50.990  26.141  25.939  1.00  0.00    -0.200 F 
ATOM    106  F   UNL A   1      50.746  26.223  23.224  1.00  0.00    -0.200 F 
ENDBRANCH  73  96
ENDBRANCH  47  48
ENDBRANCH  40  42
ENDBRANCH  39  40
ENDBRANCH  38  39
ENDBRANCH  37  38
ENDBRANCH  36  37
ENDBRANCH  35  36
ENDBRANCH  34  35
ENDBRANCH  33  34
ENDBRANCH   1  33
TORSDOF 24
ENDMDL
MODEL 3
REMARK VINA RESULT:      -7.0      1.858      2.897
REMARK SMILES CCSc1ccc(-c2cc(Cl)cc3c2O[C@@H](C(F)(F)F)C(C(=O)OCCOCCOCCOCCOC(=O)c2ccc(-c4c5nc(c(-c6c(F)c(F)c(F)c(F)c6F)c6ccc([nH]6)c(-c6c(F)c(F)c(F)c(F)c6F)c6nc(c(-c7c(F)c(F)c(F)c(F)c7F)c7ccc4[nH]7)C=C6)C=C5)cc2)=C3)cc1
REMARK SMILES IDX 29 1 28 2 27 3 26 4 25 5 24 6 22 7 23 8 21 9 8 10 9 11 14 12
REMARK SMILES IDX 10 13 13 14 15 15 11 16 12 17 102 18 16 19 7 20 4 21 5 22
REMARK SMILES IDX 104 23 6 24 103 25 3 26 2 27 1 28 17 29 18 30 19 31 20 32
REMARK SMILES IDX 30 33 31 34 32 35 33 36 34 37 35 38 36 39 37 40 38 41 39 42
REMARK SMILES IDX 40 43 101 44 41 45 100 46 42 47 43 48 44 49 94 50 45 51
REMARK SMILES IDX 99 52 93 53 95 54 46 55 98 56 92 57 91 58 47 60 79 61 59 62
REMARK SMILES IDX 78 63 60 64 63 65 77 66 96 67 61 68 62 69 76 71 97 72 64 73
REMARK SMILES IDX 48 74 49 75 57 76 50 77 51 78 55 79 58 80 52 81 53 82 56 83
REMARK SMILES IDX 54 84 80 85 81 86 89 87 82 88 83 89 87 90 90 91 84 92 85 93
REMARK SMILES IDX 88 94 86 95 65 96 66 97 74 98 67 99 68 100 72 101 75 102
REMARK SMILES IDX 69 103 70 104 73 105 71 106
REMARK H PARENT 95 59 63 70
REMARK Flexibility Score: inf
ROOT
ATOM      1  C   UNL A   1      35.579  34.452  34.515  1.00  0.00     0.188 C 
ENDROOT
BRANCH   1   2
ATOM      2  C   UNL A   1      37.002  33.914  34.319  1.00  0.00     0.188 C 
BRANCH   2   3
ATOM      3  O   UNL A   1      37.910  34.864  33.769  1.00  0.00    -0.376 OA
BRANCH   3   4
ATOM      4  C   UNL A   1      38.360  34.649  32.432  1.00  0.00     0.202 C 
BRANCH   4   5
ATOM      5  C   UNL A   1      39.845  34.318  32.238  1.00  0.00     0.261 C 
BRANCH   5   6
ATOM      6  O   UNL A   1      40.089  33.871  30.885  1.00  0.00    -0.460 OA
BRANCH   6   7
ATOM      7  C   UNL A   1      41.303  34.154  30.385  1.00  0.00     0.338 C 
ATOM      8  O   UNL A   1      41.508  34.870  29.413  1.00  0.00    -0.246 OA
BRANCH   7   9
ATOM      9  C   UNL A   1      42.403  33.658  31.248  1.00  0.00     0.087 C 
ATOM     10  C   UNL A   1      45.200  31.245  29.367  1.00  0.00     0.026 A 
ATOM     11  C   UNL A   1      44.539  30.586  28.301  1.00  0.00     0.033 A 
ATOM     12  C   UNL A   1      44.384  32.040  30.195  1.00  0.00     0.135 A 
ATOM     13  C   UNL A   1      43.152  30.450  28.291  1.00  0.00     0.042 A 
ATOM     14  C   UNL A   1      43.026  31.710  30.316  1.00  0.00     0.019 A 
ATOM     15  O   UNL A   1      44.841  33.258  30.687  1.00  0.00    -0.475 OA
ATOM     16  Cl  UNL A   1      42.386  29.616  26.999  1.00  0.00    -0.084 Cl
ATOM     17  C   UNL A   1      42.401  30.919  29.359  1.00  0.00     0.032 A 
ATOM     18  C   UNL A   1      42.256  32.332  31.414  1.00  0.00     0.027 C 
ATOM     19  C   UNL A   1      43.838  34.153  31.339  1.00  0.00     0.316 C 
BRANCH  10  20
ATOM     20  C   UNL A   1      46.433  30.532  29.849  1.00  0.00    -0.015 A 
ATOM     21  C   UNL A   1      48.776  28.914  29.646  1.00  0.00     0.007 A 
ATOM     22  C   UNL A   1      48.860  30.306  29.586  1.00  0.00     0.015 A 
ATOM     23  C   UNL A   1      47.539  28.332  29.919  1.00  0.00     0.015 A 
ATOM     24  C   UNL A   1      47.710  31.106  29.710  1.00  0.00     0.010 A 
ATOM     25  C   UNL A   1      46.387  29.132  30.031  1.00  0.00     0.010 A 
BRANCH  21  26
ATOM     26  S   UNL A   1      50.206  27.952  29.172  1.00  0.00    -0.126 SA
BRANCH  26  27
ATOM     27  C   UNL A   1      49.502  26.773  27.975  1.00  0.00     0.071 C 
ATOM     28  C   UNL A   1      49.321  25.400  28.594  1.00  0.00     0.016 C 
ENDBRANCH  26  27
ENDBRANCH  21  26
ENDBRANCH  10  20
BRANCH  19  29
ATOM     29  C   UNL A   1      44.094  35.672  31.171  1.00  0.00     0.430 C 
ATOM     30  F   UNL A   1      43.148  36.369  31.858  1.00  0.00    -0.167 F 
ATOM     31  F   UNL A   1      45.290  36.031  31.697  1.00  0.00    -0.167 F 
ATOM     32  F   UNL A   1      44.063  36.141  29.916  1.00  0.00    -0.167 F 
ENDBRANCH  19  29
ENDBRANCH   7   9
ENDBRANCH   6   7
ENDBRANCH   5   6
ENDBRANCH   4   5
ENDBRANCH   3   4
ENDBRANCH   2   3
ENDBRANCH   1   2
BRANCH   1  33
ATOM     33  O   UNL A   1      34.593  33.627  33.923  1.00  0.00    -0.377 OA
BRANCH  33  34
ATOM     34  C   UNL A   1      34.581  33.534  32.503  1.00  0.00     0.188 C 
BRANCH  34  35
ATOM     35  C   UNL A   1      34.312  34.764  31.606  1.00  0.00     0.188 C 
BRANCH  35  36
ATOM     36  O   UNL A   1      33.314  34.562  30.607  1.00  0.00    -0.376 OA
BRANCH  36  37
ATOM     37  C   UNL A   1      33.749  34.530  29.255  1.00  0.00     0.202 C 
BRANCH  37  38
ATOM     38  C   UNL A   1      34.763  33.418  28.959  1.00  0.00     0.261 C 
BRANCH  38  39
ATOM     39  O   UNL A   1      34.612  32.796  27.674  1.00  0.00    -0.460 OA
BRANCH  39  40
ATOM     40  C   UNL A   1      34.349  31.472  27.659  1.00  0.00     0.338 C 
ATOM     41  O   UNL A   1      33.372  30.916  27.188  1.00  0.00    -0.246 OA
BRANCH  40  42
ATOM     42  C   UNL A   1      35.551  30.770  28.146  1.00  0.00     0.060 A 
ATOM     43  C   UNL A   1      35.419  29.867  29.209  1.00  0.00     0.016 A 
ATOM     44  C   UNL A   1      36.793  30.985  27.544  1.00  0.00     0.016 A 
ATOM     45  C   UNL A   1      36.543  29.206  29.702  1.00  0.00     0.010 A 
ATOM     46  C   UNL A   1      37.921  30.339  28.051  1.00  0.00     0.010 A 
ATOM     47  C   UNL A   1      37.805  29.477  29.154  1.00  0.00    -0.014 A 
BRANCH  47  48
ATOM     48  C   UNL A   1      39.026  29.045  29.872  1.00  0.00     0.031 A 
ATOM     49  C   UNL A   1      39.332  29.696  31.192  1.00  0.00     0.074 A 
ATOM     50  C   UNL A   1      39.842  28.103  29.372  1.00  0.00     0.049 A 
ATOM     51  N   UNL A   1      40.358  29.530  31.986  1.00  0.00    -0.248 NA
ATOM     52  C   UNL A   1      38.343  30.672  31.680  1.00  0.00     0.031 C 
ATOM     53  C   UNL A   1      39.635  27.381  28.118  1.00  0.00     0.029 A 
ATOM     54  N   UNL A   1      41.022  27.603  29.861  1.00  0.00    -0.354 N 
ATOM     55  C   UNL A   1      40.136  30.376  33.063  1.00  0.00     0.074 A 
ATOM     56  C   UNL A   1      38.900  31.080  32.809  1.00  0.00     0.031 C 
ATOM     57  C   UNL A   1      40.668  26.542  27.926  1.00  0.00     0.029 A 
ATOM     58  C   UNL A   1      41.618  26.689  29.029  1.00  0.00     0.049 A 
ATOM     59  H   UNL A   1      41.407  27.875  30.725  1.00  0.00     0.167 HD
ATOM     60  C   UNL A   1      40.892  30.544  34.173  1.00  0.00     0.037 A 
ATOM     61  C   UNL A   1      42.805  26.061  29.141  1.00  0.00     0.037 A 
ATOM     62  C   UNL A   1      42.131  29.857  34.418  1.00  0.00     0.049 A 
ATOM     63  C   UNL A   1      43.668  26.321  30.350  1.00  0.00     0.074 A 
ATOM     64  C   UNL A   1      42.971  29.954  35.512  1.00  0.00     0.029 A 
ATOM     65  N   UNL A   1      42.713  28.952  33.542  1.00  0.00    -0.354 N 
ATOM     66  N   UNL A   1      43.439  27.097  31.382  1.00  0.00    -0.248 NA
ATOM     67  C   UNL A   1      44.955  25.613  30.412  1.00  0.00     0.031 C 
ATOM     68  C   UNL A   1      44.086  29.143  35.277  1.00  0.00     0.029 A 
ATOM     69  C   UNL A   1      43.915  28.499  34.061  1.00  0.00     0.049 A 
ATOM     70  H   UNL A   1      42.329  28.672  32.679  1.00  0.00     0.167 HD
ATOM     71  C   UNL A   1      44.534  26.950  32.225  1.00  0.00     0.074 A 
ATOM     72  C   UNL A   1      45.424  26.000  31.590  1.00  0.00     0.031 C 
ATOM     73  C   UNL A   1      44.782  27.546  33.418  1.00  0.00     0.037 A 
BRANCH  60  74
ATOM     74  C   UNL A   1      40.405  31.531  35.192  1.00  0.00     0.064 A 
ATOM     75  C   UNL A   1      40.989  32.799  35.325  1.00  0.00     0.173 A 
ATOM     76  C   UNL A   1      39.333  31.207  36.037  1.00  0.00     0.173 A 
ATOM     77  F   UNL A   1      42.029  33.149  34.553  1.00  0.00    -0.203 F 
ATOM     78  C   UNL A   1      40.534  33.699  36.286  1.00  0.00     0.198 A 
ATOM     79  C   UNL A   1      38.863  32.119  36.977  1.00  0.00     0.198 A 
ATOM     80  F   UNL A   1      38.741  30.007  35.951  1.00  0.00    -0.203 F 
ATOM     81  F   UNL A   1      41.140  34.885  36.431  1.00  0.00    -0.200 F 
ATOM     82  C   UNL A   1      39.469  33.361  37.106  1.00  0.00     0.200 A 
ATOM     83  F   UNL A   1      37.828  31.795  37.764  1.00  0.00    -0.200 F 
ATOM     84  F   UNL A   1      39.030  34.228  38.029  1.00  0.00    -0.200 F 
ENDBRANCH  60  74
BRANCH  61  85
ATOM     85  C   UNL A   1      43.261  25.135  28.071  1.00  0.00     0.064 A 
ATOM     86  C   UNL A   1      42.962  23.767  28.121  1.00  0.00     0.173 A 
ATOM     87  C   UNL A   1      44.028  25.596  26.991  1.00  0.00     0.173 A 
ATOM     88  F   UNL A   1      42.257  23.273  29.150  1.00  0.00    -0.203 F 
ATOM     89  C   UNL A   1      43.427  22.892  27.141  1.00  0.00     0.198 A 
ATOM     90  C   UNL A   1      44.469  24.725  25.996  1.00  0.00     0.198 A 
ATOM     91  F   UNL A   1      44.347  26.894  26.899  1.00  0.00    -0.203 F 
ATOM     92  F   UNL A   1      43.169  21.581  27.239  1.00  0.00    -0.200 F 
ATOM     93  C   UNL A   1      44.175  23.372  26.077  1.00  0.00     0.200 A 
ATOM     94  F   UNL A   1      45.185  25.194  24.966  1.00  0.00    -0.200 F 
ATOM     95  F   UNL A   1      44.623  22.530  25.136  1.00  0.00    -0.200 F 
ENDBRANCH  61  85
BRANCH  73  96
ATOM     96  C   UNL A   1      46.044  27.162  34.136  1.00  0.00     0.064 A 
ATOM     97  C   UNL A   1      47.210  27.936  34.042  1.00  0.00     0.173 A 
ATOM     98  C   UNL A   1      46.069  26.035  34.972  1.00  0.00     0.173 A 
ATOM     99  F   UNL A   1      47.242  29.016  33.246  1.00  0.00    -0.203 F 
ATOM    100  C   UNL A   1      48.362  27.581  34.740  1.00  0.00     0.198 A 
ATOM    101  C   UNL A   1      47.213  25.701  35.691  1.00  0.00     0.198 A 
ATOM    102  F   UNL A   1      44.976  25.268  35.104  1.00  0.00    -0.203 F 
ATOM    103  F   UNL A   1      49.478  28.310  34.601  1.00  0.00    -0.200 F 
ATOM    104  C   UNL A   1      48.360  26.469  35.569  1.00  0.00     0.200 A 
ATOM    105  F   UNL A   1      47.203  24.636  36.504  1.00  0.00    -0.200 F 
ATOM    106  F   UNL A   1      49.466  26.136  36.248  1.00  0.00    -0.200 F 
ENDBRANCH  73  96
ENDBRANCH  47  48
ENDBRANCH  40  42
ENDBRANCH  39  40
ENDBRANCH  38  39
ENDBRANCH  37  38
ENDBRANCH  36  37
ENDBRANCH  35  36
ENDBRANCH  34  35
ENDBRANCH  33  34
ENDBRANCH   1  33
TORSDOF 24
ENDMDL
