MODEL 1
REMARK VINA RESULT:     -10.4      0.000      0.000
REMARK SMILES CC[C@H](NC(=O)N1CCO[C@@H](CC(=O)OCCOCCOCCOCCOC(=O)c2ccc(-c3c4nc(c(-c5c(F)c(F)c(F)c(F)c5F)c5ccc([nH]5)c(-c5c(F)c(F)c(F)c(F)c5F)c5nc(c(-c6c(F)c(F)c(F)c(F)c6F)c6ccc3[nH]6)C=C5)C=C4)cc2)C1)c1cccs1
REMARK SMILES IDX 20 1 19 2 18 3 17 4 16 5 15 6 13 7 14 8 12 9 11 10 7 11 8 12
REMARK SMILES IDX 93 13 9 14 10 15 5 16 4 17 6 19 3 20 2 21 1 22 94 23 95 24
REMARK SMILES IDX 98 25 96 26 97 27 21 28 22 29 23 30 24 31 25 32 26 33 27 34
REMARK SMILES IDX 28 35 29 36 30 37 31 38 92 39 32 40 91 41 33 42 34 43 35 44
REMARK SMILES IDX 85 45 36 46 90 47 84 48 86 49 37 50 89 51 83 52 82 53 38 55
REMARK SMILES IDX 70 56 50 57 69 58 51 59 54 60 68 61 87 62 52 63 53 64 67 66
REMARK SMILES IDX 88 67 55 68 39 69 40 70 48 71 41 72 42 73 46 74 49 75 43 76
REMARK SMILES IDX 44 77 47 78 45 79 71 80 72 81 80 82 73 83 74 84 78 85 81 86
REMARK SMILES IDX 75 87 76 88 79 89 77 90 56 91 57 92 65 93 58 94 59 95 63 96
REMARK SMILES IDX 66 97 60 98 61 99 64 100 62 101
REMARK H PARENT 4 18 86 54 54 65
REMARK Flexibility Score: inf
ROOT
ATOM      1  C   UNL A   1      38.521  21.236  25.611  1.00  0.00     0.188 C 
ENDROOT
BRANCH   1   2
ATOM      2  C   UNL A   1      37.201  22.008  25.743  1.00  0.00     0.188 C 
BRANCH   2   3
ATOM      3  O   UNL A   1      36.252  21.792  24.726  1.00  0.00    -0.376 OA
BRANCH   3   4
ATOM      4  C   UNL A   1      34.855  21.717  24.913  1.00  0.00     0.202 C 
BRANCH   4   5
ATOM      5  C   UNL A   1      34.073  22.105  26.176  1.00  0.00     0.261 C 
BRANCH   5   6
ATOM      6  O   UNL A   1      32.702  22.472  26.041  1.00  0.00    -0.463 OA
BRANCH   6   7
ATOM      7  C   UNL A   1      32.352  23.669  26.560  1.00  0.00     0.308 C 
ATOM      8  O   UNL A   1      31.450  23.823  27.376  1.00  0.00    -0.252 OA
BRANCH   7   9
ATOM      9  C   UNL A   1      33.118  24.838  25.991  1.00  0.00     0.156 C 
BRANCH   9  10
ATOM     10  C   UNL A   1      32.742  25.481  24.659  1.00  0.00     0.149 C 
ATOM     11  N   UNL A   1      33.010  27.160  22.875  1.00  0.00    -0.320 N 
ATOM     12  C   UNL A   1      32.957  26.104  21.877  1.00  0.00     0.150 C 
ATOM     13  C   UNL A   1      33.565  26.692  24.162  1.00  0.00     0.154 C 
ATOM     14  C   UNL A   1      32.315  24.824  22.420  1.00  0.00     0.182 C 
ATOM     15  O   UNL A   1      32.885  24.422  23.672  1.00  0.00    -0.374 OA
BRANCH  11  16
ATOM     16  C   UNL A   1      32.918  28.498  22.649  1.00  0.00     0.318 C 
ATOM     17  N   UNL A   1      31.757  29.170  22.576  1.00  0.00    -0.330 N 
ATOM     18  H   UNL A   1      31.923  30.084  22.246  1.00  0.00     0.166 HD
ATOM     19  O   UNL A   1      33.932  29.196  22.532  1.00  0.00    -0.249 OA
BRANCH  17  20
ATOM     20  C   UNL A   1      30.324  28.988  22.827  1.00  0.00     0.124 C 
BRANCH  20  21
ATOM     21  C   UNL A   1      30.000  27.978  23.947  1.00  0.00     0.027 C 
ATOM     22  C   UNL A   1      28.956  26.912  23.653  1.00  0.00     0.006 C 
ENDBRANCH  20  21
BRANCH  20  23
ATOM     23  C   UNL A   1      29.488  30.241  22.751  1.00  0.00     0.027 A 
ATOM     24  C   UNL A   1      29.143  31.160  23.729  1.00  0.00     0.017 A 
ATOM     25  S   UNL A   1      28.687  30.618  21.273  1.00  0.00    -0.147 S 
ATOM     26  C   UNL A   1      28.337  32.227  23.225  1.00  0.00     0.012 A 
ATOM     27  C   UNL A   1      28.046  32.069  21.892  1.00  0.00     0.065 A 
ENDBRANCH  20  23
ENDBRANCH  17  20
ENDBRANCH  11  16
ENDBRANCH   9  10
ENDBRANCH   7   9
ENDBRANCH   6   7
ENDBRANCH   5   6
ENDBRANCH   4   5
ENDBRANCH   3   4
ENDBRANCH   2   3
ENDBRANCH   1   2
BRANCH   1  28
ATOM     28  O   UNL A   1      39.716  21.774  26.140  1.00  0.00    -0.377 OA
BRANCH  28  29
ATOM     29  C   UNL A   1      40.677  20.824  26.560  1.00  0.00     0.188 C 
BRANCH  29  30
ATOM     30  C   UNL A   1      42.108  21.363  26.404  1.00  0.00     0.188 C 
BRANCH  30  31
ATOM     31  O   UNL A   1      42.893  20.967  25.292  1.00  0.00    -0.376 OA
BRANCH  31  32
ATOM     32  C   UNL A   1      44.262  21.332  25.195  1.00  0.00     0.202 C 
BRANCH  32  33
ATOM     33  C   UNL A   1      44.763  22.716  24.719  1.00  0.00     0.261 C 
BRANCH  33  34
ATOM     34  O   UNL A   1      43.930  23.861  24.935  1.00  0.00    -0.460 OA
BRANCH  34  35
ATOM     35  C   UNL A   1      44.566  25.017  25.213  1.00  0.00     0.338 C 
ATOM     36  O   UNL A   1      45.510  25.513  24.616  1.00  0.00    -0.246 OA
BRANCH  35  37
ATOM     37  C   UNL A   1      43.828  25.704  26.291  1.00  0.00     0.060 A 
ATOM     38  C   UNL A   1      44.129  27.046  26.554  1.00  0.00     0.016 A 
ATOM     39  C   UNL A   1      42.858  25.036  27.041  1.00  0.00     0.016 A 
ATOM     40  C   UNL A   1      43.460  27.731  27.565  1.00  0.00     0.010 A 
ATOM     41  C   UNL A   1      42.214  25.711  28.082  1.00  0.00     0.010 A 
ATOM     42  C   UNL A   1      42.527  27.055  28.358  1.00  0.00    -0.014 A 
BRANCH  42  43
ATOM     43  C   UNL A   1      42.006  27.710  29.578  1.00  0.00     0.031 A 
ATOM     44  C   UNL A   1      40.733  28.498  29.483  1.00  0.00     0.074 A 
ATOM     45  C   UNL A   1      42.639  27.581  30.755  1.00  0.00     0.049 A 
ATOM     46  N   UNL A   1      40.117  29.203  30.397  1.00  0.00    -0.248 NA
ATOM     47  C   UNL A   1      40.064  28.489  28.173  1.00  0.00     0.031 C 
ATOM     48  C   UNL A   1      43.843  26.787  30.981  1.00  0.00     0.029 A 
ATOM     49  N   UNL A   1      42.352  28.126  31.981  1.00  0.00    -0.354 N 
ATOM     50  C   UNL A   1      38.996  29.731  29.770  1.00  0.00     0.074 A 
ATOM     51  C   UNL A   1      39.031  29.288  28.393  1.00  0.00     0.031 C 
ATOM     52  C   UNL A   1      44.198  26.899  32.273  1.00  0.00     0.029 A 
ATOM     53  C   UNL A   1      43.274  27.810  32.947  1.00  0.00     0.049 A 
ATOM     54  H   UNL A   1      41.563  28.689  32.151  1.00  0.00     0.167 HD
ATOM     55  C   UNL A   1      38.025  30.514  30.299  1.00  0.00     0.037 A 
ATOM     56  C   UNL A   1      43.373  28.239  34.221  1.00  0.00     0.037 A 
ATOM     57  C   UNL A   1      38.010  30.962  31.668  1.00  0.00     0.049 A 
ATOM     58  C   UNL A   1      42.353  29.211  34.754  1.00  0.00     0.074 A 
ATOM     59  C   UNL A   1      37.065  31.737  32.313  1.00  0.00     0.029 A 
ATOM     60  N   UNL A   1      39.005  30.688  32.598  1.00  0.00    -0.354 N 
ATOM     61  N   UNL A   1      41.279  29.691  34.171  1.00  0.00    -0.248 NA
ATOM     62  C   UNL A   1      42.566  29.714  36.118  1.00  0.00     0.031 C 
ATOM     63  C   UNL A   1      37.523  31.997  33.610  1.00  0.00     0.029 A 
ATOM     64  C   UNL A   1      38.723  31.326  33.796  1.00  0.00     0.049 A 
ATOM     65  H   UNL A   1      39.794  30.124  32.432  1.00  0.00     0.167 HD
ATOM     66  C   UNL A   1      40.682  30.534  35.099  1.00  0.00     0.074 A 
ATOM     67  C   UNL A   1      41.502  30.486  36.292  1.00  0.00     0.031 C 
ATOM     68  C   UNL A   1      39.556  31.280  34.974  1.00  0.00     0.037 A 
BRANCH  55  69
ATOM     69  C   UNL A   1      36.940  30.984  29.372  1.00  0.00     0.064 A 
ATOM     70  C   UNL A   1      36.917  32.287  28.850  1.00  0.00     0.173 A 
ATOM     71  C   UNL A   1      35.895  30.118  29.013  1.00  0.00     0.173 A 
ATOM     72  F   UNL A   1      37.884  33.160  29.171  1.00  0.00    -0.203 F 
ATOM     73  C   UNL A   1      35.865  32.720  28.047  1.00  0.00     0.198 A 
ATOM     74  C   UNL A   1      34.865  30.543  28.179  1.00  0.00     0.198 A 
ATOM     75  F   UNL A   1      35.868  28.860  29.478  1.00  0.00    -0.203 F 
ATOM     76  F   UNL A   1      35.827  33.990  27.621  1.00  0.00    -0.200 F 
ATOM     77  C   UNL A   1      34.843  31.847  27.709  1.00  0.00     0.200 A 
ATOM     78  F   UNL A   1      33.886  29.692  27.841  1.00  0.00    -0.200 F 
ATOM     79  F   UNL A   1      33.828  32.264  26.940  1.00  0.00    -0.200 F 
ENDBRANCH  55  69
BRANCH  56  80
ATOM     80  C   UNL A   1      44.492  27.760  35.073  1.00  0.00     0.064 A 
ATOM     81  C   UNL A   1      44.370  26.583  35.822  1.00  0.00     0.173 A 
ATOM     82  C   UNL A   1      45.707  28.459  35.147  1.00  0.00     0.173 A 
ATOM     83  F   UNL A   1      43.218  25.897  35.809  1.00  0.00    -0.203 F 
ATOM     84  C   UNL A   1      45.421  26.122  36.613  1.00  0.00     0.198 A 
ATOM     85  C   UNL A   1      46.767  27.982  35.914  1.00  0.00     0.198 A 
ATOM     86  F   UNL A   1      45.871  29.597  34.458  1.00  0.00    -0.203 F 
ATOM     87  F   UNL A   1      45.267  25.010  37.346  1.00  0.00    -0.200 F 
ATOM     88  C   UNL A   1      46.621  26.816  36.650  1.00  0.00     0.200 A 
ATOM     89  F   UNL A   1      47.929  28.650  35.940  1.00  0.00    -0.200 F 
ATOM     90  F   UNL A   1      47.637  26.363  37.400  1.00  0.00    -0.200 F 
ENDBRANCH  56  80
BRANCH  68  91
ATOM     91  C   UNL A   1      39.137  32.108  36.156  1.00  0.00     0.064 A 
ATOM     92  C   UNL A   1      39.574  33.430  36.320  1.00  0.00     0.173 A 
ATOM     93  C   UNL A   1      38.241  31.593  37.107  1.00  0.00     0.173 A 
ATOM     94  F   UNL A   1      40.444  33.967  35.449  1.00  0.00    -0.203 F 
ATOM     95  C   UNL A   1      39.146  34.200  37.399  1.00  0.00     0.198 A 
ATOM     96  C   UNL A   1      37.788  32.376  38.166  1.00  0.00     0.198 A 
ATOM     97  F   UNL A   1      37.785  30.336  36.996  1.00  0.00    -0.203 F 
ATOM     98  F   UNL A   1      39.611  35.447  37.558  1.00  0.00    -0.200 F 
ATOM     99  C   UNL A   1      38.245  33.677  38.314  1.00  0.00     0.200 A 
ATOM    100  F   UNL A   1      36.904  31.874  39.039  1.00  0.00    -0.200 F 
ATOM    101  F   UNL A   1      37.821  34.424  39.342  1.00  0.00    -0.200 F 
ENDBRANCH  68  91
ENDBRANCH  42  43
ENDBRANCH  35  37
ENDBRANCH  34  35
ENDBRANCH  33  34
ENDBRANCH  32  33
ENDBRANCH  31  32
ENDBRANCH  30  31
ENDBRANCH  29  30
ENDBRANCH  28  29
ENDBRANCH   1  28
TORSDOF 25
ENDMDL
MODEL 2
REMARK VINA RESULT:      -9.8      1.103      2.023
REMARK SMILES CC[C@H](NC(=O)N1CCO[C@@H](CC(=O)OCCOCCOCCOCCOC(=O)c2ccc(-c3c4nc(c(-c5c(F)c(F)c(F)c(F)c5F)c5ccc([nH]5)c(-c5c(F)c(F)c(F)c(F)c5F)c5nc(c(-c6c(F)c(F)c(F)c(F)c6F)c6ccc3[nH]6)C=C5)C=C4)cc2)C1)c1cccs1
REMARK SMILES IDX 20 1 19 2 18 3 17 4 16 5 15 6 13 7 14 8 12 9 11 10 7 11 8 12
REMARK SMILES IDX 93 13 9 14 10 15 5 16 4 17 6 19 3 20 2 21 1 22 94 23 95 24
REMARK SMILES IDX 98 25 96 26 97 27 21 28 22 29 23 30 24 31 25 32 26 33 27 34
REMARK SMILES IDX 28 35 29 36 30 37 31 38 92 39 32 40 91 41 33 42 34 43 35 44
REMARK SMILES IDX 85 45 36 46 90 47 84 48 86 49 37 50 89 51 83 52 82 53 38 55
REMARK SMILES IDX 70 56 50 57 69 58 51 59 54 60 68 61 87 62 52 63 53 64 67 66
REMARK SMILES IDX 88 67 55 68 39 69 40 70 48 71 41 72 42 73 46 74 49 75 43 76
REMARK SMILES IDX 44 77 47 78 45 79 71 80 72 81 80 82 73 83 74 84 78 85 81 86
REMARK SMILES IDX 75 87 76 88 79 89 77 90 56 91 57 92 65 93 58 94 59 95 63 96
REMARK SMILES IDX 66 97 60 98 61 99 64 100 62 101
REMARK H PARENT 4 18 86 54 54 65
REMARK Flexibility Score: inf
ROOT
ATOM      1  C   UNL A   1      37.158  19.999  25.010  1.00  0.00     0.188 C 
ENDROOT
BRANCH   1   2
ATOM      2  C   UNL A   1      36.005  21.009  25.072  1.00  0.00     0.188 C 
BRANCH   2   3
ATOM      3  O   UNL A   1      34.713  20.467  25.221  1.00  0.00    -0.376 OA
BRANCH   3   4
ATOM      4  C   UNL A   1      33.691  21.001  26.034  1.00  0.00     0.202 C 
BRANCH   4   5
ATOM      5  C   UNL A   1      33.846  22.063  27.131  1.00  0.00     0.261 C 
BRANCH   5   6
ATOM      6  O   UNL A   1      32.677  22.520  27.807  1.00  0.00    -0.463 OA
BRANCH   6   7
ATOM      7  C   UNL A   1      31.987  23.510  27.200  1.00  0.00     0.308 C 
ATOM      8  O   UNL A   1      30.763  23.584  27.192  1.00  0.00    -0.252 OA
BRANCH   7   9
ATOM      9  C   UNL A   1      32.849  24.495  26.450  1.00  0.00     0.156 C 
BRANCH   9  10
ATOM     10  C   UNL A   1      32.531  24.924  25.019  1.00  0.00     0.149 C 
ATOM     11  N   UNL A   1      32.967  26.207  22.961  1.00  0.00    -0.320 N 
ATOM     12  C   UNL A   1      32.782  24.999  22.172  1.00  0.00     0.150 C 
ATOM     13  C   UNL A   1      33.481  25.921  24.316  1.00  0.00     0.154 C 
ATOM     14  C   UNL A   1      32.004  23.923  22.935  1.00  0.00     0.182 C 
ATOM     15  O   UNL A   1      32.540  23.693  24.244  1.00  0.00    -0.374 OA
BRANCH  11  16
ATOM     16  C   UNL A   1      33.026  27.483  22.493  1.00  0.00     0.318 C 
ATOM     17  N   UNL A   1      32.164  28.452  22.843  1.00  0.00    -0.330 N 
ATOM     18  H   UNL A   1      32.297  29.238  22.265  1.00  0.00     0.166 HD
ATOM     19  O   UNL A   1      33.927  27.839  21.725  1.00  0.00    -0.249 OA
BRANCH  17  20
ATOM     20  C   UNL A   1      31.092  28.722  23.806  1.00  0.00     0.124 C 
BRANCH  20  21
ATOM     21  C   UNL A   1      31.536  29.529  25.043  1.00  0.00     0.027 C 
ATOM     22  C   UNL A   1      31.880  28.752  26.304  1.00  0.00     0.006 C 
ENDBRANCH  20  21
BRANCH  20  23
ATOM     23  C   UNL A   1      29.748  29.048  23.204  1.00  0.00     0.027 A 
ATOM     24  C   UNL A   1      28.553  28.346  23.221  1.00  0.00     0.017 A 
ATOM     25  S   UNL A   1      29.599  30.449  22.212  1.00  0.00    -0.147 S 
ATOM     26  C   UNL A   1      27.501  29.028  22.533  1.00  0.00     0.012 A 
ATOM     27  C   UNL A   1      27.932  30.204  21.968  1.00  0.00     0.065 A 
ENDBRANCH  20  23
ENDBRANCH  17  20
ENDBRANCH  11  16
ENDBRANCH   9  10
ENDBRANCH   7   9
ENDBRANCH   6   7
ENDBRANCH   5   6
ENDBRANCH   4   5
ENDBRANCH   3   4
ENDBRANCH   2   3
ENDBRANCH   1   2
BRANCH   1  28
ATOM     28  O   UNL A   1      38.499  20.447  25.042  1.00  0.00    -0.377 OA
BRANCH  28  29
ATOM     29  C   UNL A   1      39.412  19.587  25.696  1.00  0.00     0.188 C 
BRANCH  29  30
ATOM     30  C   UNL A   1      40.574  20.371  26.325  1.00  0.00     0.188 C 
BRANCH  30  31
ATOM     31  O   UNL A   1      41.881  20.246  25.790  1.00  0.00    -0.376 OA
BRANCH  31  32
ATOM     32  C   UNL A   1      42.911  21.151  26.156  1.00  0.00     0.202 C 
BRANCH  32  33
ATOM     33  C   UNL A   1      43.398  22.322  25.270  1.00  0.00     0.261 C 
BRANCH  33  34
ATOM     34  O   UNL A   1      42.837  23.623  25.483  1.00  0.00    -0.460 OA
BRANCH  34  35
ATOM     35  C   UNL A   1      43.714  24.646  25.542  1.00  0.00     0.338 C 
ATOM     36  O   UNL A   1      44.513  24.997  24.686  1.00  0.00    -0.246 OA
BRANCH  35  37
ATOM     37  C   UNL A   1      43.449  25.411  26.776  1.00  0.00     0.060 A 
ATOM     38  C   UNL A   1      42.580  24.860  27.728  1.00  0.00     0.016 A 
ATOM     39  C   UNL A   1      44.038  26.658  26.994  1.00  0.00     0.016 A 
ATOM     40  C   UNL A   1      42.298  25.549  28.903  1.00  0.00     0.010 A 
ATOM     41  C   UNL A   1      43.725  27.368  28.157  1.00  0.00     0.010 A 
ATOM     42  C   UNL A   1      42.839  26.823  29.105  1.00  0.00    -0.014 A 
BRANCH  42  43
ATOM     43  C   UNL A   1      42.345  27.649  30.230  1.00  0.00     0.031 A 
ATOM     44  C   UNL A   1      41.088  28.444  30.039  1.00  0.00     0.074 A 
ATOM     45  C   UNL A   1      42.988  27.666  31.408  1.00  0.00     0.049 A 
ATOM     46  N   UNL A   1      40.497  29.280  30.853  1.00  0.00    -0.248 NA
ATOM     47  C   UNL A   1      40.405  28.274  28.746  1.00  0.00     0.031 C 
ATOM     48  C   UNL A   1      44.177  26.883  31.731  1.00  0.00     0.029 A 
ATOM     49  N   UNL A   1      42.725  28.378  32.551  1.00  0.00    -0.354 N 
ATOM     50  C   UNL A   1      39.380  29.743  30.169  1.00  0.00     0.074 A 
ATOM     51  C   UNL A   1      39.391  29.117  28.865  1.00  0.00     0.031 C 
ATOM     52  C   UNL A   1      44.548  27.161  32.993  1.00  0.00     0.029 A 
ATOM     53  C   UNL A   1      43.651  28.175  33.544  1.00  0.00     0.049 A 
ATOM     54  H   UNL A   1      41.950  28.976  32.649  1.00  0.00     0.167 HD
ATOM     55  C   UNL A   1      38.432  30.612  30.595  1.00  0.00     0.037 A 
ATOM     56  C   UNL A   1      43.772  28.770  34.747  1.00  0.00     0.037 A 
ATOM     57  C   UNL A   1      38.441  31.242  31.891  1.00  0.00     0.049 A 
ATOM     58  C   UNL A   1      42.778  29.828  35.151  1.00  0.00     0.074 A 
ATOM     59  C   UNL A   1      37.519  32.118  32.432  1.00  0.00     0.029 A 
ATOM     60  N   UNL A   1      39.439  31.074  32.842  1.00  0.00    -0.354 N 
ATOM     61  N   UNL A   1      41.709  30.248  34.517  1.00  0.00    -0.248 NA
ATOM     62  C   UNL A   1      43.017  30.506  36.434  1.00  0.00     0.031 C 
ATOM     63  C   UNL A   1      37.996  32.540  33.678  1.00  0.00     0.029 A 
ATOM     64  C   UNL A   1      39.183  31.874  33.944  1.00  0.00     0.049 A 
ATOM     65  H   UNL A   1      40.215  30.475  32.747  1.00  0.00     0.167 HD
ATOM     66  C   UNL A   1      41.139  31.222  35.327  1.00  0.00     0.074 A 
ATOM     67  C   UNL A   1      41.971  31.318  36.509  1.00  0.00     0.031 C 
ATOM     68  C   UNL A   1      40.028  31.970  35.110  1.00  0.00     0.037 A 
BRANCH  55  69
ATOM     69  C   UNL A   1      37.347  30.976  29.621  1.00  0.00     0.064 A 
ATOM     70  C   UNL A   1      37.319  32.217  28.965  1.00  0.00     0.173 A 
ATOM     71  C   UNL A   1      36.307  30.073  29.353  1.00  0.00     0.173 A 
ATOM     72  F   UNL A   1      38.281  33.124  29.193  1.00  0.00    -0.203 F 
ATOM     73  C   UNL A   1      36.268  32.557  28.118  1.00  0.00     0.198 A 
ATOM     74  C   UNL A   1      35.278  30.401  28.476  1.00  0.00     0.198 A 
ATOM     75  F   UNL A   1      36.285  28.870  29.947  1.00  0.00    -0.203 F 
ATOM     76  F   UNL A   1      36.224  33.775  27.561  1.00  0.00    -0.200 F 
ATOM     77  C   UNL A   1      35.250  31.648  27.871  1.00  0.00     0.200 A 
ATOM     78  F   UNL A   1      34.303  29.515  28.228  1.00  0.00    -0.200 F 
ATOM     79  F   UNL A   1      34.235  31.978  27.060  1.00  0.00    -0.200 F 
ENDBRANCH  55  69
BRANCH  56  80
ATOM     80  C   UNL A   1      44.890  28.387  35.648  1.00  0.00     0.064 A 
ATOM     81  C   UNL A   1      46.156  28.967  35.506  1.00  0.00     0.173 A 
ATOM     82  C   UNL A   1      44.714  27.446  36.674  1.00  0.00     0.173 A 
ATOM     83  F   UNL A   1      46.382  29.849  34.521  1.00  0.00    -0.203 F 
ATOM     84  C   UNL A   1      47.206  28.622  36.356  1.00  0.00     0.198 A 
ATOM     85  C   UNL A   1      45.755  27.122  37.541  1.00  0.00     0.198 A 
ATOM     86  F   UNL A   1      43.524  26.852  36.845  1.00  0.00    -0.203 F 
ATOM     87  F   UNL A   1      48.417  29.168  36.178  1.00  0.00    -0.200 F 
ATOM     88  C   UNL A   1      47.001  27.708  37.378  1.00  0.00     0.200 A 
ATOM     89  F   UNL A   1      45.550  26.246  38.535  1.00  0.00    -0.200 F 
ATOM     90  F   UNL A   1      48.007  27.387  38.205  1.00  0.00    -0.200 F 
ENDBRANCH  56  80
BRANCH  68  91
ATOM     91  C   UNL A   1      39.639  32.958  36.173  1.00  0.00     0.064 A 
ATOM     92  C   UNL A   1      38.716  32.632  37.178  1.00  0.00     0.173 A 
ATOM     93  C   UNL A   1      40.240  34.226  36.224  1.00  0.00     0.173 A 
ATOM     94  F   UNL A   1      38.100  31.440  37.168  1.00  0.00    -0.203 F 
ATOM     95  C   UNL A   1      38.395  33.543  38.181  1.00  0.00     0.198 A 
ATOM     96  C   UNL A   1      39.942  35.123  37.248  1.00  0.00     0.198 A 
ATOM     97  F   UNL A   1      41.134  34.589  35.292  1.00  0.00    -0.203 F 
ATOM     98  F   UNL A   1      37.479  33.225  39.106  1.00  0.00    -0.200 F 
ATOM     99  C   UNL A   1      39.016  34.783  38.222  1.00  0.00     0.200 A 
ATOM    100  F   UNL A   1      40.557  36.312  37.294  1.00  0.00    -0.200 F 
ATOM    101  F   UNL A   1      38.719  35.652  39.197  1.00  0.00    -0.200 F 
ENDBRANCH  68  91
ENDBRANCH  42  43
ENDBRANCH  35  37
ENDBRANCH  34  35
ENDBRANCH  33  34
ENDBRANCH  32  33
ENDBRANCH  31  32
ENDBRANCH  30  31
ENDBRANCH  29  30
ENDBRANCH  28  29
ENDBRANCH   1  28
TORSDOF 25
ENDMDL
MODEL 3
REMARK VINA RESULT:      -8.2      4.765      6.058
REMARK SMILES CC[C@H](NC(=O)N1CCO[C@@H](CC(=O)OCCOCCOCCOCCOC(=O)c2ccc(-c3c4nc(c(-c5c(F)c(F)c(F)c(F)c5F)c5ccc([nH]5)c(-c5c(F)c(F)c(F)c(F)c5F)c5nc(c(-c6c(F)c(F)c(F)c(F)c6F)c6ccc3[nH]6)C=C5)C=C4)cc2)C1)c1cccs1
REMARK SMILES IDX 20 1 19 2 18 3 17 4 16 5 15 6 13 7 14 8 12 9 11 10 7 11 8 12
REMARK SMILES IDX 93 13 9 14 10 15 5 16 4 17 6 19 3 20 2 21 1 22 94 23 95 24
REMARK SMILES IDX 98 25 96 26 97 27 21 28 22 29 23 30 24 31 25 32 26 33 27 34
REMARK SMILES IDX 28 35 29 36 30 37 31 38 92 39 32 40 91 41 33 42 34 43 35 44
REMARK SMILES IDX 85 45 36 46 90 47 84 48 86 49 37 50 89 51 83 52 82 53 38 55
REMARK SMILES IDX 70 56 50 57 69 58 51 59 54 60 68 61 87 62 52 63 53 64 67 66
REMARK SMILES IDX 88 67 55 68 39 69 40 70 48 71 41 72 42 73 46 74 49 75 43 76
REMARK SMILES IDX 44 77 47 78 45 79 71 80 72 81 80 82 73 83 74 84 78 85 81 86
REMARK SMILES IDX 75 87 76 88 79 89 77 90 56 91 57 92 65 93 58 94 59 95 63 96
REMARK SMILES IDX 66 97 60 98 61 99 64 100 62 101
REMARK H PARENT 4 18 86 54 54 65
REMARK Flexibility Score: inf
ROOT
ATOM      1  C   UNL A   1      36.611  19.527  24.823  1.00  0.00     0.188 C 
ENDROOT
BRANCH   1   2
ATOM      2  C   UNL A   1      35.578  20.660  24.874  1.00  0.00     0.188 C 
BRANCH   2   3
ATOM      3  O   UNL A   1      34.261  20.286  25.206  1.00  0.00    -0.376 OA
BRANCH   3   4
ATOM      4  C   UNL A   1      33.319  21.103  25.866  1.00  0.00     0.202 C 
BRANCH   4   5
ATOM      5  C   UNL A   1      33.615  22.348  26.715  1.00  0.00     0.261 C 
BRANCH   5   6
ATOM      6  O   UNL A   1      32.676  22.726  27.719  1.00  0.00    -0.463 OA
BRANCH   6   7
ATOM      7  C   UNL A   1      31.543  23.317  27.282  1.00  0.00     0.308 C 
ATOM      8  O   UNL A   1      30.442  22.776  27.290  1.00  0.00    -0.252 OA
BRANCH   7   9
ATOM      9  C   UNL A   1      31.749  24.694  26.700  1.00  0.00     0.156 C 
BRANCH   9  10
ATOM     10  C   UNL A   1      31.576  24.977  25.210  1.00  0.00     0.149 C 
ATOM     11  N   UNL A   1      32.408  25.641  22.988  1.00  0.00    -0.320 N 
ATOM     12  C   UNL A   1      31.740  24.492  22.397  1.00  0.00     0.150 C 
ATOM     13  C   UNL A   1      32.815  25.399  24.387  1.00  0.00     0.154 C 
ATOM     14  C   UNL A   1      30.631  23.941  23.297  1.00  0.00     0.182 C 
ATOM     15  O   UNL A   1      31.078  23.734  24.643  1.00  0.00    -0.374 OA
BRANCH  11  16
ATOM     16  C   UNL A   1      32.944  26.700  22.323  1.00  0.00     0.318 C 
ATOM     17  N   UNL A   1      32.508  27.965  22.448  1.00  0.00    -0.330 N 
ATOM     18  H   UNL A   1      32.929  28.530  21.760  1.00  0.00     0.166 HD
ATOM     19  O   UNL A   1      33.917  26.556  21.574  1.00  0.00    -0.249 OA
BRANCH  17  20
ATOM     20  C   UNL A   1      31.610  28.777  23.274  1.00  0.00     0.124 C 
BRANCH  20  21
ATOM     21  C   UNL A   1      30.116  28.421  23.128  1.00  0.00     0.027 C 
ATOM     22  C   UNL A   1      29.223  29.417  22.404  1.00  0.00     0.006 C 
ENDBRANCH  20  21
BRANCH  20  23
ATOM     23  C   UNL A   1      32.119  29.103  24.656  1.00  0.00     0.027 A 
ATOM     24  C   UNL A   1      31.503  29.741  25.721  1.00  0.00     0.017 A 
ATOM     25  S   UNL A   1      33.767  28.772  25.035  1.00  0.00    -0.147 S 
ATOM     26  C   UNL A   1      32.345  29.833  26.873  1.00  0.00     0.012 A 
ATOM     27  C   UNL A   1      33.594  29.310  26.642  1.00  0.00     0.065 A 
ENDBRANCH  20  23
ENDBRANCH  17  20
ENDBRANCH  11  16
ENDBRANCH   9  10
ENDBRANCH   7   9
ENDBRANCH   6   7
ENDBRANCH   5   6
ENDBRANCH   4   5
ENDBRANCH   3   4
ENDBRANCH   2   3
ENDBRANCH   1   2
BRANCH   1  28
ATOM     28  O   UNL A   1      37.976  19.817  24.597  1.00  0.00    -0.377 OA
BRANCH  28  29
ATOM     29  C   UNL A   1      38.884  19.205  25.492  1.00  0.00     0.188 C 
BRANCH  29  30
ATOM     30  C   UNL A   1      39.931  20.205  26.005  1.00  0.00     0.188 C 
BRANCH  30  31
ATOM     31  O   UNL A   1      41.284  19.802  26.142  1.00  0.00    -0.376 OA
BRANCH  31  32
ATOM     32  C   UNL A   1      42.184  20.530  26.964  1.00  0.00     0.202 C 
BRANCH  32  33
ATOM     33  C   UNL A   1      43.109  21.660  26.454  1.00  0.00     0.261 C 
BRANCH  33  34
ATOM     34  O   UNL A   1      42.524  22.766  25.758  1.00  0.00    -0.460 OA
BRANCH  34  35
ATOM     35  C   UNL A   1      43.384  23.624  25.172  1.00  0.00     0.338 C 
ATOM     36  O   UNL A   1      43.986  23.476  24.119  1.00  0.00    -0.246 OA
BRANCH  35  37
ATOM     37  C   UNL A   1      43.371  24.886  25.937  1.00  0.00     0.060 A 
ATOM     38  C   UNL A   1      43.090  26.077  25.253  1.00  0.00     0.016 A 
ATOM     39  C   UNL A   1      43.640  24.903  27.307  1.00  0.00     0.016 A 
ATOM     40  C   UNL A   1      43.073  27.290  25.934  1.00  0.00     0.010 A 
ATOM     41  C   UNL A   1      43.661  26.126  27.984  1.00  0.00     0.010 A 
ATOM     42  C   UNL A   1      43.396  27.324  27.295  1.00  0.00    -0.014 A 
BRANCH  42  43
ATOM     43  C   UNL A   1      43.618  28.631  27.953  1.00  0.00     0.031 A 
ATOM     44  C   UNL A   1      42.457  29.307  28.620  1.00  0.00     0.074 A 
ATOM     45  C   UNL A   1      44.838  29.192  27.980  1.00  0.00     0.049 A 
ATOM     46  N   UNL A   1      42.394  30.474  29.206  1.00  0.00    -0.248 NA
ATOM     47  C   UNL A   1      41.189  28.560  28.622  1.00  0.00     0.031 C 
ATOM     48  C   UNL A   1      46.051  28.598  27.427  1.00  0.00     0.029 A 
ATOM     49  N   UNL A   1      45.250  30.395  28.496  1.00  0.00    -0.354 N 
ATOM     50  C   UNL A   1      41.081  30.607  29.637  1.00  0.00     0.074 A 
ATOM     51  C   UNL A   1      40.375  29.415  29.221  1.00  0.00     0.031 C 
ATOM     52  C   UNL A   1      47.077  29.443  27.628  1.00  0.00     0.029 A 
ATOM     53  C   UNL A   1      46.580  30.654  28.280  1.00  0.00     0.049 A 
ATOM     54  H   UNL A   1      44.650  31.012  28.974  1.00  0.00     0.167 HD
ATOM     55  C   UNL A   1      40.518  31.633  30.320  1.00  0.00     0.037 A 
ATOM     56  C   UNL A   1      47.300  31.760  28.550  1.00  0.00     0.037 A 
ATOM     57  C   UNL A   1      41.228  32.823  30.714  1.00  0.00     0.049 A 
ATOM     58  C   UNL A   1      46.625  32.941  29.196  1.00  0.00     0.074 A 
ATOM     59  C   UNL A   1      40.761  33.911  31.428  1.00  0.00     0.029 A 
ATOM     60  N   UNL A   1      42.557  33.086  30.407  1.00  0.00    -0.354 N 
ATOM     61  N   UNL A   1      45.390  33.059  29.627  1.00  0.00    -0.248 NA
ATOM     62  C   UNL A   1      47.439  34.151  29.382  1.00  0.00     0.031 C 
ATOM     63  C   UNL A   1      41.783  34.866  31.486  1.00  0.00     0.029 A 
ATOM     64  C   UNL A   1      42.909  34.345  30.868  1.00  0.00     0.049 A 
ATOM     65  H   UNL A   1      43.159  32.471  29.931  1.00  0.00     0.167 HD
ATOM     66  C   UNL A   1      45.285  34.342  30.148  1.00  0.00     0.074 A 
ATOM     67  C   UNL A   1      46.587  34.960  29.997  1.00  0.00     0.031 C 
ATOM     68  C   UNL A   1      44.207  34.953  30.700  1.00  0.00     0.037 A 
BRANCH  55  69
ATOM     69  C   UNL A   1      39.049  31.534  30.621  1.00  0.00     0.064 A 
ATOM     70  C   UNL A   1      38.078  32.132  29.803  1.00  0.00     0.173 A 
ATOM     71  C   UNL A   1      38.608  30.840  31.759  1.00  0.00     0.173 A 
ATOM     72  F   UNL A   1      38.444  32.818  28.710  1.00  0.00    -0.203 F 
ATOM     73  C   UNL A   1      36.727  32.083  30.140  1.00  0.00     0.198 A 
ATOM     74  C   UNL A   1      37.254  30.760  32.071  1.00  0.00     0.198 A 
ATOM     75  F   UNL A   1      39.491  30.244  32.574  1.00  0.00    -0.203 F 
ATOM     76  F   UNL A   1      35.825  32.725  29.384  1.00  0.00    -0.200 F 
ATOM     77  C   UNL A   1      36.316  31.394  31.271  1.00  0.00     0.200 A 
ATOM     78  F   UNL A   1      36.857  30.081  33.157  1.00  0.00    -0.200 F 
ATOM     79  F   UNL A   1      35.017  31.351  31.597  1.00  0.00    -0.200 F 
ENDBRANCH  55  69
BRANCH  56  80
ATOM     80  C   UNL A   1      48.742  31.804  28.194  1.00  0.00     0.064 A 
ATOM     81  C   UNL A   1      49.711  31.283  29.061  1.00  0.00     0.173 A 
ATOM     82  C   UNL A   1      49.180  32.352  26.979  1.00  0.00     0.173 A 
ATOM     83  F   UNL A   1      49.345  30.777  30.248  1.00  0.00    -0.203 F 
ATOM     84  C   UNL A   1      51.064  31.310  28.727  1.00  0.00     0.198 A 
ATOM     85  C   UNL A   1      50.529  32.352  26.632  1.00  0.00     0.198 A 
ATOM     86  F   UNL A   1      48.294  32.874  26.118  1.00  0.00    -0.203 F 
ATOM     87  F   UNL A   1      51.974  30.834  29.589  1.00  0.00    -0.200 F 
ATOM     88  C   UNL A   1      51.470  31.834  27.509  1.00  0.00     0.200 A 
ATOM     89  F   UNL A   1      50.917  32.850  25.450  1.00  0.00    -0.200 F 
ATOM     90  F   UNL A   1      52.770  31.845  27.182  1.00  0.00    -0.200 F 
ENDBRANCH  56  80
BRANCH  68  91
ATOM     91  C   UNL A   1      44.384  36.363  31.188  1.00  0.00     0.064 A 
ATOM     92  C   UNL A   1      44.880  36.640  32.471  1.00  0.00     0.173 A 
ATOM     93  C   UNL A   1      44.111  37.451  30.344  1.00  0.00     0.173 A 
ATOM     94  F   UNL A   1      45.143  35.638  33.325  1.00  0.00    -0.203 F 
ATOM     95  C   UNL A   1      45.079  37.952  32.896  1.00  0.00     0.198 A 
ATOM     96  C   UNL A   1      44.343  38.760  30.760  1.00  0.00     0.198 A 
ATOM     97  F   UNL A   1      43.641  37.245  29.105  1.00  0.00    -0.203 F 
ATOM     98  F   UNL A   1      45.513  38.193  34.141  1.00  0.00    -0.200 F 
ATOM     99  C   UNL A   1      44.820  39.010  32.037  1.00  0.00     0.200 A 
ATOM    100  F   UNL A   1      44.109  39.779  29.922  1.00  0.00    -0.200 F 
ATOM    101  F   UNL A   1      45.028  40.270  32.442  1.00  0.00    -0.200 F 
ENDBRANCH  68  91
ENDBRANCH  42  43
ENDBRANCH  35  37
ENDBRANCH  34  35
ENDBRANCH  33  34
ENDBRANCH  32  33
ENDBRANCH  31  32
ENDBRANCH  30  31
ENDBRANCH  29  30
ENDBRANCH  28  29
ENDBRANCH   1  28
TORSDOF 25
ENDMDL
