MODEL 1
REMARK VINA RESULT:      -9.7      0.000      0.000
REMARK SMILES CCc1ccccc1NC(=O)c1cc(S(=O)(=O)N2CCC[C@H](C(=O)OCCOCCOCCOCCOC(=O)c3ccc(-c4c5nc(c(-c6c(F)c(F)c(F)c(F)c6F)c6ccc([nH]6)c(-c6c(F)c(F)c(F)c(F)c6F)c6nc(c(-c7c(F)c(F)c(F)c(F)c7F)c7ccc4[nH]7)C=C6)C=C5)cc3)C2)ccc1F
REMARK SMILES IDX 29 1 28 2 27 3 26 4 25 5 23 6 24 7 22 8 18 9 19 10 103 11
REMARK SMILES IDX 20 12 21 13 15 14 16 15 17 16 14 17 12 18 13 19 106 20
REMARK SMILES IDX 105 21 107 22 104 23 10 24 9 25 11 27 8 28 3 29 4 30 5 31
REMARK SMILES IDX 7 32 6 33 2 34 1 35 30 36 31 37 32 38 33 39 34 40 35 41
REMARK SMILES IDX 36 42 37 43 38 44 39 45 40 46 41 47 102 48 42 49 101 50
REMARK SMILES IDX 43 51 44 52 45 53 95 54 46 55 100 56 94 57 96 58 47 59 99 60
REMARK SMILES IDX 93 61 92 62 48 64 80 65 60 66 79 67 61 68 64 69 78 70 97 71
REMARK SMILES IDX 62 72 63 73 77 75 98 76 65 77 49 78 50 79 58 80 51 81 52 82
REMARK SMILES IDX 56 83 59 84 53 85 54 86 57 87 55 88 81 89 82 90 90 91 83 92
REMARK SMILES IDX 84 93 88 94 91 95 85 96 86 97 89 98 87 99 66 100 67 101
REMARK SMILES IDX 75 102 68 103 69 104 73 105 76 106 70 107 71 108 74 109
REMARK SMILES IDX 72 110
REMARK H PARENT 9 26 96 63 64 74
REMARK Flexibility Score: inf
ROOT
ATOM      1  C   UNL A   1      36.985  32.333  28.355  1.00  0.00     0.188 C 
ENDROOT
BRANCH   1   2
ATOM      2  O   UNL A   1      35.994  32.989  27.577  1.00  0.00    -0.376 OA
BRANCH   2   3
ATOM      3  C   UNL A   1      34.608  32.878  27.871  1.00  0.00     0.202 C 
BRANCH   3   4
ATOM      4  C   UNL A   1      34.043  31.583  28.459  1.00  0.00     0.261 C 
BRANCH   4   5
ATOM      5  O   UNL A   1      34.729  30.386  28.057  1.00  0.00    -0.463 OA
BRANCH   5   6
ATOM      6  C   UNL A   1      34.110  29.642  27.116  1.00  0.00     0.310 C 
ATOM      7  O   UNL A   1      34.663  29.139  26.143  1.00  0.00    -0.252 OA
BRANCH   6   8
ATOM      8  C   UNL A   1      32.607  29.601  27.263  1.00  0.00     0.114 C 
ATOM      9  N   UNL A   1      31.654  27.927  25.613  1.00  0.00    -0.197 NA
ATOM     10  C   UNL A   1      30.947  28.992  24.871  1.00  0.00     0.102 C 
ATOM     11  C   UNL A   1      32.214  28.168  26.972  1.00  0.00     0.117 C 
ATOM     12  C   UNL A   1      31.537  30.365  25.103  1.00  0.00     0.018 C 
ATOM     13  C   UNL A   1      31.701  30.622  26.583  1.00  0.00     0.018 C 
BRANCH   9  14
ATOM     14  S   UNL A   1      31.040  26.358  25.367  1.00  0.00     0.243 S 
ATOM     15  O   UNL A   1      29.925  26.486  24.441  1.00  0.00    -0.207 OA
ATOM     16  O   UNL A   1      30.905  25.701  26.638  1.00  0.00    -0.207 OA
BRANCH  14  17
ATOM     17  C   UNL A   1      32.317  25.490  24.470  1.00  0.00     0.083 A 
ATOM     18  C   UNL A   1      34.265  24.098  24.611  1.00  0.00     0.077 A 
ATOM     19  C   UNL A   1      33.293  24.872  25.244  1.00  0.00     0.038 A 
ATOM     20  C   UNL A   1      34.172  23.806  23.251  1.00  0.00     0.136 A 
ATOM     21  C   UNL A   1      33.221  24.451  22.471  1.00  0.00     0.041 A 
ATOM     22  F   UNL A   1      35.047  22.986  22.653  1.00  0.00    -0.206 F 
ATOM     23  C   UNL A   1      32.329  25.342  23.074  1.00  0.00     0.025 A 
BRANCH  18  24
ATOM     24  C   UNL A   1      35.443  23.753  25.405  1.00  0.00     0.258 C 
ATOM     25  N   UNL A   1      35.654  22.464  25.842  1.00  0.00    -0.322 N 
ATOM     26  H   UNL A   1      36.501  22.340  26.327  1.00  0.00     0.170 HD
ATOM     27  O   UNL A   1      36.265  24.636  25.639  1.00  0.00    -0.269 OA
BRANCH  25  28
ATOM     28  C   UNL A   1      34.881  21.289  25.724  1.00  0.00     0.044 A 
ATOM     29  C   UNL A   1      33.740  21.140  26.536  1.00  0.00    -0.025 A 
ATOM     30  C   UNL A   1      32.880  20.047  26.292  1.00  0.00     0.006 A 
ATOM     31  C   UNL A   1      33.158  19.102  25.304  1.00  0.00     0.000 A 
ATOM     32  C   UNL A   1      35.203  20.266  24.818  1.00  0.00     0.026 A 
ATOM     33  C   UNL A   1      34.337  19.197  24.584  1.00  0.00     0.002 A 
BRANCH  29  34
ATOM     34  C   UNL A   1      33.389  22.057  27.691  1.00  0.00     0.034 C 
ATOM     35  C   UNL A   1      31.969  22.608  27.731  1.00  0.00     0.009 C 
ENDBRANCH  29  34
ENDBRANCH  25  28
ENDBRANCH  18  24
ENDBRANCH  14  17
ENDBRANCH   9  14
ENDBRANCH   6   8
ENDBRANCH   5   6
ENDBRANCH   4   5
ENDBRANCH   3   4
ENDBRANCH   2   3
ENDBRANCH   1   2
BRANCH   1  36
ATOM     36  C   UNL A   1      37.687  33.037  29.524  1.00  0.00     0.188 C 
BRANCH  36  37
ATOM     37  O   UNL A   1      38.245  34.301  29.227  1.00  0.00    -0.377 OA
BRANCH  37  38
ATOM     38  C   UNL A   1      38.895  34.979  30.298  1.00  0.00     0.188 C 
BRANCH  38  39
ATOM     39  C   UNL A   1      38.826  34.324  31.687  1.00  0.00     0.188 C 
BRANCH  39  40
ATOM     40  O   UNL A   1      38.056  35.085  32.616  1.00  0.00    -0.376 OA
BRANCH  40  41
ATOM     41  C   UNL A   1      36.788  34.552  32.992  1.00  0.00     0.202 C 
BRANCH  41  42
ATOM     42  C   UNL A   1      36.518  33.112  32.526  1.00  0.00     0.261 C 
BRANCH  42  43
ATOM     43  O   UNL A   1      36.265  32.160  33.576  1.00  0.00    -0.460 OA
BRANCH  43  44
ATOM     44  C   UNL A   1      37.324  31.673  34.254  1.00  0.00     0.338 C 
ATOM     45  O   UNL A   1      37.519  31.716  35.453  1.00  0.00    -0.246 OA
BRANCH  44  46
ATOM     46  C   UNL A   1      38.147  30.891  33.312  1.00  0.00     0.060 A 
ATOM     47  C   UNL A   1      39.244  30.183  33.816  1.00  0.00     0.016 A 
ATOM     48  C   UNL A   1      37.869  30.893  31.942  1.00  0.00     0.016 A 
ATOM     49  C   UNL A   1      40.105  29.520  32.943  1.00  0.00     0.010 A 
ATOM     50  C   UNL A   1      38.743  30.247  31.065  1.00  0.00     0.010 A 
ATOM     51  C   UNL A   1      39.888  29.597  31.560  1.00  0.00    -0.014 A 
BRANCH  51  52
ATOM     52  C   UNL A   1      40.974  29.208  30.632  1.00  0.00     0.031 A 
ATOM     53  C   UNL A   1      42.100  30.181  30.414  1.00  0.00     0.074 A 
ATOM     54  C   UNL A   1      40.979  28.015  30.015  1.00  0.00     0.049 A 
ATOM     55  N   UNL A   1      43.153  30.080  29.644  1.00  0.00    -0.248 NA
ATOM     56  C   UNL A   1      42.026  31.442  31.170  1.00  0.00     0.031 C 
ATOM     57  C   UNL A   1      39.966  26.976  30.177  1.00  0.00     0.029 A 
ATOM     58  N   UNL A   1      41.874  27.484  29.122  1.00  0.00    -0.354 N 
ATOM     59  C   UNL A   1      43.864  31.259  29.825  1.00  0.00     0.074 A 
ATOM     60  C   UNL A   1      43.111  32.075  30.750  1.00  0.00     0.031 C 
ATOM     61  C   UNL A   1      40.291  25.929  29.397  1.00  0.00     0.029 A 
ATOM     62  C   UNL A   1      41.520  26.238  28.666  1.00  0.00     0.049 A 
ATOM     63  H   UNL A   1      42.691  27.950  28.834  1.00  0.00     0.167 HD
ATOM     64  C   UNL A   1      45.044  31.626  29.275  1.00  0.00     0.037 A 
ATOM     65  C   UNL A   1      42.117  25.449  27.752  1.00  0.00     0.037 A 
ATOM     66  C   UNL A   1      45.788  30.821  28.345  1.00  0.00     0.049 A 
ATOM     67  C   UNL A   1      43.392  25.914  27.093  1.00  0.00     0.074 A 
ATOM     68  C   UNL A   1      47.001  31.097  27.739  1.00  0.00     0.029 A 
ATOM     69  N   UNL A   1      45.378  29.582  27.877  1.00  0.00    -0.354 N 
ATOM     70  N   UNL A   1      44.074  27.015  27.291  1.00  0.00    -0.248 NA
ATOM     71  C   UNL A   1      43.979  25.020  26.083  1.00  0.00     0.031 C 
ATOM     72  C   UNL A   1      47.302  30.044  26.868  1.00  0.00     0.029 A 
ATOM     73  C   UNL A   1      46.301  29.090  26.969  1.00  0.00     0.049 A 
ATOM     74  H   UNL A   1      44.553  29.118  28.150  1.00  0.00     0.167 HD
ATOM     75  C   UNL A   1      45.181  26.937  26.453  1.00  0.00     0.074 A 
ATOM     76  C   UNL A   1      45.083  25.674  25.751  1.00  0.00     0.031 C 
ATOM     77  C   UNL A   1      46.188  27.828  26.283  1.00  0.00     0.037 A 
BRANCH  64  78
ATOM     78  C   UNL A   1      45.584  32.974  29.649  1.00  0.00     0.064 A 
ATOM     79  C   UNL A   1      45.259  34.125  28.915  1.00  0.00     0.173 A 
ATOM     80  C   UNL A   1      46.432  33.117  30.756  1.00  0.00     0.173 A 
ATOM     81  F   UNL A   1      44.468  34.037  27.834  1.00  0.00    -0.203 F 
ATOM     82  C   UNL A   1      45.789  35.366  29.259  1.00  0.00     0.198 A 
ATOM     83  C   UNL A   1      46.939  34.363  31.114  1.00  0.00     0.198 A 
ATOM     84  F   UNL A   1      46.773  32.047  31.488  1.00  0.00    -0.203 F 
ATOM     85  F   UNL A   1      45.508  36.443  28.513  1.00  0.00    -0.200 F 
ATOM     86  C   UNL A   1      46.624  35.485  30.361  1.00  0.00     0.200 A 
ATOM     87  F   UNL A   1      47.740  34.477  32.181  1.00  0.00    -0.200 F 
ATOM     88  F   UNL A   1      47.134  36.679  30.691  1.00  0.00    -0.200 F 
ENDBRANCH  64  78
BRANCH  65  89
ATOM     89  C   UNL A   1      41.517  24.138  27.399  1.00  0.00     0.064 A 
ATOM     90  C   UNL A   1      40.362  24.062  26.609  1.00  0.00     0.173 A 
ATOM     91  C   UNL A   1      42.077  22.936  27.856  1.00  0.00     0.173 A 
ATOM     92  F   UNL A   1      39.774  25.186  26.174  1.00  0.00    -0.203 F 
ATOM     93  C   UNL A   1      39.781  22.832  26.300  1.00  0.00     0.198 A 
ATOM     94  C   UNL A   1      41.510  21.707  27.527  1.00  0.00     0.198 A 
ATOM     95  F   UNL A   1      43.179  22.957  28.621  1.00  0.00    -0.203 F 
ATOM     96  F   UNL A   1      38.653  22.790  25.580  1.00  0.00    -0.200 F 
ATOM     97  C   UNL A   1      40.359  21.656  26.754  1.00  0.00     0.200 A 
ATOM     98  F   UNL A   1      42.073  20.573  27.966  1.00  0.00    -0.200 F 
ATOM     99  F   UNL A   1      39.800  20.476  26.457  1.00  0.00    -0.200 F 
ENDBRANCH  65  89
BRANCH  77 100
ATOM    100  C   UNL A   1      47.283  27.460  25.325  1.00  0.00     0.064 A 
ATOM    101  C   UNL A   1      47.206  27.781  23.962  1.00  0.00     0.173 A 
ATOM    102  C   UNL A   1      48.447  26.826  25.787  1.00  0.00     0.173 A 
ATOM    103  F   UNL A   1      46.109  28.376  23.470  1.00  0.00    -0.203 F 
ATOM    104  C   UNL A   1      48.245  27.463  23.093  1.00  0.00     0.198 A 
ATOM    105  C   UNL A   1      49.496  26.533  24.919  1.00  0.00     0.198 A 
ATOM    106  F   UNL A   1      48.572  26.505  27.083  1.00  0.00    -0.203 F 
ATOM    107  F   UNL A   1      48.135  27.744  21.786  1.00  0.00    -0.200 F 
ATOM    108  C   UNL A   1      49.392  26.846  23.573  1.00  0.00     0.200 A 
ATOM    109  F   UNL A   1      50.608  25.951  25.388  1.00  0.00    -0.200 F 
ATOM    110  F   UNL A   1      50.396  26.550  22.736  1.00  0.00    -0.200 F 
ENDBRANCH  77 100
ENDBRANCH  51  52
ENDBRANCH  44  46
ENDBRANCH  43  44
ENDBRANCH  42  43
ENDBRANCH  41  42
ENDBRANCH  40  41
ENDBRANCH  39  40
ENDBRANCH  38  39
ENDBRANCH  37  38
ENDBRANCH  36  37
ENDBRANCH   1  36
TORSDOF 25
ENDMDL
MODEL 2
REMARK VINA RESULT:      -9.4      5.736     14.002
REMARK SMILES CCc1ccccc1NC(=O)c1cc(S(=O)(=O)N2CCC[C@H](C(=O)OCCOCCOCCOCCOC(=O)c3ccc(-c4c5nc(c(-c6c(F)c(F)c(F)c(F)c6F)c6ccc([nH]6)c(-c6c(F)c(F)c(F)c(F)c6F)c6nc(c(-c7c(F)c(F)c(F)c(F)c7F)c7ccc4[nH]7)C=C6)C=C5)cc3)C2)ccc1F
REMARK SMILES IDX 29 1 28 2 27 3 26 4 25 5 23 6 24 7 22 8 18 9 19 10 103 11
REMARK SMILES IDX 20 12 21 13 15 14 16 15 17 16 14 17 12 18 13 19 106 20
REMARK SMILES IDX 105 21 107 22 104 23 10 24 9 25 11 27 8 28 3 29 4 30 5 31
REMARK SMILES IDX 7 32 6 33 2 34 1 35 30 36 31 37 32 38 33 39 34 40 35 41
REMARK SMILES IDX 36 42 37 43 38 44 39 45 40 46 41 47 102 48 42 49 101 50
REMARK SMILES IDX 43 51 44 52 45 53 95 54 46 55 100 56 94 57 96 58 47 59 99 60
REMARK SMILES IDX 93 61 92 62 48 64 80 65 60 66 79 67 61 68 64 69 78 70 97 71
REMARK SMILES IDX 62 72 63 73 77 75 98 76 65 77 49 78 50 79 58 80 51 81 52 82
REMARK SMILES IDX 56 83 59 84 53 85 54 86 57 87 55 88 81 89 82 90 90 91 83 92
REMARK SMILES IDX 84 93 88 94 91 95 85 96 86 97 89 98 87 99 66 100 67 101
REMARK SMILES IDX 75 102 68 103 69 104 73 105 76 106 70 107 71 108 74 109
REMARK SMILES IDX 72 110
REMARK H PARENT 9 26 96 63 64 74
REMARK Flexibility Score: inf
ROOT
ATOM      1  C   UNL A   1      43.574  29.246  26.744  1.00  0.00     0.188 C 
ENDROOT
BRANCH   1   2
ATOM      2  O   UNL A   1      44.207  30.177  27.609  1.00  0.00    -0.376 OA
BRANCH   2   3
ATOM      3  C   UNL A   1      43.545  31.345  28.075  1.00  0.00     0.202 C 
BRANCH   3   4
ATOM      4  C   UNL A   1      44.248  32.704  28.029  1.00  0.00     0.261 C 
BRANCH   4   5
ATOM      5  O   UNL A   1      44.486  33.217  26.708  1.00  0.00    -0.463 OA
BRANCH   5   6
ATOM      6  C   UNL A   1      45.534  34.058  26.586  1.00  0.00     0.310 C 
ATOM      7  O   UNL A   1      46.412  33.966  25.733  1.00  0.00    -0.252 OA
BRANCH   6   8
ATOM      8  C   UNL A   1      45.643  35.065  27.707  1.00  0.00     0.114 C 
ATOM      9  N   UNL A   1      47.159  36.964  26.979  1.00  0.00    -0.197 NA
ATOM     10  C   UNL A   1      48.164  36.615  28.005  1.00  0.00     0.102 C 
ATOM     11  C   UNL A   1      45.777  36.411  27.027  1.00  0.00     0.117 C 
ATOM     12  C   UNL A   1      48.045  35.186  28.487  1.00  0.00     0.018 C 
ATOM     13  C   UNL A   1      46.615  34.879  28.867  1.00  0.00     0.018 C 
BRANCH   9  14
ATOM     14  S   UNL A   1      47.265  38.557  26.388  1.00  0.00     0.243 S 
ATOM     15  O   UNL A   1      47.020  38.487  24.955  1.00  0.00    -0.207 OA
ATOM     16  O   UNL A   1      48.439  39.183  26.931  1.00  0.00    -0.207 OA
BRANCH  14  17
ATOM     17  C   UNL A   1      45.856  39.409  27.079  1.00  0.00     0.083 A 
ATOM     18  C   UNL A   1      43.783  40.530  26.633  1.00  0.00     0.077 A 
ATOM     19  C   UNL A   1      44.953  39.936  26.162  1.00  0.00     0.038 A 
ATOM     20  C   UNL A   1      43.436  40.453  27.981  1.00  0.00     0.136 A 
ATOM     21  C   UNL A   1      44.352  39.960  28.902  1.00  0.00     0.041 A 
ATOM     22  F   UNL A   1      42.269  40.936  28.429  1.00  0.00    -0.206 F 
ATOM     23  C   UNL A   1      45.590  39.493  28.454  1.00  0.00     0.025 A 
BRANCH  18  24
ATOM     24  C   UNL A   1      43.040  41.354  25.681  1.00  0.00     0.258 C 
ATOM     25  N   UNL A   1      43.559  42.538  25.209  1.00  0.00    -0.322 N 
ATOM     26  H   UNL A   1      42.993  42.984  24.538  1.00  0.00     0.170 HD
ATOM     27  O   UNL A   1      41.955  40.940  25.279  1.00  0.00    -0.269 OA
BRANCH  25  28
ATOM     28  C   UNL A   1      44.752  43.232  25.506  1.00  0.00     0.044 A 
ATOM     29  C   UNL A   1      45.798  43.222  24.563  1.00  0.00    -0.025 A 
ATOM     30  C   UNL A   1      46.915  44.055  24.791  1.00  0.00     0.006 A 
ATOM     31  C   UNL A   1      47.020  44.844  25.936  1.00  0.00     0.000 A 
ATOM     32  C   UNL A   1      44.931  43.940  26.704  1.00  0.00     0.026 A 
ATOM     33  C   UNL A   1      46.038  44.765  26.909  1.00  0.00     0.002 A 
BRANCH  29  34
ATOM     34  C   UNL A   1      45.828  42.340  23.330  1.00  0.00     0.034 C 
ATOM     35  C   UNL A   1      47.086  42.391  22.473  1.00  0.00     0.009 C 
ENDBRANCH  29  34
ENDBRANCH  25  28
ENDBRANCH  18  24
ENDBRANCH  14  17
ENDBRANCH   9  14
ENDBRANCH   6   8
ENDBRANCH   5   6
ENDBRANCH   4   5
ENDBRANCH   3   4
ENDBRANCH   2   3
ENDBRANCH   1   2
BRANCH   1  36
ATOM     36  C   UNL A   1      44.179  27.864  26.465  1.00  0.00     0.188 C 
BRANCH  36  37
ATOM     37  O   UNL A   1      43.496  27.082  25.506  1.00  0.00    -0.377 OA
BRANCH  37  38
ATOM     38  C   UNL A   1      44.101  25.844  25.144  1.00  0.00     0.188 C 
BRANCH  38  39
ATOM     39  C   UNL A   1      43.661  24.595  25.926  1.00  0.00     0.188 C 
BRANCH  39  40
ATOM     40  O   UNL A   1      43.081  23.597  25.086  1.00  0.00    -0.376 OA
BRANCH  40  41
ATOM     41  C   UNL A   1      42.641  22.399  25.720  1.00  0.00     0.202 C 
BRANCH  41  42
ATOM     42  C   UNL A   1      42.065  22.577  27.134  1.00  0.00     0.261 C 
BRANCH  42  43
ATOM     43  O   UNL A   1      40.684  22.198  27.292  1.00  0.00    -0.460 OA
BRANCH  43  44
ATOM     44  C   UNL A   1      39.758  22.895  26.604  1.00  0.00     0.338 C 
ATOM     45  O   UNL A   1      38.994  22.475  25.756  1.00  0.00    -0.246 OA
BRANCH  44  46
ATOM     46  C   UNL A   1      39.679  24.247  27.188  1.00  0.00     0.060 A 
ATOM     47  C   UNL A   1      40.218  25.317  26.462  1.00  0.00     0.016 A 
ATOM     48  C   UNL A   1      39.126  24.453  28.454  1.00  0.00     0.016 A 
ATOM     49  C   UNL A   1      40.258  26.591  27.028  1.00  0.00     0.010 A 
ATOM     50  C   UNL A   1      39.185  25.725  29.029  1.00  0.00     0.010 A 
ATOM     51  C   UNL A   1      39.791  26.786  28.335  1.00  0.00    -0.014 A 
BRANCH  51  52
ATOM     52  C   UNL A   1      40.153  28.028  29.057  1.00  0.00     0.031 A 
ATOM     53  C   UNL A   1      41.538  28.133  29.633  1.00  0.00     0.074 A 
ATOM     54  C   UNL A   1      39.288  29.047  29.179  1.00  0.00     0.049 A 
ATOM     55  N   UNL A   1      42.086  29.105  30.317  1.00  0.00    -0.248 NA
ATOM     56  C   UNL A   1      42.426  26.981  29.407  1.00  0.00     0.031 C 
ATOM     57  C   UNL A   1      37.935  29.079  28.630  1.00  0.00     0.029 A 
ATOM     58  N   UNL A   1      39.426  30.256  29.813  1.00  0.00    -0.354 N 
ATOM     59  C   UNL A   1      43.378  28.683  30.598  1.00  0.00     0.074 A 
ATOM     60  C   UNL A   1      43.526  27.356  30.042  1.00  0.00     0.031 C 
ATOM     61  C   UNL A   1      37.359  30.249  28.962  1.00  0.00     0.029 A 
ATOM     62  C   UNL A   1      38.297  31.035  29.764  1.00  0.00     0.049 A 
ATOM     63  H   UNL A   1      40.256  30.538  30.261  1.00  0.00     0.167 HD
ATOM     64  C   UNL A   1      44.359  29.345  31.254  1.00  0.00     0.037 A 
ATOM     65  C   UNL A   1      38.050  32.237  30.318  1.00  0.00     0.037 A 
ATOM     66  C   UNL A   1      44.209  30.659  31.818  1.00  0.00     0.049 A 
ATOM     67  C   UNL A   1      39.133  32.922  31.113  1.00  0.00     0.074 A 
ATOM     68  C   UNL A   1      45.146  31.422  32.492  1.00  0.00     0.029 A 
ATOM     69  N   UNL A   1      43.038  31.400  31.782  1.00  0.00    -0.354 N 
ATOM     70  N   UNL A   1      40.362  32.532  31.349  1.00  0.00    -0.248 NA
ATOM     71  C   UNL A   1      38.792  34.220  31.717  1.00  0.00     0.031 C 
ATOM     72  C   UNL A   1      44.527  32.607  32.905  1.00  0.00     0.029 A 
ATOM     73  C   UNL A   1      43.219  32.602  32.445  1.00  0.00     0.049 A 
ATOM     74  H   UNL A   1      42.201  31.115  31.349  1.00  0.00     0.167 HD
ATOM     75  C   UNL A   1      40.947  33.541  32.104  1.00  0.00     0.074 A 
ATOM     76  C   UNL A   1      39.942  34.568  32.278  1.00  0.00     0.031 C 
ATOM     77  C   UNL A   1      42.205  33.613  32.604  1.00  0.00     0.037 A 
BRANCH  64  78
ATOM     78  C   UNL A   1      45.670  28.637  31.419  1.00  0.00     0.064 A 
ATOM     79  C   UNL A   1      45.917  27.792  32.512  1.00  0.00     0.173 A 
ATOM     80  C   UNL A   1      46.690  28.804  30.472  1.00  0.00     0.173 A 
ATOM     81  F   UNL A   1      44.980  27.617  33.456  1.00  0.00    -0.203 F 
ATOM     82  C   UNL A   1      47.149  27.163  32.665  1.00  0.00     0.198 A 
ATOM     83  C   UNL A   1      47.913  28.152  30.614  1.00  0.00     0.198 A 
ATOM     84  F   UNL A   1      46.504  29.602  29.411  1.00  0.00    -0.203 F 
ATOM     85  F   UNL A   1      47.383  26.402  33.743  1.00  0.00    -0.200 F 
ATOM     86  C   UNL A   1      48.144  27.339  31.714  1.00  0.00     0.200 A 
ATOM     87  F   UNL A   1      48.869  28.318  29.692  1.00  0.00    -0.200 F 
ATOM     88  F   UNL A   1      49.330  26.733  31.862  1.00  0.00    -0.200 F 
ENDBRANCH  64  78
BRANCH  65  89
ATOM     89  C   UNL A   1      36.720  32.874  30.147  1.00  0.00     0.064 A 
ATOM     90  C   UNL A   1      35.790  32.896  31.195  1.00  0.00     0.173 A 
ATOM     91  C   UNL A   1      36.345  33.458  28.929  1.00  0.00     0.173 A 
ATOM     92  F   UNL A   1      36.092  32.323  32.370  1.00  0.00    -0.203 F 
ATOM     93  C   UNL A   1      34.530  33.468  31.028  1.00  0.00     0.198 A 
ATOM     94  C   UNL A   1      35.094  34.051  28.768  1.00  0.00     0.198 A 
ATOM     95  F   UNL A   1      37.198  33.456  27.892  1.00  0.00    -0.203 F 
ATOM     96  F   UNL A   1      33.645  33.438  32.032  1.00  0.00    -0.200 F 
ATOM     97  C   UNL A   1      34.185  34.050  29.816  1.00  0.00     0.200 A 
ATOM     98  F   UNL A   1      34.767  34.614  27.598  1.00  0.00    -0.200 F 
ATOM     99  F   UNL A   1      32.974  34.599  29.656  1.00  0.00    -0.200 F 
ENDBRANCH  65  89
BRANCH  77 100
ATOM    100  C   UNL A   1      42.579  34.855  33.362  1.00  0.00     0.064 A 
ATOM    101  C   UNL A   1      43.083  35.990  32.710  1.00  0.00     0.173 A 
ATOM    102  C   UNL A   1      42.378  34.928  34.748  1.00  0.00     0.173 A 
ATOM    103  F   UNL A   1      43.304  35.965  31.387  1.00  0.00    -0.203 F 
ATOM    104  C   UNL A   1      43.392  37.145  33.422  1.00  0.00     0.198 A 
ATOM    105  C   UNL A   1      42.663  36.094  35.453  1.00  0.00     0.198 A 
ATOM    106  F   UNL A   1      41.890  33.872  35.417  1.00  0.00    -0.203 F 
ATOM    107  F   UNL A   1      43.910  38.205  32.785  1.00  0.00    -0.200 F 
ATOM    108  C   UNL A   1      43.175  37.199  34.791  1.00  0.00     0.200 A 
ATOM    109  F   UNL A   1      42.439  36.147  36.774  1.00  0.00    -0.200 F 
ATOM    110  F   UNL A   1      43.464  38.315  35.474  1.00  0.00    -0.200 F 
ENDBRANCH  77 100
ENDBRANCH  51  52
ENDBRANCH  44  46
ENDBRANCH  43  44
ENDBRANCH  42  43
ENDBRANCH  41  42
ENDBRANCH  40  41
ENDBRANCH  39  40
ENDBRANCH  38  39
ENDBRANCH  37  38
ENDBRANCH  36  37
ENDBRANCH   1  36
TORSDOF 25
ENDMDL
MODEL 3
REMARK VINA RESULT:      -9.4      4.953      9.886
REMARK SMILES CCc1ccccc1NC(=O)c1cc(S(=O)(=O)N2CCC[C@H](C(=O)OCCOCCOCCOCCOC(=O)c3ccc(-c4c5nc(c(-c6c(F)c(F)c(F)c(F)c6F)c6ccc([nH]6)c(-c6c(F)c(F)c(F)c(F)c6F)c6nc(c(-c7c(F)c(F)c(F)c(F)c7F)c7ccc4[nH]7)C=C6)C=C5)cc3)C2)ccc1F
REMARK SMILES IDX 29 1 28 2 27 3 26 4 25 5 23 6 24 7 22 8 18 9 19 10 103 11
REMARK SMILES IDX 20 12 21 13 15 14 16 15 17 16 14 17 12 18 13 19 106 20
REMARK SMILES IDX 105 21 107 22 104 23 10 24 9 25 11 27 8 28 3 29 4 30 5 31
REMARK SMILES IDX 7 32 6 33 2 34 1 35 30 36 31 37 32 38 33 39 34 40 35 41
REMARK SMILES IDX 36 42 37 43 38 44 39 45 40 46 41 47 102 48 42 49 101 50
REMARK SMILES IDX 43 51 44 52 45 53 95 54 46 55 100 56 94 57 96 58 47 59 99 60
REMARK SMILES IDX 93 61 92 62 48 64 80 65 60 66 79 67 61 68 64 69 78 70 97 71
REMARK SMILES IDX 62 72 63 73 77 75 98 76 65 77 49 78 50 79 58 80 51 81 52 82
REMARK SMILES IDX 56 83 59 84 53 85 54 86 57 87 55 88 81 89 82 90 90 91 83 92
REMARK SMILES IDX 84 93 88 94 91 95 85 96 86 97 89 98 87 99 66 100 67 101
REMARK SMILES IDX 75 102 68 103 69 104 73 105 76 106 70 107 71 108 74 109
REMARK SMILES IDX 72 110
REMARK H PARENT 9 26 96 63 64 74
REMARK Flexibility Score: inf
ROOT
ATOM      1  C   UNL A   1      37.922  29.671  28.005  1.00  0.00     0.188 C 
ENDROOT
BRANCH   1   2
ATOM      2  O   UNL A   1      37.997  30.982  28.546  1.00  0.00    -0.376 OA
BRANCH   2   3
ATOM      3  C   UNL A   1      36.867  31.843  28.594  1.00  0.00     0.202 C 
BRANCH   3   4
ATOM      4  C   UNL A   1      35.638  31.461  29.421  1.00  0.00     0.261 C 
BRANCH   4   5
ATOM      5  O   UNL A   1      35.410  32.277  30.581  1.00  0.00    -0.463 OA
BRANCH   5   6
ATOM      6  C   UNL A   1      34.640  33.369  30.389  1.00  0.00     0.310 C 
ATOM      7  O   UNL A   1      33.723  33.447  29.577  1.00  0.00    -0.252 OA
BRANCH   6   8
ATOM      8  C   UNL A   1      35.103  34.585  31.157  1.00  0.00     0.114 C 
ATOM      9  N   UNL A   1      36.058  33.849  33.388  1.00  0.00    -0.197 NA
ATOM     10  C   UNL A   1      34.980  34.539  34.129  1.00  0.00     0.102 C 
ATOM     11  C   UNL A   1      36.310  34.126  31.947  1.00  0.00     0.117 C 
ATOM     12  C   UNL A   1      33.751  34.791  33.284  1.00  0.00     0.018 C 
ATOM     13  C   UNL A   1      34.139  35.439  31.974  1.00  0.00     0.018 C 
BRANCH   9  14
ATOM     14  S   UNL A   1      37.456  33.522  34.303  1.00  0.00     0.243 S 
ATOM     15  O   UNL A   1      37.075  32.545  35.312  1.00  0.00    -0.207 OA
ATOM     16  O   UNL A   1      38.095  34.762  34.645  1.00  0.00    -0.207 OA
BRANCH  14  17
ATOM     17  C   UNL A   1      38.555  32.662  33.188  1.00  0.00     0.083 A 
ATOM     18  C   UNL A   1      38.972  30.652  31.948  1.00  0.00     0.077 A 
ATOM     19  C   UNL A   1      38.211  31.349  32.885  1.00  0.00     0.038 A 
ATOM     20  C   UNL A   1      39.955  31.301  31.201  1.00  0.00     0.136 A 
ATOM     21  C   UNL A   1      40.323  32.600  31.527  1.00  0.00     0.041 A 
ATOM     22  F   UNL A   1      40.626  30.665  30.231  1.00  0.00    -0.206 F 
ATOM     23  C   UNL A   1      39.661  33.261  32.565  1.00  0.00     0.025 A 
BRANCH  18  24
ATOM     24  C   UNL A   1      38.792  29.203  31.909  1.00  0.00     0.258 C 
ATOM     25  N   UNL A   1      39.730  28.353  32.451  1.00  0.00    -0.322 N 
ATOM     26  H   UNL A   1      39.481  27.402  32.409  1.00  0.00     0.170 HD
ATOM     27  O   UNL A   1      37.757  28.760  31.416  1.00  0.00    -0.269 OA
BRANCH  25  28
ATOM     28  C   UNL A   1      40.982  28.593  33.056  1.00  0.00     0.044 A 
ATOM     29  C   UNL A   1      42.150  28.470  32.277  1.00  0.00    -0.025 A 
ATOM     30  C   UNL A   1      43.379  28.877  32.839  1.00  0.00     0.006 A 
ATOM     31  C   UNL A   1      43.465  29.352  34.148  1.00  0.00     0.000 A 
ATOM     32  C   UNL A   1      41.109  28.960  34.405  1.00  0.00     0.026 A 
ATOM     33  C   UNL A   1      42.330  29.367  34.942  1.00  0.00     0.002 A 
BRANCH  29  34
ATOM     34  C   UNL A   1      42.184  27.887  30.877  1.00  0.00     0.034 C 
ATOM     35  C   UNL A   1      43.553  27.548  30.302  1.00  0.00     0.009 C 
ENDBRANCH  29  34
ENDBRANCH  25  28
ENDBRANCH  18  24
ENDBRANCH  14  17
ENDBRANCH   9  14
ENDBRANCH   6   8
ENDBRANCH   5   6
ENDBRANCH   4   5
ENDBRANCH   3   4
ENDBRANCH   2   3
ENDBRANCH   1   2
BRANCH   1  36
ATOM     36  C   UNL A   1      39.169  28.790  27.850  1.00  0.00     0.188 C 
BRANCH  36  37
ATOM     37  O   UNL A   1      39.179  27.608  28.626  1.00  0.00    -0.377 OA
BRANCH  37  38
ATOM     38  C   UNL A   1      39.551  26.408  27.955  1.00  0.00     0.188 C 
BRANCH  38  39
ATOM     39  C   UNL A   1      41.026  25.983  28.044  1.00  0.00     0.188 C 
BRANCH  39  40
ATOM     40  O   UNL A   1      41.184  24.633  28.478  1.00  0.00    -0.376 OA
BRANCH  40  41
ATOM     41  C   UNL A   1      40.379  23.650  27.831  1.00  0.00     0.202 C 
BRANCH  41  42
ATOM     42  C   UNL A   1      41.115  22.767  26.811  1.00  0.00     0.261 C 
BRANCH  42  43
ATOM     43  O   UNL A   1      42.553  22.796  26.892  1.00  0.00    -0.460 OA
BRANCH  43  44
ATOM     44  C   UNL A   1      43.239  23.146  25.786  1.00  0.00     0.338 C 
ATOM     45  O   UNL A   1      43.223  22.599  24.700  1.00  0.00    -0.246 OA
BRANCH  44  46
ATOM     46  C   UNL A   1      43.888  24.445  26.045  1.00  0.00     0.060 A 
ATOM     47  C   UNL A   1      43.968  25.370  24.997  1.00  0.00     0.016 A 
ATOM     48  C   UNL A   1      44.452  24.731  27.291  1.00  0.00     0.016 A 
ATOM     49  C   UNL A   1      44.666  26.563  25.174  1.00  0.00     0.010 A 
ATOM     50  C   UNL A   1      45.169  25.917  27.463  1.00  0.00     0.010 A 
ATOM     51  C   UNL A   1      45.316  26.815  26.391  1.00  0.00    -0.014 A 
BRANCH  51  52
ATOM     52  C   UNL A   1      46.335  27.888  26.461  1.00  0.00     0.031 A 
ATOM     53  C   UNL A   1      45.866  29.292  26.727  1.00  0.00     0.074 A 
ATOM     54  C   UNL A   1      47.644  27.625  26.316  1.00  0.00     0.049 A 
ATOM     55  N   UNL A   1      46.557  30.399  26.818  1.00  0.00    -0.248 NA
ATOM     56  C   UNL A   1      44.417  29.469  26.915  1.00  0.00     0.031 C 
ATOM     57  C   UNL A   1      48.221  26.302  26.094  1.00  0.00     0.029 A 
ATOM     58  N   UNL A   1      48.724  28.470  26.332  1.00  0.00    -0.354 N 
ATOM     59  C   UNL A   1      45.630  31.399  27.076  1.00  0.00     0.074 A 
ATOM     60  C   UNL A   1      44.324  30.778  27.095  1.00  0.00     0.031 C 
ATOM     61  C   UNL A   1      49.556  26.425  25.983  1.00  0.00     0.029 A 
ATOM     62  C   UNL A   1      49.920  27.836  26.103  1.00  0.00     0.049 A 
ATOM     63  H   UNL A   1      48.650  29.438  26.492  1.00  0.00     0.167 HD
ATOM     64  C   UNL A   1      45.847  32.718  27.287  1.00  0.00     0.037 A 
ATOM     65  C   UNL A   1      51.162  28.346  25.991  1.00  0.00     0.037 A 
ATOM     66  C   UNL A   1      47.143  33.339  27.255  1.00  0.00     0.049 A 
ATOM     67  C   UNL A   1      51.369  29.831  26.151  1.00  0.00     0.074 A 
ATOM     68  C   UNL A   1      47.471  34.666  27.469  1.00  0.00     0.029 A 
ATOM     69  N   UNL A   1      48.327  32.671  26.982  1.00  0.00    -0.354 N 
ATOM     70  N   UNL A   1      50.493  30.767  26.425  1.00  0.00    -0.248 NA
ATOM     71  C   UNL A   1      52.744  30.330  25.988  1.00  0.00     0.031 C 
ATOM     72  C   UNL A   1      48.849  34.809  27.277  1.00  0.00     0.029 A 
ATOM     73  C   UNL A   1      49.386  33.563  26.994  1.00  0.00     0.049 A 
ATOM     74  H   UNL A   1      48.404  31.705  26.806  1.00  0.00     0.167 HD
ATOM     75  C   UNL A   1      51.209  31.956  26.492  1.00  0.00     0.074 A 
ATOM     76  C   UNL A   1      52.595  31.623  26.240  1.00  0.00     0.031 C 
ATOM     77  C   UNL A   1      50.760  33.210  26.744  1.00  0.00     0.037 A 
BRANCH  64  78
ATOM     78  C   UNL A   1      44.645  33.577  27.540  1.00  0.00     0.064 A 
ATOM     79  C   UNL A   1      44.005  34.271  26.502  1.00  0.00     0.173 A 
ATOM     80  C   UNL A   1      44.124  33.705  28.836  1.00  0.00     0.173 A 
ATOM     81  F   UNL A   1      44.478  34.197  25.248  1.00  0.00    -0.203 F 
ATOM     82  C   UNL A   1      42.905  35.086  26.757  1.00  0.00     0.198 A 
ATOM     83  C   UNL A   1      43.008  34.500  29.084  1.00  0.00     0.198 A 
ATOM     84  F   UNL A   1      44.701  33.064  29.863  1.00  0.00    -0.203 F 
ATOM     85  F   UNL A   1      42.342  35.781  25.760  1.00  0.00    -0.200 F 
ATOM     86  C   UNL A   1      42.405  35.196  28.047  1.00  0.00     0.200 A 
ATOM     87  F   UNL A   1      42.523  34.600  30.328  1.00  0.00    -0.200 F 
ATOM     88  F   UNL A   1      41.347  35.981  28.292  1.00  0.00    -0.200 F 
ENDBRANCH  64  78
BRANCH  65  89
ATOM     89  C   UNL A   1      52.309  27.448  25.706  1.00  0.00     0.064 A 
ATOM     90  C   UNL A   1      52.785  27.276  24.399  1.00  0.00     0.173 A 
ATOM     91  C   UNL A   1      52.944  26.732  26.732  1.00  0.00     0.173 A 
ATOM     92  F   UNL A   1      52.191  27.917  23.382  1.00  0.00    -0.203 F 
ATOM     93  C   UNL A   1      53.844  26.412  24.127  1.00  0.00     0.198 A 
ATOM     94  C   UNL A   1      54.017  25.887  26.462  1.00  0.00     0.198 A 
ATOM     95  F   UNL A   1      52.520  26.858  27.999  1.00  0.00    -0.203 F 
ATOM     96  F   UNL A   1      54.251  26.233  22.863  1.00  0.00    -0.200 F 
ATOM     97  C   UNL A   1      54.463  25.722  25.159  1.00  0.00     0.200 A 
ATOM     98  F   UNL A   1      54.614  25.225  27.463  1.00  0.00    -0.200 F 
ATOM     99  F   UNL A   1      55.480  24.891  24.896  1.00  0.00    -0.200 F 
ENDBRANCH  65  89
BRANCH  77 100
ATOM    100  C   UNL A   1      51.778  34.313  26.791  1.00  0.00     0.064 A 
ATOM    101  C   UNL A   1      52.089  35.074  25.655  1.00  0.00     0.173 A 
ATOM    102  C   UNL A   1      52.409  34.646  27.999  1.00  0.00     0.173 A 
ATOM    103  F   UNL A   1      51.522  34.787  24.474  1.00  0.00    -0.203 F 
ATOM    104  C   UNL A   1      53.010  36.116  25.723  1.00  0.00     0.198 A 
ATOM    105  C   UNL A   1      53.310  35.705  28.069  1.00  0.00     0.198 A 
ATOM    106  F   UNL A   1      52.140  33.953  29.115  1.00  0.00    -0.203 F 
ATOM    107  F   UNL A   1      53.322  36.806  24.617  1.00  0.00    -0.200 F 
ATOM    108  C   UNL A   1      53.614  36.435  26.931  1.00  0.00     0.200 A 
ATOM    109  F   UNL A   1      53.881  36.020  29.240  1.00  0.00    -0.200 F 
ATOM    110  F   UNL A   1      54.493  37.445  26.996  1.00  0.00    -0.200 F 
ENDBRANCH  77 100
ENDBRANCH  51  52
ENDBRANCH  44  46
ENDBRANCH  43  44
ENDBRANCH  42  43
ENDBRANCH  41  42
ENDBRANCH  40  41
ENDBRANCH  39  40
ENDBRANCH  38  39
ENDBRANCH  37  38
ENDBRANCH  36  37
ENDBRANCH   1  36
TORSDOF 25
ENDMDL
