MODEL 1
REMARK VINA RESULT:     -10.2      0.000      0.000
REMARK SMILES CN1C=C/C(=C\C=C/C=N\c2ccc(C(=O)OCCOCCOCCOCCOC(=O)c3ccc(-c4c5nc(c(-c6c(F)c(F)c(F)c(F)c6F)c6ccc([nH]6)c(-c6c(F)c(F)c(F)c(F)c6F)c6nc(c(-c7c(F)c(F)c(F)c(F)c7F)c7ccc4[nH]7)C=C6)C=C5)cc3)cc2)c2ccccc21
REMARK SMILES IDX 22 1 21 2 20 3 19 4 18 5 17 6 15 7 16 8 14 9 11 10 12 11
REMARK SMILES IDX 96 12 13 13 95 14 10 15 9 16 8 17 7 18 6 19 1 20 2 21 3 22
REMARK SMILES IDX 102 23 4 24 97 25 101 26 5 27 98 28 100 29 99 30 23 31 24 32
REMARK SMILES IDX 25 33 26 34 27 35 28 36 29 37 30 38 31 39 32 40 33 41 94 42
REMARK SMILES IDX 34 43 93 44 35 45 36 46 37 47 87 48 38 49 92 50 86 51 88 52
REMARK SMILES IDX 39 53 91 54 85 55 84 56 40 58 72 59 52 60 71 61 53 62 56 63
REMARK SMILES IDX 70 64 89 65 54 66 55 67 69 69 90 70 57 71 41 72 42 73 50 74
REMARK SMILES IDX 43 75 44 76 48 77 51 78 45 79 46 80 49 81 47 82 73 83 74 84
REMARK SMILES IDX 82 85 75 86 76 87 80 88 83 89 77 90 78 91 81 92 79 93 58 94
REMARK SMILES IDX 59 95 67 96 60 97 61 98 65 99 68 100 62 101 63 102 66 103
REMARK SMILES IDX 64 104
REMARK H PARENT 88 57 56 68
REMARK Flexibility Score: inf
ROOT
ATOM      1  C   UNL A   1      37.180  20.745  25.327  1.00  0.00     0.188 C 
ENDROOT
BRANCH   1   2
ATOM      2  C   UNL A   1      37.491  19.315  24.850  1.00  0.00     0.188 C 
BRANCH   2   3
ATOM      3  O   UNL A   1      36.406  18.405  25.000  1.00  0.00    -0.376 OA
BRANCH   3   4
ATOM      4  C   UNL A   1      36.733  17.108  25.480  1.00  0.00     0.202 C 
BRANCH   4   5
ATOM      5  C   UNL A   1      35.604  16.072  25.377  1.00  0.00     0.261 C 
BRANCH   5   6
ATOM      6  O   UNL A   1      34.759  16.221  24.226  1.00  0.00    -0.460 OA
BRANCH   6   7
ATOM      7  C   UNL A   1      33.430  16.338  24.451  1.00  0.00     0.338 C 
ATOM      8  O   UNL A   1      32.686  15.462  24.856  1.00  0.00    -0.246 OA
BRANCH   7   9
ATOM      9  C   UNL A   1      33.061  17.774  24.340  1.00  0.00     0.060 A 
ATOM     10  C   UNL A   1      32.149  20.425  24.070  1.00  0.00     0.063 A 
ATOM     11  C   UNL A   1      32.265  19.595  22.950  1.00  0.00     0.029 A 
ATOM     12  C   UNL A   1      32.526  19.923  25.321  1.00  0.00     0.029 A 
ATOM     13  C   UNL A   1      32.708  18.274  23.081  1.00  0.00     0.018 A 
ATOM     14  C   UNL A   1      32.975  18.605  25.463  1.00  0.00     0.018 A 
BRANCH  10  15
ATOM     15  N   UNL A   1      31.793  21.775  23.968  1.00  0.00    -0.257 NA
ATOM     16  C   UNL A   1      32.660  22.735  23.908  1.00  0.00     0.111 C 
BRANCH  16  17
ATOM     17  C   UNL A   1      34.145  22.680  23.884  1.00  0.00     0.020 C 
ATOM     18  C   UNL A   1      34.977  23.639  24.328  1.00  0.00     0.002 C 
BRANCH  18  19
ATOM     19  C   UNL A   1      34.640  24.929  24.917  1.00  0.00     0.009 C 
ATOM     20  C   UNL A   1      31.877  29.203  22.377  1.00  0.00     0.149 C 
ATOM     21  N   UNL A   1      32.524  28.105  23.096  1.00  0.00    -0.351 N 
ATOM     22  C   UNL A   1      32.851  26.937  22.433  1.00  0.00     0.086 C 
ATOM     23  C   UNL A   1      32.943  28.283  24.447  1.00  0.00     0.048 A 
ATOM     24  C   UNL A   1      33.517  25.903  22.959  1.00  0.00     0.026 C 
ATOM     25  C   UNL A   1      33.659  27.236  25.118  1.00  0.00     0.005 A 
ATOM     26  C   UNL A   1      32.658  29.462  25.168  1.00  0.00     0.027 A 
ATOM     27  C   UNL A   1      33.969  25.961  24.348  1.00  0.00    -0.015 C 
ATOM     28  C   UNL A   1      34.034  27.428  26.464  1.00  0.00     0.011 A 
ATOM     29  C   UNL A   1      33.034  29.616  26.504  1.00  0.00     0.002 A 
ATOM     30  C   UNL A   1      33.720  28.602  27.150  1.00  0.00     0.001 A 
ENDBRANCH  18  19
ENDBRANCH  16  17
ENDBRANCH  10  15
ENDBRANCH   7   9
ENDBRANCH   6   7
ENDBRANCH   5   6
ENDBRANCH   4   5
ENDBRANCH   3   4
ENDBRANCH   2   3
ENDBRANCH   1   2
BRANCH   1  31
ATOM     31  O   UNL A   1      38.117  21.762  25.014  1.00  0.00    -0.377 OA
BRANCH  31  32
ATOM     32  C   UNL A   1      38.812  22.421  26.068  1.00  0.00     0.188 C 
BRANCH  32  33
ATOM     33  C   UNL A   1      40.023  21.780  26.789  1.00  0.00     0.188 C 
BRANCH  33  34
ATOM     34  O   UNL A   1      40.676  20.749  26.064  1.00  0.00    -0.376 OA
BRANCH  34  35
ATOM     35  C   UNL A   1      41.008  19.578  26.792  1.00  0.00     0.202 C 
BRANCH  35  36
ATOM     36  C   UNL A   1      42.088  18.716  26.129  1.00  0.00     0.261 C 
BRANCH  36  37
ATOM     37  O   UNL A   1      42.656  19.264  24.930  1.00  0.00    -0.460 OA
BRANCH  37  38
ATOM     38  C   UNL A   1      43.969  19.595  24.953  1.00  0.00     0.338 C 
ATOM     39  O   UNL A   1      44.903  18.945  24.541  1.00  0.00    -0.246 OA
BRANCH  38  40
ATOM     40  C   UNL A   1      44.045  21.003  25.407  1.00  0.00     0.060 A 
ATOM     41  C   UNL A   1      44.146  21.298  26.768  1.00  0.00     0.016 A 
ATOM     42  C   UNL A   1      43.959  22.031  24.461  1.00  0.00     0.016 A 
ATOM     43  C   UNL A   1      44.190  22.628  27.184  1.00  0.00     0.010 A 
ATOM     44  C   UNL A   1      43.989  23.364  24.879  1.00  0.00     0.010 A 
ATOM     45  C   UNL A   1      44.130  23.670  26.241  1.00  0.00    -0.014 A 
BRANCH  45  46
ATOM     46  C   UNL A   1      44.429  25.058  26.667  1.00  0.00     0.031 A 
ATOM     47  C   UNL A   1      45.803  25.647  26.587  1.00  0.00     0.074 A 
ATOM     48  C   UNL A   1      43.404  25.790  27.143  1.00  0.00     0.049 A 
ATOM     49  N   UNL A   1      46.187  26.868  26.867  1.00  0.00    -0.248 NA
ATOM     50  C   UNL A   1      46.885  24.759  26.142  1.00  0.00     0.031 C 
ATOM     51  C   UNL A   1      42.030  25.306  27.283  1.00  0.00     0.029 A 
ATOM     52  N   UNL A   1      43.353  27.084  27.590  1.00  0.00    -0.354 N 
ATOM     53  C   UNL A   1      47.550  26.908  26.610  1.00  0.00     0.074 A 
ATOM     54  C   UNL A   1      47.935  25.573  26.195  1.00  0.00     0.031 C 
ATOM     55  C   UNL A   1      41.265  26.298  27.763  1.00  0.00     0.029 A 
ATOM     56  C   UNL A   1      42.098  27.474  27.986  1.00  0.00     0.049 A 
ATOM     57  H   UNL A   1      44.139  27.677  27.623  1.00  0.00     0.167 HD
ATOM     58  C   UNL A   1      48.390  27.967  26.702  1.00  0.00     0.037 A 
ATOM     59  C   UNL A   1      41.662  28.652  28.470  1.00  0.00     0.037 A 
ATOM     60  C   UNL A   1      47.999  29.287  27.137  1.00  0.00     0.049 A 
ATOM     61  C   UNL A   1      42.628  29.794  28.605  1.00  0.00     0.074 A 
ATOM     62  C   UNL A   1      48.778  30.429  27.232  1.00  0.00     0.029 A 
ATOM     63  N   UNL A   1      46.727  29.640  27.563  1.00  0.00    -0.354 N 
ATOM     64  N   UNL A   1      43.900  29.839  28.296  1.00  0.00    -0.248 NA
ATOM     65  C   UNL A   1      42.094  31.051  29.144  1.00  0.00     0.031 C 
ATOM     66  C   UNL A   1      47.992  31.455  27.766  1.00  0.00     0.029 A 
ATOM     67  C   UNL A   1      46.707  30.974  27.948  1.00  0.00     0.049 A 
ATOM     68  H   UNL A   1      45.951  29.034  27.590  1.00  0.00     0.167 HD
ATOM     69  C   UNL A   1      44.314  31.133  28.576  1.00  0.00     0.074 A 
ATOM     70  C   UNL A   1      43.152  31.846  29.067  1.00  0.00     0.031 C 
ATOM     71  C   UNL A   1      45.547  31.678  28.436  1.00  0.00     0.037 A 
BRANCH  58  72
ATOM     72  C   UNL A   1      49.827  27.765  26.311  1.00  0.00     0.064 A 
ATOM     73  C   UNL A   1      50.821  27.551  27.277  1.00  0.00     0.173 A 
ATOM     74  C   UNL A   1      50.197  27.677  24.960  1.00  0.00     0.173 A 
ATOM     75  F   UNL A   1      50.521  27.625  28.582  1.00  0.00    -0.203 F 
ATOM     76  C   UNL A   1      52.133  27.266  26.906  1.00  0.00     0.198 A 
ATOM     77  C   UNL A   1      51.505  27.365  24.592  1.00  0.00     0.198 A 
ATOM     78  F   UNL A   1      49.283  27.860  23.994  1.00  0.00    -0.203 F 
ATOM     79  F   UNL A   1      53.071  27.086  27.847  1.00  0.00    -0.200 F 
ATOM     80  C   UNL A   1      52.471  27.163  25.565  1.00  0.00     0.200 A 
ATOM     81  F   UNL A   1      51.825  27.247  23.296  1.00  0.00    -0.200 F 
ATOM     82  F   UNL A   1      53.730  26.866  25.210  1.00  0.00    -0.200 F 
ENDBRANCH  58  72
BRANCH  59  83
ATOM     83  C   UNL A   1      40.228  28.808  28.817  1.00  0.00     0.064 A 
ATOM     84  C   UNL A   1      39.790  28.655  30.139  1.00  0.00     0.173 A 
ATOM     85  C   UNL A   1      39.276  29.154  27.847  1.00  0.00     0.173 A 
ATOM     86  F   UNL A   1      40.663  28.310  31.098  1.00  0.00    -0.203 F 
ATOM     87  C   UNL A   1      38.452  28.835  30.477  1.00  0.00     0.198 A 
ATOM     88  C   UNL A   1      37.943  29.361  28.192  1.00  0.00     0.198 A 
ATOM     89  F   UNL A   1      39.649  29.320  26.569  1.00  0.00    -0.203 F 
ATOM     90  F   UNL A   1      38.054  28.654  31.743  1.00  0.00    -0.200 F 
ATOM     91  C   UNL A   1      37.531  29.197  29.505  1.00  0.00     0.200 A 
ATOM     92  F   UNL A   1      37.061  29.728  27.253  1.00  0.00    -0.200 F 
ATOM     93  F   UNL A   1      36.245  29.385  29.833  1.00  0.00    -0.200 F 
ENDBRANCH  59  83
BRANCH  71  94
ATOM     94  C   UNL A   1      45.706  33.127  28.797  1.00  0.00     0.064 A 
ATOM     95  C   UNL A   1      45.997  33.533  30.108  1.00  0.00     0.173 A 
ATOM     96  C   UNL A   1      45.617  34.120  27.808  1.00  0.00     0.173 A 
ATOM     97  F   UNL A   1      46.079  32.625  31.093  1.00  0.00    -0.203 F 
ATOM     98  C   UNL A   1      46.170  34.879  30.421  1.00  0.00     0.198 A 
ATOM     99  C   UNL A   1      45.820  35.462  28.119  1.00  0.00     0.198 A 
ATOM    100  F   UNL A   1      45.346  33.788  26.537  1.00  0.00    -0.203 F 
ATOM    101  F   UNL A   1      46.403  35.246  31.688  1.00  0.00    -0.200 F 
ATOM    102  C   UNL A   1      46.090  35.841  29.425  1.00  0.00     0.200 A 
ATOM    103  F   UNL A   1      45.758  36.389  27.153  1.00  0.00    -0.200 F 
ATOM    104  F   UNL A   1      46.268  37.135  29.725  1.00  0.00    -0.200 F 
ENDBRANCH  71  94
ENDBRANCH  45  46
ENDBRANCH  38  40
ENDBRANCH  37  38
ENDBRANCH  36  37
ENDBRANCH  35  36
ENDBRANCH  34  35
ENDBRANCH  33  34
ENDBRANCH  32  33
ENDBRANCH  31  32
ENDBRANCH   1  31
TORSDOF 23
ENDMDL
MODEL 2
REMARK VINA RESULT:     -10.1      5.421      8.997
REMARK SMILES CN1C=C/C(=C\C=C/C=N\c2ccc(C(=O)OCCOCCOCCOCCOC(=O)c3ccc(-c4c5nc(c(-c6c(F)c(F)c(F)c(F)c6F)c6ccc([nH]6)c(-c6c(F)c(F)c(F)c(F)c6F)c6nc(c(-c7c(F)c(F)c(F)c(F)c7F)c7ccc4[nH]7)C=C6)C=C5)cc3)cc2)c2ccccc21
REMARK SMILES IDX 22 1 21 2 20 3 19 4 18 5 17 6 15 7 16 8 14 9 11 10 12 11
REMARK SMILES IDX 96 12 13 13 95 14 10 15 9 16 8 17 7 18 6 19 1 20 2 21 3 22
REMARK SMILES IDX 102 23 4 24 97 25 101 26 5 27 98 28 100 29 99 30 23 31 24 32
REMARK SMILES IDX 25 33 26 34 27 35 28 36 29 37 30 38 31 39 32 40 33 41 94 42
REMARK SMILES IDX 34 43 93 44 35 45 36 46 37 47 87 48 38 49 92 50 86 51 88 52
REMARK SMILES IDX 39 53 91 54 85 55 84 56 40 58 72 59 52 60 71 61 53 62 56 63
REMARK SMILES IDX 70 64 89 65 54 66 55 67 69 69 90 70 57 71 41 72 42 73 50 74
REMARK SMILES IDX 43 75 44 76 48 77 51 78 45 79 46 80 49 81 47 82 73 83 74 84
REMARK SMILES IDX 82 85 75 86 76 87 80 88 83 89 77 90 78 91 81 92 79 93 58 94
REMARK SMILES IDX 59 95 67 96 60 97 61 98 65 99 68 100 62 101 63 102 66 103
REMARK SMILES IDX 64 104
REMARK H PARENT 88 57 56 68
REMARK Flexibility Score: inf
ROOT
ATOM      1  C   UNL A   1      43.166  18.247  25.722  1.00  0.00     0.188 C 
ENDROOT
BRANCH   1   2
ATOM      2  C   UNL A   1      42.237  19.361  26.237  1.00  0.00     0.188 C 
BRANCH   2   3
ATOM      3  O   UNL A   1      42.796  20.667  26.153  1.00  0.00    -0.376 OA
BRANCH   3   4
ATOM      4  C   UNL A   1      41.877  21.750  26.182  1.00  0.00     0.202 C 
BRANCH   4   5
ATOM      5  C   UNL A   1      42.513  23.146  26.116  1.00  0.00     0.261 C 
BRANCH   5   6
ATOM      6  O   UNL A   1      43.121  23.585  27.341  1.00  0.00    -0.460 OA
BRANCH   6   7
ATOM      7  C   UNL A   1      42.309  23.726  28.413  1.00  0.00     0.338 C 
ATOM      8  O   UNL A   1      42.307  23.030  29.414  1.00  0.00    -0.246 OA
BRANCH   7   9
ATOM      9  C   UNL A   1      41.569  25.008  28.275  1.00  0.00     0.060 A 
ATOM     10  C   UNL A   1      40.311  27.491  27.842  1.00  0.00     0.063 A 
ATOM     11  C   UNL A   1      41.616  27.433  28.341  1.00  0.00     0.029 A 
ATOM     12  C   UNL A   1      39.632  26.293  27.594  1.00  0.00     0.029 A 
ATOM     13  C   UNL A   1      42.249  26.201  28.548  1.00  0.00     0.018 A 
ATOM     14  C   UNL A   1      40.253  25.056  27.802  1.00  0.00     0.018 A 
BRANCH  10  15
ATOM     15  N   UNL A   1      39.615  28.698  27.703  1.00  0.00    -0.257 NA
ATOM     16  C   UNL A   1      38.759  29.127  28.573  1.00  0.00     0.111 C 
BRANCH  16  17
ATOM     17  C   UNL A   1      38.343  28.541  29.874  1.00  0.00     0.020 C 
ATOM     18  C   UNL A   1      37.391  29.026  30.690  1.00  0.00     0.002 C 
BRANCH  18  19
ATOM     19  C   UNL A   1      36.564  30.212  30.511  1.00  0.00     0.009 C 
ATOM     20  C   UNL A   1      35.518  34.238  34.391  1.00  0.00     0.149 C 
ATOM     21  N   UNL A   1      35.817  33.268  33.338  1.00  0.00    -0.351 N 
ATOM     22  C   UNL A   1      36.571  32.144  33.621  1.00  0.00     0.086 C 
ATOM     23  C   UNL A   1      35.225  33.405  32.049  1.00  0.00     0.048 A 
ATOM     24  C   UNL A   1      36.838  31.150  32.767  1.00  0.00     0.026 C 
ATOM     25  C   UNL A   1      35.449  32.402  31.047  1.00  0.00     0.005 A 
ATOM     26  C   UNL A   1      34.428  34.518  31.708  1.00  0.00     0.027 A 
ATOM     27  C   UNL A   1      36.307  31.198  31.407  1.00  0.00    -0.015 C 
ATOM     28  C   UNL A   1      34.874  32.579  29.772  1.00  0.00     0.011 A 
ATOM     29  C   UNL A   1      33.882  34.670  30.432  1.00  0.00     0.002 A 
ATOM     30  C   UNL A   1      34.104  33.703  29.466  1.00  0.00     0.001 A 
ENDBRANCH  18  19
ENDBRANCH  16  17
ENDBRANCH  10  15
ENDBRANCH   7   9
ENDBRANCH   6   7
ENDBRANCH   5   6
ENDBRANCH   4   5
ENDBRANCH   3   4
ENDBRANCH   2   3
ENDBRANCH   1   2
BRANCH   1  31
ATOM     31  O   UNL A   1      44.563  18.425  25.887  1.00  0.00    -0.377 OA
BRANCH  31  32
ATOM     32  C   UNL A   1      45.348  18.852  24.778  1.00  0.00     0.188 C 
BRANCH  32  33
ATOM     33  C   UNL A   1      46.228  20.124  24.829  1.00  0.00     0.188 C 
BRANCH  33  34
ATOM     34  O   UNL A   1      45.613  21.300  24.325  1.00  0.00    -0.376 OA
BRANCH  34  35
ATOM     35  C   UNL A   1      45.822  22.490  25.068  1.00  0.00     0.202 C 
BRANCH  35  36
ATOM     36  C   UNL A   1      46.432  23.636  24.254  1.00  0.00     0.261 C 
BRANCH  36  37
ATOM     37  O   UNL A   1      45.994  24.951  24.627  1.00  0.00    -0.460 OA
BRANCH  37  38
ATOM     38  C   UNL A   1      46.932  25.926  24.699  1.00  0.00     0.338 C 
ATOM     39  O   UNL A   1      47.906  26.069  23.994  1.00  0.00    -0.246 OA
BRANCH  38  40
ATOM     40  C   UNL A   1      46.445  26.914  25.688  1.00  0.00     0.060 A 
ATOM     41  C   UNL A   1      45.084  27.220  25.764  1.00  0.00     0.016 A 
ATOM     42  C   UNL A   1      47.369  27.575  26.506  1.00  0.00     0.016 A 
ATOM     43  C   UNL A   1      44.642  28.172  26.682  1.00  0.00     0.010 A 
ATOM     44  C   UNL A   1      46.927  28.538  27.416  1.00  0.00     0.010 A 
ATOM     45  C   UNL A   1      45.557  28.824  27.527  1.00  0.00    -0.014 A 
BRANCH  45  46
ATOM     46  C   UNL A   1      45.054  29.638  28.659  1.00  0.00     0.031 A 
ATOM     47  C   UNL A   1      44.809  31.110  28.546  1.00  0.00     0.074 A 
ATOM     48  C   UNL A   1      44.823  28.999  29.821  1.00  0.00     0.049 A 
ATOM     49  N   UNL A   1      44.310  31.927  29.441  1.00  0.00    -0.248 NA
ATOM     50  C   UNL A   1      45.170  31.752  27.276  1.00  0.00     0.031 C 
ATOM     51  C   UNL A   1      45.048  27.570  30.045  1.00  0.00     0.029 A 
ATOM     52  N   UNL A   1      44.347  29.457  31.022  1.00  0.00    -0.354 N 
ATOM     53  C   UNL A   1      44.273  33.176  28.838  1.00  0.00     0.074 A 
ATOM     54  C   UNL A   1      44.843  33.018  27.515  1.00  0.00     0.031 C 
ATOM     55  C   UNL A   1      44.692  27.264  31.301  1.00  0.00     0.029 A 
ATOM     56  C   UNL A   1      44.238  28.475  31.975  1.00  0.00     0.049 A 
ATOM     57  H   UNL A   1      44.107  30.398  31.186  1.00  0.00     0.167 HD
ATOM     58  C   UNL A   1      43.792  34.338  29.345  1.00  0.00     0.037 A 
ATOM     59  C   UNL A   1      43.812  28.539  33.250  1.00  0.00     0.037 A 
ATOM     60  C   UNL A   1      43.246  34.488  30.673  1.00  0.00     0.049 A 
ATOM     61  C   UNL A   1      43.329  29.852  33.798  1.00  0.00     0.074 A 
ATOM     62  C   UNL A   1      42.708  35.622  31.261  1.00  0.00     0.029 A 
ATOM     63  N   UNL A   1      43.180  33.480  31.625  1.00  0.00    -0.354 N 
ATOM     64  N   UNL A   1      43.236  31.012  33.197  1.00  0.00    -0.248 NA
ATOM     65  C   UNL A   1      42.883  29.860  35.197  1.00  0.00     0.031 C 
ATOM     66  C   UNL A   1      42.367  35.314  32.582  1.00  0.00     0.029 A 
ATOM     67  C   UNL A   1      42.635  33.974  32.803  1.00  0.00     0.049 A 
ATOM     68  H   UNL A   1      43.476  32.552  31.486  1.00  0.00     0.167 HD
ATOM     69  C   UNL A   1      42.696  31.882  34.133  1.00  0.00     0.074 A 
ATOM     70  C   UNL A   1      42.468  31.112  35.338  1.00  0.00     0.031 C 
ATOM     71  C   UNL A   1      42.413  33.201  34.000  1.00  0.00     0.037 A 
BRANCH  58  72
ATOM     72  C   UNL A   1      43.813  35.555  28.464  1.00  0.00     0.064 A 
ATOM     73  C   UNL A   1      42.646  36.023  27.841  1.00  0.00     0.173 A 
ATOM     74  C   UNL A   1      44.981  36.320  28.325  1.00  0.00     0.173 A 
ATOM     75  F   UNL A   1      41.502  35.329  27.940  1.00  0.00    -0.203 F 
ATOM     76  C   UNL A   1      42.651  37.205  27.105  1.00  0.00     0.198 A 
ATOM     77  C   UNL A   1      44.976  37.516  27.611  1.00  0.00     0.198 A 
ATOM     78  F   UNL A   1      46.122  35.925  28.911  1.00  0.00    -0.203 F 
ATOM     79  F   UNL A   1      41.529  37.622  26.501  1.00  0.00    -0.200 F 
ATOM     80  C   UNL A   1      43.812  37.956  27.000  1.00  0.00     0.200 A 
ATOM     81  F   UNL A   1      46.095  38.250  27.526  1.00  0.00    -0.200 F 
ATOM     82  F   UNL A   1      43.809  39.106  26.310  1.00  0.00    -0.200 F 
ENDBRANCH  58  72
BRANCH  59  83
ATOM     83  C   UNL A   1      43.787  27.303  34.070  1.00  0.00     0.064 A 
ATOM     84  C   UNL A   1      44.960  26.806  34.650  1.00  0.00     0.173 A 
ATOM     85  C   UNL A   1      42.588  26.622  34.326  1.00  0.00     0.173 A 
ATOM     86  F   UNL A   1      46.133  27.416  34.421  1.00  0.00    -0.203 F 
ATOM     87  C   UNL A   1      44.939  25.666  35.450  1.00  0.00     0.198 A 
ATOM     88  C   UNL A   1      42.563  25.499  35.149  1.00  0.00     0.198 A 
ATOM     89  F   UNL A   1      41.438  27.066  33.800  1.00  0.00    -0.203 F 
ATOM     90  F   UNL A   1      46.079  25.193  35.969  1.00  0.00    -0.200 F 
ATOM     91  C   UNL A   1      43.738  25.019  35.707  1.00  0.00     0.200 A 
ATOM     92  F   UNL A   1      41.400  24.888  35.409  1.00  0.00    -0.200 F 
ATOM     93  F   UNL A   1      43.715  23.931  36.489  1.00  0.00    -0.200 F 
ENDBRANCH  59  83
BRANCH  71  94
ATOM     94  C   UNL A   1      41.802  33.899  35.182  1.00  0.00     0.064 A 
ATOM     95  C   UNL A   1      40.415  33.934  35.381  1.00  0.00     0.173 A 
ATOM     96  C   UNL A   1      42.619  34.497  36.155  1.00  0.00     0.173 A 
ATOM     97  F   UNL A   1      39.589  33.390  34.474  1.00  0.00    -0.203 F 
ATOM     98  C   UNL A   1      39.866  34.562  36.497  1.00  0.00     0.198 A 
ATOM     99  C   UNL A   1      42.069  35.097  37.284  1.00  0.00     0.198 A 
ATOM    100  F   UNL A   1      43.954  34.488  36.017  1.00  0.00    -0.203 F 
ATOM    101  F   UNL A   1      38.535  34.621  36.643  1.00  0.00    -0.200 F 
ATOM    102  C   UNL A   1      40.693  35.134  37.451  1.00  0.00     0.200 A 
ATOM    103  F   UNL A   1      42.870  35.637  38.213  1.00  0.00    -0.200 F 
ATOM    104  F   UNL A   1      40.163  35.727  38.530  1.00  0.00    -0.200 F 
ENDBRANCH  71  94
ENDBRANCH  45  46
ENDBRANCH  38  40
ENDBRANCH  37  38
ENDBRANCH  36  37
ENDBRANCH  35  36
ENDBRANCH  34  35
ENDBRANCH  33  34
ENDBRANCH  32  33
ENDBRANCH  31  32
ENDBRANCH   1  31
TORSDOF 23
ENDMDL
MODEL 3
REMARK VINA RESULT:      -9.9      4.695      9.236
REMARK SMILES CN1C=C/C(=C\C=C/C=N\c2ccc(C(=O)OCCOCCOCCOCCOC(=O)c3ccc(-c4c5nc(c(-c6c(F)c(F)c(F)c(F)c6F)c6ccc([nH]6)c(-c6c(F)c(F)c(F)c(F)c6F)c6nc(c(-c7c(F)c(F)c(F)c(F)c7F)c7ccc4[nH]7)C=C6)C=C5)cc3)cc2)c2ccccc21
REMARK SMILES IDX 22 1 21 2 20 3 19 4 18 5 17 6 15 7 16 8 14 9 11 10 12 11
REMARK SMILES IDX 96 12 13 13 95 14 10 15 9 16 8 17 7 18 6 19 1 20 2 21 3 22
REMARK SMILES IDX 102 23 4 24 97 25 101 26 5 27 98 28 100 29 99 30 23 31 24 32
REMARK SMILES IDX 25 33 26 34 27 35 28 36 29 37 30 38 31 39 32 40 33 41 94 42
REMARK SMILES IDX 34 43 93 44 35 45 36 46 37 47 87 48 38 49 92 50 86 51 88 52
REMARK SMILES IDX 39 53 91 54 85 55 84 56 40 58 72 59 52 60 71 61 53 62 56 63
REMARK SMILES IDX 70 64 89 65 54 66 55 67 69 69 90 70 57 71 41 72 42 73 50 74
REMARK SMILES IDX 43 75 44 76 48 77 51 78 45 79 46 80 49 81 47 82 73 83 74 84
REMARK SMILES IDX 82 85 75 86 76 87 80 88 83 89 77 90 78 91 81 92 79 93 58 94
REMARK SMILES IDX 59 95 67 96 60 97 61 98 65 99 68 100 62 101 63 102 66 103
REMARK SMILES IDX 64 104
REMARK H PARENT 88 57 56 68
REMARK Flexibility Score: inf
ROOT
ATOM      1  C   UNL A   1      35.418  32.900  27.907  1.00  0.00     0.188 C 
ENDROOT
BRANCH   1   2
ATOM      2  C   UNL A   1      34.632  31.652  28.345  1.00  0.00     0.188 C 
BRANCH   2   3
ATOM      3  O   UNL A   1      34.345  30.746  27.285  1.00  0.00    -0.376 OA
BRANCH   3   4
ATOM      4  C   UNL A   1      33.120  30.950  26.594  1.00  0.00     0.202 C 
BRANCH   4   5
ATOM      5  C   UNL A   1      32.082  29.832  26.764  1.00  0.00     0.261 C 
BRANCH   5   6
ATOM      6  O   UNL A   1      32.629  28.558  27.136  1.00  0.00    -0.460 OA
BRANCH   6   7
ATOM      7  C   UNL A   1      31.841  27.474  26.956  1.00  0.00     0.338 C 
ATOM      8  O   UNL A   1      30.767  27.265  27.492  1.00  0.00    -0.246 OA
BRANCH   7   9
ATOM      9  C   UNL A   1      32.388  26.680  25.824  1.00  0.00     0.060 A 
ATOM     10  C   UNL A   1      33.354  25.346  23.539  1.00  0.00     0.063 A 
ATOM     11  C   UNL A   1      31.980  25.530  23.727  1.00  0.00     0.029 A 
ATOM     12  C   UNL A   1      34.235  25.808  24.523  1.00  0.00     0.029 A 
ATOM     13  C   UNL A   1      31.496  26.202  24.856  1.00  0.00     0.018 A 
ATOM     14  C   UNL A   1      33.762  26.477  25.658  1.00  0.00     0.018 A 
BRANCH  10  15
ATOM     15  N   UNL A   1      33.871  24.607  22.468  1.00  0.00    -0.257 NA
ATOM     16  C   UNL A   1      33.892  23.313  22.446  1.00  0.00     0.111 C 
BRANCH  16  17
ATOM     17  C   UNL A   1      33.378  22.331  23.437  1.00  0.00     0.020 C 
ATOM     18  C   UNL A   1      33.969  21.998  24.598  1.00  0.00     0.002 C 
BRANCH  18  19
ATOM     19  C   UNL A   1      35.223  22.496  25.151  1.00  0.00     0.009 C 
ATOM     20  C   UNL A   1      40.063  19.570  25.757  1.00  0.00     0.149 C 
ATOM     21  N   UNL A   1      38.865  20.384  25.553  1.00  0.00    -0.351 N 
ATOM     22  C   UNL A   1      37.705  19.806  25.070  1.00  0.00     0.086 C 
ATOM     23  C   UNL A   1      38.843  21.745  25.975  1.00  0.00     0.048 A 
ATOM     24  C   UNL A   1      36.529  20.426  24.922  1.00  0.00     0.026 C 
ATOM     25  C   UNL A   1      37.637  22.513  25.856  1.00  0.00     0.005 A 
ATOM     26  C   UNL A   1      39.988  22.384  26.497  1.00  0.00     0.027 A 
ATOM     27  C   UNL A   1      36.397  21.833  25.294  1.00  0.00    -0.015 C 
ATOM     28  C   UNL A   1      37.654  23.866  26.254  1.00  0.00     0.011 A 
ATOM     29  C   UNL A   1      39.976  23.729  26.872  1.00  0.00     0.002 A 
ATOM     30  C   UNL A   1      38.811  24.467  26.751  1.00  0.00     0.001 A 
ENDBRANCH  18  19
ENDBRANCH  16  17
ENDBRANCH  10  15
ENDBRANCH   7   9
ENDBRANCH   6   7
ENDBRANCH   5   6
ENDBRANCH   4   5
ENDBRANCH   3   4
ENDBRANCH   2   3
ENDBRANCH   1   2
BRANCH   1  31
ATOM     31  O   UNL A   1      35.070  34.140  28.500  1.00  0.00    -0.377 OA
BRANCH  31  32
ATOM     32  C   UNL A   1      33.811  34.273  29.153  1.00  0.00     0.188 C 
BRANCH  32  33
ATOM     33  C   UNL A   1      33.619  35.160  30.407  1.00  0.00     0.188 C 
BRANCH  33  34
ATOM     34  O   UNL A   1      33.526  34.452  31.634  1.00  0.00    -0.376 OA
BRANCH  34  35
ATOM     35  C   UNL A   1      34.734  33.914  32.147  1.00  0.00     0.202 C 
BRANCH  35  36
ATOM     36  C   UNL A   1      34.830  32.388  32.045  1.00  0.00     0.261 C 
BRANCH  36  37
ATOM     37  O   UNL A   1      35.962  31.894  31.313  1.00  0.00    -0.460 OA
BRANCH  37  38
ATOM     38  C   UNL A   1      36.723  30.942  31.904  1.00  0.00     0.338 C 
ATOM     39  O   UNL A   1      36.349  30.018  32.591  1.00  0.00    -0.246 OA
BRANCH  38  40
ATOM     40  C   UNL A   1      38.102  31.123  31.396  1.00  0.00     0.060 A 
ATOM     41  C   UNL A   1      38.332  31.269  30.026  1.00  0.00     0.016 A 
ATOM     42  C   UNL A   1      39.172  31.089  32.298  1.00  0.00     0.016 A 
ATOM     43  C   UNL A   1      39.638  31.412  29.558  1.00  0.00     0.010 A 
ATOM     44  C   UNL A   1      40.481  31.218  31.827  1.00  0.00     0.010 A 
ATOM     45  C   UNL A   1      40.720  31.406  30.457  1.00  0.00    -0.014 A 
BRANCH  45  46
ATOM     46  C   UNL A   1      42.065  31.807  29.982  1.00  0.00     0.031 A 
ATOM     47  C   UNL A   1      43.108  30.811  29.579  1.00  0.00     0.074 A 
ATOM     48  C   UNL A   1      42.330  33.126  29.926  1.00  0.00     0.049 A 
ATOM     49  N   UNL A   1      44.301  31.030  29.086  1.00  0.00    -0.248 NA
ATOM     50  C   UNL A   1      42.776  29.391  29.752  1.00  0.00     0.031 C 
ATOM     51  C   UNL A   1      41.394  34.180  30.315  1.00  0.00     0.029 A 
ATOM     52  N   UNL A   1      43.451  33.803  29.521  1.00  0.00    -0.354 N 
ATOM     53  C   UNL A   1      44.859  29.779  28.866  1.00  0.00     0.074 A 
ATOM     54  C   UNL A   1      43.889  28.803  29.323  1.00  0.00     0.031 C 
ATOM     55  C   UNL A   1      41.970  35.374  30.111  1.00  0.00     0.029 A 
ATOM     56  C   UNL A   1      43.321  35.167  29.601  1.00  0.00     0.049 A 
ATOM     57  H   UNL A   1      44.268  33.356  29.204  1.00  0.00     0.167 HD
ATOM     58  C   UNL A   1      46.063  29.482  28.319  1.00  0.00     0.037 A 
ATOM     59  C   UNL A   1      44.191  36.146  29.293  1.00  0.00     0.037 A 
ATOM     60  C   UNL A   1      47.031  30.462  27.887  1.00  0.00     0.049 A 
ATOM     61  C   UNL A   1      45.537  35.784  28.733  1.00  0.00     0.074 A 
ATOM     62  C   UNL A   1      48.266  30.253  27.294  1.00  0.00     0.029 A 
ATOM     63  N   UNL A   1      46.882  31.837  28.013  1.00  0.00    -0.354 N 
ATOM     64  N   UNL A   1      46.028  34.599  28.467  1.00  0.00    -0.248 NA
ATOM     65  C   UNL A   1      46.444  36.896  28.421  1.00  0.00     0.031 C 
ATOM     66  C   UNL A   1      48.884  31.494  27.112  1.00  0.00     0.029 A 
ATOM     67  C   UNL A   1      48.013  32.484  27.535  1.00  0.00     0.049 A 
ATOM     68  H   UNL A   1      46.090  32.287  28.387  1.00  0.00     0.167 HD
ATOM     69  C   UNL A   1      47.288  34.820  27.931  1.00  0.00     0.074 A 
ATOM     70  C   UNL A   1      47.481  36.256  27.897  1.00  0.00     0.031 C 
ATOM     71  C   UNL A   1      48.199  33.913  27.505  1.00  0.00     0.037 A 
BRANCH  58  72
ATOM     72  C   UNL A   1      46.416  28.033  28.134  1.00  0.00     0.064 A 
ATOM     73  C   UNL A   1      46.137  27.363  26.933  1.00  0.00     0.173 A 
ATOM     74  C   UNL A   1      47.133  27.338  29.119  1.00  0.00     0.173 A 
ATOM     75  F   UNL A   1      45.453  27.981  25.959  1.00  0.00    -0.203 F 
ATOM     76  C   UNL A   1      46.553  26.049  26.731  1.00  0.00     0.198 A 
ATOM     77  C   UNL A   1      47.572  26.033  28.904  1.00  0.00     0.198 A 
ATOM     78  F   UNL A   1      47.439  27.935  30.282  1.00  0.00    -0.203 F 
ATOM     79  F   UNL A   1      46.256  25.423  25.583  1.00  0.00    -0.200 F 
ATOM     80  C   UNL A   1      47.279  25.390  27.711  1.00  0.00     0.200 A 
ATOM     81  F   UNL A   1      48.290  25.404  29.844  1.00  0.00    -0.200 F 
ATOM     82  F   UNL A   1      47.700  24.133  27.505  1.00  0.00    -0.200 F 
ENDBRANCH  58  72
BRANCH  59  83
ATOM     83  C   UNL A   1      43.784  37.561  29.470  1.00  0.00     0.064 A 
ATOM     84  C   UNL A   1      43.076  38.233  28.465  1.00  0.00     0.173 A 
ATOM     85  C   UNL A   1      44.052  38.256  30.659  1.00  0.00     0.173 A 
ATOM     86  F   UNL A   1      42.809  37.614  27.305  1.00  0.00    -0.203 F 
ATOM     87  C   UNL A   1      42.659  39.551  28.638  1.00  0.00     0.198 A 
ATOM     88  C   UNL A   1      43.610  39.563  30.842  1.00  0.00     0.198 A 
ATOM     89  F   UNL A   1      44.719  37.651  31.653  1.00  0.00    -0.203 F 
ATOM     90  F   UNL A   1      42.010  40.181  27.650  1.00  0.00    -0.200 F 
ATOM     91  C   UNL A   1      42.918  40.211  29.830  1.00  0.00     0.200 A 
ATOM     92  F   UNL A   1      43.846  40.191  32.001  1.00  0.00    -0.200 F 
ATOM     93  F   UNL A   1      42.504  41.474  30.003  1.00  0.00    -0.200 F 
ENDBRANCH  59  83
BRANCH  71  94
ATOM     94  C   UNL A   1      49.488  34.441  26.940  1.00  0.00     0.064 A 
ATOM     95  C   UNL A   1      49.574  34.918  25.624  1.00  0.00     0.173 A 
ATOM     96  C   UNL A   1      50.638  34.517  27.742  1.00  0.00     0.173 A 
ATOM     97  F   UNL A   1      48.509  34.854  24.811  1.00  0.00    -0.203 F 
ATOM     98  C   UNL A   1      50.770  35.430  25.124  1.00  0.00     0.198 A 
ATOM     99  C   UNL A   1      51.822  35.057  27.248  1.00  0.00     0.198 A 
ATOM    100  F   UNL A   1      50.608  34.080  29.010  1.00  0.00    -0.203 F 
ATOM    101  F   UNL A   1      50.840  35.838  23.849  1.00  0.00    -0.200 F 
ATOM    102  C   UNL A   1      51.889  35.507  25.939  1.00  0.00     0.200 A 
ATOM    103  F   UNL A   1      52.898  35.146  28.042  1.00  0.00    -0.200 F 
ATOM    104  F   UNL A   1      53.035  36.011  25.460  1.00  0.00    -0.200 F 
ENDBRANCH  71  94
ENDBRANCH  45  46
ENDBRANCH  38  40
ENDBRANCH  37  38
ENDBRANCH  36  37
ENDBRANCH  35  36
ENDBRANCH  34  35
ENDBRANCH  33  34
ENDBRANCH  32  33
ENDBRANCH  31  32
ENDBRANCH   1  31
TORSDOF 23
ENDMDL
