MODEL 1
REMARK VINA RESULT:      -9.8      0.000      0.000
REMARK SMILES CC(C)C[C@@H](C(=O)OCCOCCOCCOCCOC(=O)c1ccc(-c2c3nc(c(-c4c(F)c(F)c(F)c(F)c4F)c4ccc([nH]4)c(-c4c(F)c(F)c(F)c(F)c4F)c4nc(c(-c5c(F)c(F)c(F)c(F)c5F)c5ccc2[nH]5)C=C4)C=C3)cc1)[C@@H]1CCC[C@@H](C)C1
REMARK SMILES IDX 14 1 13 2 12 3 11 4 10 5 9 6 8 7 6 8 7 9 5 10 4 11 2 12 1 13
REMARK SMILES IDX 3 14 86 15 87 16 92 17 88 18 90 19 89 20 91 21 15 22 16 23
REMARK SMILES IDX 17 24 18 25 19 26 20 27 21 28 22 29 23 30 24 31 85 32 25 33
REMARK SMILES IDX 84 34 26 35 27 36 28 37 78 38 29 39 83 40 77 41 79 42 30 43
REMARK SMILES IDX 82 44 76 45 75 46 31 48 63 49 43 50 62 51 44 52 47 53 61 54
REMARK SMILES IDX 80 55 45 56 46 57 60 59 81 60 48 61 32 62 33 63 41 64 34 65
REMARK SMILES IDX 35 66 39 67 42 68 36 69 37 70 40 71 38 72 64 73 65 74 73 75
REMARK SMILES IDX 66 76 67 77 71 78 74 79 68 80 69 81 72 82 70 83 49 84 50 85
REMARK SMILES IDX 58 86 51 87 52 88 56 89 59 90 53 91 54 92 57 93 55 94
REMARK H PARENT 79 47 47 58
REMARK Flexibility Score: inf
ROOT
ATOM      1  O   UNL A   1      39.576  21.415  27.017  1.00  0.00    -0.377 OA
ENDROOT
BRANCH   1   2
ATOM      2  C   UNL A   1      39.253  21.205  25.651  1.00  0.00     0.188 C 
BRANCH   2   3
ATOM      3  C   UNL A   1      37.814  21.651  25.396  1.00  0.00     0.188 C 
BRANCH   3   4
ATOM      4  O   UNL A   1      37.547  23.048  25.533  1.00  0.00    -0.376 OA
BRANCH   4   5
ATOM      5  C   UNL A   1      36.360  23.579  24.950  1.00  0.00     0.202 C 
BRANCH   5   6
ATOM      6  C   UNL A   1      35.769  22.937  23.668  1.00  0.00     0.261 C 
BRANCH   6   7
ATOM      7  O   UNL A   1      34.333  22.740  23.563  1.00  0.00    -0.463 OA
BRANCH   7   8
ATOM      8  C   UNL A   1      33.710  23.789  22.991  1.00  0.00     0.309 C 
ATOM      9  O   UNL A   1      33.839  24.029  21.789  1.00  0.00    -0.252 OA
BRANCH   8  10
ATOM     10  C   UNL A   1      32.847  24.725  23.854  1.00  0.00     0.102 C 
BRANCH  10  11
ATOM     11  C   UNL A   1      31.619  23.855  24.286  1.00  0.00     0.018 C 
BRANCH  11  12
ATOM     12  C   UNL A   1      31.706  23.205  25.683  1.00  0.00    -0.017 C 
ATOM     13  C   UNL A   1      30.522  23.607  26.561  1.00  0.00     0.007 C 
ATOM     14  C   UNL A   1      31.785  21.686  25.534  1.00  0.00     0.007 C 
ENDBRANCH  11  12
ENDBRANCH  10  11
BRANCH  10  15
ATOM     15  C   UNL A   1      32.302  26.167  23.536  1.00  0.00     0.003 C 
ATOM     16  C   UNL A   1      33.193  27.275  22.973  1.00  0.00     0.004 C 
ATOM     17  C   UNL A   1      31.493  26.700  24.765  1.00  0.00     0.007 C 
ATOM     18  C   UNL A   1      33.943  28.077  24.019  1.00  0.00     0.001 C 
ATOM     19  C   UNL A   1      32.393  27.352  25.825  1.00  0.00    -0.014 C 
ATOM     20  C   UNL A   1      33.098  28.549  25.191  1.00  0.00     0.003 C 
ATOM     21  C   UNL A   1      31.619  27.789  27.067  1.00  0.00     0.007 C 
ENDBRANCH  10  15
ENDBRANCH   8  10
ENDBRANCH   7   8
ENDBRANCH   6   7
ENDBRANCH   5   6
ENDBRANCH   4   5
ENDBRANCH   3   4
ENDBRANCH   2   3
ENDBRANCH   1   2
BRANCH   1  22
ATOM     22  C   UNL A   1      40.928  21.393  27.451  1.00  0.00     0.188 C 
BRANCH  22  23
ATOM     23  C   UNL A   1      41.712  20.094  27.292  1.00  0.00     0.188 C 
BRANCH  23  24
ATOM     24  O   UNL A   1      42.748  20.062  26.311  1.00  0.00    -0.376 OA
BRANCH  24  25
ATOM     25  C   UNL A   1      43.042  21.258  25.596  1.00  0.00     0.202 C 
BRANCH  25  26
ATOM     26  C   UNL A   1      44.485  21.758  25.657  1.00  0.00     0.261 C 
BRANCH  26  27
ATOM     27  O   UNL A   1      44.590  23.022  26.330  1.00  0.00    -0.460 OA
BRANCH  27  28
ATOM     28  C   UNL A   1      44.327  24.097  25.554  1.00  0.00     0.338 C 
ATOM     29  O   UNL A   1      44.608  24.261  24.383  1.00  0.00    -0.246 OA
BRANCH  28  30
ATOM     30  C   UNL A   1      43.473  25.034  26.300  1.00  0.00     0.060 A 
ATOM     31  C   UNL A   1      43.908  26.360  26.419  1.00  0.00     0.016 A 
ATOM     32  C   UNL A   1      42.329  24.591  26.968  1.00  0.00     0.016 A 
ATOM     33  C   UNL A   1      43.231  27.240  27.249  1.00  0.00     0.010 A 
ATOM     34  C   UNL A   1      41.663  25.469  27.823  1.00  0.00     0.010 A 
ATOM     35  C   UNL A   1      42.146  26.778  28.000  1.00  0.00    -0.014 A 
BRANCH  35  36
ATOM     36  C   UNL A   1      41.683  27.600  29.136  1.00  0.00     0.031 A 
ATOM     37  C   UNL A   1      42.446  27.515  30.428  1.00  0.00     0.074 A 
ATOM     38  C   UNL A   1      40.653  28.450  28.992  1.00  0.00     0.049 A 
ATOM     39  N   UNL A   1      42.222  28.113  31.568  1.00  0.00    -0.248 NA
ATOM     40  C   UNL A   1      43.629  26.636  30.431  1.00  0.00     0.031 C 
ATOM     41  C   UNL A   1      39.895  28.653  27.759  1.00  0.00     0.029 A 
ATOM     42  N   UNL A   1      40.070  29.299  29.894  1.00  0.00    -0.354 N 
ATOM     43  C   UNL A   1      43.225  27.675  32.424  1.00  0.00     0.074 A 
ATOM     44  C   UNL A   1      44.043  26.741  31.684  1.00  0.00     0.031 C 
ATOM     45  C   UNL A   1      38.932  29.562  27.988  1.00  0.00     0.029 A 
ATOM     46  C   UNL A   1      38.985  29.970  29.389  1.00  0.00     0.049 A 
ATOM     47  H   UNL A   1      40.398  29.415  30.815  1.00  0.00     0.167 HD
ATOM     48  C   UNL A   1      43.441  28.028  33.711  1.00  0.00     0.037 A 
ATOM     49  C   UNL A   1      38.121  30.795  30.009  1.00  0.00     0.037 A 
ATOM     50  C   UNL A   1      42.615  28.961  34.431  1.00  0.00     0.049 A 
ATOM     51  C   UNL A   1      38.339  31.111  31.467  1.00  0.00     0.074 A 
ATOM     52  C   UNL A   1      42.741  29.397  35.737  1.00  0.00     0.029 A 
ATOM     53  N   UNL A   1      41.500  29.595  33.901  1.00  0.00    -0.354 N 
ATOM     54  N   UNL A   1      39.291  30.701  32.272  1.00  0.00    -0.248 NA
ATOM     55  C   UNL A   1      37.364  32.008  32.101  1.00  0.00     0.031 C 
ATOM     56  C   UNL A   1      41.666  30.247  36.017  1.00  0.00     0.029 A 
ATOM     57  C   UNL A   1      40.912  30.397  34.863  1.00  0.00     0.049 A 
ATOM     58  H   UNL A   1      41.175  29.489  32.978  1.00  0.00     0.167 HD
ATOM     59  C   UNL A   1      39.051  31.317  33.494  1.00  0.00     0.074 A 
ATOM     60  C   UNL A   1      37.871  32.139  33.319  1.00  0.00     0.031 C 
ATOM     61  C   UNL A   1      39.741  31.215  34.657  1.00  0.00     0.037 A 
BRANCH  48  62
ATOM     62  C   UNL A   1      44.584  27.376  34.433  1.00  0.00     0.064 A 
ATOM     63  C   UNL A   1      45.861  27.954  34.483  1.00  0.00     0.173 A 
ATOM     64  C   UNL A   1      44.389  26.163  35.114  1.00  0.00     0.173 A 
ATOM     65  F   UNL A   1      46.108  29.102  33.833  1.00  0.00    -0.203 F 
ATOM     66  C   UNL A   1      46.904  27.333  35.167  1.00  0.00     0.198 A 
ATOM     67  C   UNL A   1      45.425  25.563  35.824  1.00  0.00     0.198 A 
ATOM     68  F   UNL A   1      43.188  25.564  35.097  1.00  0.00    -0.203 F 
ATOM     69  F   UNL A   1      48.127  27.881  35.161  1.00  0.00    -0.200 F 
ATOM     70  C   UNL A   1      46.682  26.143  35.844  1.00  0.00     0.200 A 
ATOM     71  F   UNL A   1      45.204  24.419  36.487  1.00  0.00    -0.200 F 
ATOM     72  F   UNL A   1      47.683  25.554  36.513  1.00  0.00    -0.200 F 
ENDBRANCH  48  62
BRANCH  49  73
ATOM     73  C   UNL A   1      36.965  31.360  29.265  1.00  0.00     0.064 A 
ATOM     74  C   UNL A   1      36.915  32.717  28.917  1.00  0.00     0.173 A 
ATOM     75  C   UNL A   1      35.870  30.557  28.907  1.00  0.00     0.173 A 
ATOM     76  F   UNL A   1      37.926  33.532  29.254  1.00  0.00    -0.203 F 
ATOM     77  C   UNL A   1      35.806  33.255  28.267  1.00  0.00     0.198 A 
ATOM     78  C   UNL A   1      34.777  31.088  28.226  1.00  0.00     0.198 A 
ATOM     79  F   UNL A   1      35.866  29.251  29.214  1.00  0.00    -0.203 F 
ATOM     80  F   UNL A   1      35.760  34.566  27.998  1.00  0.00    -0.200 F 
ATOM     81  C   UNL A   1      34.740  32.439  27.917  1.00  0.00     0.200 A 
ATOM     82  F   UNL A   1      33.758  30.292  27.876  1.00  0.00    -0.200 F 
ATOM     83  F   UNL A   1      33.674  32.955  27.291  1.00  0.00    -0.200 F 
ENDBRANCH  49  73
BRANCH  61  84
ATOM     84  C   UNL A   1      39.270  32.051  35.813  1.00  0.00     0.064 A 
ATOM     85  C   UNL A   1      38.366  31.558  36.766  1.00  0.00     0.173 A 
ATOM     86  C   UNL A   1      39.759  33.356  35.986  1.00  0.00     0.173 A 
ATOM     87  F   UNL A   1      37.861  30.321  36.640  1.00  0.00    -0.203 F 
ATOM     88  C   UNL A   1      37.944  32.352  37.829  1.00  0.00     0.198 A 
ATOM     89  C   UNL A   1      39.364  34.132  37.071  1.00  0.00     0.198 A 
ATOM     90  F   UNL A   1      40.634  33.873  35.110  1.00  0.00    -0.203 F 
ATOM     91  F   UNL A   1      37.034  31.880  38.692  1.00  0.00    -0.200 F 
ATOM     92  C   UNL A   1      38.448  33.634  37.984  1.00  0.00     0.200 A 
ATOM     93  F   UNL A   1      39.868  35.363  37.230  1.00  0.00    -0.200 F 
ATOM     94  F   UNL A   1      38.045  34.394  39.013  1.00  0.00    -0.200 F 
ENDBRANCH  61  84
ENDBRANCH  35  36
ENDBRANCH  28  30
ENDBRANCH  27  28
ENDBRANCH  26  27
ENDBRANCH  25  26
ENDBRANCH  24  25
ENDBRANCH  23  24
ENDBRANCH  22  23
ENDBRANCH   1  22
TORSDOF 23
ENDMDL
MODEL 2
REMARK VINA RESULT:      -9.5      0.814      2.220
REMARK SMILES CC(C)C[C@@H](C(=O)OCCOCCOCCOCCOC(=O)c1ccc(-c2c3nc(c(-c4c(F)c(F)c(F)c(F)c4F)c4ccc([nH]4)c(-c4c(F)c(F)c(F)c(F)c4F)c4nc(c(-c5c(F)c(F)c(F)c(F)c5F)c5ccc2[nH]5)C=C4)C=C3)cc1)[C@@H]1CCC[C@@H](C)C1
REMARK SMILES IDX 14 1 13 2 12 3 11 4 10 5 9 6 8 7 6 8 7 9 5 10 4 11 2 12 1 13
REMARK SMILES IDX 3 14 86 15 87 16 92 17 88 18 90 19 89 20 91 21 15 22 16 23
REMARK SMILES IDX 17 24 18 25 19 26 20 27 21 28 22 29 23 30 24 31 85 32 25 33
REMARK SMILES IDX 84 34 26 35 27 36 28 37 78 38 29 39 83 40 77 41 79 42 30 43
REMARK SMILES IDX 82 44 76 45 75 46 31 48 63 49 43 50 62 51 44 52 47 53 61 54
REMARK SMILES IDX 80 55 45 56 46 57 60 59 81 60 48 61 32 62 33 63 41 64 34 65
REMARK SMILES IDX 35 66 39 67 42 68 36 69 37 70 40 71 38 72 64 73 65 74 73 75
REMARK SMILES IDX 66 76 67 77 71 78 74 79 68 80 69 81 72 82 70 83 49 84 50 85
REMARK SMILES IDX 58 86 51 87 52 88 56 89 59 90 53 91 54 92 57 93 55 94
REMARK H PARENT 79 47 47 58
REMARK Flexibility Score: inf
ROOT
ATOM      1  O   UNL A   1      39.134  21.433  26.723  1.00  0.00    -0.377 OA
ENDROOT
BRANCH   1   2
ATOM      2  C   UNL A   1      38.680  21.361  25.379  1.00  0.00     0.188 C 
BRANCH   2   3
ATOM      3  C   UNL A   1      37.435  22.232  25.218  1.00  0.00     0.188 C 
BRANCH   3   4
ATOM      4  O   UNL A   1      36.966  22.430  23.883  1.00  0.00    -0.376 OA
BRANCH   4   5
ATOM      5  C   UNL A   1      35.874  23.318  23.665  1.00  0.00     0.202 C 
BRANCH   5   6
ATOM      6  C   UNL A   1      34.429  22.763  23.553  1.00  0.00     0.261 C 
BRANCH   6   7
ATOM      7  O   UNL A   1      33.305  23.627  23.870  1.00  0.00    -0.463 OA
BRANCH   7   8
ATOM      8  C   UNL A   1      33.091  24.563  22.925  1.00  0.00     0.309 C 
ATOM      9  O   UNL A   1      33.391  24.360  21.747  1.00  0.00    -0.252 OA
BRANCH   8  10
ATOM     10  C   UNL A   1      32.494  25.924  23.322  1.00  0.00     0.102 C 
BRANCH  10  11
ATOM     11  C   UNL A   1      31.000  25.858  22.856  1.00  0.00     0.018 C 
BRANCH  11  12
ATOM     12  C   UNL A   1      29.977  25.401  23.918  1.00  0.00    -0.017 C 
ATOM     13  C   UNL A   1      30.598  25.369  25.314  1.00  0.00     0.007 C 
ATOM     14  C   UNL A   1      28.759  26.323  23.882  1.00  0.00     0.007 C 
ENDBRANCH  11  12
ENDBRANCH  10  11
BRANCH  10  15
ATOM     15  C   UNL A   1      33.010  27.378  23.011  1.00  0.00     0.003 C 
ATOM     16  C   UNL A   1      34.046  28.085  23.886  1.00  0.00     0.004 C 
ATOM     17  C   UNL A   1      31.786  28.321  22.758  1.00  0.00     0.007 C 
ATOM     18  C   UNL A   1      33.469  28.829  25.074  1.00  0.00     0.001 C 
ATOM     19  C   UNL A   1      31.199  28.885  24.060  1.00  0.00    -0.014 C 
ATOM     20  C   UNL A   1      32.275  29.714  24.757  1.00  0.00     0.003 C 
ATOM     21  C   UNL A   1      29.949  29.730  23.824  1.00  0.00     0.007 C 
ENDBRANCH  10  15
ENDBRANCH   8  10
ENDBRANCH   7   8
ENDBRANCH   6   7
ENDBRANCH   5   6
ENDBRANCH   4   5
ENDBRANCH   3   4
ENDBRANCH   2   3
ENDBRANCH   1   2
BRANCH   1  22
ATOM     22  C   UNL A   1      40.515  21.593  27.010  1.00  0.00     0.188 C 
BRANCH  22  23
ATOM     23  C   UNL A   1      41.413  20.363  26.924  1.00  0.00     0.188 C 
BRANCH  23  24
ATOM     24  O   UNL A   1      42.454  20.371  25.948  1.00  0.00    -0.376 OA
BRANCH  24  25
ATOM     25  C   UNL A   1      42.842  21.618  25.381  1.00  0.00     0.202 C 
BRANCH  25  26
ATOM     26  C   UNL A   1      44.311  22.016  25.533  1.00  0.00     0.261 C 
BRANCH  26  27
ATOM     27  O   UNL A   1      44.472  23.170  26.371  1.00  0.00    -0.460 OA
BRANCH  27  28
ATOM     28  C   UNL A   1      44.403  24.354  25.721  1.00  0.00     0.338 C 
ATOM     29  O   UNL A   1      44.853  24.633  24.627  1.00  0.00    -0.246 OA
BRANCH  28  30
ATOM     30  C   UNL A   1      43.530  25.268  26.474  1.00  0.00     0.060 A 
ATOM     31  C   UNL A   1      43.963  26.589  26.644  1.00  0.00     0.016 A 
ATOM     32  C   UNL A   1      42.370  24.805  27.098  1.00  0.00     0.016 A 
ATOM     33  C   UNL A   1      43.265  27.443  27.484  1.00  0.00     0.010 A 
ATOM     34  C   UNL A   1      41.683  25.657  27.964  1.00  0.00     0.010 A 
ATOM     35  C   UNL A   1      42.161  26.959  28.192  1.00  0.00    -0.014 A 
BRANCH  35  36
ATOM     36  C   UNL A   1      41.669  27.746  29.341  1.00  0.00     0.031 A 
ATOM     37  C   UNL A   1      42.411  27.635  30.644  1.00  0.00     0.074 A 
ATOM     38  C   UNL A   1      40.634  28.589  29.201  1.00  0.00     0.049 A 
ATOM     39  N   UNL A   1      42.161  28.200  31.795  1.00  0.00    -0.248 NA
ATOM     40  C   UNL A   1      43.603  26.768  30.645  1.00  0.00     0.031 C 
ATOM     41  C   UNL A   1      39.895  28.818  27.960  1.00  0.00     0.029 A 
ATOM     42  N   UNL A   1      40.026  29.408  30.115  1.00  0.00    -0.354 N 
ATOM     43  C   UNL A   1      43.153  27.749  32.657  1.00  0.00     0.074 A 
ATOM     44  C   UNL A   1      43.994  26.844  31.907  1.00  0.00     0.031 C 
ATOM     45  C   UNL A   1      38.919  29.710  28.196  1.00  0.00     0.029 A 
ATOM     46  C   UNL A   1      38.943  30.082  29.608  1.00  0.00     0.049 A 
ATOM     47  H   UNL A   1      40.336  29.503  31.044  1.00  0.00     0.167 HD
ATOM     48  C   UNL A   1      43.343  28.071  33.957  1.00  0.00     0.037 A 
ATOM     49  C   UNL A   1      38.060  30.881  30.234  1.00  0.00     0.037 A 
ATOM     50  C   UNL A   1      42.494  28.976  34.686  1.00  0.00     0.049 A 
ATOM     51  C   UNL A   1      38.248  31.160  31.704  1.00  0.00     0.074 A 
ATOM     52  C   UNL A   1      42.593  29.379  36.005  1.00  0.00     0.029 A 
ATOM     53  N   UNL A   1      41.382  29.612  34.153  1.00  0.00    -0.354 N 
ATOM     54  N   UNL A   1      39.191  30.740  32.515  1.00  0.00    -0.248 NA
ATOM     55  C   UNL A   1      37.254  32.031  32.344  1.00  0.00     0.031 C 
ATOM     56  C   UNL A   1      41.504  30.210  36.288  1.00  0.00     0.029 A 
ATOM     57  C   UNL A   1      40.769  30.383  35.126  1.00  0.00     0.049 A 
ATOM     58  H   UNL A   1      41.075  29.528  33.221  1.00  0.00     0.167 HD
ATOM     59  C   UNL A   1      38.923  31.320  33.748  1.00  0.00     0.074 A 
ATOM     60  C   UNL A   1      37.738  32.135  33.573  1.00  0.00     0.031 C 
ATOM     61  C   UNL A   1      39.594  31.194  34.920  1.00  0.00     0.037 A 
BRANCH  48  62
ATOM     62  C   UNL A   1      44.480  27.411  34.682  1.00  0.00     0.064 A 
ATOM     63  C   UNL A   1      44.343  26.158  35.298  1.00  0.00     0.173 A 
ATOM     64  C   UNL A   1      45.738  28.032  34.733  1.00  0.00     0.173 A 
ATOM     65  F   UNL A   1      43.158  25.530  35.296  1.00  0.00    -0.203 F 
ATOM     66  C   UNL A   1      45.417  25.563  35.958  1.00  0.00     0.198 A 
ATOM     67  C   UNL A   1      46.816  27.418  35.365  1.00  0.00     0.198 A 
ATOM     68  F   UNL A   1      45.924  29.232  34.163  1.00  0.00    -0.203 F 
ATOM     69  F   UNL A   1      45.249  24.388  36.580  1.00  0.00    -0.200 F 
ATOM     70  C   UNL A   1      46.654  26.189  35.982  1.00  0.00     0.200 A 
ATOM     71  F   UNL A   1      48.014  28.021  35.377  1.00  0.00    -0.200 F 
ATOM     72  F   UNL A   1      47.688  25.609  36.606  1.00  0.00    -0.200 F 
ENDBRANCH  48  62
BRANCH  49  73
ATOM     73  C   UNL A   1      36.910  31.454  29.485  1.00  0.00     0.064 A 
ATOM     74  C   UNL A   1      35.852  30.647  29.046  1.00  0.00     0.173 A 
ATOM     75  C   UNL A   1      36.860  32.821  29.169  1.00  0.00     0.173 A 
ATOM     76  F   UNL A   1      35.862  29.330  29.303  1.00  0.00    -0.203 F 
ATOM     77  C   UNL A   1      34.803  31.178  28.298  1.00  0.00     0.198 A 
ATOM     78  C   UNL A   1      35.793  33.358  28.452  1.00  0.00     0.198 A 
ATOM     79  F   UNL A   1      37.846  33.640  29.566  1.00  0.00    -0.203 F 
ATOM     80  F   UNL A   1      33.833  30.374  27.843  1.00  0.00    -0.200 F 
ATOM     81  C   UNL A   1      34.771  32.533  28.006  1.00  0.00     0.200 A 
ATOM     82  F   UNL A   1      35.760  34.670  28.186  1.00  0.00    -0.200 F 
ATOM     83  F   UNL A   1      33.762  33.044  27.287  1.00  0.00    -0.200 F 
ENDBRANCH  49  73
BRANCH  61  84
ATOM     84  C   UNL A   1      39.094  31.995  36.089  1.00  0.00     0.064 A 
ATOM     85  C   UNL A   1      39.478  33.329  36.293  1.00  0.00     0.173 A 
ATOM     86  C   UNL A   1      38.188  31.426  36.998  1.00  0.00     0.173 A 
ATOM     87  F   UNL A   1      40.350  33.916  35.460  1.00  0.00    -0.203 F 
ATOM     88  C   UNL A   1      39.001  34.050  37.385  1.00  0.00     0.198 A 
ATOM     89  C   UNL A   1      37.684  32.163  38.065  1.00  0.00     0.198 A 
ATOM     90  F   UNL A   1      37.779  30.158  36.843  1.00  0.00    -0.203 F 
ATOM     91  F   UNL A   1      39.429  35.303  37.593  1.00  0.00    -0.200 F 
ATOM     92  C   UNL A   1      38.099  33.470  38.263  1.00  0.00     0.200 A 
ATOM     93  F   UNL A   1      36.797  31.607  38.902  1.00  0.00    -0.200 F 
ATOM     94  F   UNL A   1      37.636  34.170  39.309  1.00  0.00    -0.200 F 
ENDBRANCH  61  84
ENDBRANCH  35  36
ENDBRANCH  28  30
ENDBRANCH  27  28
ENDBRANCH  26  27
ENDBRANCH  25  26
ENDBRANCH  24  25
ENDBRANCH  23  24
ENDBRANCH  22  23
ENDBRANCH   1  22
TORSDOF 23
ENDMDL
MODEL 3
REMARK VINA RESULT:      -9.2      4.442      9.038
REMARK SMILES CC(C)C[C@@H](C(=O)OCCOCCOCCOCCOC(=O)c1ccc(-c2c3nc(c(-c4c(F)c(F)c(F)c(F)c4F)c4ccc([nH]4)c(-c4c(F)c(F)c(F)c(F)c4F)c4nc(c(-c5c(F)c(F)c(F)c(F)c5F)c5ccc2[nH]5)C=C4)C=C3)cc1)[C@@H]1CCC[C@@H](C)C1
REMARK SMILES IDX 14 1 13 2 12 3 11 4 10 5 9 6 8 7 6 8 7 9 5 10 4 11 2 12 1 13
REMARK SMILES IDX 3 14 86 15 87 16 92 17 88 18 90 19 89 20 91 21 15 22 16 23
REMARK SMILES IDX 17 24 18 25 19 26 20 27 21 28 22 29 23 30 24 31 85 32 25 33
REMARK SMILES IDX 84 34 26 35 27 36 28 37 78 38 29 39 83 40 77 41 79 42 30 43
REMARK SMILES IDX 82 44 76 45 75 46 31 48 63 49 43 50 62 51 44 52 47 53 61 54
REMARK SMILES IDX 80 55 45 56 46 57 60 59 81 60 48 61 32 62 33 63 41 64 34 65
REMARK SMILES IDX 35 66 39 67 42 68 36 69 37 70 40 71 38 72 64 73 65 74 73 75
REMARK SMILES IDX 66 76 67 77 71 78 74 79 68 80 69 81 72 82 70 83 49 84 50 85
REMARK SMILES IDX 58 86 51 87 52 88 56 89 59 90 53 91 54 92 57 93 55 94
REMARK H PARENT 79 47 47 58
REMARK Flexibility Score: inf
ROOT
ATOM      1  O   UNL A   1      34.965  21.087  24.693  1.00  0.00    -0.377 OA
ENDROOT
BRANCH   1   2
ATOM      2  C   UNL A   1      33.970  20.905  25.689  1.00  0.00     0.188 C 
BRANCH   2   3
ATOM      3  C   UNL A   1      32.655  21.517  25.210  1.00  0.00     0.188 C 
BRANCH   3   4
ATOM      4  O   UNL A   1      32.227  21.154  23.895  1.00  0.00    -0.376 OA
BRANCH   4   5
ATOM      5  C   UNL A   1      31.914  22.189  22.968  1.00  0.00     0.202 C 
BRANCH   5   6
ATOM      6  C   UNL A   1      31.879  23.668  23.435  1.00  0.00     0.261 C 
BRANCH   6   7
ATOM      7  O   UNL A   1      30.729  24.494  23.108  1.00  0.00    -0.463 OA
BRANCH   7   8
ATOM      8  C   UNL A   1      31.061  25.783  22.902  1.00  0.00     0.309 C 
ATOM      9  O   UNL A   1      31.771  26.113  21.950  1.00  0.00    -0.252 OA
BRANCH   8  10
ATOM     10  C   UNL A   1      30.577  26.861  23.886  1.00  0.00     0.102 C 
BRANCH  10  11
ATOM     11  C   UNL A   1      30.671  28.205  23.087  1.00  0.00     0.018 C 
BRANCH  11  12
ATOM     12  C   UNL A   1      29.328  28.884  22.742  1.00  0.00    -0.017 C 
ATOM     13  C   UNL A   1      28.141  28.040  23.202  1.00  0.00     0.007 C 
ATOM     14  C   UNL A   1      29.286  30.276  23.370  1.00  0.00     0.007 C 
ENDBRANCH  11  12
ENDBRANCH  10  11
BRANCH  10  15
ATOM     15  C   UNL A   1      31.050  27.166  25.356  1.00  0.00     0.003 C 
ATOM     16  C   UNL A   1      31.569  28.540  25.782  1.00  0.00     0.004 C 
ATOM     17  C   UNL A   1      32.040  26.049  25.825  1.00  0.00     0.007 C 
ATOM     18  C   UNL A   1      33.049  28.760  25.542  1.00  0.00     0.001 C 
ATOM     19  C   UNL A   1      33.485  26.317  25.381  1.00  0.00    -0.014 C 
ATOM     20  C   UNL A   1      33.949  27.629  26.009  1.00  0.00     0.003 C 
ATOM     21  C   UNL A   1      34.437  25.183  25.756  1.00  0.00     0.007 C 
ENDBRANCH  10  15
ENDBRANCH   8  10
ENDBRANCH   7   8
ENDBRANCH   6   7
ENDBRANCH   5   6
ENDBRANCH   4   5
ENDBRANCH   3   4
ENDBRANCH   2   3
ENDBRANCH   1   2
BRANCH   1  22
ATOM     22  C   UNL A   1      36.111  21.883  24.954  1.00  0.00     0.188 C 
BRANCH  22  23
ATOM     23  C   UNL A   1      37.436  21.171  25.211  1.00  0.00     0.188 C 
BRANCH  23  24
ATOM     24  O   UNL A   1      37.540  19.804  24.819  1.00  0.00    -0.376 OA
BRANCH  24  25
ATOM     25  C   UNL A   1      38.584  19.015  25.379  1.00  0.00     0.202 C 
BRANCH  25  26
ATOM     26  C   UNL A   1      39.837  19.760  25.840  1.00  0.00     0.261 C 
BRANCH  26  27
ATOM     27  O   UNL A   1      40.927  18.866  26.110  1.00  0.00    -0.460 OA
BRANCH  27  28
ATOM     28  C   UNL A   1      42.154  19.391  25.893  1.00  0.00     0.338 C 
ATOM     29  O   UNL A   1      43.081  18.897  25.282  1.00  0.00    -0.246 OA
BRANCH  28  30
ATOM     30  C   UNL A   1      42.178  20.779  26.381  1.00  0.00     0.060 A 
ATOM     31  C   UNL A   1      42.035  21.804  25.437  1.00  0.00     0.016 A 
ATOM     32  C   UNL A   1      42.454  21.067  27.719  1.00  0.00     0.016 A 
ATOM     33  C   UNL A   1      42.219  23.125  25.816  1.00  0.00     0.010 A 
ATOM     34  C   UNL A   1      42.664  22.394  28.095  1.00  0.00     0.010 A 
ATOM     35  C   UNL A   1      42.595  23.416  27.131  1.00  0.00    -0.014 A 
BRANCH  35  36
ATOM     36  C   UNL A   1      43.145  24.756  27.419  1.00  0.00     0.031 A 
ATOM     37  C   UNL A   1      42.227  25.782  28.023  1.00  0.00     0.074 A 
ATOM     38  C   UNL A   1      44.445  25.021  27.213  1.00  0.00     0.049 A 
ATOM     39  N   UNL A   1      42.464  27.028  28.338  1.00  0.00    -0.248 NA
ATOM     40  C   UNL A   1      40.852  25.338  28.313  1.00  0.00     0.031 C 
ATOM     41  C   UNL A   1      45.427  24.070  26.698  1.00  0.00     0.029 A 
ATOM     42  N   UNL A   1      45.157  26.173  27.413  1.00  0.00    -0.354 N 
ATOM     43  C   UNL A   1      41.269  27.518  28.851  1.00  0.00     0.074 A 
ATOM     44  C   UNL A   1      40.301  26.447  28.781  1.00  0.00     0.031 C 
ATOM     45  C   UNL A   1      46.619  24.686  26.607  1.00  0.00     0.029 A 
ATOM     46  C   UNL A   1      46.469  26.078  27.021  1.00  0.00     0.049 A 
ATOM     47  H   UNL A   1      44.766  26.990  27.801  1.00  0.00     0.167 HD
ATOM     48  C   UNL A   1      41.012  28.752  29.340  1.00  0.00     0.037 A 
ATOM     49  C   UNL A   1      47.423  27.027  26.976  1.00  0.00     0.037 A 
ATOM     50  C   UNL A   1      41.991  29.805  29.403  1.00  0.00     0.049 A 
ATOM     51  C   UNL A   1      47.086  28.417  27.454  1.00  0.00     0.074 A 
ATOM     52  C   UNL A   1      41.844  31.094  29.883  1.00  0.00     0.029 A 
ATOM     53  N   UNL A   1      43.301  29.687  28.961  1.00  0.00    -0.354 N 
ATOM     54  N   UNL A   1      45.959  28.876  27.945  1.00  0.00    -0.248 NA
ATOM     55  C   UNL A   1      48.157  29.419  27.376  1.00  0.00     0.031 C 
ATOM     56  C   UNL A   1      43.047  31.775  29.673  1.00  0.00     0.029 A 
ATOM     57  C   UNL A   1      43.966  30.889  29.131  1.00  0.00     0.049 A 
ATOM     58  H   UNL A   1      43.699  28.870  28.583  1.00  0.00     0.167 HD
ATOM     59  C   UNL A   1      46.195  30.206  28.266  1.00  0.00     0.074 A 
ATOM     60  C   UNL A   1      47.578  30.475  27.928  1.00  0.00     0.031 C 
ATOM     61  C   UNL A   1      45.348  31.125  28.794  1.00  0.00     0.037 A 
BRANCH  48  62
ATOM     62  C   UNL A   1      39.614  29.043  29.805  1.00  0.00     0.064 A 
ATOM     63  C   UNL A   1      39.222  28.870  31.140  1.00  0.00     0.173 A 
ATOM     64  C   UNL A   1      38.658  29.532  28.900  1.00  0.00     0.173 A 
ATOM     65  F   UNL A   1      40.090  28.387  32.042  1.00  0.00    -0.203 F 
ATOM     66  C   UNL A   1      37.920  29.155  31.549  1.00  0.00     0.198 A 
ATOM     67  C   UNL A   1      37.368  29.846  29.319  1.00  0.00     0.198 A 
ATOM     68  F   UNL A   1      38.978  29.712  27.610  1.00  0.00    -0.203 F 
ATOM     69  F   UNL A   1      37.556  28.938  32.820  1.00  0.00    -0.200 F 
ATOM     70  C   UNL A   1      36.998  29.652  30.640  1.00  0.00     0.200 A 
ATOM     71  F   UNL A   1      36.482  30.337  28.440  1.00  0.00    -0.200 F 
ATOM     72  F   UNL A   1      35.750  29.938  31.037  1.00  0.00    -0.200 F 
ENDBRANCH  48  62
BRANCH  49  73
ATOM     73  C   UNL A   1      48.772  26.704  26.442  1.00  0.00     0.064 A 
ATOM     74  C   UNL A   1      49.782  26.200  27.273  1.00  0.00     0.173 A 
ATOM     75  C   UNL A   1      49.087  26.917  25.091  1.00  0.00     0.173 A 
ATOM     76  F   UNL A   1      49.539  25.998  28.576  1.00  0.00    -0.203 F 
ATOM     77  C   UNL A   1      51.062  25.948  26.780  1.00  0.00     0.198 A 
ATOM     78  C   UNL A   1      50.356  26.631  24.591  1.00  0.00     0.198 A 
ATOM     79  F   UNL A   1      48.158  27.396  24.251  1.00  0.00    -0.203 F 
ATOM     80  F   UNL A   1      52.024  25.521  27.608  1.00  0.00    -0.200 F 
ATOM     81  C   UNL A   1      51.346  26.158  25.439  1.00  0.00     0.200 A 
ATOM     82  F   UNL A   1      50.621  26.822  23.292  1.00  0.00    -0.200 F 
ATOM     83  F   UNL A   1      52.576  25.916  24.965  1.00  0.00    -0.200 F 
ENDBRANCH  49  73
BRANCH  61  84
ATOM     84  C   UNL A   1      45.908  32.489  29.087  1.00  0.00     0.064 A 
ATOM     85  C   UNL A   1      45.829  33.538  28.159  1.00  0.00     0.173 A 
ATOM     86  C   UNL A   1      46.501  32.757  30.331  1.00  0.00     0.173 A 
ATOM     87  F   UNL A   1      45.283  33.332  26.951  1.00  0.00    -0.203 F 
ATOM     88  C   UNL A   1      46.356  34.793  28.453  1.00  0.00     0.198 A 
ATOM     89  C   UNL A   1      46.990  34.022  30.635  1.00  0.00     0.198 A 
ATOM     90  F   UNL A   1      46.591  31.792  31.259  1.00  0.00    -0.203 F 
ATOM     91  F   UNL A   1      46.324  35.762  27.528  1.00  0.00    -0.200 F 
ATOM     92  C   UNL A   1      46.927  35.036  29.692  1.00  0.00     0.200 A 
ATOM     93  F   UNL A   1      47.525  34.261  31.841  1.00  0.00    -0.200 F 
ATOM     94  F   UNL A   1      47.427  36.248  29.975  1.00  0.00    -0.200 F 
ENDBRANCH  61  84
ENDBRANCH  35  36
ENDBRANCH  28  30
ENDBRANCH  27  28
ENDBRANCH  26  27
ENDBRANCH  25  26
ENDBRANCH  24  25
ENDBRANCH  23  24
ENDBRANCH  22  23
ENDBRANCH   1  22
TORSDOF 23
ENDMDL
