MODEL 1
REMARK VINA RESULT:     -10.6      0.000      0.000
REMARK SMILES CCN(c1ccnc(C(=O)OCCOCCOCCOCCOC(=O)c2ccc(-c3c4nc(c(-c5c(F)c(F)c(F)c(F)c5F)c5ccc([nH]5)c(-c5c(F)c(F)c(F)c(F)c5F)c5nc(c(-c6c(F)c(F)c(F)c(F)c6F)c6ccc3[nH]6)C=C5)C=C4)cc2)c1)S(=O)(=O)c1ccccc1
REMARK SMILES IDX 16 1 15 2 14 3 13 4 12 5 11 6 9 7 10 8 8 9 4 10 5 11 89 12
REMARK SMILES IDX 6 13 7 14 3 15 2 16 1 17 90 18 91 19 92 20 93 21 94 22 98 23
REMARK SMILES IDX 95 24 97 25 96 26 17 27 18 28 19 29 20 30 21 31 22 32 23 33
REMARK SMILES IDX 24 34 25 35 26 36 27 37 88 38 28 39 87 40 29 41 30 42 31 43
REMARK SMILES IDX 81 44 32 45 86 46 80 47 82 48 33 49 85 50 79 51 78 52 34 54
REMARK SMILES IDX 66 55 46 56 65 57 47 58 50 59 64 60 83 61 48 62 49 63 63 65
REMARK SMILES IDX 84 66 51 67 35 68 36 69 44 70 37 71 38 72 42 73 45 74 39 75
REMARK SMILES IDX 40 76 43 77 41 78 67 79 68 80 76 81 69 82 70 83 74 84 77 85
REMARK SMILES IDX 71 86 72 87 75 88 73 89 52 90 53 91 61 92 54 93 55 94 59 95
REMARK SMILES IDX 62 96 56 97 57 98 60 99 58 100
REMARK H PARENT 82 53 50 64
REMARK Flexibility Score: inf
ROOT
ATOM      1  C   UNL A   1      39.115  22.264  26.254  1.00  0.00     0.188 C 
ENDROOT
BRANCH   1   2
ATOM      2  C   UNL A   1      38.027  21.532  25.441  1.00  0.00     0.188 C 
BRANCH   2   3
ATOM      3  O   UNL A   1      36.726  22.050  25.665  1.00  0.00    -0.376 OA
BRANCH   3   4
ATOM      4  C   UNL A   1      35.611  21.580  24.931  1.00  0.00     0.202 C 
BRANCH   4   5
ATOM      5  C   UNL A   1      34.272  21.215  25.592  1.00  0.00     0.261 C 
BRANCH   5   6
ATOM      6  O   UNL A   1      33.250  22.206  25.553  1.00  0.00    -0.459 OA
BRANCH   6   7
ATOM      7  C   UNL A   1      33.049  22.958  26.660  1.00  0.00     0.357 C 
ATOM      8  O   UNL A   1      33.603  22.803  27.734  1.00  0.00    -0.244 OA
BRANCH   7   9
ATOM      9  C   UNL A   1      32.118  24.076  26.289  1.00  0.00     0.150 A 
ATOM     10  C   UNL A   1      31.564  25.930  24.876  1.00  0.00     0.056 A 
ATOM     11  C   UNL A   1      30.290  25.922  25.432  1.00  0.00     0.047 A 
ATOM     12  C   UNL A   1      32.513  25.052  25.385  1.00  0.00     0.063 A 
ATOM     13  C   UNL A   1      30.026  25.020  26.453  1.00  0.00     0.114 A 
ATOM     14  N   UNL A   1      30.891  24.070  26.863  1.00  0.00    -0.249 NA
BRANCH  10  15
ATOM     15  N   UNL A   1      31.944  26.724  23.721  1.00  0.00    -0.266 N 
BRANCH  15  16
ATOM     16  C   UNL A   1      33.034  26.159  22.857  1.00  0.00     0.132 C 
ATOM     17  C   UNL A   1      32.512  25.738  21.498  1.00  0.00     0.028 C 
ENDBRANCH  15  16
BRANCH  15  18
ATOM     18  S   UNL A   1      32.160  28.441  24.010  1.00  0.00     0.264 S 
ATOM     19  O   UNL A   1      32.441  28.610  25.422  1.00  0.00    -0.201 OA
ATOM     20  O   UNL A   1      33.088  28.936  23.013  1.00  0.00    -0.201 OA
BRANCH  18  21
ATOM     21  C   UNL A   1      30.585  29.220  23.689  1.00  0.00     0.088 A 
ATOM     22  C   UNL A   1      29.692  28.597  22.808  1.00  0.00     0.022 A 
ATOM     23  C   UNL A   1      30.280  30.466  24.251  1.00  0.00     0.022 A 
ATOM     24  C   UNL A   1      28.534  29.266  22.413  1.00  0.00     0.001 A 
ATOM     25  C   UNL A   1      29.119  31.130  23.844  1.00  0.00     0.001 A 
ATOM     26  C   UNL A   1      28.259  30.537  22.916  1.00  0.00     0.000 A 
ENDBRANCH  18  21
ENDBRANCH  15  18
ENDBRANCH  10  15
ENDBRANCH   7   9
ENDBRANCH   6   7
ENDBRANCH   5   6
ENDBRANCH   4   5
ENDBRANCH   3   4
ENDBRANCH   2   3
ENDBRANCH   1   2
BRANCH   1  27
ATOM     27  O   UNL A   1      40.426  21.742  26.103  1.00  0.00    -0.377 OA
BRANCH  27  28
ATOM     28  C   UNL A   1      40.676  20.390  26.499  1.00  0.00     0.188 C 
BRANCH  28  29
ATOM     29  C   UNL A   1      41.816  19.530  25.893  1.00  0.00     0.188 C 
BRANCH  29  30
ATOM     30  O   UNL A   1      43.121  19.877  26.324  1.00  0.00    -0.376 OA
BRANCH  30  31
ATOM     31  C   UNL A   1      44.074  20.292  25.365  1.00  0.00     0.202 C 
BRANCH  31  32
ATOM     32  C   UNL A   1      43.879  21.681  24.746  1.00  0.00     0.261 C 
BRANCH  32  33
ATOM     33  O   UNL A   1      43.546  22.735  25.662  1.00  0.00    -0.460 OA
BRANCH  33  34
ATOM     34  C   UNL A   1      44.009  23.969  25.377  1.00  0.00     0.338 C 
ATOM     35  O   UNL A   1      44.739  24.291  24.453  1.00  0.00    -0.246 OA
BRANCH  34  36
ATOM     36  C   UNL A   1      43.332  24.919  26.280  1.00  0.00     0.060 A 
ATOM     37  C   UNL A   1      43.779  26.246  26.337  1.00  0.00     0.016 A 
ATOM     38  C   UNL A   1      42.254  24.499  27.063  1.00  0.00     0.016 A 
ATOM     39  C   UNL A   1      43.172  27.149  27.210  1.00  0.00     0.010 A 
ATOM     40  C   UNL A   1      41.661  25.399  27.951  1.00  0.00     0.010 A 
ATOM     41  C   UNL A   1      42.141  26.717  28.054  1.00  0.00    -0.014 A 
BRANCH  41  42
ATOM     42  C   UNL A   1      41.696  27.577  29.177  1.00  0.00     0.031 A 
ATOM     43  C   UNL A   1      42.433  27.476  30.484  1.00  0.00     0.074 A 
ATOM     44  C   UNL A   1      40.672  28.436  29.042  1.00  0.00     0.049 A 
ATOM     45  N   UNL A   1      42.193  28.069  31.626  1.00  0.00    -0.248 NA
ATOM     46  C   UNL A   1      43.599  26.578  30.507  1.00  0.00     0.031 C 
ATOM     47  C   UNL A   1      39.908  28.655  27.816  1.00  0.00     0.029 A 
ATOM     48  N   UNL A   1      40.090  29.277  29.959  1.00  0.00    -0.354 N 
ATOM     49  C   UNL A   1      43.169  27.608  32.501  1.00  0.00     0.074 A 
ATOM     50  C   UNL A   1      43.984  26.664  31.770  1.00  0.00     0.031 C 
ATOM     51  C   UNL A   1      38.947  29.563  28.061  1.00  0.00     0.029 A 
ATOM     52  C   UNL A   1      39.004  29.958  29.467  1.00  0.00     0.049 A 
ATOM     53  H   UNL A   1      40.421  29.381  30.880  1.00  0.00     0.167 HD
ATOM     54  C   UNL A   1      43.371  27.951  33.795  1.00  0.00     0.037 A 
ATOM     55  C   UNL A   1      38.140  30.782  30.093  1.00  0.00     0.037 A 
ATOM     56  C   UNL A   1      42.555  28.889  34.518  1.00  0.00     0.049 A 
ATOM     57  C   UNL A   1      38.337  31.083  31.560  1.00  0.00     0.074 A 
ATOM     58  C   UNL A   1      42.687  29.317  35.828  1.00  0.00     0.029 A 
ATOM     59  N   UNL A   1      41.444  29.536  33.996  1.00  0.00    -0.354 N 
ATOM     60  N   UNL A   1      39.277  30.668  32.375  1.00  0.00    -0.248 NA
ATOM     61  C   UNL A   1      37.352  31.972  32.192  1.00  0.00     0.031 C 
ATOM     62  C   UNL A   1      41.619  30.171  36.117  1.00  0.00     0.029 A 
ATOM     63  C   UNL A   1      40.863  30.335  34.968  1.00  0.00     0.049 A 
ATOM     64  H   UNL A   1      41.117  29.440  33.072  1.00  0.00     0.167 HD
ATOM     65  C   UNL A   1      39.018  31.271  33.600  1.00  0.00     0.074 A 
ATOM     66  C   UNL A   1      37.839  32.091  33.418  1.00  0.00     0.031 C 
ATOM     67  C   UNL A   1      39.696  31.157  34.769  1.00  0.00     0.037 A 
BRANCH  54  68
ATOM     68  C   UNL A   1      44.501  27.280  34.521  1.00  0.00     0.064 A 
ATOM     69  C   UNL A   1      45.765  27.880  34.646  1.00  0.00     0.173 A 
ATOM     70  C   UNL A   1      44.309  26.029  35.128  1.00  0.00     0.173 A 
ATOM     71  F   UNL A   1      46.007  29.069  34.072  1.00  0.00    -0.203 F 
ATOM     72  C   UNL A   1      46.798  27.240  35.325  1.00  0.00     0.198 A 
ATOM     73  C   UNL A   1      45.334  25.409  35.836  1.00  0.00     0.198 A 
ATOM     74  F   UNL A   1      43.121  25.411  35.043  1.00  0.00    -0.203 F 
ATOM     75  F   UNL A   1      48.011  27.808  35.384  1.00  0.00    -0.200 F 
ATOM     76  C   UNL A   1      46.581  26.010  35.926  1.00  0.00     0.200 A 
ATOM     77  F   UNL A   1      45.117  24.226  36.429  1.00  0.00    -0.200 F 
ATOM     78  F   UNL A   1      47.574  25.399  36.587  1.00  0.00    -0.200 F 
ENDBRANCH  54  68
BRANCH  55  79
ATOM     79  C   UNL A   1      36.996  31.373  29.347  1.00  0.00     0.064 A 
ATOM     80  C   UNL A   1      36.976  32.733  29.011  1.00  0.00     0.173 A 
ATOM     81  C   UNL A   1      35.886  30.597  28.983  1.00  0.00     0.173 A 
ATOM     82  F   UNL A   1      38.001  33.525  29.360  1.00  0.00    -0.203 F 
ATOM     83  C   UNL A   1      35.881  33.299  28.361  1.00  0.00     0.198 A 
ATOM     84  C   UNL A   1      34.806  31.156  28.303  1.00  0.00     0.198 A 
ATOM     85  F   UNL A   1      35.852  29.290  29.284  1.00  0.00    -0.203 F 
ATOM     86  F   UNL A   1      35.865  34.614  28.101  1.00  0.00    -0.200 F 
ATOM     87  C   UNL A   1      34.800  32.509  28.002  1.00  0.00     0.200 A 
ATOM     88  F   UNL A   1      33.770  30.385  27.947  1.00  0.00    -0.200 F 
ATOM     89  F   UNL A   1      33.748  33.053  27.375  1.00  0.00    -0.200 F 
ENDBRANCH  55  79
BRANCH  67  90
ATOM     90  C   UNL A   1      39.214  31.976  35.935  1.00  0.00     0.064 A 
ATOM     91  C   UNL A   1      39.650  33.291  36.151  1.00  0.00     0.173 A 
ATOM     92  C   UNL A   1      38.263  31.448  36.824  1.00  0.00     0.173 A 
ATOM     93  F   UNL A   1      40.566  33.841  35.338  1.00  0.00    -0.203 F 
ATOM     94  C   UNL A   1      39.178  34.036  37.230  1.00  0.00     0.198 A 
ATOM     95  C   UNL A   1      37.765  32.208  37.879  1.00  0.00     0.198 A 
ATOM     96  F   UNL A   1      37.803  30.199  36.660  1.00  0.00    -0.203 F 
ATOM     97  F   UNL A   1      39.650  35.271  37.447  1.00  0.00    -0.200 F 
ATOM     98  C   UNL A   1      38.230  33.497  38.087  1.00  0.00     0.200 A 
ATOM     99  F   UNL A   1      36.835  31.692  38.695  1.00  0.00    -0.200 F 
ATOM    100  F   UNL A   1      37.769  34.218  39.117  1.00  0.00    -0.200 F 
ENDBRANCH  67  90
ENDBRANCH  41  42
ENDBRANCH  34  36
ENDBRANCH  33  34
ENDBRANCH  32  33
ENDBRANCH  31  32
ENDBRANCH  30  31
ENDBRANCH  29  30
ENDBRANCH  28  29
ENDBRANCH  27  28
ENDBRANCH   1  27
TORSDOF 24
ENDMDL
MODEL 2
REMARK VINA RESULT:      -9.1      7.360      9.763
REMARK SMILES CCN(c1ccnc(C(=O)OCCOCCOCCOCCOC(=O)c2ccc(-c3c4nc(c(-c5c(F)c(F)c(F)c(F)c5F)c5ccc([nH]5)c(-c5c(F)c(F)c(F)c(F)c5F)c5nc(c(-c6c(F)c(F)c(F)c(F)c6F)c6ccc3[nH]6)C=C5)C=C4)cc2)c1)S(=O)(=O)c1ccccc1
REMARK SMILES IDX 16 1 15 2 14 3 13 4 12 5 11 6 9 7 10 8 8 9 4 10 5 11 89 12
REMARK SMILES IDX 6 13 7 14 3 15 2 16 1 17 90 18 91 19 92 20 93 21 94 22 98 23
REMARK SMILES IDX 95 24 97 25 96 26 17 27 18 28 19 29 20 30 21 31 22 32 23 33
REMARK SMILES IDX 24 34 25 35 26 36 27 37 88 38 28 39 87 40 29 41 30 42 31 43
REMARK SMILES IDX 81 44 32 45 86 46 80 47 82 48 33 49 85 50 79 51 78 52 34 54
REMARK SMILES IDX 66 55 46 56 65 57 47 58 50 59 64 60 83 61 48 62 49 63 63 65
REMARK SMILES IDX 84 66 51 67 35 68 36 69 44 70 37 71 38 72 42 73 45 74 39 75
REMARK SMILES IDX 40 76 43 77 41 78 67 79 68 80 76 81 69 82 70 83 74 84 77 85
REMARK SMILES IDX 71 86 72 87 75 88 73 89 52 90 53 91 61 92 54 93 55 94 59 95
REMARK SMILES IDX 62 96 56 97 57 98 60 99 58 100
REMARK H PARENT 82 53 50 64
REMARK Flexibility Score: inf
ROOT
ATOM      1  C   UNL A   1      40.541  21.597  26.204  1.00  0.00     0.188 C 
ENDROOT
BRANCH   1   2
ATOM      2  C   UNL A   1      39.076  21.247  25.868  1.00  0.00     0.188 C 
BRANCH   2   3
ATOM      3  O   UNL A   1      38.351  22.347  25.343  1.00  0.00    -0.376 OA
BRANCH   3   4
ATOM      4  C   UNL A   1      37.742  23.300  26.195  1.00  0.00     0.202 C 
BRANCH   4   5
ATOM      5  C   UNL A   1      36.378  23.939  25.889  1.00  0.00     0.261 C 
BRANCH   5   6
ATOM      6  O   UNL A   1      36.009  24.030  24.516  1.00  0.00    -0.459 OA
BRANCH   6   7
ATOM      7  C   UNL A   1      35.157  23.102  24.022  1.00  0.00     0.357 C 
ATOM      8  O   UNL A   1      35.181  21.911  24.275  1.00  0.00    -0.244 OA
BRANCH   7   9
ATOM      9  C   UNL A   1      34.119  23.823  23.210  1.00  0.00     0.150 A 
ATOM     10  C   UNL A   1      32.750  25.753  22.840  1.00  0.00     0.056 A 
ATOM     11  C   UNL A   1      32.453  25.253  21.578  1.00  0.00     0.047 A 
ATOM     12  C   UNL A   1      33.519  24.976  23.696  1.00  0.00     0.063 A 
ATOM     13  C   UNL A   1      32.961  24.008  21.231  1.00  0.00     0.114 A 
ATOM     14  N   UNL A   1      33.821  23.304  21.996  1.00  0.00    -0.249 NA
BRANCH  10  15
ATOM     15  N   UNL A   1      32.398  27.089  23.290  1.00  0.00    -0.266 N 
BRANCH  15  16
ATOM     16  C   UNL A   1      33.503  27.892  23.913  1.00  0.00     0.132 C 
ATOM     17  C   UNL A   1      34.035  28.946  22.962  1.00  0.00     0.028 C 
ENDBRANCH  15  16
BRANCH  15  18
ATOM     18  S   UNL A   1      30.900  27.222  24.195  1.00  0.00     0.264 S 
ATOM     19  O   UNL A   1      30.307  25.900  24.246  1.00  0.00    -0.201 OA
ATOM     20  O   UNL A   1      31.194  27.942  25.418  1.00  0.00    -0.201 OA
BRANCH  18  21
ATOM     21  C   UNL A   1      29.806  28.254  23.232  1.00  0.00     0.088 A 
ATOM     22  C   UNL A   1      30.363  29.215  22.379  1.00  0.00     0.022 A 
ATOM     23  C   UNL A   1      28.418  28.153  23.383  1.00  0.00     0.022 A 
ATOM     24  C   UNL A   1      29.532  30.141  21.748  1.00  0.00     0.001 A 
ATOM     25  C   UNL A   1      27.594  29.089  22.750  1.00  0.00     0.001 A 
ATOM     26  C   UNL A   1      28.153  30.088  21.949  1.00  0.00     0.000 A 
ENDBRANCH  18  21
ENDBRANCH  15  18
ENDBRANCH  10  15
ENDBRANCH   7   9
ENDBRANCH   6   7
ENDBRANCH   5   6
ENDBRANCH   4   5
ENDBRANCH   3   4
ENDBRANCH   2   3
ENDBRANCH   1   2
BRANCH   1  27
ATOM     27  O   UNL A   1      41.510  20.751  25.603  1.00  0.00    -0.377 OA
BRANCH  27  28
ATOM     28  C   UNL A   1      42.126  19.738  26.403  1.00  0.00     0.188 C 
BRANCH  28  29
ATOM     29  C   UNL A   1      42.946  18.567  25.799  1.00  0.00     0.188 C 
BRANCH  29  30
ATOM     30  O   UNL A   1      44.316  18.852  25.572  1.00  0.00    -0.376 OA
BRANCH  30  31
ATOM     31  C   UNL A   1      44.663  19.935  24.730  1.00  0.00     0.202 C 
BRANCH  31  32
ATOM     32  C   UNL A   1      45.514  21.051  25.347  1.00  0.00     0.261 C 
BRANCH  32  33
ATOM     33  O   UNL A   1      44.985  22.380  25.230  1.00  0.00    -0.460 OA
BRANCH  33  34
ATOM     34  C   UNL A   1      44.479  22.942  26.347  1.00  0.00     0.338 C 
ATOM     35  O   UNL A   1      43.864  22.386  27.243  1.00  0.00    -0.246 OA
BRANCH  34  36
ATOM     36  C   UNL A   1      44.952  24.339  26.398  1.00  0.00     0.060 A 
ATOM     37  C   UNL A   1      44.915  25.117  25.233  1.00  0.00     0.016 A 
ATOM     38  C   UNL A   1      45.425  24.877  27.597  1.00  0.00     0.016 A 
ATOM     39  C   UNL A   1      45.390  26.428  25.257  1.00  0.00     0.010 A 
ATOM     40  C   UNL A   1      45.918  26.183  27.614  1.00  0.00     0.010 A 
ATOM     41  C   UNL A   1      45.936  26.951  26.435  1.00  0.00    -0.014 A 
BRANCH  41  42
ATOM     42  C   UNL A   1      46.703  28.220  26.396  1.00  0.00     0.031 A 
ATOM     43  C   UNL A   1      48.183  28.149  26.138  1.00  0.00     0.074 A 
ATOM     44  C   UNL A   1      46.103  29.410  26.571  1.00  0.00     0.049 A 
ATOM     45  N   UNL A   1      49.075  29.105  26.123  1.00  0.00    -0.248 NA
ATOM     46  C   UNL A   1      48.732  26.810  25.864  1.00  0.00     0.031 C 
ATOM     47  C   UNL A   1      44.672  29.612  26.784  1.00  0.00     0.029 A 
ATOM     48  N   UNL A   1      46.634  30.676  26.609  1.00  0.00    -0.354 N 
ATOM     49  C   UNL A   1      50.287  28.484  25.850  1.00  0.00     0.074 A 
ATOM     50  C   UNL A   1      50.024  27.067  25.738  1.00  0.00     0.031 C 
ATOM     51  C   UNL A   1      44.440  30.926  26.946  1.00  0.00     0.029 A 
ATOM     52  C   UNL A   1      45.708  31.651  26.886  1.00  0.00     0.049 A 
ATOM     53  H   UNL A   1      47.587  30.865  26.453  1.00  0.00     0.167 HD
ATOM     54  C   UNL A   1      51.509  29.049  25.697  1.00  0.00     0.037 A 
ATOM     55  C   UNL A   1      45.875  32.972  27.095  1.00  0.00     0.037 A 
ATOM     56  C   UNL A   1      51.766  30.460  25.813  1.00  0.00     0.049 A 
ATOM     57  C   UNL A   1      47.261  33.565  27.001  1.00  0.00     0.074 A 
ATOM     58  C   UNL A   1      52.965  31.134  25.659  1.00  0.00     0.029 A 
ATOM     59  N   UNL A   1      50.808  31.414  26.124  1.00  0.00    -0.354 N 
ATOM     60  N   UNL A   1      48.398  32.979  26.715  1.00  0.00    -0.248 NA
ATOM     61  C   UNL A   1      47.382  35.008  27.258  1.00  0.00     0.031 C 
ATOM     62  C   UNL A   1      52.745  32.485  25.941  1.00  0.00     0.029 A 
ATOM     63  C   UNL A   1      51.396  32.667  26.199  1.00  0.00     0.049 A 
ATOM     64  H   UNL A   1      49.852  31.228  26.272  1.00  0.00     0.167 HD
ATOM     65  C   UNL A   1      49.360  33.983  26.722  1.00  0.00     0.074 A 
ATOM     66  C   UNL A   1      48.670  35.218  27.029  1.00  0.00     0.031 C 
ATOM     67  C   UNL A   1      50.694  33.890  26.493  1.00  0.00     0.037 A 
BRANCH  54  68
ATOM     68  C   UNL A   1      52.666  28.133  25.421  1.00  0.00     0.064 A 
ATOM     69  C   UNL A   1      53.096  27.852  24.114  1.00  0.00     0.173 A 
ATOM     70  C   UNL A   1      53.375  27.550  26.482  1.00  0.00     0.173 A 
ATOM     71  F   UNL A   1      52.444  28.372  23.063  1.00  0.00    -0.203 F 
ATOM     72  C   UNL A   1      54.173  27.001  23.882  1.00  0.00     0.198 A 
ATOM     73  C   UNL A   1      54.473  26.727  26.247  1.00  0.00     0.198 A 
ATOM     74  F   UNL A   1      53.009  27.785  27.751  1.00  0.00    -0.203 F 
ATOM     75  F   UNL A   1      54.531  26.704  22.625  1.00  0.00    -0.200 F 
ATOM     76  C   UNL A   1      54.865  26.445  24.947  1.00  0.00     0.200 A 
ATOM     77  F   UNL A   1      55.150  26.203  27.278  1.00  0.00    -0.200 F 
ATOM     78  F   UNL A   1      55.907  25.633  24.721  1.00  0.00    -0.200 F 
ENDBRANCH  54  68
BRANCH  55  79
ATOM     79  C   UNL A   1      44.706  33.830  27.429  1.00  0.00     0.064 A 
ATOM     80  C   UNL A   1      43.987  34.497  26.428  1.00  0.00     0.173 A 
ATOM     81  C   UNL A   1      44.304  34.026  28.759  1.00  0.00     0.173 A 
ATOM     82  F   UNL A   1      44.348  34.365  25.143  1.00  0.00    -0.203 F 
ATOM     83  C   UNL A   1      42.927  35.344  26.745  1.00  0.00     0.198 A 
ATOM     84  C   UNL A   1      43.223  34.847  29.072  1.00  0.00     0.198 A 
ATOM     85  F   UNL A   1      44.960  33.414  29.756  1.00  0.00    -0.203 F 
ATOM     86  F   UNL A   1      42.292  36.012  25.771  1.00  0.00    -0.200 F 
ATOM     87  C   UNL A   1      42.541  35.513  28.066  1.00  0.00     0.200 A 
ATOM     88  F   UNL A   1      42.846  34.995  30.349  1.00  0.00    -0.200 F 
ATOM     89  F   UNL A   1      41.520  36.326  28.370  1.00  0.00    -0.200 F 
ENDBRANCH  55  79
BRANCH  67  90
ATOM     90  C   UNL A   1      51.493  35.164  26.515  1.00  0.00     0.064 A 
ATOM     91  C   UNL A   1      52.110  35.635  27.683  1.00  0.00     0.173 A 
ATOM     92  C   UNL A   1      51.682  35.900  25.333  1.00  0.00     0.173 A 
ATOM     93  F   UNL A   1      51.954  34.978  28.842  1.00  0.00    -0.203 F 
ATOM     94  C   UNL A   1      52.859  36.811  27.675  1.00  0.00     0.198 A 
ATOM     95  C   UNL A   1      52.462  37.053  25.321  1.00  0.00     0.198 A 
ATOM     96  F   UNL A   1      51.123  35.490  24.184  1.00  0.00    -0.203 F 
ATOM     97  F   UNL A   1      53.393  37.270  28.814  1.00  0.00    -0.200 F 
ATOM     98  C   UNL A   1      53.041  37.513  26.493  1.00  0.00     0.200 A 
ATOM     99  F   UNL A   1      52.652  37.719  24.173  1.00  0.00    -0.200 F 
ATOM    100  F   UNL A   1      53.770  38.637  26.485  1.00  0.00    -0.200 F 
ENDBRANCH  67  90
ENDBRANCH  41  42
ENDBRANCH  34  36
ENDBRANCH  33  34
ENDBRANCH  32  33
ENDBRANCH  31  32
ENDBRANCH  30  31
ENDBRANCH  29  30
ENDBRANCH  28  29
ENDBRANCH  27  28
ENDBRANCH   1  27
TORSDOF 24
ENDMDL
MODEL 3
REMARK VINA RESULT:      -8.7      5.180     10.358
REMARK SMILES CCN(c1ccnc(C(=O)OCCOCCOCCOCCOC(=O)c2ccc(-c3c4nc(c(-c5c(F)c(F)c(F)c(F)c5F)c5ccc([nH]5)c(-c5c(F)c(F)c(F)c(F)c5F)c5nc(c(-c6c(F)c(F)c(F)c(F)c6F)c6ccc3[nH]6)C=C5)C=C4)cc2)c1)S(=O)(=O)c1ccccc1
REMARK SMILES IDX 16 1 15 2 14 3 13 4 12 5 11 6 9 7 10 8 8 9 4 10 5 11 89 12
REMARK SMILES IDX 6 13 7 14 3 15 2 16 1 17 90 18 91 19 92 20 93 21 94 22 98 23
REMARK SMILES IDX 95 24 97 25 96 26 17 27 18 28 19 29 20 30 21 31 22 32 23 33
REMARK SMILES IDX 24 34 25 35 26 36 27 37 88 38 28 39 87 40 29 41 30 42 31 43
REMARK SMILES IDX 81 44 32 45 86 46 80 47 82 48 33 49 85 50 79 51 78 52 34 54
REMARK SMILES IDX 66 55 46 56 65 57 47 58 50 59 64 60 83 61 48 62 49 63 63 65
REMARK SMILES IDX 84 66 51 67 35 68 36 69 44 70 37 71 38 72 42 73 45 74 39 75
REMARK SMILES IDX 40 76 43 77 41 78 67 79 68 80 76 81 69 82 70 83 74 84 77 85
REMARK SMILES IDX 71 86 72 87 75 88 73 89 52 90 53 91 61 92 54 93 55 94 59 95
REMARK SMILES IDX 62 96 56 97 57 98 60 99 58 100
REMARK H PARENT 82 53 50 64
REMARK Flexibility Score: inf
ROOT
ATOM      1  C   UNL A   1      34.297  32.864  27.827  1.00  0.00     0.188 C 
ENDROOT
BRANCH   1   2
ATOM      2  C   UNL A   1      33.953  31.361  27.787  1.00  0.00     0.188 C 
BRANCH   2   3
ATOM      3  O   UNL A   1      32.722  31.092  27.138  1.00  0.00    -0.376 OA
BRANCH   3   4
ATOM      4  C   UNL A   1      32.405  29.795  26.669  1.00  0.00     0.202 C 
BRANCH   4   5
ATOM      5  C   UNL A   1      33.279  28.565  26.963  1.00  0.00     0.261 C 
BRANCH   5   6
ATOM      6  O   UNL A   1      34.028  28.039  25.872  1.00  0.00    -0.459 OA
BRANCH   6   7
ATOM      7  C   UNL A   1      33.457  28.044  24.645  1.00  0.00     0.357 C 
ATOM      8  O   UNL A   1      33.787  28.753  23.712  1.00  0.00    -0.244 OA
BRANCH   7   9
ATOM      9  C   UNL A   1      32.433  26.945  24.615  1.00  0.00     0.150 A 
ATOM     10  C   UNL A   1      31.817  24.674  25.060  1.00  0.00     0.056 A 
ATOM     11  C   UNL A   1      30.493  25.029  24.831  1.00  0.00     0.047 A 
ATOM     12  C   UNL A   1      32.804  25.630  24.854  1.00  0.00     0.063 A 
ATOM     13  C   UNL A   1      30.224  26.330  24.431  1.00  0.00     0.114 A 
ATOM     14  N   UNL A   1      31.153  27.306  24.361  1.00  0.00    -0.249 NA
BRANCH  10  15
ATOM     15  N   UNL A   1      32.234  23.393  25.604  1.00  0.00    -0.266 N 
BRANCH  15  16
ATOM     16  C   UNL A   1      33.306  23.436  26.655  1.00  0.00     0.132 C 
ATOM     17  C   UNL A   1      32.953  22.576  27.852  1.00  0.00     0.028 C 
ENDBRANCH  15  16
BRANCH  15  18
ATOM     18  S   UNL A   1      32.518  22.118  24.431  1.00  0.00     0.264 S 
ATOM     19  O   UNL A   1      32.020  20.884  25.006  1.00  0.00    -0.201 OA
ATOM     20  O   UNL A   1      32.020  22.585  23.153  1.00  0.00    -0.201 OA
BRANCH  18  21
ATOM     21  C   UNL A   1      34.288  21.949  24.272  1.00  0.00     0.088 A 
ATOM     22  C   UNL A   1      34.929  20.900  24.943  1.00  0.00     0.022 A 
ATOM     23  C   UNL A   1      35.030  22.891  23.549  1.00  0.00     0.022 A 
ATOM     24  C   UNL A   1      36.322  20.848  24.972  1.00  0.00     0.001 A 
ATOM     25  C   UNL A   1      36.427  22.833  23.587  1.00  0.00     0.001 A 
ATOM     26  C   UNL A   1      37.068  21.823  24.310  1.00  0.00     0.000 A 
ENDBRANCH  18  21
ENDBRANCH  15  18
ENDBRANCH  10  15
ENDBRANCH   7   9
ENDBRANCH   6   7
ENDBRANCH   5   6
ENDBRANCH   4   5
ENDBRANCH   3   4
ENDBRANCH   2   3
ENDBRANCH   1   2
BRANCH   1  27
ATOM     27  O   UNL A   1      34.369  33.426  29.129  1.00  0.00    -0.377 OA
BRANCH  27  28
ATOM     28  C   UNL A   1      33.520  34.533  29.446  1.00  0.00     0.188 C 
BRANCH  28  29
ATOM     29  C   UNL A   1      33.701  35.397  30.722  1.00  0.00     0.188 C 
BRANCH  29  30
ATOM     30  O   UNL A   1      32.957  34.963  31.848  1.00  0.00    -0.376 OA
BRANCH  30  31
ATOM     31  C   UNL A   1      33.645  34.400  32.949  1.00  0.00     0.202 C 
BRANCH  31  32
ATOM     32  C   UNL A   1      34.387  33.080  32.705  1.00  0.00     0.261 C 
BRANCH  32  33
ATOM     33  O   UNL A   1      35.670  32.956  33.337  1.00  0.00    -0.460 OA
BRANCH  33  34
ATOM     34  C   UNL A   1      36.744  32.836  32.531  1.00  0.00     0.338 C 
ATOM     35  O   UNL A   1      36.856  33.230  31.381  1.00  0.00    -0.246 OA
BRANCH  34  36
ATOM     36  C   UNL A   1      37.852  32.294  33.341  1.00  0.00     0.060 A 
ATOM     37  C   UNL A   1      37.564  31.418  34.396  1.00  0.00     0.016 A 
ATOM     38  C   UNL A   1      39.172  32.650  33.055  1.00  0.00     0.016 A 
ATOM     39  C   UNL A   1      38.597  30.924  35.193  1.00  0.00     0.010 A 
ATOM     40  C   UNL A   1      40.202  32.171  33.866  1.00  0.00     0.010 A 
ATOM     41  C   UNL A   1      39.915  31.335  34.960  1.00  0.00    -0.014 A 
BRANCH  41  42
ATOM     42  C   UNL A   1      40.966  31.056  35.968  1.00  0.00     0.031 A 
ATOM     43  C   UNL A   1      41.787  29.805  35.812  1.00  0.00     0.074 A 
ATOM     44  C   UNL A   1      41.200  31.894  36.991  1.00  0.00     0.049 A 
ATOM     45  N   UNL A   1      42.712  29.309  36.593  1.00  0.00    -0.248 NA
ATOM     46  C   UNL A   1      41.521  28.999  34.609  1.00  0.00     0.031 C 
ATOM     47  C   UNL A   1      40.503  33.157  37.226  1.00  0.00     0.029 A 
ATOM     48  N   UNL A   1      42.087  31.798  38.036  1.00  0.00    -0.354 N 
ATOM     49  C   UNL A   1      43.129  28.133  35.983  1.00  0.00     0.074 A 
ATOM     50  C   UNL A   1      42.336  27.971  34.785  1.00  0.00     0.031 C 
ATOM     51  C   UNL A   1      40.980  33.712  38.354  1.00  0.00     0.029 A 
ATOM     52  C   UNL A   1      41.986  32.827  38.939  1.00  0.00     0.049 A 
ATOM     53  H   UNL A   1      42.733  31.061  38.127  1.00  0.00     0.167 HD
ATOM     54  C   UNL A   1      44.095  27.272  36.383  1.00  0.00     0.037 A 
ATOM     55  C   UNL A   1      42.614  33.012  40.117  1.00  0.00     0.037 A 
ATOM     56  C   UNL A   1      44.878  27.437  37.578  1.00  0.00     0.049 A 
ATOM     57  C   UNL A   1      43.626  31.994  40.582  1.00  0.00     0.074 A 
ATOM     58  C   UNL A   1      45.892  26.629  38.063  1.00  0.00     0.029 A 
ATOM     59  N   UNL A   1      44.726  28.476  38.486  1.00  0.00    -0.354 N 
ATOM     60  N   UNL A   1      44.038  30.899  39.989  1.00  0.00    -0.248 NA
ATOM     61  C   UNL A   1      44.264  32.241  41.884  1.00  0.00     0.031 C 
ATOM     62  C   UNL A   1      46.308  27.143  39.295  1.00  0.00     0.029 A 
ATOM     63  C   UNL A   1      45.606  28.312  39.544  1.00  0.00     0.049 A 
ATOM     64  H   UNL A   1      44.087  29.219  38.391  1.00  0.00     0.167 HD
ATOM     65  C   UNL A   1      45.004  30.349  40.823  1.00  0.00     0.074 A 
ATOM     66  C   UNL A   1      45.126  31.238  41.959  1.00  0.00     0.031 C 
ATOM     67  C   UNL A   1      45.726  29.212  40.663  1.00  0.00     0.037 A 
BRANCH  54  68
ATOM     68  C   UNL A   1      44.332  26.055  35.536  1.00  0.00     0.064 A 
ATOM     69  C   UNL A   1      43.592  24.874  35.709  1.00  0.00     0.173 A 
ATOM     70  C   UNL A   1      45.294  26.080  34.515  1.00  0.00     0.173 A 
ATOM     71  F   UNL A   1      42.670  24.791  36.681  1.00  0.00    -0.203 F 
ATOM     72  C   UNL A   1      43.828  23.758  34.911  1.00  0.00     0.198 A 
ATOM     73  C   UNL A   1      45.503  24.974  33.697  1.00  0.00     0.198 A 
ATOM     74  F   UNL A   1      46.028  27.183  34.304  1.00  0.00    -0.203 F 
ATOM     75  F   UNL A   1      43.148  22.624  35.131  1.00  0.00    -0.200 F 
ATOM     76  C   UNL A   1      44.776  23.810  33.902  1.00  0.00     0.200 A 
ATOM     77  F   UNL A   1      46.409  25.032  32.711  1.00  0.00    -0.200 F 
ATOM     78  F   UNL A   1      44.995  22.738  33.128  1.00  0.00    -0.200 F 
ENDBRANCH  54  68
BRANCH  55  79
ATOM     79  C   UNL A   1      42.299  34.202  40.953  1.00  0.00     0.064 A 
ATOM     80  C   UNL A   1      41.244  34.181  41.876  1.00  0.00     0.173 A 
ATOM     81  C   UNL A   1      43.026  35.395  40.824  1.00  0.00     0.173 A 
ATOM     82  F   UNL A   1      40.501  33.074  42.018  1.00  0.00    -0.203 F 
ATOM     83  C   UNL A   1      40.914  35.312  42.619  1.00  0.00     0.198 A 
ATOM     84  C   UNL A   1      42.717  36.516  41.592  1.00  0.00     0.198 A 
ATOM     85  F   UNL A   1      44.044  35.471  39.954  1.00  0.00    -0.203 F 
ATOM     86  F   UNL A   1      39.866  35.280  43.454  1.00  0.00    -0.200 F 
ATOM     87  C   UNL A   1      41.655  36.476  42.482  1.00  0.00     0.200 A 
ATOM     88  F   UNL A   1      43.444  37.633  41.466  1.00  0.00    -0.200 F 
ATOM     89  F   UNL A   1      41.338  37.563  43.199  1.00  0.00    -0.200 F 
ENDBRANCH  55  79
BRANCH  67  90
ATOM     90  C   UNL A   1      46.751  28.884  41.713  1.00  0.00     0.064 A 
ATOM     91  C   UNL A   1      48.083  29.313  41.611  1.00  0.00     0.173 A 
ATOM     92  C   UNL A   1      46.381  28.169  42.863  1.00  0.00     0.173 A 
ATOM     93  F   UNL A   1      48.493  29.991  40.529  1.00  0.00    -0.203 F 
ATOM     94  C   UNL A   1      49.011  29.010  42.605  1.00  0.00     0.198 A 
ATOM     95  C   UNL A   1      47.302  27.900  43.872  1.00  0.00     0.198 A 
ATOM     96  F   UNL A   1      45.118  27.743  43.018  1.00  0.00    -0.203 F 
ATOM     97  F   UNL A   1      50.290  29.383  42.460  1.00  0.00    -0.200 F 
ATOM     98  C   UNL A   1      48.618  28.312  43.737  1.00  0.00     0.200 A 
ATOM     99  F   UNL A   1      46.915  27.242  44.974  1.00  0.00    -0.200 F 
ATOM    100  F   UNL A   1      49.510  28.032  44.697  1.00  0.00    -0.200 F 
ENDBRANCH  67  90
ENDBRANCH  41  42
ENDBRANCH  34  36
ENDBRANCH  33  34
ENDBRANCH  32  33
ENDBRANCH  31  32
ENDBRANCH  30  31
ENDBRANCH  29  30
ENDBRANCH  28  29
ENDBRANCH  27  28
ENDBRANCH   1  27
TORSDOF 24
ENDMDL
