MODEL 1
REMARK VINA RESULT:     -10.6      0.000      0.000
REMARK SMILES CCc1csc(N2[C@@H]3CC[C@H]2C[C@H](CC(=O)OCCOCCOCCOCCOC(=O)c2ccc(-c4c5nc(c(-c6c(F)c(F)c(F)c(F)c6F)c6ccc([nH]6)c(-c6c(F)c(F)c(F)c(F)c6F)c6nc(c(-c7c(F)c(F)c(F)c(F)c7F)c7ccc4[nH]7)C=C6)C=C5)cc2)C3)n1
REMARK SMILES IDX 22 1 21 2 20 3 19 4 18 5 17 6 15 7 16 8 14 9 13 10 7 11 8 12
REMARK SMILES IDX 11 13 9 14 95 15 10 16 12 17 6 18 3 19 4 20 96 21 5 22 2 23
REMARK SMILES IDX 1 24 23 25 24 26 25 27 26 28 27 29 28 30 29 31 30 32 31 33
REMARK SMILES IDX 32 34 33 35 94 36 34 37 93 38 35 39 36 40 37 41 87 42 38 43
REMARK SMILES IDX 92 44 86 45 88 46 39 47 91 48 85 49 84 50 40 52 72 53 52 54
REMARK SMILES IDX 71 55 53 56 56 57 70 58 89 59 54 60 55 61 69 63 90 64 57 65
REMARK SMILES IDX 41 66 42 67 50 68 43 69 44 70 48 71 51 72 45 73 46 74 49 75
REMARK SMILES IDX 47 76 73 77 74 78 82 79 75 80 76 81 80 82 83 83 77 84 78 85
REMARK SMILES IDX 81 86 79 87 58 88 59 89 67 90 60 91 61 92 65 93 68 94 62 95
REMARK SMILES IDX 63 96 66 97 64 98
REMARK H PARENT 88 51 56 62
REMARK Flexibility Score: inf
ROOT
ATOM      1  C   UNL A   1      34.822  22.993  27.004  1.00  0.00     0.188 C 
ENDROOT
BRANCH   1   2
ATOM      2  C   UNL A   1      34.166  21.618  26.860  1.00  0.00     0.188 C 
BRANCH   2   3
ATOM      3  O   UNL A   1      32.757  21.539  26.824  1.00  0.00    -0.376 OA
BRANCH   3   4
ATOM      4  C   UNL A   1      32.035  22.012  25.697  1.00  0.00     0.202 C 
BRANCH   4   5
ATOM      5  C   UNL A   1      32.309  21.592  24.239  1.00  0.00     0.261 C 
BRANCH   5   6
ATOM      6  O   UNL A   1      33.555  22.000  23.643  1.00  0.00    -0.463 OA
BRANCH   6   7
ATOM      7  C   UNL A   1      33.506  23.129  22.901  1.00  0.00     0.306 C 
ATOM      8  O   UNL A   1      34.489  23.647  22.374  1.00  0.00    -0.252 OA
BRANCH   7   9
ATOM      9  C   UNL A   1      32.133  23.753  22.721  1.00  0.00     0.126 C 
BRANCH   9  10
ATOM     10  C   UNL A   1      31.806  25.189  23.147  1.00  0.00     0.004 C 
ATOM     11  N   UNL A   1      29.928  27.444  22.845  1.00  0.00    -0.342 N 
ATOM     12  C   UNL A   1      29.924  26.667  24.086  1.00  0.00     0.085 C 
ATOM     13  C   UNL A   1      31.353  27.633  22.524  1.00  0.00     0.085 C 
ATOM     14  C   UNL A   1      30.961  27.429  24.934  1.00  0.00     0.027 C 
ATOM     15  C   UNL A   1      30.383  25.236  23.750  1.00  0.00     0.029 C 
ATOM     16  C   UNL A   1      31.898  28.086  23.899  1.00  0.00     0.027 C 
ATOM     17  C   UNL A   1      31.942  26.270  22.063  1.00  0.00     0.029 C 
BRANCH  11  18
ATOM     18  C   UNL A   1      29.092  28.520  22.675  1.00  0.00     0.186 A 
ATOM     19  C   UNL A   1      28.483  30.626  22.200  1.00  0.00     0.053 A 
ATOM     20  C   UNL A   1      27.344  30.218  22.860  1.00  0.00     0.092 A 
ATOM     21  N   UNL A   1      29.465  29.648  22.105  1.00  0.00    -0.225 NA
ATOM     22  S   UNL A   1      27.459  28.566  23.262  1.00  0.00    -0.105 S 
BRANCH  19  23
ATOM     23  C   UNL A   1      28.768  31.962  21.587  1.00  0.00     0.054 C 
ATOM     24  C   UNL A   1      28.022  32.245  20.291  1.00  0.00     0.011 C 
ENDBRANCH  19  23
ENDBRANCH  11  18
ENDBRANCH   9  10
ENDBRANCH   7   9
ENDBRANCH   6   7
ENDBRANCH   5   6
ENDBRANCH   4   5
ENDBRANCH   3   4
ENDBRANCH   2   3
ENDBRANCH   1   2
BRANCH   1  25
ATOM     25  O   UNL A   1      35.397  23.544  25.836  1.00  0.00    -0.377 OA
BRANCH  25  26
ATOM     26  C   UNL A   1      36.755  23.264  25.512  1.00  0.00     0.188 C 
BRANCH  26  27
ATOM     27  C   UNL A   1      37.125  22.091  24.583  1.00  0.00     0.188 C 
BRANCH  27  28
ATOM     28  O   UNL A   1      36.953  20.801  25.144  1.00  0.00    -0.376 OA
BRANCH  28  29
ATOM     29  C   UNL A   1      37.814  19.752  24.725  1.00  0.00     0.202 C 
BRANCH  29  30
ATOM     30  C   UNL A   1      39.112  19.540  25.524  1.00  0.00     0.261 C 
BRANCH  30  31
ATOM     31  O   UNL A   1      39.879  20.724  25.804  1.00  0.00    -0.460 OA
BRANCH  31  32
ATOM     32  C   UNL A   1      40.770  20.667  26.810  1.00  0.00     0.338 C 
ATOM     33  O   UNL A   1      41.475  19.718  27.125  1.00  0.00    -0.246 OA
BRANCH  32  34
ATOM     34  C   UNL A   1      40.910  22.014  27.390  1.00  0.00     0.060 A 
ATOM     35  C   UNL A   1      40.180  23.065  26.822  1.00  0.00     0.016 A 
ATOM     36  C   UNL A   1      41.800  22.252  28.440  1.00  0.00     0.016 A 
ATOM     37  C   UNL A   1      40.394  24.372  27.252  1.00  0.00     0.010 A 
ATOM     38  C   UNL A   1      42.025  23.567  28.860  1.00  0.00     0.010 A 
ATOM     39  C   UNL A   1      41.365  24.635  28.228  1.00  0.00    -0.014 A 
BRANCH  39  40
ATOM     40  C   UNL A   1      41.844  26.029  28.393  1.00  0.00     0.031 A 
ATOM     41  C   UNL A   1      43.183  26.396  27.808  1.00  0.00     0.074 A 
ATOM     42  C   UNL A   1      41.080  26.970  28.973  1.00  0.00     0.049 A 
ATOM     43  N   UNL A   1      43.796  27.553  27.787  1.00  0.00    -0.248 NA
ATOM     44  C   UNL A   1      43.931  25.309  27.157  1.00  0.00     0.031 C 
ATOM     45  C   UNL A   1      39.751  26.749  29.539  1.00  0.00     0.029 A 
ATOM     46  N   UNL A   1      41.317  28.307  29.176  1.00  0.00    -0.354 N 
ATOM     47  C   UNL A   1      44.997  27.330  27.123  1.00  0.00     0.074 A 
ATOM     48  C   UNL A   1      45.047  25.922  26.795  1.00  0.00     0.031 C 
ATOM     49  C   UNL A   1      39.287  27.913  30.025  1.00  0.00     0.029 A 
ATOM     50  C   UNL A   1      40.297  28.953  29.830  1.00  0.00     0.049 A 
ATOM     51  H   UNL A   1      42.139  28.759  28.880  1.00  0.00     0.167 HD
ATOM     52  C   UNL A   1      45.965  28.221  26.801  1.00  0.00     0.037 A 
ATOM     53  C   UNL A   1      40.201  30.235  30.233  1.00  0.00     0.037 A 
ATOM     54  C   UNL A   1      45.915  29.620  27.129  1.00  0.00     0.049 A 
ATOM     55  C   UNL A   1      41.324  31.193  29.922  1.00  0.00     0.074 A 
ATOM     56  C   UNL A   1      46.840  30.609  26.841  1.00  0.00     0.029 A 
ATOM     57  N   UNL A   1      44.884  30.231  27.829  1.00  0.00    -0.354 N 
ATOM     58  N   UNL A   1      42.442  30.982  29.271  1.00  0.00    -0.248 NA
ATOM     59  C   UNL A   1      41.162  32.576  30.396  1.00  0.00     0.031 C 
ATOM     60  C   UNL A   1      46.397  31.804  27.418  1.00  0.00     0.029 A 
ATOM     61  C   UNL A   1      45.163  31.577  28.005  1.00  0.00     0.049 A 
ATOM     62  H   UNL A   1      44.074  29.774  28.153  1.00  0.00     0.167 HD
ATOM     63  C   UNL A   1      43.098  32.207  29.225  1.00  0.00     0.074 A 
ATOM     64  C   UNL A   1      42.242  33.160  29.899  1.00  0.00     0.031 C 
ATOM     65  C   UNL A   1      44.299  32.517  28.673  1.00  0.00     0.037 A 
BRANCH  52  66
ATOM     66  C   UNL A   1      47.177  27.697  26.083  1.00  0.00     0.064 A 
ATOM     67  C   UNL A   1      48.301  27.219  26.775  1.00  0.00     0.173 A 
ATOM     68  C   UNL A   1      47.205  27.655  24.681  1.00  0.00     0.173 A 
ATOM     69  F   UNL A   1      48.334  27.253  28.116  1.00  0.00    -0.203 F 
ATOM     70  C   UNL A   1      49.417  26.746  26.090  1.00  0.00     0.198 A 
ATOM     71  C   UNL A   1      48.308  27.149  24.000  1.00  0.00     0.198 A 
ATOM     72  F   UNL A   1      46.158  28.098  23.970  1.00  0.00    -0.203 F 
ATOM     73  F   UNL A   1      50.500  26.346  26.771  1.00  0.00    -0.200 F 
ATOM     74  C   UNL A   1      49.417  26.704  24.703  1.00  0.00     0.200 A 
ATOM     75  F   UNL A   1      48.301  27.097  22.660  1.00  0.00    -0.200 F 
ATOM     76  F   UNL A   1      50.490  26.243  24.046  1.00  0.00    -0.200 F 
ENDBRANCH  52  66
BRANCH  53  77
ATOM     77  C   UNL A   1      38.998  30.695  30.978  1.00  0.00     0.064 A 
ATOM     78  C   UNL A   1      38.928  30.606  32.375  1.00  0.00     0.173 A 
ATOM     79  C   UNL A   1      37.877  31.201  30.301  1.00  0.00     0.173 A 
ATOM     80  F   UNL A   1      39.962  30.104  33.066  1.00  0.00    -0.203 F 
ATOM     81  C   UNL A   1      37.775  30.980  33.065  1.00  0.00     0.198 A 
ATOM     82  C   UNL A   1      36.738  31.605  30.995  1.00  0.00     0.198 A 
ATOM     83  F   UNL A   1      37.889  31.304  28.965  1.00  0.00    -0.203 F 
ATOM     84  F   UNL A   1      37.715  30.830  34.395  1.00  0.00    -0.200 F 
ATOM     85  C   UNL A   1      36.684  31.486  32.375  1.00  0.00     0.200 A 
ATOM     86  F   UNL A   1      35.690  32.105  30.324  1.00  0.00    -0.200 F 
ATOM     87  F   UNL A   1      35.578  31.845  33.039  1.00  0.00    -0.200 F 
ENDBRANCH  53  77
BRANCH  65  88
ATOM     88  C   UNL A   1      44.735  33.955  28.733  1.00  0.00     0.064 A 
ATOM     89  C   UNL A   1      45.510  34.454  29.790  1.00  0.00     0.173 A 
ATOM     90  C   UNL A   1      44.385  34.843  27.702  1.00  0.00     0.173 A 
ATOM     91  F   UNL A   1      45.863  33.653  30.806  1.00  0.00    -0.203 F 
ATOM     92  C   UNL A   1      45.879  35.797  29.836  1.00  0.00     0.198 A 
ATOM     93  C   UNL A   1      44.790  36.174  27.732  1.00  0.00     0.198 A 
ATOM     94  F   UNL A   1      43.657  34.417  26.659  1.00  0.00    -0.203 F 
ATOM     95  F   UNL A   1      46.561  36.266  30.891  1.00  0.00    -0.200 F 
ATOM     96  C   UNL A   1      45.525  36.654  28.805  1.00  0.00     0.200 A 
ATOM     97  F   UNL A   1      44.462  36.995  26.725  1.00  0.00    -0.200 F 
ATOM     98  F   UNL A   1      45.882  37.945  28.851  1.00  0.00    -0.200 F 
ENDBRANCH  65  88
ENDBRANCH  39  40
ENDBRANCH  32  34
ENDBRANCH  31  32
ENDBRANCH  30  31
ENDBRANCH  29  30
ENDBRANCH  28  29
ENDBRANCH  27  28
ENDBRANCH  26  27
ENDBRANCH  25  26
ENDBRANCH   1  25
TORSDOF 23
ENDMDL
MODEL 2
REMARK VINA RESULT:      -9.9      0.599      7.148
REMARK SMILES CCc1csc(N2[C@@H]3CC[C@H]2C[C@H](CC(=O)OCCOCCOCCOCCOC(=O)c2ccc(-c4c5nc(c(-c6c(F)c(F)c(F)c(F)c6F)c6ccc([nH]6)c(-c6c(F)c(F)c(F)c(F)c6F)c6nc(c(-c7c(F)c(F)c(F)c(F)c7F)c7ccc4[nH]7)C=C6)C=C5)cc2)C3)n1
REMARK SMILES IDX 22 1 21 2 20 3 19 4 18 5 17 6 15 7 16 8 14 9 13 10 7 11 8 12
REMARK SMILES IDX 11 13 9 14 95 15 10 16 12 17 6 18 3 19 4 20 96 21 5 22 2 23
REMARK SMILES IDX 1 24 23 25 24 26 25 27 26 28 27 29 28 30 29 31 30 32 31 33
REMARK SMILES IDX 32 34 33 35 94 36 34 37 93 38 35 39 36 40 37 41 87 42 38 43
REMARK SMILES IDX 92 44 86 45 88 46 39 47 91 48 85 49 84 50 40 52 72 53 52 54
REMARK SMILES IDX 71 55 53 56 56 57 70 58 89 59 54 60 55 61 69 63 90 64 57 65
REMARK SMILES IDX 41 66 42 67 50 68 43 69 44 70 48 71 51 72 45 73 46 74 49 75
REMARK SMILES IDX 47 76 73 77 74 78 82 79 75 80 76 81 80 82 83 83 77 84 78 85
REMARK SMILES IDX 81 86 79 87 58 88 59 89 67 90 60 91 61 92 65 93 68 94 62 95
REMARK SMILES IDX 63 96 66 97 64 98
REMARK H PARENT 88 51 56 62
REMARK Flexibility Score: inf
ROOT
ATOM      1  C   UNL A   1      34.713  22.955  27.282  1.00  0.00     0.188 C 
ENDROOT
BRANCH   1   2
ATOM      2  C   UNL A   1      33.521  22.005  27.411  1.00  0.00     0.188 C 
BRANCH   2   3
ATOM      3  O   UNL A   1      32.242  22.551  27.660  1.00  0.00    -0.376 OA
BRANCH   3   4
ATOM      4  C   UNL A   1      31.438  23.026  26.590  1.00  0.00     0.202 C 
BRANCH   4   5
ATOM      5  C   UNL A   1      31.397  22.405  25.180  1.00  0.00     0.261 C 
BRANCH   5   6
ATOM      6  O   UNL A   1      32.652  22.137  24.525  1.00  0.00    -0.463 OA
BRANCH   6   7
ATOM      7  C   UNL A   1      32.886  22.848  23.398  1.00  0.00     0.306 C 
ATOM      8  O   UNL A   1      33.960  22.850  22.801  1.00  0.00    -0.252 OA
BRANCH   7   9
ATOM      9  C   UNL A   1      31.720  23.664  22.868  1.00  0.00     0.126 C 
BRANCH   9  10
ATOM     10  C   UNL A   1      31.542  25.158  23.168  1.00  0.00     0.004 C 
ATOM     11  N   UNL A   1      29.768  27.498  22.881  1.00  0.00    -0.342 N 
ATOM     12  C   UNL A   1      29.909  26.858  24.192  1.00  0.00     0.085 C 
ATOM     13  C   UNL A   1      31.138  27.548  22.339  1.00  0.00     0.085 C 
ATOM     14  C   UNL A   1      31.103  27.629  24.788  1.00  0.00     0.027 C 
ATOM     15  C   UNL A   1      30.231  25.370  23.960  1.00  0.00     0.029 C 
ATOM     16  C   UNL A   1      31.908  28.104  23.559  1.00  0.00     0.027 C 
ATOM     17  C   UNL A   1      31.573  26.105  21.958  1.00  0.00     0.029 C 
BRANCH  11  18
ATOM     18  C   UNL A   1      28.978  28.607  22.710  1.00  0.00     0.186 A 
ATOM     19  C   UNL A   1      28.439  30.710  22.147  1.00  0.00     0.053 A 
ATOM     20  C   UNL A   1      27.344  30.412  22.928  1.00  0.00     0.092 A 
ATOM     21  N   UNL A   1      29.356  29.673  22.035  1.00  0.00    -0.225 NA
ATOM     22  S   UNL A   1      27.409  28.784  23.431  1.00  0.00    -0.105 S 
BRANCH  19  23
ATOM     23  C   UNL A   1      28.737  31.986  21.421  1.00  0.00     0.054 C 
ATOM     24  C   UNL A   1      28.033  32.140  20.080  1.00  0.00     0.011 C 
ENDBRANCH  19  23
ENDBRANCH  11  18
ENDBRANCH   9  10
ENDBRANCH   7   9
ENDBRANCH   6   7
ENDBRANCH   5   6
ENDBRANCH   4   5
ENDBRANCH   3   4
ENDBRANCH   2   3
ENDBRANCH   1   2
BRANCH   1  25
ATOM     25  O   UNL A   1      35.193  23.193  25.974  1.00  0.00    -0.377 OA
BRANCH  25  26
ATOM     26  C   UNL A   1      36.560  22.946  25.663  1.00  0.00     0.188 C 
BRANCH  26  27
ATOM     27  C   UNL A   1      36.962  21.869  24.637  1.00  0.00     0.188 C 
BRANCH  27  28
ATOM     28  O   UNL A   1      36.789  20.531  25.070  1.00  0.00    -0.376 OA
BRANCH  28  29
ATOM     29  C   UNL A   1      37.754  19.559  24.693  1.00  0.00     0.202 C 
BRANCH  29  30
ATOM     30  C   UNL A   1      39.041  19.476  25.530  1.00  0.00     0.261 C 
BRANCH  30  31
ATOM     31  O   UNL A   1      39.373  20.650  26.293  1.00  0.00    -0.460 OA
BRANCH  31  32
ATOM     32  C   UNL A   1      40.572  20.682  26.900  1.00  0.00     0.338 C 
ATOM     33  O   UNL A   1      41.399  19.781  26.961  1.00  0.00    -0.246 OA
BRANCH  32  34
ATOM     34  C   UNL A   1      40.837  22.061  27.344  1.00  0.00     0.060 A 
ATOM     35  C   UNL A   1      40.203  23.113  26.673  1.00  0.00     0.016 A 
ATOM     36  C   UNL A   1      41.750  22.320  28.369  1.00  0.00     0.016 A 
ATOM     37  C   UNL A   1      40.537  24.431  26.972  1.00  0.00     0.010 A 
ATOM     38  C   UNL A   1      42.097  23.644  28.659  1.00  0.00     0.010 A 
ATOM     39  C   UNL A   1      41.533  24.699  27.921  1.00  0.00    -0.014 A 
BRANCH  39  40
ATOM     40  C   UNL A   1      42.138  26.054  27.950  1.00  0.00     0.031 A 
ATOM     41  C   UNL A   1      41.395  27.152  28.666  1.00  0.00     0.074 A 
ATOM     42  C   UNL A   1      43.353  26.290  27.427  1.00  0.00     0.049 A 
ATOM     43  N   UNL A   1      41.736  28.401  28.862  1.00  0.00    -0.248 NA
ATOM     44  C   UNL A   1      40.091  26.789  29.242  1.00  0.00     0.031 C 
ATOM     45  C   UNL A   1      44.187  25.303  26.747  1.00  0.00     0.029 A 
ATOM     46  N   UNL A   1      44.098  27.443  27.394  1.00  0.00    -0.354 N 
ATOM     47  C   UNL A   1      40.690  28.967  29.580  1.00  0.00     0.074 A 
ATOM     48  C   UNL A   1      39.685  27.942  29.749  1.00  0.00     0.031 C 
ATOM     49  C   UNL A   1      45.333  25.893  26.363  1.00  0.00     0.029 A 
ATOM     50  C   UNL A   1      45.300  27.303  26.747  1.00  0.00     0.049 A 
ATOM     51  H   UNL A   1      43.798  28.289  27.797  1.00  0.00     0.167 HD
ATOM     52  C   UNL A   1      40.582  30.226  30.069  1.00  0.00     0.037 A 
ATOM     53  C   UNL A   1      46.256  28.217  26.485  1.00  0.00     0.037 A 
ATOM     54  C   UNL A   1      41.583  31.246  29.899  1.00  0.00     0.049 A 
ATOM     55  C   UNL A   1      46.081  29.631  26.982  1.00  0.00     0.074 A 
ATOM     56  C   UNL A   1      41.574  32.550  30.362  1.00  0.00     0.029 A 
ATOM     57  N   UNL A   1      42.770  31.078  29.201  1.00  0.00    -0.354 N 
ATOM     58  N   UNL A   1      45.103  30.152  27.683  1.00  0.00    -0.248 NA
ATOM     59  C   UNL A   1      47.155  30.581  26.657  1.00  0.00     0.031 C 
ATOM     60  C   UNL A   1      42.728  33.189  29.894  1.00  0.00     0.029 A 
ATOM     61  C   UNL A   1      43.489  32.263  29.198  1.00  0.00     0.049 A 
ATOM     62  H   UNL A   1      43.059  30.242  28.770  1.00  0.00     0.167 HD
ATOM     63  C   UNL A   1      45.459  31.476  27.914  1.00  0.00     0.074 A 
ATOM     64  C   UNL A   1      46.752  31.672  27.293  1.00  0.00     0.031 C 
ATOM     65  C   UNL A   1      44.779  32.443  28.581  1.00  0.00     0.037 A 
BRANCH  52  66
ATOM     66  C   UNL A   1      39.322  30.577  30.807  1.00  0.00     0.064 A 
ATOM     67  C   UNL A   1      38.201  31.108  30.151  1.00  0.00     0.173 A 
ATOM     68  C   UNL A   1      39.228  30.358  32.190  1.00  0.00     0.173 A 
ATOM     69  F   UNL A   1      38.242  31.354  28.833  1.00  0.00    -0.203 F 
ATOM     70  C   UNL A   1      37.044  31.435  30.856  1.00  0.00     0.198 A 
ATOM     71  C   UNL A   1      38.059  30.653  32.885  1.00  0.00     0.198 A 
ATOM     72  F   UNL A   1      40.269  29.851  32.867  1.00  0.00    -0.203 F 
ATOM     73  F   UNL A   1      36.006  31.993  30.217  1.00  0.00    -0.200 F 
ATOM     74  C   UNL A   1      36.971  31.199  32.221  1.00  0.00     0.200 A 
ATOM     75  F   UNL A   1      37.986  30.412  34.203  1.00  0.00    -0.200 F 
ATOM     76  F   UNL A   1      35.856  31.508  32.897  1.00  0.00    -0.200 F 
ENDBRANCH  52  66
BRANCH  53  77
ATOM     77  C   UNL A   1      47.467  27.830  25.714  1.00  0.00     0.064 A 
ATOM     78  C   UNL A   1      47.457  27.792  24.312  1.00  0.00     0.173 A 
ATOM     79  C   UNL A   1      48.652  27.455  26.366  1.00  0.00     0.173 A 
ATOM     80  F   UNL A   1      46.341  28.115  23.642  1.00  0.00    -0.203 F 
ATOM     81  C   UNL A   1      48.575  27.369  23.594  1.00  0.00     0.198 A 
ATOM     82  C   UNL A   1      49.779  27.064  25.646  1.00  0.00     0.198 A 
ATOM     83  F   UNL A   1      48.715  27.469  27.705  1.00  0.00    -0.203 F 
ATOM     84  F   UNL A   1      48.518  27.287  22.258  1.00  0.00    -0.200 F 
ATOM     85  C   UNL A   1      49.737  27.012  24.261  1.00  0.00     0.200 A 
ATOM     86  F   UNL A   1      50.904  26.731  26.295  1.00  0.00    -0.200 F 
ATOM     87  F   UNL A   1      50.810  26.607  23.570  1.00  0.00    -0.200 F 
ENDBRANCH  53  77
BRANCH  65  88
ATOM     88  C   UNL A   1      45.443  33.785  28.716  1.00  0.00     0.064 A 
ATOM     89  C   UNL A   1      46.325  34.077  29.767  1.00  0.00     0.173 A 
ATOM     90  C   UNL A   1      45.207  34.791  27.763  1.00  0.00     0.173 A 
ATOM     91  F   UNL A   1      46.579  33.158  30.711  1.00  0.00    -0.203 F 
ATOM     92  C   UNL A   1      46.908  35.337  29.886  1.00  0.00     0.198 A 
ATOM     93  C   UNL A   1      45.823  36.034  27.863  1.00  0.00     0.198 A 
ATOM     94  F   UNL A   1      44.384  34.562  26.729  1.00  0.00    -0.203 F 
ATOM     95  F   UNL A   1      47.692  35.613  30.938  1.00  0.00    -0.200 F 
ATOM     96  C   UNL A   1      46.662  36.312  28.931  1.00  0.00     0.200 A 
ATOM     97  F   UNL A   1      45.598  36.968  26.929  1.00  0.00    -0.200 F 
ATOM     98  F   UNL A   1      47.225  37.523  29.047  1.00  0.00    -0.200 F 
ENDBRANCH  65  88
ENDBRANCH  39  40
ENDBRANCH  32  34
ENDBRANCH  31  32
ENDBRANCH  30  31
ENDBRANCH  29  30
ENDBRANCH  28  29
ENDBRANCH  27  28
ENDBRANCH  26  27
ENDBRANCH  25  26
ENDBRANCH   1  25
TORSDOF 23
ENDMDL
MODEL 3
REMARK VINA RESULT:      -8.5      5.875      9.874
REMARK SMILES CCc1csc(N2[C@@H]3CC[C@H]2C[C@H](CC(=O)OCCOCCOCCOCCOC(=O)c2ccc(-c4c5nc(c(-c6c(F)c(F)c(F)c(F)c6F)c6ccc([nH]6)c(-c6c(F)c(F)c(F)c(F)c6F)c6nc(c(-c7c(F)c(F)c(F)c(F)c7F)c7ccc4[nH]7)C=C6)C=C5)cc2)C3)n1
REMARK SMILES IDX 22 1 21 2 20 3 19 4 18 5 17 6 15 7 16 8 14 9 13 10 7 11 8 12
REMARK SMILES IDX 11 13 9 14 95 15 10 16 12 17 6 18 3 19 4 20 96 21 5 22 2 23
REMARK SMILES IDX 1 24 23 25 24 26 25 27 26 28 27 29 28 30 29 31 30 32 31 33
REMARK SMILES IDX 32 34 33 35 94 36 34 37 93 38 35 39 36 40 37 41 87 42 38 43
REMARK SMILES IDX 92 44 86 45 88 46 39 47 91 48 85 49 84 50 40 52 72 53 52 54
REMARK SMILES IDX 71 55 53 56 56 57 70 58 89 59 54 60 55 61 69 63 90 64 57 65
REMARK SMILES IDX 41 66 42 67 50 68 43 69 44 70 48 71 51 72 45 73 46 74 49 75
REMARK SMILES IDX 47 76 73 77 74 78 82 79 75 80 76 81 80 82 83 83 77 84 78 85
REMARK SMILES IDX 81 86 79 87 58 88 59 89 67 90 60 91 61 92 65 93 68 94 62 95
REMARK SMILES IDX 63 96 66 97 64 98
REMARK H PARENT 88 51 56 62
REMARK Flexibility Score: inf
ROOT
ATOM      1  C   UNL A   1      48.395  27.546  25.625  1.00  0.00     0.188 C 
ENDROOT
BRANCH   1   2
ATOM      2  C   UNL A   1      49.883  27.337  25.337  1.00  0.00     0.188 C 
BRANCH   2   3
ATOM      3  O   UNL A   1      50.395  26.021  25.335  1.00  0.00    -0.376 OA
BRANCH   3   4
ATOM      4  C   UNL A   1      50.699  25.361  26.555  1.00  0.00     0.202 C 
BRANCH   4   5
ATOM      5  C   UNL A   1      49.700  25.148  27.710  1.00  0.00     0.261 C 
BRANCH   5   6
ATOM      6  O   UNL A   1      48.476  24.447  27.422  1.00  0.00    -0.463 OA
BRANCH   6   7
ATOM      7  C   UNL A   1      47.394  24.845  28.130  1.00  0.00     0.306 C 
ATOM      8  O   UNL A   1      46.234  24.654  27.772  1.00  0.00    -0.252 OA
BRANCH   7   9
ATOM      9  C   UNL A   1      47.678  25.552  29.444  1.00  0.00     0.126 C 
BRANCH   9  10
ATOM     10  C   UNL A   1      46.571  25.999  30.406  1.00  0.00     0.004 C 
ATOM     11  N   UNL A   1      45.266  25.504  33.006  1.00  0.00    -0.342 N 
ATOM     12  C   UNL A   1      46.132  26.675  32.847  1.00  0.00     0.085 C 
ATOM     13  C   UNL A   1      44.469  25.456  31.767  1.00  0.00     0.085 C 
ATOM     14  C   UNL A   1      45.130  27.740  32.360  1.00  0.00     0.027 C 
ATOM     15  C   UNL A   1      47.191  26.339  31.781  1.00  0.00     0.029 C 
ATOM     16  C   UNL A   1      44.016  26.931  31.661  1.00  0.00     0.027 C 
ATOM     17  C   UNL A   1      45.397  25.025  30.597  1.00  0.00     0.029 C 
BRANCH  11  18
ATOM     18  C   UNL A   1      44.616  25.254  34.188  1.00  0.00     0.186 A 
ATOM     19  C   UNL A   1      44.103  25.452  36.363  1.00  0.00     0.053 A 
ATOM     20  C   UNL A   1      43.492  24.243  36.110  1.00  0.00     0.092 A 
ATOM     21  N   UNL A   1      44.736  26.011  35.260  1.00  0.00    -0.225 NA
ATOM     22  S   UNL A   1      43.614  23.861  34.453  1.00  0.00    -0.105 S 
BRANCH  19  23
ATOM     23  C   UNL A   1      44.152  26.210  37.653  1.00  0.00     0.054 C 
ATOM     24  C   UNL A   1      45.118  27.387  37.669  1.00  0.00     0.011 C 
ENDBRANCH  19  23
ENDBRANCH  11  18
ENDBRANCH   9  10
ENDBRANCH   7   9
ENDBRANCH   6   7
ENDBRANCH   5   6
ENDBRANCH   4   5
ENDBRANCH   3   4
ENDBRANCH   2   3
ENDBRANCH   1   2
BRANCH   1  25
ATOM     25  O   UNL A   1      47.492  27.134  24.618  1.00  0.00    -0.377 OA
BRANCH  25  26
ATOM     26  C   UNL A   1      46.109  26.982  24.923  1.00  0.00     0.188 C 
BRANCH  26  27
ATOM     27  C   UNL A   1      45.429  25.600  24.869  1.00  0.00     0.188 C 
BRANCH  27  28
ATOM     28  O   UNL A   1      46.259  24.537  24.432  1.00  0.00    -0.376 OA
BRANCH  28  29
ATOM     29  C   UNL A   1      45.773  23.206  24.525  1.00  0.00     0.202 C 
BRANCH  29  30
ATOM     30  C   UNL A   1      44.249  23.011  24.575  1.00  0.00     0.261 C 
BRANCH  30  31
ATOM     31  O   UNL A   1      43.675  22.862  25.885  1.00  0.00    -0.460 OA
BRANCH  31  32
ATOM     32  C   UNL A   1      42.342  22.997  26.002  1.00  0.00     0.338 C 
ATOM     33  O   UNL A   1      41.484  22.169  25.726  1.00  0.00    -0.246 OA
BRANCH  32  34
ATOM     34  C   UNL A   1      42.058  24.262  26.702  1.00  0.00     0.060 A 
ATOM     35  C   UNL A   1      41.740  25.390  25.938  1.00  0.00     0.016 A 
ATOM     36  C   UNL A   1      42.166  24.351  28.092  1.00  0.00     0.016 A 
ATOM     37  C   UNL A   1      41.604  26.632  26.555  1.00  0.00     0.010 A 
ATOM     38  C   UNL A   1      42.045  25.601  28.709  1.00  0.00     0.010 A 
ATOM     39  C   UNL A   1      41.820  26.752  27.934  1.00  0.00    -0.014 A 
BRANCH  39  40
ATOM     40  C   UNL A   1      42.050  28.104  28.500  1.00  0.00     0.031 A 
ATOM     41  C   UNL A   1      43.464  28.619  28.566  1.00  0.00     0.074 A 
ATOM     42  C   UNL A   1      41.027  28.892  28.871  1.00  0.00     0.049 A 
ATOM     43  N   UNL A   1      43.913  29.778  28.978  1.00  0.00    -0.248 NA
ATOM     44  C   UNL A   1      44.515  27.700  28.100  1.00  0.00     0.031 C 
ATOM     45  C   UNL A   1      39.614  28.525  28.816  1.00  0.00     0.029 A 
ATOM     46  N   UNL A   1      41.025  30.174  29.365  1.00  0.00    -0.354 N 
ATOM     47  C   UNL A   1      45.293  29.724  28.822  1.00  0.00     0.074 A 
ATOM     48  C   UNL A   1      45.613  28.407  28.318  1.00  0.00     0.031 C 
ATOM     49  C   UNL A   1      38.879  29.560  29.258  1.00  0.00     0.029 A 
ATOM     50  C   UNL A   1      39.770  30.650  29.653  1.00  0.00     0.049 A 
ATOM     51  H   UNL A   1      41.846  30.700  29.499  1.00  0.00     0.167 HD
ATOM     52  C   UNL A   1      46.211  30.691  29.062  1.00  0.00     0.037 A 
ATOM     53  C   UNL A   1      39.392  31.829  30.186  1.00  0.00     0.037 A 
ATOM     54  C   UNL A   1      45.892  32.000  29.563  1.00  0.00     0.049 A 
ATOM     55  C   UNL A   1      40.441  32.864  30.508  1.00  0.00     0.074 A 
ATOM     56  C   UNL A   1      46.747  33.054  29.833  1.00  0.00     0.029 A 
ATOM     57  N   UNL A   1      44.613  32.432  29.883  1.00  0.00    -0.354 N 
ATOM     58  N   UNL A   1      41.739  32.817  30.332  1.00  0.00    -0.248 NA
ATOM     59  C   UNL A   1      39.964  34.125  31.095  1.00  0.00     0.031 C 
ATOM     60  C   UNL A   1      45.993  34.103  30.370  1.00  0.00     0.029 A 
ATOM     61  C   UNL A   1      44.658  33.729  30.371  1.00  0.00     0.049 A 
ATOM     62  H   UNL A   1      43.793  31.897  29.779  1.00  0.00     0.167 HD
ATOM     63  C   UNL A   1      42.229  34.049  30.751  1.00  0.00     0.074 A 
ATOM     64  C   UNL A   1      41.085  34.828  31.172  1.00  0.00     0.031 C 
ATOM     65  C   UNL A   1      43.510  34.496  30.782  1.00  0.00     0.037 A 
BRANCH  52  66
ATOM     66  C   UNL A   1      47.654  30.352  28.812  1.00  0.00     0.064 A 
ATOM     67  C   UNL A   1      48.425  29.650  29.752  1.00  0.00     0.173 A 
ATOM     68  C   UNL A   1      48.268  30.719  27.605  1.00  0.00     0.173 A 
ATOM     69  F   UNL A   1      47.893  29.291  30.929  1.00  0.00    -0.203 F 
ATOM     70  C   UNL A   1      49.763  29.354  29.504  1.00  0.00     0.198 A 
ATOM     71  C   UNL A   1      49.595  30.391  27.346  1.00  0.00     0.198 A 
ATOM     72  F   UNL A   1      47.578  31.390  26.671  1.00  0.00    -0.203 F 
ATOM     73  F   UNL A   1      50.495  28.732  30.439  1.00  0.00    -0.200 F 
ATOM     74  C   UNL A   1      50.345  29.718  28.299  1.00  0.00     0.200 A 
ATOM     75  F   UNL A   1      50.153  30.732  26.175  1.00  0.00    -0.200 F 
ATOM     76  F   UNL A   1      51.632  29.427  28.060  1.00  0.00    -0.200 F 
ENDBRANCH  52  66
BRANCH  53  77
ATOM     77  C   UNL A   1      37.954  32.099  30.453  1.00  0.00     0.064 A 
ATOM     78  C   UNL A   1      37.128  32.678  29.479  1.00  0.00     0.173 A 
ATOM     79  C   UNL A   1      37.383  31.815  31.703  1.00  0.00     0.173 A 
ATOM     80  F   UNL A   1      37.632  32.993  28.276  1.00  0.00    -0.203 F 
ATOM     81  C   UNL A   1      35.796  32.987  29.752  1.00  0.00     0.198 A 
ATOM     82  C   UNL A   1      36.043  32.094  31.964  1.00  0.00     0.198 A 
ATOM     83  F   UNL A   1      38.128  31.264  32.672  1.00  0.00    -0.203 F 
ATOM     84  F   UNL A   1      35.047  33.593  28.822  1.00  0.00    -0.200 F 
ATOM     85  C   UNL A   1      35.253  32.688  30.993  1.00  0.00     0.200 A 
ATOM     86  F   UNL A   1      35.520  31.792  33.161  1.00  0.00    -0.200 F 
ATOM     87  F   UNL A   1      33.973  32.984  31.254  1.00  0.00    -0.200 F 
ENDBRANCH  53  77
BRANCH  65  88
ATOM     88  C   UNL A   1      43.736  35.910  31.242  1.00  0.00     0.064 A 
ATOM     89  C   UNL A   1      43.892  36.236  32.597  1.00  0.00     0.173 A 
ATOM     90  C   UNL A   1      43.816  36.954  30.306  1.00  0.00     0.173 A 
ATOM     91  F   UNL A   1      43.814  35.279  33.535  1.00  0.00    -0.203 F 
ATOM     92  C   UNL A   1      44.074  37.557  33.002  1.00  0.00     0.198 A 
ATOM     93  C   UNL A   1      44.038  38.267  30.711  1.00  0.00     0.198 A 
ATOM     94  F   UNL A   1      43.688  36.699  28.995  1.00  0.00    -0.203 F 
ATOM     95  F   UNL A   1      44.151  37.850  34.307  1.00  0.00    -0.200 F 
ATOM     96  C   UNL A   1      44.152  38.570  32.058  1.00  0.00     0.200 A 
ATOM     97  F   UNL A   1      44.132  39.242  29.795  1.00  0.00    -0.200 F 
ATOM     98  F   UNL A   1      44.328  39.840  32.449  1.00  0.00    -0.200 F 
ENDBRANCH  65  88
ENDBRANCH  39  40
ENDBRANCH  32  34
ENDBRANCH  31  32
ENDBRANCH  30  31
ENDBRANCH  29  30
ENDBRANCH  28  29
ENDBRANCH  27  28
ENDBRANCH  26  27
ENDBRANCH  25  26
ENDBRANCH   1  25
TORSDOF 23
ENDMDL
