MODEL 1
REMARK VINA RESULT:     -10.6      0.000      0.000
REMARK SMILES Cc1cc(Cl)ccc1-c1ccc(C(=O)OCCOCCOCCOCCOC(=O)c2ccc(-c3c4nc(c(-c5c(F)c(F)c(F)c(F)c5F)c5ccc([nH]5)c(-c5c(F)c(F)c(F)c(F)c5F)c5nc(c(-c6c(F)c(F)c(F)c(F)c6F)c6ccc3[nH]6)C=C5)C=C4)cc2)c(Cl)c1
REMARK SMILES IDX 22 1 21 2 20 3 19 4 18 5 17 6 16 7 15 8 13 9 14 10 12 11
REMARK SMILES IDX 9 12 10 13 95 14 11 15 93 16 94 17 8 18 1 19 2 20 3 21 4 22
REMARK SMILES IDX 7 23 5 24 6 25 23 26 24 27 25 28 26 29 27 30 28 31 29 32
REMARK SMILES IDX 30 33 31 34 92 35 32 36 91 37 33 38 34 39 35 40 85 41 36 42
REMARK SMILES IDX 90 43 84 44 86 45 37 46 89 47 83 48 82 49 38 51 70 52 50 53
REMARK SMILES IDX 69 54 51 55 54 56 68 57 87 58 52 59 53 60 67 62 88 63 55 64
REMARK SMILES IDX 39 65 40 66 48 67 41 68 42 69 46 70 49 71 43 72 44 73 47 74
REMARK SMILES IDX 45 75 71 76 72 77 80 78 73 79 74 80 78 81 81 82 75 83 76 84
REMARK SMILES IDX 79 85 77 86 56 87 57 88 65 89 58 90 59 91 63 92 66 93 60 94
REMARK SMILES IDX 61 95 64 96 62 97
REMARK H PARENT 86 50 54 61
REMARK Flexibility Score: inf
ROOT
ATOM      1  C   UNL A   1      37.456  22.225  25.399  1.00  0.00     0.188 C 
ENDROOT
BRANCH   1   2
ATOM      2  O   UNL A   1      36.761  23.236  24.675  1.00  0.00    -0.377 OA
BRANCH   2   3
ATOM      3  C   UNL A   1      36.190  22.939  23.408  1.00  0.00     0.188 C 
BRANCH   3   4
ATOM      4  C   UNL A   1      34.826  23.553  23.020  1.00  0.00     0.188 C 
BRANCH   4   5
ATOM      5  O   UNL A   1      33.862  22.601  22.612  1.00  0.00    -0.376 OA
BRANCH   5   6
ATOM      6  C   UNL A   1      32.791  22.271  23.474  1.00  0.00     0.202 C 
BRANCH   6   7
ATOM      7  C   UNL A   1      33.025  21.325  24.661  1.00  0.00     0.261 C 
BRANCH   7   8
ATOM      8  O   UNL A   1      33.876  21.828  25.693  1.00  0.00    -0.460 OA
BRANCH   8   9
ATOM      9  C   UNL A   1      33.284  22.358  26.782  1.00  0.00     0.339 C 
ATOM     10  O   UNL A   1      33.266  21.879  27.903  1.00  0.00    -0.246 OA
BRANCH   9  11
ATOM     11  C   UNL A   1      32.854  23.740  26.471  1.00  0.00     0.078 A 
ATOM     12  C   UNL A   1      32.236  26.443  25.950  1.00  0.00    -0.017 A 
ATOM     13  C   UNL A   1      33.559  25.990  25.865  1.00  0.00     0.010 A 
ATOM     14  C   UNL A   1      31.222  25.505  26.221  1.00  0.00     0.030 A 
ATOM     15  C   UNL A   1      33.866  24.652  26.130  1.00  0.00     0.018 A 
ATOM     16  C   UNL A   1      31.522  24.164  26.491  1.00  0.00     0.056 A 
ATOM     17  Cl  UNL A   1      30.205  23.133  26.923  1.00  0.00    -0.083 Cl
BRANCH  12  18
ATOM     18  C   UNL A   1      31.932  27.885  25.960  1.00  0.00    -0.015 A 
ATOM     19  C   UNL A   1      30.863  27.959  23.620  1.00  0.00     0.045 C 
ATOM     20  C   UNL A   1      31.326  28.596  24.903  1.00  0.00    -0.042 A 
ATOM     21  C   UNL A   1      31.146  29.991  25.027  1.00  0.00     0.024 A 
ATOM     22  C   UNL A   1      31.550  30.669  26.177  1.00  0.00     0.041 A 
ATOM     23  C   UNL A   1      32.329  28.604  27.111  1.00  0.00     0.010 A 
ATOM     24  Cl  UNL A   1      31.322  32.369  26.299  1.00  0.00    -0.084 Cl
ATOM     25  C   UNL A   1      32.140  29.979  27.223  1.00  0.00     0.021 A 
ENDBRANCH  12  18
ENDBRANCH   9  11
ENDBRANCH   8   9
ENDBRANCH   7   8
ENDBRANCH   6   7
ENDBRANCH   5   6
ENDBRANCH   4   5
ENDBRANCH   3   4
ENDBRANCH   2   3
ENDBRANCH   1   2
BRANCH   1  26
ATOM     26  C   UNL A   1      38.883  22.458  25.949  1.00  0.00     0.188 C 
BRANCH  26  27
ATOM     27  O   UNL A   1      39.455  21.341  26.607  1.00  0.00    -0.376 OA
BRANCH  27  28
ATOM     28  C   UNL A   1      39.514  20.117  25.898  1.00  0.00     0.202 C 
BRANCH  28  29
ATOM     29  C   UNL A   1      40.691  19.183  26.218  1.00  0.00     0.261 C 
BRANCH  29  30
ATOM     30  O   UNL A   1      41.794  19.225  25.300  1.00  0.00    -0.460 OA
BRANCH  30  31
ATOM     31  C   UNL A   1      42.977  19.641  25.789  1.00  0.00     0.338 C 
ATOM     32  O   UNL A   1      44.050  19.055  25.733  1.00  0.00    -0.246 OA
BRANCH  31  33
ATOM     33  C   UNL A   1      42.820  21.033  26.253  1.00  0.00     0.060 A 
ATOM     34  C   UNL A   1      42.631  22.044  25.301  1.00  0.00     0.016 A 
ATOM     35  C   UNL A   1      42.877  21.342  27.614  1.00  0.00     0.016 A 
ATOM     36  C   UNL A   1      42.564  23.376  25.706  1.00  0.00     0.010 A 
ATOM     37  C   UNL A   1      42.827  22.679  28.018  1.00  0.00     0.010 A 
ATOM     38  C   UNL A   1      42.725  23.703  27.058  1.00  0.00    -0.014 A 
BRANCH  38  39
ATOM     39  C   UNL A   1      43.035  25.109  27.418  1.00  0.00     0.031 A 
ATOM     40  C   UNL A   1      44.388  25.654  27.045  1.00  0.00     0.074 A 
ATOM     41  C   UNL A   1      42.117  25.909  27.983  1.00  0.00     0.049 A 
ATOM     42  N   UNL A   1      44.875  26.860  27.193  1.00  0.00    -0.248 NA
ATOM     43  C   UNL A   1      45.319  24.704  26.416  1.00  0.00     0.031 C 
ATOM     44  C   UNL A   1      40.759  25.515  28.344  1.00  0.00     0.029 A 
ATOM     45  N   UNL A   1      42.191  27.234  28.337  1.00  0.00    -0.354 N 
ATOM     46  C   UNL A   1      46.163  26.811  26.674  1.00  0.00     0.074 A 
ATOM     47  C   UNL A   1      46.401  25.447  26.257  1.00  0.00     0.031 C 
ATOM     48  C   UNL A   1      40.119  26.581  28.858  1.00  0.00     0.029 A 
ATOM     49  C   UNL A   1      41.032  27.723  28.884  1.00  0.00     0.049 A 
ATOM     50  H   UNL A   1      43.000  27.780  28.210  1.00  0.00     0.167 HD
ATOM     51  C   UNL A   1      47.062  27.816  26.537  1.00  0.00     0.037 A 
ATOM     52  C   UNL A   1      40.748  28.954  29.352  1.00  0.00     0.037 A 
ATOM     53  C   UNL A   1      46.829  29.170  26.968  1.00  0.00     0.049 A 
ATOM     54  C   UNL A   1      41.799  30.033  29.278  1.00  0.00     0.074 A 
ATOM     55  C   UNL A   1      47.673  30.262  26.883  1.00  0.00     0.029 A 
ATOM     56  N   UNL A   1      45.664  29.611  27.579  1.00  0.00    -0.354 N 
ATOM     57  N   UNL A   1      43.005  29.989  28.765  1.00  0.00    -0.248 NA
ATOM     58  C   UNL A   1      41.438  31.341  29.843  1.00  0.00     0.031 C 
ATOM     59  C   UNL A   1      47.044  31.349  27.500  1.00  0.00     0.029 A 
ATOM     60  C   UNL A   1      45.777  30.955  27.901  1.00  0.00     0.049 A 
ATOM     61  H   UNL A   1      44.873  29.052  27.758  1.00  0.00     0.167 HD
ATOM     62  C   UNL A   1      43.528  31.270  28.901  1.00  0.00     0.074 A 
ATOM     63  C   UNL A   1      42.501  32.070  29.537  1.00  0.00     0.031 C 
ATOM     64  C   UNL A   1      44.744  31.744  28.526  1.00  0.00     0.037 A 
BRANCH  51  65
ATOM     65  C   UNL A   1      48.393  27.464  25.932  1.00  0.00     0.064 A 
ATOM     66  C   UNL A   1      49.517  27.182  26.727  1.00  0.00     0.173 A 
ATOM     67  C   UNL A   1      48.553  27.426  24.539  1.00  0.00     0.173 A 
ATOM     68  F   UNL A   1      49.427  27.219  28.064  1.00  0.00    -0.203 F 
ATOM     69  C   UNL A   1      50.759  26.925  26.148  1.00  0.00     0.198 A 
ATOM     70  C   UNL A   1      49.786  27.130  23.965  1.00  0.00     0.198 A 
ATOM     71  F   UNL A   1      47.513  27.682  23.731  1.00  0.00    -0.203 F 
ATOM     72  F   UNL A   1      51.833  26.735  26.928  1.00  0.00    -0.200 F 
ATOM     73  C   UNL A   1      50.891  26.895  24.769  1.00  0.00     0.200 A 
ATOM     74  F   UNL A   1      49.909  27.086  22.631  1.00  0.00    -0.200 F 
ATOM     75  F   UNL A   1      52.086  26.652  24.214  1.00  0.00    -0.200 F 
ENDBRANCH  51  65
BRANCH  52  76
ATOM     76  C   UNL A   1      39.400  29.248  29.910  1.00  0.00     0.064 A 
ATOM     77  C   UNL A   1      38.370  29.728  29.088  1.00  0.00     0.173 A 
ATOM     78  C   UNL A   1      39.120  29.078  31.272  1.00  0.00     0.173 A 
ATOM     79  F   UNL A   1      38.596  29.933  27.782  1.00  0.00    -0.203 F 
ATOM     80  C   UNL A   1      37.120  30.048  29.613  1.00  0.00     0.198 A 
ATOM     81  C   UNL A   1      37.859  29.369  31.790  1.00  0.00     0.198 A 
ATOM     82  F   UNL A   1      40.071  28.626  32.103  1.00  0.00    -0.203 F 
ATOM     83  F   UNL A   1      36.171  30.556  28.814  1.00  0.00    -0.200 F 
ATOM     84  C   UNL A   1      36.863  29.862  30.963  1.00  0.00     0.200 A 
ATOM     85  F   UNL A   1      37.613  29.178  33.094  1.00  0.00    -0.200 F 
ATOM     86  F   UNL A   1      35.660  30.167  31.466  1.00  0.00    -0.200 F 
ENDBRANCH  52  76
BRANCH  64  87
ATOM     87  C   UNL A   1      45.006  33.211  28.734  1.00  0.00     0.064 A 
ATOM     88  C   UNL A   1      44.676  34.175  27.769  1.00  0.00     0.173 A 
ATOM     89  C   UNL A   1      45.591  33.660  29.929  1.00  0.00     0.173 A 
ATOM     90  F   UNL A   1      44.123  33.802  26.603  1.00  0.00    -0.203 F 
ATOM     91  C   UNL A   1      44.965  35.523  27.971  1.00  0.00     0.198 A 
ATOM     92  C   UNL A   1      45.841  35.013  30.145  1.00  0.00     0.198 A 
ATOM     93  F   UNL A   1      45.918  32.787  30.894  1.00  0.00    -0.203 F 
ATOM     94  F   UNL A   1      44.708  36.414  27.004  1.00  0.00    -0.200 F 
ATOM     95  C   UNL A   1      45.543  35.941  29.161  1.00  0.00     0.200 A 
ATOM     96  F   UNL A   1      46.381  35.416  31.304  1.00  0.00    -0.200 F 
ATOM     97  F   UNL A   1      45.822  37.237  29.353  1.00  0.00    -0.200 F 
ENDBRANCH  64  87
ENDBRANCH  38  39
ENDBRANCH  31  33
ENDBRANCH  30  31
ENDBRANCH  29  30
ENDBRANCH  28  29
ENDBRANCH  27  28
ENDBRANCH  26  27
ENDBRANCH   1  26
TORSDOF 21
ENDMDL
MODEL 2
REMARK VINA RESULT:     -10.5      1.348      2.404
REMARK SMILES Cc1cc(Cl)ccc1-c1ccc(C(=O)OCCOCCOCCOCCOC(=O)c2ccc(-c3c4nc(c(-c5c(F)c(F)c(F)c(F)c5F)c5ccc([nH]5)c(-c5c(F)c(F)c(F)c(F)c5F)c5nc(c(-c6c(F)c(F)c(F)c(F)c6F)c6ccc3[nH]6)C=C5)C=C4)cc2)c(Cl)c1
REMARK SMILES IDX 22 1 21 2 20 3 19 4 18 5 17 6 16 7 15 8 13 9 14 10 12 11
REMARK SMILES IDX 9 12 10 13 95 14 11 15 93 16 94 17 8 18 1 19 2 20 3 21 4 22
REMARK SMILES IDX 7 23 5 24 6 25 23 26 24 27 25 28 26 29 27 30 28 31 29 32
REMARK SMILES IDX 30 33 31 34 92 35 32 36 91 37 33 38 34 39 35 40 85 41 36 42
REMARK SMILES IDX 90 43 84 44 86 45 37 46 89 47 83 48 82 49 38 51 70 52 50 53
REMARK SMILES IDX 69 54 51 55 54 56 68 57 87 58 52 59 53 60 67 62 88 63 55 64
REMARK SMILES IDX 39 65 40 66 48 67 41 68 42 69 46 70 49 71 43 72 44 73 47 74
REMARK SMILES IDX 45 75 71 76 72 77 80 78 73 79 74 80 78 81 81 82 75 83 76 84
REMARK SMILES IDX 79 85 77 86 56 87 57 88 65 89 58 90 59 91 63 92 66 93 60 94
REMARK SMILES IDX 61 95 64 96 62 97
REMARK H PARENT 86 50 54 61
REMARK Flexibility Score: inf
ROOT
ATOM      1  C   UNL A   1      35.816  21.974  25.758  1.00  0.00     0.188 C 
ENDROOT
BRANCH   1   2
ATOM      2  O   UNL A   1      34.826  21.802  26.768  1.00  0.00    -0.377 OA
BRANCH   2   3
ATOM      3  C   UNL A   1      33.652  21.050  26.493  1.00  0.00     0.188 C 
BRANCH   3   4
ATOM      4  C   UNL A   1      33.654  20.022  25.338  1.00  0.00     0.188 C 
BRANCH   4   5
ATOM      5  O   UNL A   1      32.425  19.935  24.643  1.00  0.00    -0.376 OA
BRANCH   5   6
ATOM      6  C   UNL A   1      32.315  20.473  23.340  1.00  0.00     0.202 C 
BRANCH   6   7
ATOM      7  C   UNL A   1      32.178  21.990  23.144  1.00  0.00     0.261 C 
BRANCH   7   8
ATOM      8  O   UNL A   1      33.189  22.600  22.339  1.00  0.00    -0.460 OA
BRANCH   8   9
ATOM      9  C   UNL A   1      33.796  23.698  22.833  1.00  0.00     0.339 C 
ATOM     10  O   UNL A   1      34.998  23.876  22.937  1.00  0.00    -0.246 OA
BRANCH   9  11
ATOM     11  C   UNL A   1      32.788  24.766  23.012  1.00  0.00     0.078 A 
ATOM     12  C   UNL A   1      30.934  26.888  23.161  1.00  0.00    -0.017 A 
ATOM     13  C   UNL A   1      31.349  26.396  21.917  1.00  0.00     0.010 A 
ATOM     14  C   UNL A   1      31.401  26.248  24.325  1.00  0.00     0.030 A 
ATOM     15  C   UNL A   1      32.273  25.349  21.843  1.00  0.00     0.018 A 
ATOM     16  C   UNL A   1      32.328  25.201  24.259  1.00  0.00     0.056 A 
ATOM     17  Cl  UNL A   1      32.914  24.572  25.758  1.00  0.00    -0.083 Cl
BRANCH  12  18
ATOM     18  C   UNL A   1      30.198  28.161  23.261  1.00  0.00    -0.015 A 
ATOM     19  C   UNL A   1      32.033  29.443  24.530  1.00  0.00     0.045 C 
ATOM     20  C   UNL A   1      30.673  29.327  23.897  1.00  0.00    -0.042 A 
ATOM     21  C   UNL A   1      29.834  30.461  23.968  1.00  0.00     0.024 A 
ATOM     22  C   UNL A   1      28.554  30.445  23.415  1.00  0.00     0.041 A 
ATOM     23  C   UNL A   1      28.896  28.180  22.711  1.00  0.00     0.010 A 
ATOM     24  Cl  UNL A   1      27.553  31.839  23.520  1.00  0.00    -0.084 Cl
ATOM     25  C   UNL A   1      28.081  29.307  22.783  1.00  0.00     0.021 A 
ENDBRANCH  12  18
ENDBRANCH   9  11
ENDBRANCH   8   9
ENDBRANCH   7   8
ENDBRANCH   6   7
ENDBRANCH   5   6
ENDBRANCH   4   5
ENDBRANCH   3   4
ENDBRANCH   2   3
ENDBRANCH   1   2
BRANCH   1  26
ATOM     26  C   UNL A   1      36.777  23.186  25.764  1.00  0.00     0.188 C 
BRANCH  26  27
ATOM     27  O   UNL A   1      38.152  22.853  25.852  1.00  0.00    -0.376 OA
BRANCH  27  28
ATOM     28  C   UNL A   1      38.512  21.495  25.677  1.00  0.00     0.202 C 
BRANCH  28  29
ATOM     29  C   UNL A   1      39.803  21.023  26.365  1.00  0.00     0.261 C 
BRANCH  29  30
ATOM     30  O   UNL A   1      40.215  19.678  26.073  1.00  0.00    -0.460 OA
BRANCH  30  31
ATOM     31  C   UNL A   1      41.538  19.431  26.090  1.00  0.00     0.338 C 
ATOM     32  O   UNL A   1      42.103  18.400  25.748  1.00  0.00    -0.246 OA
BRANCH  31  33
ATOM     33  C   UNL A   1      42.238  20.687  26.416  1.00  0.00     0.060 A 
ATOM     34  C   UNL A   1      42.409  21.034  27.763  1.00  0.00     0.016 A 
ATOM     35  C   UNL A   1      42.706  21.527  25.403  1.00  0.00     0.016 A 
ATOM     36  C   UNL A   1      42.991  22.255  28.098  1.00  0.00     0.010 A 
ATOM     37  C   UNL A   1      43.273  22.759  25.739  1.00  0.00     0.010 A 
ATOM     38  C   UNL A   1      43.368  23.149  27.088  1.00  0.00    -0.014 A 
BRANCH  38  39
ATOM     39  C   UNL A   1      43.618  24.566  27.449  1.00  0.00     0.031 A 
ATOM     40  C   UNL A   1      44.990  25.131  27.189  1.00  0.00     0.074 A 
ATOM     41  C   UNL A   1      42.639  25.358  27.914  1.00  0.00     0.049 A 
ATOM     42  N   UNL A   1      45.439  26.348  27.359  1.00  0.00    -0.248 NA
ATOM     43  C   UNL A   1      45.991  24.189  26.664  1.00  0.00     0.031 C 
ATOM     44  C   UNL A   1      41.261  24.943  28.159  1.00  0.00     0.029 A 
ATOM     45  N   UNL A   1      42.657  26.689  28.249  1.00  0.00    -0.354 N 
ATOM     46  C   UNL A   1      46.770  26.316  26.958  1.00  0.00     0.074 A 
ATOM     47  C   UNL A   1      47.069  24.951  26.590  1.00  0.00     0.031 C 
ATOM     48  C   UNL A   1      40.558  26.005  28.593  1.00  0.00     0.029 A 
ATOM     49  C   UNL A   1      41.445  27.164  28.681  1.00  0.00     0.049 A 
ATOM     50  H   UNL A   1      43.464  27.249  28.186  1.00  0.00     0.167 HD
ATOM     51  C   UNL A   1      47.659  27.336  26.884  1.00  0.00     0.037 A 
ATOM     52  C   UNL A   1      41.098  28.397  29.099  1.00  0.00     0.037 A 
ATOM     53  C   UNL A   1      47.364  28.692  27.268  1.00  0.00     0.049 A 
ATOM     54  C   UNL A   1      42.131  29.495  29.100  1.00  0.00     0.074 A 
ATOM     55  C   UNL A   1      48.192  29.799  27.239  1.00  0.00     0.029 A 
ATOM     56  N   UNL A   1      46.141  29.121  27.764  1.00  0.00    -0.354 N 
ATOM     57  N   UNL A   1      43.380  29.466  28.698  1.00  0.00    -0.248 NA
ATOM     58  C   UNL A   1      41.697  30.805  29.606  1.00  0.00     0.031 C 
ATOM     59  C   UNL A   1      47.491  30.884  27.778  1.00  0.00     0.029 A 
ATOM     60  C   UNL A   1      46.200  30.471  28.070  1.00  0.00     0.049 A 
ATOM     61  H   UNL A   1      45.347  28.550  27.881  1.00  0.00     0.167 HD
ATOM     62  C   UNL A   1      43.865  30.759  28.858  1.00  0.00     0.074 A 
ATOM     63  C   UNL A   1      42.771  31.549  29.384  1.00  0.00     0.031 C 
ATOM     64  C   UNL A   1      45.101  31.250  28.585  1.00  0.00     0.037 A 
BRANCH  51  65
ATOM     65  C   UNL A   1      49.046  27.000  26.409  1.00  0.00     0.064 A 
ATOM     66  C   UNL A   1      49.410  27.099  25.055  1.00  0.00     0.173 A 
ATOM     67  C   UNL A   1      50.020  26.556  27.315  1.00  0.00     0.173 A 
ATOM     68  F   UNL A   1      48.515  27.502  24.142  1.00  0.00    -0.203 F 
ATOM     69  C   UNL A   1      50.679  26.718  24.624  1.00  0.00     0.198 A 
ATOM     70  C   UNL A   1      51.299  26.214  26.886  1.00  0.00     0.198 A 
ATOM     71  F   UNL A   1      49.730  26.447  28.621  1.00  0.00    -0.203 F 
ATOM     72  F   UNL A   1      50.977  26.747  23.317  1.00  0.00    -0.200 F 
ATOM     73  C   UNL A   1      51.623  26.280  25.539  1.00  0.00     0.200 A 
ATOM     74  F   UNL A   1      52.215  25.805  27.775  1.00  0.00    -0.200 F 
ATOM     75  F   UNL A   1      52.841  25.910  25.123  1.00  0.00    -0.200 F 
ENDBRANCH  51  65
BRANCH  52  76
ATOM     76  C   UNL A   1      39.700  28.674  29.527  1.00  0.00     0.064 A 
ATOM     77  C   UNL A   1      38.749  29.153  28.615  1.00  0.00     0.173 A 
ATOM     78  C   UNL A   1      39.293  28.489  30.856  1.00  0.00     0.173 A 
ATOM     79  F   UNL A   1      39.097  29.372  27.339  1.00  0.00    -0.203 F 
ATOM     80  C   UNL A   1      37.451  29.457  29.021  1.00  0.00     0.198 A 
ATOM     81  C   UNL A   1      37.985  28.764  31.253  1.00  0.00     0.198 A 
ATOM     82  F   UNL A   1      40.164  28.038  31.770  1.00  0.00    -0.203 F 
ATOM     83  F   UNL A   1      36.577  29.963  28.139  1.00  0.00    -0.200 F 
ATOM     84  C   UNL A   1      37.068  29.256  30.338  1.00  0.00     0.200 A 
ATOM     85  F   UNL A   1      37.618  28.558  32.525  1.00  0.00    -0.200 F 
ATOM     86  F   UNL A   1      35.819  29.546  30.727  1.00  0.00    -0.200 F 
ENDBRANCH  52  76
BRANCH  64  87
ATOM     87  C   UNL A   1      45.317  32.726  28.789  1.00  0.00     0.064 A 
ATOM     88  C   UNL A   1      44.970  33.675  27.816  1.00  0.00     0.173 A 
ATOM     89  C   UNL A   1      45.873  33.198  29.989  1.00  0.00     0.173 A 
ATOM     90  F   UNL A   1      44.444  33.281  26.645  1.00  0.00    -0.203 F 
ATOM     91  C   UNL A   1      45.218  35.032  28.015  1.00  0.00     0.198 A 
ATOM     92  C   UNL A   1      46.081  34.558  30.202  1.00  0.00     0.198 A 
ATOM     93  F   UNL A   1      46.214  32.339  30.962  1.00  0.00    -0.203 F 
ATOM     94  F   UNL A   1      44.946  35.910  27.039  1.00  0.00    -0.200 F 
ATOM     95  C   UNL A   1      45.768  35.472  29.209  1.00  0.00     0.200 A 
ATOM     96  F   UNL A   1      46.594  34.982  31.365  1.00  0.00    -0.200 F 
ATOM     97  F   UNL A   1      46.005  36.777  29.398  1.00  0.00    -0.200 F 
ENDBRANCH  64  87
ENDBRANCH  38  39
ENDBRANCH  31  33
ENDBRANCH  30  31
ENDBRANCH  29  30
ENDBRANCH  28  29
ENDBRANCH  27  28
ENDBRANCH  26  27
ENDBRANCH   1  26
TORSDOF 21
ENDMDL
MODEL 3
REMARK VINA RESULT:     -10.5      1.229      2.483
REMARK SMILES Cc1cc(Cl)ccc1-c1ccc(C(=O)OCCOCCOCCOCCOC(=O)c2ccc(-c3c4nc(c(-c5c(F)c(F)c(F)c(F)c5F)c5ccc([nH]5)c(-c5c(F)c(F)c(F)c(F)c5F)c5nc(c(-c6c(F)c(F)c(F)c(F)c6F)c6ccc3[nH]6)C=C5)C=C4)cc2)c(Cl)c1
REMARK SMILES IDX 22 1 21 2 20 3 19 4 18 5 17 6 16 7 15 8 13 9 14 10 12 11
REMARK SMILES IDX 9 12 10 13 95 14 11 15 93 16 94 17 8 18 1 19 2 20 3 21 4 22
REMARK SMILES IDX 7 23 5 24 6 25 23 26 24 27 25 28 26 29 27 30 28 31 29 32
REMARK SMILES IDX 30 33 31 34 92 35 32 36 91 37 33 38 34 39 35 40 85 41 36 42
REMARK SMILES IDX 90 43 84 44 86 45 37 46 89 47 83 48 82 49 38 51 70 52 50 53
REMARK SMILES IDX 69 54 51 55 54 56 68 57 87 58 52 59 53 60 67 62 88 63 55 64
REMARK SMILES IDX 39 65 40 66 48 67 41 68 42 69 46 70 49 71 43 72 44 73 47 74
REMARK SMILES IDX 45 75 71 76 72 77 80 78 73 79 74 80 78 81 81 82 75 83 76 84
REMARK SMILES IDX 79 85 77 86 56 87 57 88 65 89 58 90 59 91 63 92 66 93 60 94
REMARK SMILES IDX 61 95 64 96 62 97
REMARK H PARENT 86 50 54 61
REMARK Flexibility Score: inf
ROOT
ATOM      1  C   UNL A   1      40.013  22.069  26.417  1.00  0.00     0.188 C 
ENDROOT
BRANCH   1   2
ATOM      2  O   UNL A   1      38.603  22.274  26.463  1.00  0.00    -0.377 OA
BRANCH   2   3
ATOM      3  C   UNL A   1      37.833  22.191  25.272  1.00  0.00     0.188 C 
BRANCH   3   4
ATOM      4  C   UNL A   1      37.545  20.810  24.641  1.00  0.00     0.188 C 
BRANCH   4   5
ATOM      5  O   UNL A   1      36.448  20.130  25.222  1.00  0.00    -0.376 OA
BRANCH   5   6
ATOM      6  C   UNL A   1      35.133  20.600  25.001  1.00  0.00     0.202 C 
BRANCH   6   7
ATOM      7  C   UNL A   1      34.302  21.137  26.176  1.00  0.00     0.261 C 
BRANCH   7   8
ATOM      8  O   UNL A   1      32.912  21.337  25.906  1.00  0.00    -0.460 OA
BRANCH   8   9
ATOM      9  C   UNL A   1      32.590  22.048  24.807  1.00  0.00     0.339 C 
ATOM     10  O   UNL A   1      32.182  21.600  23.748  1.00  0.00    -0.246 OA
BRANCH   9  11
ATOM     11  C   UNL A   1      32.576  23.487  25.151  1.00  0.00     0.078 A 
ATOM     12  C   UNL A   1      32.326  26.217  25.822  1.00  0.00    -0.017 A 
ATOM     13  C   UNL A   1      31.389  25.284  26.286  1.00  0.00     0.010 A 
ATOM     14  C   UNL A   1      33.431  25.747  25.085  1.00  0.00     0.030 A 
ATOM     15  C   UNL A   1      31.509  23.933  25.949  1.00  0.00     0.018 A 
ATOM     16  C   UNL A   1      33.556  24.395  24.740  1.00  0.00     0.056 A 
ATOM     17  Cl  UNL A   1      34.893  23.958  23.737  1.00  0.00    -0.083 Cl
BRANCH  12  18
ATOM     18  C   UNL A   1      32.064  27.663  25.920  1.00  0.00    -0.015 A 
ATOM     19  C   UNL A   1      30.809  27.869  23.682  1.00  0.00     0.045 C 
ATOM     20  C   UNL A   1      31.393  28.436  24.948  1.00  0.00    -0.042 A 
ATOM     21  C   UNL A   1      31.262  29.827  25.148  1.00  0.00     0.024 A 
ATOM     22  C   UNL A   1      31.778  30.443  26.288  1.00  0.00     0.041 A 
ATOM     23  C   UNL A   1      32.574  28.319  27.063  1.00  0.00     0.010 A 
ATOM     24  Cl  UNL A   1      31.608  32.140  26.503  1.00  0.00    -0.084 Cl
ATOM     25  C   UNL A   1      32.433  29.692  27.251  1.00  0.00     0.021 A 
ENDBRANCH  12  18
ENDBRANCH   9  11
ENDBRANCH   8   9
ENDBRANCH   7   8
ENDBRANCH   6   7
ENDBRANCH   5   6
ENDBRANCH   4   5
ENDBRANCH   3   4
ENDBRANCH   2   3
ENDBRANCH   1   2
BRANCH   1  26
ATOM     26  C   UNL A   1      40.778  21.431  27.600  1.00  0.00     0.188 C 
BRANCH  26  27
ATOM     27  O   UNL A   1      40.989  20.034  27.485  1.00  0.00    -0.376 OA
BRANCH  27  28
ATOM     28  C   UNL A   1      41.127  19.494  26.184  1.00  0.00     0.202 C 
BRANCH  28  29
ATOM     29  C   UNL A   1      42.459  18.803  25.854  1.00  0.00     0.261 C 
BRANCH  29  30
ATOM     30  O   UNL A   1      43.089  19.205  24.628  1.00  0.00    -0.460 OA
BRANCH  30  31
ATOM     31  C   UNL A   1      44.271  19.839  24.731  1.00  0.00     0.338 C 
ATOM     32  O   UNL A   1      45.343  19.491  24.252  1.00  0.00    -0.246 OA
BRANCH  31  33
ATOM     33  C   UNL A   1      44.038  21.149  25.369  1.00  0.00     0.060 A 
ATOM     34  C   UNL A   1      43.556  22.205  24.584  1.00  0.00     0.016 A 
ATOM     35  C   UNL A   1      44.310  21.340  26.726  1.00  0.00     0.016 A 
ATOM     36  C   UNL A   1      43.407  23.473  25.141  1.00  0.00     0.010 A 
ATOM     37  C   UNL A   1      44.177  22.616  27.280  1.00  0.00     0.010 A 
ATOM     38  C   UNL A   1      43.776  23.698  26.474  1.00  0.00    -0.014 A 
BRANCH  38  39
ATOM     39  C   UNL A   1      43.977  25.095  26.931  1.00  0.00     0.031 A 
ATOM     40  C   UNL A   1      45.342  25.706  26.760  1.00  0.00     0.074 A 
ATOM     41  C   UNL A   1      42.961  25.833  27.406  1.00  0.00     0.049 A 
ATOM     42  N   UNL A   1      45.755  26.921  27.022  1.00  0.00    -0.248 NA
ATOM     43  C   UNL A   1      46.386  24.823  26.217  1.00  0.00     0.031 C 
ATOM     44  C   UNL A   1      41.586  25.372  27.571  1.00  0.00     0.029 A 
ATOM     45  N   UNL A   1      42.934  27.141  27.823  1.00  0.00    -0.354 N 
ATOM     46  C   UNL A   1      47.099  26.944  26.672  1.00  0.00     0.074 A 
ATOM     47  C   UNL A   1      47.447  25.612  26.231  1.00  0.00     0.031 C 
ATOM     48  C   UNL A   1      40.841  26.388  28.043  1.00  0.00     0.029 A 
ATOM     49  C   UNL A   1      41.694  27.560  28.236  1.00  0.00     0.049 A 
ATOM     50  H   UNL A   1      43.728  27.722  27.826  1.00  0.00     0.167 HD
ATOM     51  C   UNL A   1      47.965  27.987  26.695  1.00  0.00     0.037 A 
ATOM     52  C   UNL A   1      41.301  28.756  28.716  1.00  0.00     0.037 A 
ATOM     53  C   UNL A   1      47.621  29.309  27.150  1.00  0.00     0.049 A 
ATOM     54  C   UNL A   1      42.305  29.875  28.825  1.00  0.00     0.074 A 
ATOM     55  C   UNL A   1      48.422  30.435  27.222  1.00  0.00     0.029 A 
ATOM     56  N   UNL A   1      46.369  29.678  27.624  1.00  0.00    -0.354 N 
ATOM     57  N   UNL A   1      43.568  29.900  28.471  1.00  0.00    -0.248 NA
ATOM     58  C   UNL A   1      41.819  31.140  29.394  1.00  0.00     0.031 C 
ATOM     59  C   UNL A   1      47.673  31.467  27.799  1.00  0.00     0.029 A 
ATOM     60  C   UNL A   1      46.383  31.007  28.015  1.00  0.00     0.049 A 
ATOM     61  H   UNL A   1      45.587  29.082  27.675  1.00  0.00     0.167 HD
ATOM     62  C   UNL A   1      44.014  31.191  28.729  1.00  0.00     0.074 A 
ATOM     63  C   UNL A   1      42.881  31.922  29.261  1.00  0.00     0.031 C 
ATOM     64  C   UNL A   1      45.247  31.727  28.535  1.00  0.00     0.037 A 
BRANCH  51  65
ATOM     65  C   UNL A   1      49.376  27.714  26.254  1.00  0.00     0.064 A 
ATOM     66  C   UNL A   1      49.728  27.646  24.895  1.00  0.00     0.173 A 
ATOM     67  C   UNL A   1      50.388  27.499  27.201  1.00  0.00     0.173 A 
ATOM     68  F   UNL A   1      48.799  27.828  23.946  1.00  0.00    -0.203 F 
ATOM     69  C   UNL A   1      51.026  27.324  24.506  1.00  0.00     0.198 A 
ATOM     70  C   UNL A   1      51.693  27.216  26.808  1.00  0.00     0.198 A 
ATOM     71  F   UNL A   1      50.110  27.556  28.513  1.00  0.00    -0.203 F 
ATOM     72  F   UNL A   1      51.320  27.189  23.204  1.00  0.00    -0.200 F 
ATOM     73  C   UNL A   1      52.008  27.114  25.461  1.00  0.00     0.200 A 
ATOM     74  F   UNL A   1      52.644  27.028  27.733  1.00  0.00    -0.200 F 
ATOM     75  F   UNL A   1      53.255  26.800  25.086  1.00  0.00    -0.200 F 
ENDBRANCH  51  65
BRANCH  52  76
ATOM     76  C   UNL A   1      39.881  28.972  29.107  1.00  0.00     0.064 A 
ATOM     77  C   UNL A   1      39.462  28.786  30.432  1.00  0.00     0.173 A 
ATOM     78  C   UNL A   1      38.913  29.345  28.164  1.00  0.00     0.173 A 
ATOM     79  F   UNL A   1      40.346  28.404  31.366  1.00  0.00    -0.203 F 
ATOM     80  C   UNL A   1      38.126  28.943  30.794  1.00  0.00     0.198 A 
ATOM     81  C   UNL A   1      37.582  29.532  28.534  1.00  0.00     0.198 A 
ATOM     82  F   UNL A   1      39.259  29.531  26.882  1.00  0.00    -0.203 F 
ATOM     83  F   UNL A   1      37.745  28.707  32.058  1.00  0.00    -0.200 F 
ATOM     84  C   UNL A   1      37.188  29.322  29.847  1.00  0.00     0.200 A 
ATOM     85  F   UNL A   1      36.681  29.908  27.616  1.00  0.00    -0.200 F 
ATOM     86  F   UNL A   1      35.904  29.476  30.196  1.00  0.00    -0.200 F 
ENDBRANCH  52  76
BRANCH  64  87
ATOM     87  C   UNL A   1      45.417  33.191  28.838  1.00  0.00     0.064 A 
ATOM     88  C   UNL A   1      45.908  33.649  30.070  1.00  0.00     0.173 A 
ATOM     89  C   UNL A   1      45.093  34.154  27.868  1.00  0.00     0.173 A 
ATOM     90  F   UNL A   1      46.227  32.774  31.038  1.00  0.00    -0.203 F 
ATOM     91  C   UNL A   1      46.020  35.012  30.338  1.00  0.00     0.198 A 
ATOM     92  C   UNL A   1      45.244  35.514  28.124  1.00  0.00     0.198 A 
ATOM     93  F   UNL A   1      44.630  33.777  26.667  1.00  0.00    -0.203 F 
ATOM     94  F   UNL A   1      46.421  35.424  31.549  1.00  0.00    -0.200 F 
ATOM     95  C   UNL A   1      45.692  35.943  29.363  1.00  0.00     0.200 A 
ATOM     96  F   UNL A   1      44.946  36.411  27.174  1.00  0.00    -0.200 F 
ATOM     97  F   UNL A   1      45.799  37.253  29.623  1.00  0.00    -0.200 F 
ENDBRANCH  64  87
ENDBRANCH  38  39
ENDBRANCH  31  33
ENDBRANCH  30  31
ENDBRANCH  29  30
ENDBRANCH  28  29
ENDBRANCH  27  28
ENDBRANCH  26  27
ENDBRANCH   1  26
TORSDOF 21
ENDMDL
