MODEL 1
REMARK VINA RESULT:     -10.8      0.000      0.000
REMARK SMILES CC[NH+]1CCN(c2ccc(NC(=O)C3CCCC3)c(C(=O)OCCOCCOCCOCCOC(=O)c3ccc(-c4c5nc(c(-c6c(F)c(F)c(F)c(F)c6F)c6ccc([nH]6)c(-c6c(F)c(F)c(F)c(F)c6F)c6nc(c(-c7c(F)c(F)c(F)c(F)c7F)c7ccc4[nH]7)C=C6)C=C5)cc3)c2)CC1
REMARK SMILES IDX 28 1 27 2 26 3 25 4 24 5 23 6 22 7 20 8 21 9 19 10 7 11 8 12
REMARK SMILES IDX 100 13 9 14 10 15 6 16 3 17 4 18 102 19 5 21 101 22 2 23
REMARK SMILES IDX 1 24 11 25 12 26 13 28 14 29 15 30 18 31 16 32 17 33 29 34
REMARK SMILES IDX 30 35 31 36 32 37 33 38 34 39 35 40 36 41 37 42 38 43 99 44
REMARK SMILES IDX 39 45 98 46 40 47 41 48 42 49 92 50 43 51 97 52 91 53 93 54
REMARK SMILES IDX 44 55 96 56 90 57 89 58 45 60 77 61 57 62 76 63 58 64 61 65
REMARK SMILES IDX 75 66 94 67 59 68 60 69 74 71 95 72 62 73 46 74 47 75 55 76
REMARK SMILES IDX 48 77 49 78 53 79 56 80 50 81 51 82 54 83 52 84 78 85 79 86
REMARK SMILES IDX 87 87 80 88 81 89 85 90 88 91 82 92 83 93 86 94 84 95 63 96
REMARK SMILES IDX 64 97 72 98 65 99 66 100 70 101 73 102 67 103 68 104 71 105
REMARK SMILES IDX 69 106
REMARK H PARENT 3 20 11 27 93 59 61 70
REMARK Flexibility Score: inf
ROOT
ATOM      1  O   UNL A   1      34.794  21.699  26.664  1.00  0.00    -0.377 OA
ENDROOT
BRANCH   1   2
ATOM      2  C   UNL A   1      33.406  21.748  26.358  1.00  0.00     0.188 C 
BRANCH   2   3
ATOM      3  C   UNL A   1      32.809  22.778  25.373  1.00  0.00     0.188 C 
BRANCH   3   4
ATOM      4  O   UNL A   1      31.735  23.539  25.908  1.00  0.00    -0.376 OA
BRANCH   4   5
ATOM      5  C   UNL A   1      31.765  24.935  25.671  1.00  0.00     0.202 C 
BRANCH   5   6
ATOM      6  C   UNL A   1      32.959  25.654  26.308  1.00  0.00     0.261 C 
BRANCH   6   7
ATOM      7  O   UNL A   1      32.881  27.091  26.311  1.00  0.00    -0.460 OA
BRANCH   7   8
ATOM      8  C   UNL A   1      33.447  27.789  25.294  1.00  0.00     0.340 C 
ATOM      9  O   UNL A   1      34.043  27.329  24.338  1.00  0.00    -0.246 OA
BRANCH   8  10
ATOM     10  C   UNL A   1      32.939  29.182  25.420  1.00  0.00     0.085 A 
ATOM     11  C   UNL A   1      32.849  31.195  26.841  1.00  0.00     0.038 A 
ATOM     12  C   UNL A   1      31.561  31.380  26.337  1.00  0.00     0.028 A 
ATOM     13  C   UNL A   1      33.490  30.022  26.417  1.00  0.00     0.043 A 
ATOM     14  C   UNL A   1      31.010  30.538  25.373  1.00  0.00     0.029 A 
ATOM     15  C   UNL A   1      31.765  29.557  24.762  1.00  0.00     0.055 A 
BRANCH  11  16
ATOM     16  N   UNL A   1      33.396  32.067  27.757  1.00  0.00    -0.360 N 
ATOM     17  N   UNL A   1      35.172  34.138  28.878  1.00  0.00    -0.332 N 
ATOM     18  C   UNL A   1      35.607  32.740  28.658  1.00  0.00     0.283 C 
ATOM     19  C   UNL A   1      34.052  34.435  27.954  1.00  0.00     0.283 C 
ATOM     20  H   UNL A   1      35.942  34.774  28.674  1.00  0.00     0.348 HD
ATOM     21  C   UNL A   1      34.473  31.687  28.692  1.00  0.00     0.178 C 
ATOM     22  C   UNL A   1      32.883  33.426  27.998  1.00  0.00     0.178 C 
BRANCH  17  23
ATOM     23  C   UNL A   1      34.819  34.377  30.281  1.00  0.00     0.258 C 
ATOM     24  C   UNL A   1      35.896  33.767  31.166  1.00  0.00     0.071 C 
ENDBRANCH  17  23
ENDBRANCH  11  16
BRANCH  15  25
ATOM     25  N   UNL A   1      31.267  28.891  23.634  1.00  0.00    -0.325 N 
ATOM     26  C   UNL A   1      30.197  29.145  22.827  1.00  0.00     0.227 C 
ATOM     27  H   UNL A   1      31.784  28.094  23.379  1.00  0.00     0.169 HD
ATOM     28  O   UNL A   1      29.796  28.188  22.147  1.00  0.00    -0.274 OA
BRANCH  26  29
ATOM     29  C   UNL A   1      29.598  30.538  22.519  1.00  0.00     0.079 C 
ATOM     30  C   UNL A   1      28.901  30.969  21.236  1.00  0.00     0.013 C 
ATOM     31  C   UNL A   1      28.538  30.884  23.579  1.00  0.00     0.013 C 
ATOM     32  C   UNL A   1      28.219  32.274  21.601  1.00  0.00     0.001 C 
ATOM     33  C   UNL A   1      27.659  31.989  22.984  1.00  0.00     0.001 C 
ENDBRANCH  26  29
ENDBRANCH  15  25
ENDBRANCH   8  10
ENDBRANCH   7   8
ENDBRANCH   6   7
ENDBRANCH   5   6
ENDBRANCH   4   5
ENDBRANCH   3   4
ENDBRANCH   2   3
ENDBRANCH   1   2
BRANCH   1  34
ATOM     34  C   UNL A   1      35.737  22.004  25.654  1.00  0.00     0.188 C 
BRANCH  34  35
ATOM     35  C   UNL A   1      36.483  20.825  25.001  1.00  0.00     0.188 C 
BRANCH  35  36
ATOM     36  O   UNL A   1      37.894  20.865  25.183  1.00  0.00    -0.376 OA
BRANCH  36  37
ATOM     37  C   UNL A   1      38.551  19.618  25.344  1.00  0.00     0.202 C 
BRANCH  37  38
ATOM     38  C   UNL A   1      39.876  19.657  26.116  1.00  0.00     0.261 C 
BRANCH  38  39
ATOM     39  O   UNL A   1      41.032  19.198  25.396  1.00  0.00    -0.460 OA
BRANCH  39  40
ATOM     40  C   UNL A   1      42.186  19.071  26.080  1.00  0.00     0.338 C 
ATOM     41  O   UNL A   1      42.802  18.047  26.319  1.00  0.00    -0.246 OA
BRANCH  40  42
ATOM     42  C   UNL A   1      42.689  20.432  26.349  1.00  0.00     0.060 A 
ATOM     43  C   UNL A   1      42.623  20.938  27.654  1.00  0.00     0.016 A 
ATOM     44  C   UNL A   1      43.251  21.190  25.319  1.00  0.00     0.016 A 
ATOM     45  C   UNL A   1      43.103  22.220  27.928  1.00  0.00     0.010 A 
ATOM     46  C   UNL A   1      43.705  22.482  25.589  1.00  0.00     0.010 A 
ATOM     47  C   UNL A   1      43.604  23.012  26.887  1.00  0.00    -0.014 A 
BRANCH  47  48
ATOM     48  C   UNL A   1      43.819  24.461  27.104  1.00  0.00     0.031 A 
ATOM     49  C   UNL A   1      45.188  25.018  26.833  1.00  0.00     0.074 A 
ATOM     50  C   UNL A   1      42.830  25.266  27.526  1.00  0.00     0.049 A 
ATOM     51  N   UNL A   1      45.640  26.236  26.986  1.00  0.00    -0.248 NA
ATOM     52  C   UNL A   1      46.185  24.064  26.321  1.00  0.00     0.031 C 
ATOM     53  C   UNL A   1      41.453  24.851  27.784  1.00  0.00     0.029 A 
ATOM     54  N   UNL A   1      42.841  26.606  27.818  1.00  0.00    -0.354 N 
ATOM     55  C   UNL A   1      46.972  26.191  26.600  1.00  0.00     0.074 A 
ATOM     56  C   UNL A   1      47.265  24.822  26.234  1.00  0.00     0.031 C 
ATOM     57  C   UNL A   1      40.751  25.918  28.203  1.00  0.00     0.029 A 
ATOM     58  C   UNL A   1      41.637  27.080  28.275  1.00  0.00     0.049 A 
ATOM     59  H   UNL A   1      43.638  27.175  27.710  1.00  0.00     0.167 HD
ATOM     60  C   UNL A   1      47.871  27.203  26.548  1.00  0.00     0.037 A 
ATOM     61  C   UNL A   1      41.300  28.307  28.717  1.00  0.00     0.037 A 
ATOM     62  C   UNL A   1      47.577  28.560  26.921  1.00  0.00     0.049 A 
ATOM     63  C   UNL A   1      42.340  29.400  28.728  1.00  0.00     0.074 A 
ATOM     64  C   UNL A   1      48.408  29.666  26.880  1.00  0.00     0.029 A 
ATOM     65  N   UNL A   1      46.357  28.994  27.422  1.00  0.00    -0.354 N 
ATOM     66  N   UNL A   1      43.588  29.364  28.328  1.00  0.00    -0.248 NA
ATOM     67  C   UNL A   1      41.921  30.707  29.258  1.00  0.00     0.031 C 
ATOM     68  C   UNL A   1      47.710  30.755  27.414  1.00  0.00     0.029 A 
ATOM     69  C   UNL A   1      46.424  30.343  27.727  1.00  0.00     0.049 A 
ATOM     70  H   UNL A   1      45.562  28.426  27.541  1.00  0.00     0.167 HD
ATOM     71  C   UNL A   1      44.092  30.644  28.524  1.00  0.00     0.074 A 
ATOM     72  C   UNL A   1      43.012  31.437  29.072  1.00  0.00     0.031 C 
ATOM     73  C   UNL A   1      45.336  31.121  28.269  1.00  0.00     0.037 A 
BRANCH  60  74
ATOM     74  C   UNL A   1      49.265  26.859  26.112  1.00  0.00     0.064 A 
ATOM     75  C   UNL A   1      49.678  26.985  24.777  1.00  0.00     0.173 A 
ATOM     76  C   UNL A   1      50.203  26.393  27.046  1.00  0.00     0.173 A 
ATOM     77  F   UNL A   1      48.816  27.410  23.840  1.00  0.00    -0.203 F 
ATOM     78  C   UNL A   1      50.964  26.621  24.387  1.00  0.00     0.198 A 
ATOM     79  C   UNL A   1      51.498  26.061  26.659  1.00  0.00     0.198 A 
ATOM     80  F   UNL A   1      49.861  26.254  28.337  1.00  0.00    -0.203 F 
ATOM     81  F   UNL A   1      51.316  26.689  23.095  1.00  0.00    -0.200 F 
ATOM     82  C   UNL A   1      51.874  26.164  25.328  1.00  0.00     0.200 A 
ATOM     83  F   UNL A   1      52.379  25.631  27.573  1.00  0.00    -0.200 F 
ATOM     84  F   UNL A   1      53.112  25.813  24.952  1.00  0.00    -0.200 F 
ENDBRANCH  60  74
BRANCH  61  85
ATOM     85  C   UNL A   1      39.913  28.574  29.180  1.00  0.00     0.064 A 
ATOM     86  C   UNL A   1      38.920  28.983  28.281  1.00  0.00     0.173 A 
ATOM     87  C   UNL A   1      39.555  28.436  30.530  1.00  0.00     0.173 A 
ATOM     88  F   UNL A   1      39.220  29.158  26.986  1.00  0.00    -0.203 F 
ATOM     89  C   UNL A   1      37.622  29.251  28.714  1.00  0.00     0.198 A 
ATOM     90  C   UNL A   1      38.251  28.677  30.957  1.00  0.00     0.198 A 
ATOM     91  F   UNL A   1      40.470  28.054  31.432  1.00  0.00    -0.203 F 
ATOM     92  F   UNL A   1      36.701  29.679  27.839  1.00  0.00    -0.200 F 
ATOM     93  C   UNL A   1      37.287  29.090  30.050  1.00  0.00     0.200 A 
ATOM     94  F   UNL A   1      37.929  28.512  32.247  1.00  0.00    -0.200 F 
ATOM     95  F   UNL A   1      36.038  29.341  30.464  1.00  0.00    -0.200 F 
ENDBRANCH  61  85
BRANCH  73  96
ATOM     96  C   UNL A   1      45.591  32.577  28.540  1.00  0.00     0.064 A 
ATOM     97  C   UNL A   1      46.151  33.019  29.748  1.00  0.00     0.173 A 
ATOM     98  C   UNL A   1      45.314  33.539  27.555  1.00  0.00     0.173 A 
ATOM     99  F   UNL A   1      46.421  32.142  30.727  1.00  0.00    -0.203 F 
ATOM    100  C   UNL A   1      46.398  34.371  29.970  1.00  0.00     0.198 A 
ATOM    101  C   UNL A   1      45.596  34.886  27.768  1.00  0.00     0.198 A 
ATOM    102  F   UNL A   1      44.787  33.171  26.378  1.00  0.00    -0.203 F 
ATOM    103  F   UNL A   1      46.888  34.776  31.150  1.00  0.00    -0.200 F 
ATOM    104  C   UNL A   1      46.130  35.302  28.978  1.00  0.00     0.200 A 
ATOM    105  F   UNL A   1      45.350  35.781  26.801  1.00  0.00    -0.200 F 
ATOM    106  F   UNL A   1      46.378  36.601  29.190  1.00  0.00    -0.200 F 
ENDBRANCH  73  96
ENDBRANCH  47  48
ENDBRANCH  40  42
ENDBRANCH  39  40
ENDBRANCH  38  39
ENDBRANCH  37  38
ENDBRANCH  36  37
ENDBRANCH  35  36
ENDBRANCH  34  35
ENDBRANCH   1  34
TORSDOF 24
ENDMDL
MODEL 2
REMARK VINA RESULT:     -10.4      0.679      7.039
REMARK SMILES CC[NH+]1CCN(c2ccc(NC(=O)C3CCCC3)c(C(=O)OCCOCCOCCOCCOC(=O)c3ccc(-c4c5nc(c(-c6c(F)c(F)c(F)c(F)c6F)c6ccc([nH]6)c(-c6c(F)c(F)c(F)c(F)c6F)c6nc(c(-c7c(F)c(F)c(F)c(F)c7F)c7ccc4[nH]7)C=C6)C=C5)cc3)c2)CC1
REMARK SMILES IDX 28 1 27 2 26 3 25 4 24 5 23 6 22 7 20 8 21 9 19 10 7 11 8 12
REMARK SMILES IDX 100 13 9 14 10 15 6 16 3 17 4 18 102 19 5 21 101 22 2 23
REMARK SMILES IDX 1 24 11 25 12 26 13 28 14 29 15 30 18 31 16 32 17 33 29 34
REMARK SMILES IDX 30 35 31 36 32 37 33 38 34 39 35 40 36 41 37 42 38 43 99 44
REMARK SMILES IDX 39 45 98 46 40 47 41 48 42 49 92 50 43 51 97 52 91 53 93 54
REMARK SMILES IDX 44 55 96 56 90 57 89 58 45 60 77 61 57 62 76 63 58 64 61 65
REMARK SMILES IDX 75 66 94 67 59 68 60 69 74 71 95 72 62 73 46 74 47 75 55 76
REMARK SMILES IDX 48 77 49 78 53 79 56 80 50 81 51 82 54 83 52 84 78 85 79 86
REMARK SMILES IDX 87 87 80 88 81 89 85 90 88 91 82 92 83 93 86 94 84 95 63 96
REMARK SMILES IDX 64 97 72 98 65 99 66 100 70 101 73 102 67 103 68 104 71 105
REMARK SMILES IDX 69 106
REMARK H PARENT 3 20 11 27 93 59 61 70
REMARK Flexibility Score: inf
ROOT
ATOM      1  O   UNL A   1      34.549  22.046  26.606  1.00  0.00    -0.377 OA
ENDROOT
BRANCH   1   2
ATOM      2  C   UNL A   1      33.392  21.421  26.066  1.00  0.00     0.188 C 
BRANCH   2   3
ATOM      3  C   UNL A   1      32.474  22.118  25.037  1.00  0.00     0.188 C 
BRANCH   3   4
ATOM      4  O   UNL A   1      31.528  23.009  25.610  1.00  0.00    -0.376 OA
BRANCH   4   5
ATOM      5  C   UNL A   1      31.689  24.385  25.312  1.00  0.00     0.202 C 
BRANCH   5   6
ATOM      6  C   UNL A   1      31.869  25.276  26.545  1.00  0.00     0.261 C 
BRANCH   6   7
ATOM      7  O   UNL A   1      31.964  26.686  26.275  1.00  0.00    -0.460 OA
BRANCH   7   8
ATOM      8  C   UNL A   1      33.185  27.243  26.071  1.00  0.00     0.340 C 
ATOM      9  O   UNL A   1      34.214  26.658  25.789  1.00  0.00    -0.246 OA
BRANCH   8  10
ATOM     10  C   UNL A   1      32.955  28.709  25.960  1.00  0.00     0.085 A 
ATOM     11  C   UNL A   1      33.271  30.906  27.036  1.00  0.00     0.038 A 
ATOM     12  C   UNL A   1      32.034  31.248  26.485  1.00  0.00     0.028 A 
ATOM     13  C   UNL A   1      33.669  29.578  26.818  1.00  0.00     0.043 A 
ATOM     14  C   UNL A   1      31.319  30.382  25.661  1.00  0.00     0.029 A 
ATOM     15  C   UNL A   1      31.864  29.190  25.230  1.00  0.00     0.055 A 
BRANCH  11  16
ATOM     16  N   UNL A   1      33.986  31.794  27.808  1.00  0.00    -0.360 N 
ATOM     17  N   UNL A   1      34.717  33.483  30.113  1.00  0.00    -0.332 N 
ATOM     18  C   UNL A   1      33.643  33.845  29.160  1.00  0.00     0.283 C 
ATOM     19  C   UNL A   1      34.892  32.012  30.090  1.00  0.00     0.283 C 
ATOM     20  H   UNL A   1      34.450  33.766  31.055  1.00  0.00     0.348 HD
ATOM     21  C   UNL A   1      33.802  33.257  27.737  1.00  0.00     0.178 C 
ATOM     22  C   UNL A   1      35.099  31.399  28.687  1.00  0.00     0.178 C 
BRANCH  17  23
ATOM     23  C   UNL A   1      35.962  34.199  29.819  1.00  0.00     0.258 C 
ATOM     24  C   UNL A   1      36.885  34.087  31.023  1.00  0.00     0.071 C 
ENDBRANCH  17  23
ENDBRANCH  11  16
BRANCH  15  25
ATOM     25  N   UNL A   1      31.233  28.457  24.216  1.00  0.00    -0.325 N 
ATOM     26  C   UNL A   1      30.138  28.725  23.448  1.00  0.00     0.227 C 
ATOM     27  H   UNL A   1      31.656  27.589  24.025  1.00  0.00     0.169 HD
ATOM     28  O   UNL A   1      29.606  27.744  22.905  1.00  0.00    -0.274 OA
BRANCH  26  29
ATOM     29  C   UNL A   1      29.649  30.129  23.016  1.00  0.00     0.079 C 
ATOM     30  C   UNL A   1      29.314  30.584  21.603  1.00  0.00     0.013 C 
ATOM     31  C   UNL A   1      28.351  30.471  23.769  1.00  0.00     0.013 C 
ATOM     32  C   UNL A   1      28.568  31.890  21.798  1.00  0.00     0.001 C 
ATOM     33  C   UNL A   1      27.665  31.593  22.982  1.00  0.00     0.001 C 
ENDBRANCH  26  29
ENDBRANCH  15  25
ENDBRANCH   8  10
ENDBRANCH   7   8
ENDBRANCH   6   7
ENDBRANCH   5   6
ENDBRANCH   4   5
ENDBRANCH   3   4
ENDBRANCH   2   3
ENDBRANCH   1   2
BRANCH   1  34
ATOM     34  C   UNL A   1      35.725  22.121  25.822  1.00  0.00     0.188 C 
BRANCH  34  35
ATOM     35  C   UNL A   1      36.123  20.871  25.017  1.00  0.00     0.188 C 
BRANCH  35  36
ATOM     36  O   UNL A   1      37.519  20.774  24.756  1.00  0.00    -0.376 OA
BRANCH  36  37
ATOM     37  C   UNL A   1      38.116  19.502  24.946  1.00  0.00     0.202 C 
BRANCH  37  38
ATOM     38  C   UNL A   1      39.327  19.467  25.887  1.00  0.00     0.261 C 
BRANCH  38  39
ATOM     39  O   UNL A   1      40.578  19.872  25.309  1.00  0.00    -0.460 OA
BRANCH  39  40
ATOM     40  C   UNL A   1      41.709  19.506  25.946  1.00  0.00     0.338 C 
ATOM     41  O   UNL A   1      42.158  18.381  26.080  1.00  0.00    -0.246 OA
BRANCH  40  42
ATOM     42  C   UNL A   1      42.427  20.743  26.310  1.00  0.00     0.060 A 
ATOM     43  C   UNL A   1      42.271  21.267  27.600  1.00  0.00     0.016 A 
ATOM     44  C   UNL A   1      43.274  21.362  25.387  1.00  0.00     0.016 A 
ATOM     45  C   UNL A   1      42.951  22.430  27.965  1.00  0.00     0.010 A 
ATOM     46  C   UNL A   1      43.930  22.540  25.744  1.00  0.00     0.010 A 
ATOM     47  C   UNL A   1      43.747  23.095  27.023  1.00  0.00    -0.014 A 
BRANCH  47  48
ATOM     48  C   UNL A   1      44.211  24.475  27.295  1.00  0.00     0.031 A 
ATOM     49  C   UNL A   1      43.208  25.464  27.817  1.00  0.00     0.074 A 
ATOM     50  C   UNL A   1      45.485  24.844  27.090  1.00  0.00     0.049 A 
ATOM     51  N   UNL A   1      43.351  26.735  28.091  1.00  0.00    -0.248 NA
ATOM     52  C   UNL A   1      41.852  24.944  28.060  1.00  0.00     0.031 C 
ATOM     53  C   UNL A   1      46.557  23.967  26.624  1.00  0.00     0.029 A 
ATOM     54  N   UNL A   1      46.090  26.067  27.243  1.00  0.00    -0.354 N 
ATOM     55  C   UNL A   1      42.107  27.166  28.528  1.00  0.00     0.074 A 
ATOM     56  C   UNL A   1      41.212  26.032  28.455  1.00  0.00     0.031 C 
ATOM     57  C   UNL A   1      47.690  24.684  26.524  1.00  0.00     0.029 A 
ATOM     58  C   UNL A   1      47.415  26.074  26.885  1.00  0.00     0.049 A 
ATOM     59  H   UNL A   1      45.618  26.863  27.578  1.00  0.00     0.167 HD
ATOM     60  C   UNL A   1      41.744  28.398  28.959  1.00  0.00     0.037 A 
ATOM     61  C   UNL A   1      48.293  27.094  26.839  1.00  0.00     0.037 A 
ATOM     62  C   UNL A   1      42.635  29.524  29.021  1.00  0.00     0.049 A 
ATOM     63  C   UNL A   1      47.845  28.477  27.244  1.00  0.00     0.074 A 
ATOM     64  C   UNL A   1      42.374  30.807  29.467  1.00  0.00     0.029 A 
ATOM     65  N   UNL A   1      43.960  29.505  28.608  1.00  0.00    -0.354 N 
ATOM     66  N   UNL A   1      46.678  28.874  27.691  1.00  0.00    -0.248 NA
ATOM     67  C   UNL A   1      48.840  29.554  27.135  1.00  0.00     0.031 C 
ATOM     68  C   UNL A   1      43.523  31.580  29.266  1.00  0.00     0.029 A 
ATOM     69  C   UNL A   1      44.519  30.763  28.755  1.00  0.00     0.049 A 
ATOM     70  H   UNL A   1      44.432  28.713  28.262  1.00  0.00     0.167 HD
ATOM     71  C   UNL A   1      46.806  30.233  27.948  1.00  0.00     0.074 A 
ATOM     72  C   UNL A   1      48.168  30.592  27.614  1.00  0.00     0.031 C 
ATOM     73  C   UNL A   1      45.881  31.104  28.422  1.00  0.00     0.037 A 
BRANCH  60  74
ATOM     74  C   UNL A   1      40.308  28.590  29.351  1.00  0.00     0.064 A 
ATOM     75  C   UNL A   1      39.870  28.422  30.674  1.00  0.00     0.173 A 
ATOM     76  C   UNL A   1      39.353  28.945  28.385  1.00  0.00     0.173 A 
ATOM     77  F   UNL A   1      40.738  28.066  31.633  1.00  0.00    -0.203 F 
ATOM     78  C   UNL A   1      38.525  28.565  31.007  1.00  0.00     0.198 A 
ATOM     79  C   UNL A   1      38.015  29.119  28.728  1.00  0.00     0.198 A 
ATOM     80  F   UNL A   1      39.717  29.118  27.105  1.00  0.00    -0.203 F 
ATOM     81  F   UNL A   1      38.120  28.337  32.264  1.00  0.00    -0.200 F 
ATOM     82  C   UNL A   1      37.600  28.918  30.036  1.00  0.00     0.200 A 
ATOM     83  F   UNL A   1      37.126  29.472  27.790  1.00  0.00    -0.200 F 
ATOM     84  F   UNL A   1      36.306  29.054  30.358  1.00  0.00    -0.200 F 
ENDBRANCH  60  74
BRANCH  61  85
ATOM     85  C   UNL A   1      49.691  26.849  26.396  1.00  0.00     0.064 A 
ATOM     86  C   UNL A   1      50.667  26.414  27.303  1.00  0.00     0.173 A 
ATOM     87  C   UNL A   1      50.082  27.053  25.064  1.00  0.00     0.173 A 
ATOM     88  F   UNL A   1      50.350  26.234  28.593  1.00  0.00    -0.203 F 
ATOM     89  C   UNL A   1      51.984  26.201  26.897  1.00  0.00     0.198 A 
ATOM     90  C   UNL A   1      51.392  26.812  24.654  1.00  0.00     0.198 A 
ATOM     91  F   UNL A   1      49.188  27.476  24.159  1.00  0.00    -0.203 F 
ATOM     92  F   UNL A   1      52.906  25.823  27.792  1.00  0.00    -0.200 F 
ATOM     93  C   UNL A   1      52.342  26.392  25.570  1.00  0.00     0.200 A 
ATOM     94  F   UNL A   1      51.732  26.989  23.370  1.00  0.00    -0.200 F 
ATOM     95  F   UNL A   1      53.606  26.179  25.179  1.00  0.00    -0.200 F 
ENDBRANCH  61  85
BRANCH  73  96
ATOM     96  C   UNL A   1      46.316  32.525  28.648  1.00  0.00     0.064 A 
ATOM     97  C   UNL A   1      46.167  33.512  27.662  1.00  0.00     0.173 A 
ATOM     98  C   UNL A   1      46.848  32.913  29.889  1.00  0.00     0.173 A 
ATOM     99  F   UNL A   1      45.676  33.190  26.455  1.00  0.00    -0.203 F 
ATOM    100  C   UNL A   1      46.557  34.826  27.900  1.00  0.00     0.198 A 
ATOM    101  C   UNL A   1      47.205  34.236  30.134  1.00  0.00     0.198 A 
ATOM    102  F   UNL A   1      47.004  32.012  30.870  1.00  0.00    -0.203 F 
ATOM    103  F   UNL A   1      46.450  35.742  26.927  1.00  0.00    -0.200 F 
ATOM    104  C   UNL A   1      47.067  35.190  29.137  1.00  0.00     0.200 A 
ATOM    105  F   UNL A   1      47.683  34.588  31.336  1.00  0.00    -0.200 F 
ATOM    106  F   UNL A   1      47.433  36.459  29.367  1.00  0.00    -0.200 F 
ENDBRANCH  73  96
ENDBRANCH  47  48
ENDBRANCH  40  42
ENDBRANCH  39  40
ENDBRANCH  38  39
ENDBRANCH  37  38
ENDBRANCH  36  37
ENDBRANCH  35  36
ENDBRANCH  34  35
ENDBRANCH   1  34
TORSDOF 24
ENDMDL
MODEL 3
REMARK VINA RESULT:     -10.3      3.238      9.034
REMARK SMILES CC[NH+]1CCN(c2ccc(NC(=O)C3CCCC3)c(C(=O)OCCOCCOCCOCCOC(=O)c3ccc(-c4c5nc(c(-c6c(F)c(F)c(F)c(F)c6F)c6ccc([nH]6)c(-c6c(F)c(F)c(F)c(F)c6F)c6nc(c(-c7c(F)c(F)c(F)c(F)c7F)c7ccc4[nH]7)C=C6)C=C5)cc3)c2)CC1
REMARK SMILES IDX 28 1 27 2 26 3 25 4 24 5 23 6 22 7 20 8 21 9 19 10 7 11 8 12
REMARK SMILES IDX 100 13 9 14 10 15 6 16 3 17 4 18 102 19 5 21 101 22 2 23
REMARK SMILES IDX 1 24 11 25 12 26 13 28 14 29 15 30 18 31 16 32 17 33 29 34
REMARK SMILES IDX 30 35 31 36 32 37 33 38 34 39 35 40 36 41 37 42 38 43 99 44
REMARK SMILES IDX 39 45 98 46 40 47 41 48 42 49 92 50 43 51 97 52 91 53 93 54
REMARK SMILES IDX 44 55 96 56 90 57 89 58 45 60 77 61 57 62 76 63 58 64 61 65
REMARK SMILES IDX 75 66 94 67 59 68 60 69 74 71 95 72 62 73 46 74 47 75 55 76
REMARK SMILES IDX 48 77 49 78 53 79 56 80 50 81 51 82 54 83 52 84 78 85 79 86
REMARK SMILES IDX 87 87 80 88 81 89 85 90 88 91 82 92 83 93 86 94 84 95 63 96
REMARK SMILES IDX 64 97 72 98 65 99 66 100 70 101 73 102 67 103 68 104 71 105
REMARK SMILES IDX 69 106
REMARK H PARENT 3 20 11 27 93 59 61 70
REMARK Flexibility Score: inf
ROOT
ATOM      1  O   UNL A   1      35.176  32.384  27.498  1.00  0.00    -0.377 OA
ENDROOT
BRANCH   1   2
ATOM      2  C   UNL A   1      34.678  31.064  27.319  1.00  0.00     0.188 C 
BRANCH   2   3
ATOM      3  C   UNL A   1      33.167  30.743  27.297  1.00  0.00     0.188 C 
BRANCH   3   4
ATOM      4  O   UNL A   1      32.842  29.440  27.758  1.00  0.00    -0.376 OA
BRANCH   4   5
ATOM      5  C   UNL A   1      31.707  28.823  27.176  1.00  0.00     0.202 C 
BRANCH   5   6
ATOM      6  C   UNL A   1      31.896  28.419  25.710  1.00  0.00     0.261 C 
BRANCH   6   7
ATOM      7  O   UNL A   1      33.254  28.151  25.317  1.00  0.00    -0.460 OA
BRANCH   7   8
ATOM      8  C   UNL A   1      33.572  28.135  23.997  1.00  0.00     0.340 C 
ATOM      9  O   UNL A   1      34.500  28.714  23.464  1.00  0.00    -0.246 OA
BRANCH   8  10
ATOM     10  C   UNL A   1      32.759  27.044  23.393  1.00  0.00     0.085 A 
ATOM     11  C   UNL A   1      32.601  24.620  22.967  1.00  0.00     0.038 A 
ATOM     12  C   UNL A   1      31.990  24.967  21.760  1.00  0.00     0.028 A 
ATOM     13  C   UNL A   1      33.055  25.703  23.734  1.00  0.00     0.043 A 
ATOM     14  C   UNL A   1      31.723  26.290  21.413  1.00  0.00     0.029 A 
ATOM     15  C   UNL A   1      31.920  27.320  22.310  1.00  0.00     0.055 A 
BRANCH  11  16
ATOM     16  N   UNL A   1      32.813  23.305  23.315  1.00  0.00    -0.360 N 
ATOM     17  N   UNL A   1      33.291  20.941  25.013  1.00  0.00    -0.332 N 
ATOM     18  C   UNL A   1      34.349  21.924  24.689  1.00  0.00     0.283 C 
ATOM     19  C   UNL A   1      31.973  21.609  24.895  1.00  0.00     0.283 C 
ATOM     20  H   UNL A   1      33.407  20.613  25.971  1.00  0.00     0.348 HD
ATOM     21  C   UNL A   1      34.152  22.685  23.355  1.00  0.00     0.178 C 
ATOM     22  C   UNL A   1      31.728  22.338  23.555  1.00  0.00     0.178 C 
BRANCH  17  23
ATOM     23  C   UNL A   1      33.390  19.746  24.169  1.00  0.00     0.258 C 
ATOM     24  C   UNL A   1      34.329  18.752  24.840  1.00  0.00     0.071 C 
ENDBRANCH  17  23
ENDBRANCH  11  16
BRANCH  15  25
ATOM     25  N   UNL A   1      31.419  28.598  22.029  1.00  0.00    -0.325 N 
ATOM     26  C   UNL A   1      30.158  29.115  22.099  1.00  0.00     0.227 C 
ATOM     27  H   UNL A   1      32.101  29.239  21.727  1.00  0.00     0.169 HD
ATOM     28  O   UNL A   1      29.964  30.151  21.444  1.00  0.00    -0.274 OA
BRANCH  26  29
ATOM     29  C   UNL A   1      29.043  28.671  23.075  1.00  0.00     0.079 C 
ATOM     30  C   UNL A   1      27.541  28.796  22.865  1.00  0.00     0.013 C 
ATOM     31  C   UNL A   1      29.191  27.168  23.369  1.00  0.00     0.013 C 
ATOM     32  C   UNL A   1      26.938  27.907  23.935  1.00  0.00     0.001 C 
ATOM     33  C   UNL A   1      27.841  26.687  23.913  1.00  0.00     0.001 C 
ENDBRANCH  26  29
ENDBRANCH  15  25
ENDBRANCH   8  10
ENDBRANCH   7   8
ENDBRANCH   6   7
ENDBRANCH   5   6
ENDBRANCH   4   5
ENDBRANCH   3   4
ENDBRANCH   2   3
ENDBRANCH   1   2
BRANCH   1  34
ATOM     34  C   UNL A   1      35.666  32.774  28.767  1.00  0.00     0.188 C 
BRANCH  34  35
ATOM     35  C   UNL A   1      35.587  34.268  29.130  1.00  0.00     0.188 C 
BRANCH  35  36
ATOM     36  O   UNL A   1      34.323  34.669  29.649  1.00  0.00    -0.376 OA
BRANCH  36  37
ATOM     37  C   UNL A   1      34.032  34.285  30.983  1.00  0.00     0.202 C 
BRANCH  37  38
ATOM     38  C   UNL A   1      35.244  33.939  31.858  1.00  0.00     0.261 C 
BRANCH  38  39
ATOM     39  O   UNL A   1      35.440  32.542  32.127  1.00  0.00    -0.460 OA
BRANCH  39  40
ATOM     40  C   UNL A   1      36.417  32.202  32.993  1.00  0.00     0.338 C 
ATOM     41  O   UNL A   1      36.417  32.332  34.204  1.00  0.00    -0.246 OA
BRANCH  40  42
ATOM     42  C   UNL A   1      37.442  31.466  32.229  1.00  0.00     0.060 A 
ATOM     43  C   UNL A   1      38.564  30.961  32.902  1.00  0.00     0.016 A 
ATOM     44  C   UNL A   1      37.278  31.248  30.859  1.00  0.00     0.016 A 
ATOM     45  C   UNL A   1      39.538  30.253  32.197  1.00  0.00     0.010 A 
ATOM     46  C   UNL A   1      38.266  30.564  30.150  1.00  0.00     0.010 A 
ATOM     47  C   UNL A   1      39.413  30.091  30.811  1.00  0.00    -0.014 A 
BRANCH  47  48
ATOM     48  C   UNL A   1      40.575  29.626  30.018  1.00  0.00     0.031 A 
ATOM     49  C   UNL A   1      41.684  30.605  29.755  1.00  0.00     0.074 A 
ATOM     50  C   UNL A   1      40.650  28.372  29.545  1.00  0.00     0.049 A 
ATOM     51  N   UNL A   1      42.780  30.458  29.056  1.00  0.00    -0.248 NA
ATOM     52  C   UNL A   1      41.530  31.937  30.364  1.00  0.00     0.031 C 
ATOM     53  C   UNL A   1      39.658  27.323  29.768  1.00  0.00     0.029 A 
ATOM     54  N   UNL A   1      41.610  27.772  28.770  1.00  0.00    -0.354 N 
ATOM     55  C   UNL A   1      43.439  31.677  29.133  1.00  0.00     0.074 A 
ATOM     56  C   UNL A   1      42.608  32.563  29.920  1.00  0.00     0.031 C 
ATOM     57  C   UNL A   1      40.060  26.206  29.136  1.00  0.00     0.029 A 
ATOM     58  C   UNL A   1      41.318  26.473  28.438  1.00  0.00     0.049 A 
ATOM     59  H   UNL A   1      42.432  28.230  28.479  1.00  0.00     0.167 HD
ATOM     60  C   UNL A   1      44.634  32.026  28.602  1.00  0.00     0.037 A 
ATOM     61  C   UNL A   1      41.984  25.610  27.647  1.00  0.00     0.037 A 
ATOM     62  C   UNL A   1      45.452  31.144  27.813  1.00  0.00     0.049 A 
ATOM     63  C   UNL A   1      43.273  26.047  26.996  1.00  0.00     0.074 A 
ATOM     64  C   UNL A   1      46.692  31.390  27.250  1.00  0.00     0.029 A 
ATOM     65  N   UNL A   1      45.102  29.848  27.461  1.00  0.00    -0.354 N 
ATOM     66  N   UNL A   1      43.912  27.188  27.101  1.00  0.00    -0.248 NA
ATOM     67  C   UNL A   1      43.932  25.073  26.114  1.00  0.00     0.031 C 
ATOM     68  C   UNL A   1      47.063  30.265  26.506  1.00  0.00     0.029 A 
ATOM     69  C   UNL A   1      46.086  29.294  26.658  1.00  0.00     0.049 A 
ATOM     70  H   UNL A   1      44.276  29.391  27.741  1.00  0.00     0.167 HD
ATOM     71  C   UNL A   1      45.060  27.058  26.329  1.00  0.00     0.074 A 
ATOM     72  C   UNL A   1      45.035  25.724  25.768  1.00  0.00     0.031 C 
ATOM     73  C   UNL A   1      46.048  27.961  26.110  1.00  0.00     0.037 A 
BRANCH  60  74
ATOM     74  C   UNL A   1      45.098  33.436  28.824  1.00  0.00     0.064 A 
ATOM     75  C   UNL A   1      45.895  33.791  29.923  1.00  0.00     0.173 A 
ATOM     76  C   UNL A   1      44.735  34.449  27.924  1.00  0.00     0.173 A 
ATOM     77  F   UNL A   1      46.256  32.864  30.824  1.00  0.00    -0.203 F 
ATOM     78  C   UNL A   1      46.279  35.113  30.133  1.00  0.00     0.198 A 
ATOM     79  C   UNL A   1      45.148  35.764  28.118  1.00  0.00     0.198 A 
ATOM     80  F   UNL A   1      43.975  34.164  26.855  1.00  0.00    -0.203 F 
ATOM     81  F   UNL A   1      46.986  35.439  31.224  1.00  0.00    -0.200 F 
ATOM     82  C   UNL A   1      45.910  36.097  29.228  1.00  0.00     0.200 A 
ATOM     83  F   UNL A   1      44.801  36.711  27.236  1.00  0.00    -0.200 F 
ATOM     84  F   UNL A   1      46.279  37.370  29.431  1.00  0.00    -0.200 F 
ENDBRANCH  60  74
BRANCH  61  85
ATOM     85  C   UNL A   1      41.449  24.241  27.428  1.00  0.00     0.064 A 
ATOM     86  C   UNL A   1      40.314  24.030  26.633  1.00  0.00     0.173 A 
ATOM     87  C   UNL A   1      42.053  23.118  28.014  1.00  0.00     0.173 A 
ATOM     88  F   UNL A   1      39.683  25.074  26.076  1.00  0.00    -0.203 F 
ATOM     89  C   UNL A   1      39.797  22.749  26.440  1.00  0.00     0.198 A 
ATOM     90  C   UNL A   1      41.552  21.836  27.796  1.00  0.00     0.198 A 
ATOM     91  F   UNL A   1      43.137  23.267  28.788  1.00  0.00    -0.203 F 
ATOM     92  F   UNL A   1      38.688  22.581  25.708  1.00  0.00    -0.200 F 
ATOM     93  C   UNL A   1      40.423  21.653  27.015  1.00  0.00     0.200 A 
ATOM     94  F   UNL A   1      42.164  20.778  28.346  1.00  0.00    -0.200 F 
ATOM     95  F   UNL A   1      39.930  20.422  26.822  1.00  0.00    -0.200 F 
ENDBRANCH  61  85
BRANCH  73  96
ATOM     96  C   UNL A   1      47.208  27.527  25.257  1.00  0.00     0.064 A 
ATOM     97  C   UNL A   1      47.280  27.839  23.891  1.00  0.00     0.173 A 
ATOM     98  C   UNL A   1      48.284  26.830  25.828  1.00  0.00     0.173 A 
ATOM     99  F   UNL A   1      46.272  28.492  23.294  1.00  0.00    -0.203 F 
ATOM    100  C   UNL A   1      48.374  27.447  23.124  1.00  0.00     0.198 A 
ATOM    101  C   UNL A   1      49.392  26.469  25.065  1.00  0.00     0.198 A 
ATOM    102  F   UNL A   1      48.271  26.514  27.132  1.00  0.00    -0.203 F 
ATOM    103  F   UNL A   1      48.399  27.713  21.811  1.00  0.00    -0.200 F 
ATOM    104  C   UNL A   1      49.432  26.770  23.712  1.00  0.00     0.200 A 
ATOM    105  F   UNL A   1      50.420  25.830  25.640  1.00  0.00    -0.200 F 
ATOM    106  F   UNL A   1      50.488  26.402  22.974  1.00  0.00    -0.200 F 
ENDBRANCH  73  96
ENDBRANCH  47  48
ENDBRANCH  40  42
ENDBRANCH  39  40
ENDBRANCH  38  39
ENDBRANCH  37  38
ENDBRANCH  36  37
ENDBRANCH  35  36
ENDBRANCH  34  35
ENDBRANCH   1  34
TORSDOF 24
ENDMDL
