MODEL 1
REMARK VINA RESULT:     -10.3      0.000      0.000
REMARK SMILES C[C@@H](C(=O)OCCOCCOCCOCCOC(=O)c1ccc(-c2c3nc(c(-c4c(F)c(F)c(F)c(F)c4F)c4ccc([nH]4)c(-c4c(F)c(F)c(F)c(F)c4F)c4nc(c(-c5c(F)c(F)c(F)c(F)c5F)c5ccc2[nH]5)C=C4)C=C3)cc1)c1ccc(Cc2ccsc2)cc1F
REMARK SMILES IDX 10 1 9 2 8 3 7 4 6 5 5 6 3 7 4 8 2 9 1 10 83 11 84 12 94 13
REMARK SMILES IDX 85 14 93 15 95 16 86 17 87 18 88 19 89 20 92 21 90 22 91 23
REMARK SMILES IDX 11 24 12 25 13 26 14 27 15 28 16 29 17 30 18 31 19 32 20 33
REMARK SMILES IDX 21 34 82 35 22 36 81 37 23 38 24 39 25 40 75 41 26 42 80 43
REMARK SMILES IDX 74 44 76 45 27 46 79 47 73 48 72 49 28 51 60 52 40 53 59 54
REMARK SMILES IDX 41 55 44 56 58 57 77 58 42 59 43 60 57 62 78 63 45 64 29 65
REMARK SMILES IDX 30 66 38 67 31 68 32 69 36 70 39 71 33 72 34 73 37 74 35 75
REMARK SMILES IDX 61 76 62 77 70 78 63 79 64 80 68 81 71 82 65 83 66 84 69 85
REMARK SMILES IDX 67 86 46 87 47 88 55 89 48 90 49 91 53 92 56 93 50 94 51 95
REMARK SMILES IDX 54 96 52 97
REMARK H PARENT 76 50 44 61
REMARK Flexibility Score: inf
ROOT
ATOM      1  C   UNL A   1      37.024  22.541  24.028  1.00  0.00     0.188 C 
ENDROOT
BRANCH   1   2
ATOM      2  C   UNL A   1      35.862  23.541  24.163  1.00  0.00     0.188 C 
BRANCH   2   3
ATOM      3  O   UNL A   1      35.562  24.057  25.444  1.00  0.00    -0.376 OA
BRANCH   3   4
ATOM      4  C   UNL A   1      34.553  23.456  26.240  1.00  0.00     0.202 C 
BRANCH   4   5
ATOM      5  C   UNL A   1      34.662  22.066  26.916  1.00  0.00     0.261 C 
BRANCH   5   6
ATOM      6  O   UNL A   1      33.705  21.047  26.581  1.00  0.00    -0.463 OA
BRANCH   6   7
ATOM      7  C   UNL A   1      33.860  20.432  25.378  1.00  0.00     0.313 C 
ATOM      8  O   UNL A   1      34.930  19.977  24.989  1.00  0.00    -0.252 OA
BRANCH   7   9
ATOM      9  C   UNL A   1      32.563  20.343  24.546  1.00  0.00     0.129 C 
ATOM     10  C   UNL A   1      32.443  19.241  23.484  1.00  0.00     0.025 C 
BRANCH   9  11
ATOM     11  C   UNL A   1      32.175  21.721  24.014  1.00  0.00     0.002 A 
ATOM     12  C   UNL A   1      32.740  22.283  22.857  1.00  0.00     0.008 A 
ATOM     13  C   UNL A   1      31.292  22.520  24.740  1.00  0.00     0.127 A 
ATOM     14  C   UNL A   1      32.486  23.607  22.487  1.00  0.00     0.004 A 
ATOM     15  C   UNL A   1      31.015  23.838  24.370  1.00  0.00     0.043 A 
ATOM     16  F   UNL A   1      30.676  22.016  25.820  1.00  0.00    -0.207 F 
ATOM     17  C   UNL A   1      31.626  24.409  23.245  1.00  0.00    -0.041 A 
BRANCH  17  18
ATOM     18  C   UNL A   1      31.315  25.822  22.817  1.00  0.00     0.072 C 
BRANCH  18  19
ATOM     19  C   UNL A   1      32.235  26.761  23.545  1.00  0.00    -0.033 A 
ATOM     20  C   UNL A   1      32.630  28.071  23.099  1.00  0.00     0.015 A 
ATOM     21  C   UNL A   1      32.749  26.518  24.809  1.00  0.00     0.068 A 
ATOM     22  C   UNL A   1      33.404  28.745  24.018  1.00  0.00     0.065 A 
ATOM     23  S   UNL A   1      33.668  27.821  25.428  1.00  0.00    -0.152 S 
ENDBRANCH  18  19
ENDBRANCH  17  18
ENDBRANCH   9  11
ENDBRANCH   7   9
ENDBRANCH   6   7
ENDBRANCH   5   6
ENDBRANCH   4   5
ENDBRANCH   3   4
ENDBRANCH   2   3
ENDBRANCH   1   2
BRANCH   1  24
ATOM     24  O   UNL A   1      38.005  22.647  25.038  1.00  0.00    -0.377 OA
BRANCH  24  25
ATOM     25  C   UNL A   1      38.281  21.475  25.786  1.00  0.00     0.188 C 
BRANCH  25  26
ATOM     26  C   UNL A   1      39.701  20.875  25.765  1.00  0.00     0.188 C 
BRANCH  26  27
ATOM     27  O   UNL A   1      40.508  21.216  26.886  1.00  0.00    -0.376 OA
BRANCH  27  28
ATOM     28  C   UNL A   1      41.880  20.848  26.883  1.00  0.00     0.202 C 
BRANCH  28  29
ATOM     29  C   UNL A   1      42.776  21.509  25.824  1.00  0.00     0.261 C 
BRANCH  29  30
ATOM     30  O   UNL A   1      42.281  22.726  25.246  1.00  0.00    -0.460 OA
BRANCH  30  31
ATOM     31  C   UNL A   1      43.117  23.790  25.214  1.00  0.00     0.338 C 
ATOM     32  O   UNL A   1      44.069  23.958  24.489  1.00  0.00    -0.246 OA
BRANCH  31  33
ATOM     33  C   UNL A   1      42.537  24.827  26.097  1.00  0.00     0.060 A 
ATOM     34  C   UNL A   1      43.156  26.082  26.158  1.00  0.00     0.016 A 
ATOM     35  C   UNL A   1      41.381  24.570  26.837  1.00  0.00     0.016 A 
ATOM     36  C   UNL A   1      42.639  27.076  26.988  1.00  0.00     0.010 A 
ATOM     37  C   UNL A   1      40.880  25.555  27.690  1.00  0.00     0.010 A 
ATOM     38  C   UNL A   1      41.527  26.800  27.794  1.00  0.00    -0.014 A 
BRANCH  38  39
ATOM     39  C   UNL A   1      41.182  27.722  28.902  1.00  0.00     0.031 A 
ATOM     40  C   UNL A   1      42.012  27.662  30.154  1.00  0.00     0.074 A 
ATOM     41  C   UNL A   1      40.176  28.607  28.796  1.00  0.00     0.049 A 
ATOM     42  N   UNL A   1      41.881  28.321  31.277  1.00  0.00    -0.248 NA
ATOM     43  C   UNL A   1      43.148  26.724  30.137  1.00  0.00     0.031 C 
ATOM     44  C   UNL A   1      39.335  28.795  27.618  1.00  0.00     0.029 A 
ATOM     45  N   UNL A   1      39.689  29.510  29.709  1.00  0.00    -0.354 N 
ATOM     46  C   UNL A   1      42.906  27.870  32.098  1.00  0.00     0.074 A 
ATOM     47  C   UNL A   1      43.633  26.862  31.361  1.00  0.00     0.031 C 
ATOM     48  C   UNL A   1      38.424  29.750  27.882  1.00  0.00     0.029 A 
ATOM     49  C   UNL A   1      38.597  30.211  29.260  1.00  0.00     0.049 A 
ATOM     50  H   UNL A   1      40.085  29.643  30.600  1.00  0.00     0.167 HD
ATOM     51  C   UNL A   1      43.217  28.268  33.355  1.00  0.00     0.037 A 
ATOM     52  C   UNL A   1      37.815  31.102  29.901  1.00  0.00     0.037 A 
ATOM     53  C   UNL A   1      42.490  29.271  34.084  1.00  0.00     0.049 A 
ATOM     54  C   UNL A   1      38.131  31.464  31.333  1.00  0.00     0.074 A 
ATOM     55  C   UNL A   1      42.735  29.760  35.356  1.00  0.00     0.029 A 
ATOM     56  N   UNL A   1      41.364  29.931  33.612  1.00  0.00    -0.354 N 
ATOM     57  N   UNL A   1      39.117  31.057  32.096  1.00  0.00    -0.248 NA
ATOM     58  C   UNL A   1      37.222  32.415  31.991  1.00  0.00     0.031 C 
ATOM     59  C   UNL A   1      41.719  30.665  35.677  1.00  0.00     0.029 A 
ATOM     60  C   UNL A   1      40.883  30.797  34.579  1.00  0.00     0.049 A 
ATOM     61  H   UNL A   1      40.967  29.801  32.720  1.00  0.00     0.167 HD
ATOM     62  C   UNL A   1      38.970  31.726  33.305  1.00  0.00     0.074 A 
ATOM     63  C   UNL A   1      37.806  32.577  33.170  1.00  0.00     0.031 C 
ATOM     64  C   UNL A   1      39.730  31.648  34.425  1.00  0.00     0.037 A 
BRANCH  51  65
ATOM     65  C   UNL A   1      44.369  27.586  34.034  1.00  0.00     0.064 A 
ATOM     66  C   UNL A   1      45.669  28.117  34.003  1.00  0.00     0.173 A 
ATOM     67  C   UNL A   1      44.163  26.398  34.751  1.00  0.00     0.173 A 
ATOM     68  F   UNL A   1      45.924  29.241  33.318  1.00  0.00    -0.203 F 
ATOM     69  C   UNL A   1      46.721  27.468  34.644  1.00  0.00     0.198 A 
ATOM     70  C   UNL A   1      45.212  25.772  35.418  1.00  0.00     0.198 A 
ATOM     71  F   UNL A   1      42.941  25.848  34.813  1.00  0.00    -0.203 F 
ATOM     72  F   UNL A   1      47.964  27.965  34.557  1.00  0.00    -0.200 F 
ATOM     73  C   UNL A   1      46.491  26.302  35.358  1.00  0.00     0.200 A 
ATOM     74  F   UNL A   1      44.984  24.652  36.119  1.00  0.00    -0.200 F 
ATOM     75  F   UNL A   1      47.504  25.684  35.980  1.00  0.00    -0.200 F 
ENDBRANCH  51  65
BRANCH  52  76
ATOM     76  C   UNL A   1      36.645  31.709  29.210  1.00  0.00     0.064 A 
ATOM     77  C   UNL A   1      36.617  33.075  28.895  1.00  0.00     0.173 A 
ATOM     78  C   UNL A   1      35.514  30.944  28.883  1.00  0.00     0.173 A 
ATOM     79  F   UNL A   1      37.662  33.856  29.211  1.00  0.00    -0.203 F 
ATOM     80  C   UNL A   1      35.498  33.657  28.303  1.00  0.00     0.198 A 
ATOM     81  C   UNL A   1      34.409  31.521  28.262  1.00  0.00     0.198 A 
ATOM     82  F   UNL A   1      35.484  29.634  29.167  1.00  0.00    -0.203 F 
ATOM     83  F   UNL A   1      35.478  34.975  28.068  1.00  0.00    -0.200 F 
ATOM     84  C   UNL A   1      34.396  32.879  27.983  1.00  0.00     0.200 A 
ATOM     85  F   UNL A   1      33.351  30.762  27.943  1.00  0.00    -0.200 F 
ATOM     86  F   UNL A   1      33.320  33.439  27.415  1.00  0.00    -0.200 F 
ENDBRANCH  52  76
BRANCH  64  87
ATOM     87  C   UNL A   1      39.363  32.539  35.579  1.00  0.00     0.064 A 
ATOM     88  C   UNL A   1      38.552  32.094  36.633  1.00  0.00     0.173 A 
ATOM     89  C   UNL A   1      39.875  33.845  35.654  1.00  0.00     0.173 A 
ATOM     90  F   UNL A   1      38.028  30.859  36.608  1.00  0.00    -0.203 F 
ATOM     91  C   UNL A   1      38.240  32.932  37.701  1.00  0.00     0.198 A 
ATOM     92  C   UNL A   1      39.592  34.668  36.740  1.00  0.00     0.198 A 
ATOM     93  F   UNL A   1      40.666  34.318  34.679  1.00  0.00    -0.203 F 
ATOM     94  F   UNL A   1      37.419  32.504  38.669  1.00  0.00    -0.200 F 
ATOM     95  C   UNL A   1      38.768  34.215  37.757  1.00  0.00     0.200 A 
ATOM     96  F   UNL A   1      40.119  35.898  36.802  1.00  0.00    -0.200 F 
ATOM     97  F   UNL A   1      38.475  35.016  38.792  1.00  0.00    -0.200 F 
ENDBRANCH  64  87
ENDBRANCH  38  39
ENDBRANCH  31  33
ENDBRANCH  30  31
ENDBRANCH  29  30
ENDBRANCH  28  29
ENDBRANCH  27  28
ENDBRANCH  26  27
ENDBRANCH  25  26
ENDBRANCH  24  25
ENDBRANCH   1  24
TORSDOF 23
ENDMDL
MODEL 2
REMARK VINA RESULT:      -9.9      4.479      9.012
REMARK SMILES C[C@@H](C(=O)OCCOCCOCCOCCOC(=O)c1ccc(-c2c3nc(c(-c4c(F)c(F)c(F)c(F)c4F)c4ccc([nH]4)c(-c4c(F)c(F)c(F)c(F)c4F)c4nc(c(-c5c(F)c(F)c(F)c(F)c5F)c5ccc2[nH]5)C=C4)C=C3)cc1)c1ccc(Cc2ccsc2)cc1F
REMARK SMILES IDX 10 1 9 2 8 3 7 4 6 5 5 6 3 7 4 8 2 9 1 10 83 11 84 12 94 13
REMARK SMILES IDX 85 14 93 15 95 16 86 17 87 18 88 19 89 20 92 21 90 22 91 23
REMARK SMILES IDX 11 24 12 25 13 26 14 27 15 28 16 29 17 30 18 31 19 32 20 33
REMARK SMILES IDX 21 34 82 35 22 36 81 37 23 38 24 39 25 40 75 41 26 42 80 43
REMARK SMILES IDX 74 44 76 45 27 46 79 47 73 48 72 49 28 51 60 52 40 53 59 54
REMARK SMILES IDX 41 55 44 56 58 57 77 58 42 59 43 60 57 62 78 63 45 64 29 65
REMARK SMILES IDX 30 66 38 67 31 68 32 69 36 70 39 71 33 72 34 73 37 74 35 75
REMARK SMILES IDX 61 76 62 77 70 78 63 79 64 80 68 81 71 82 65 83 66 84 69 85
REMARK SMILES IDX 67 86 46 87 47 88 55 89 48 90 49 91 53 92 56 93 50 94 51 95
REMARK SMILES IDX 54 96 52 97
REMARK H PARENT 76 50 44 61
REMARK Flexibility Score: inf
ROOT
ATOM      1  C   UNL A   1      32.277  23.708  26.817  1.00  0.00     0.188 C 
ENDROOT
BRANCH   1   2
ATOM      2  C   UNL A   1      30.923  23.532  26.107  1.00  0.00     0.188 C 
BRANCH   2   3
ATOM      3  O   UNL A   1      30.739  24.147  24.848  1.00  0.00    -0.376 OA
BRANCH   3   4
ATOM      4  C   UNL A   1      30.599  25.555  24.751  1.00  0.00     0.202 C 
BRANCH   4   5
ATOM      5  C   UNL A   1      31.742  26.542  24.409  1.00  0.00     0.261 C 
BRANCH   5   6
ATOM      6  O   UNL A   1      31.645  27.908  24.846  1.00  0.00    -0.463 OA
BRANCH   6   7
ATOM      7  C   UNL A   1      32.789  28.490  25.295  1.00  0.00     0.313 C 
ATOM      8  O   UNL A   1      33.640  28.961  24.549  1.00  0.00    -0.252 OA
BRANCH   7   9
ATOM      9  C   UNL A   1      32.916  28.522  26.833  1.00  0.00     0.129 C 
ATOM     10  C   UNL A   1      31.682  28.186  27.682  1.00  0.00     0.025 C 
BRANCH   9  11
ATOM     11  C   UNL A   1      33.613  29.804  27.284  1.00  0.00     0.002 A 
ATOM     12  C   UNL A   1      32.962  31.046  27.353  1.00  0.00     0.008 A 
ATOM     13  C   UNL A   1      34.981  29.789  27.556  1.00  0.00     0.127 A 
ATOM     14  C   UNL A   1      33.665  32.227  27.612  1.00  0.00     0.004 A 
ATOM     15  C   UNL A   1      35.691  30.959  27.835  1.00  0.00     0.043 A 
ATOM     16  F   UNL A   1      35.643  28.622  27.564  1.00  0.00    -0.207 F 
ATOM     17  C   UNL A   1      35.044  32.203  27.847  1.00  0.00    -0.041 A 
BRANCH  17  18
ATOM     18  C   UNL A   1      35.791  33.472  28.174  1.00  0.00     0.072 C 
BRANCH  18  19
ATOM     19  C   UNL A   1      34.830  34.457  28.775  1.00  0.00    -0.033 A 
ATOM     20  C   UNL A   1      34.300  35.625  28.121  1.00  0.00     0.015 A 
ATOM     21  C   UNL A   1      34.245  34.309  30.022  1.00  0.00     0.068 A 
ATOM     22  C   UNL A   1      33.363  36.291  28.880  1.00  0.00     0.065 A 
ATOM     23  S   UNL A   1      33.104  35.529  30.385  1.00  0.00    -0.152 S 
ENDBRANCH  18  19
ENDBRANCH  17  18
ENDBRANCH   9  11
ENDBRANCH   7   9
ENDBRANCH   6   7
ENDBRANCH   5   6
ENDBRANCH   4   5
ENDBRANCH   3   4
ENDBRANCH   2   3
ENDBRANCH   1   2
BRANCH   1  24
ATOM     24  O   UNL A   1      32.997  22.509  27.007  1.00  0.00    -0.377 OA
BRANCH  24  25
ATOM     25  C   UNL A   1      32.855  21.513  26.009  1.00  0.00     0.188 C 
BRANCH  25  26
ATOM     26  C   UNL A   1      33.973  21.318  24.964  1.00  0.00     0.188 C 
BRANCH  26  27
ATOM     27  O   UNL A   1      35.004  22.297  25.008  1.00  0.00    -0.376 OA
BRANCH  27  28
ATOM     28  C   UNL A   1      36.077  22.207  24.081  1.00  0.00     0.202 C 
BRANCH  28  29
ATOM     29  C   UNL A   1      37.337  21.460  24.545  1.00  0.00     0.261 C 
BRANCH  29  30
ATOM     30  O   UNL A   1      37.811  21.774  25.862  1.00  0.00    -0.460 OA
BRANCH  30  31
ATOM     31  C   UNL A   1      39.095  21.462  26.158  1.00  0.00     0.338 C 
ATOM     32  O   UNL A   1      39.692  20.451  25.871  1.00  0.00    -0.246 OA
BRANCH  31  33
ATOM     33  C   UNL A   1      39.720  22.676  26.730  1.00  0.00     0.060 A 
ATOM     34  C   UNL A   1      39.260  23.931  26.311  1.00  0.00     0.016 A 
ATOM     35  C   UNL A   1      40.732  22.575  27.686  1.00  0.00     0.016 A 
ATOM     36  C   UNL A   1      39.835  25.093  26.825  1.00  0.00     0.010 A 
ATOM     37  C   UNL A   1      41.328  23.738  28.180  1.00  0.00     0.010 A 
ATOM     38  C   UNL A   1      40.904  25.000  27.724  1.00  0.00    -0.014 A 
BRANCH  38  39
ATOM     39  C   UNL A   1      41.723  26.202  28.012  1.00  0.00     0.031 A 
ATOM     40  C   UNL A   1      41.130  27.262  28.898  1.00  0.00     0.074 A 
ATOM     41  C   UNL A   1      42.966  26.342  27.522  1.00  0.00     0.049 A 
ATOM     42  N   UNL A   1      41.619  28.422  29.254  1.00  0.00    -0.248 NA
ATOM     43  C   UNL A   1      39.799  26.973  29.458  1.00  0.00     0.031 C 
ATOM     44  C   UNL A   1      43.667  25.363  26.696  1.00  0.00     0.029 A 
ATOM     45  N   UNL A   1      43.857  27.380  27.647  1.00  0.00    -0.354 N 
ATOM     46  C   UNL A   1      40.654  29.002  30.066  1.00  0.00     0.074 A 
ATOM     47  C   UNL A   1      39.539  28.084  30.129  1.00  0.00     0.031 C 
ATOM     48  C   UNL A   1      44.880  25.851  26.378  1.00  0.00     0.029 A 
ATOM     49  C   UNL A   1      45.023  27.191  26.947  1.00  0.00     0.049 A 
ATOM     50  H   UNL A   1      43.678  28.182  28.188  1.00  0.00     0.167 HD
ATOM     51  C   UNL A   1      40.697  30.194  30.709  1.00  0.00     0.037 A 
ATOM     52  C   UNL A   1      46.071  28.019  26.768  1.00  0.00     0.037 A 
ATOM     53  C   UNL A   1      41.808  31.104  30.643  1.00  0.00     0.049 A 
ATOM     54  C   UNL A   1      46.056  29.379  27.425  1.00  0.00     0.074 A 
ATOM     55  C   UNL A   1      41.958  32.327  31.272  1.00  0.00     0.029 A 
ATOM     56  N   UNL A   1      42.955  30.896  29.890  1.00  0.00    -0.354 N 
ATOM     57  N   UNL A   1      45.155  29.912  28.215  1.00  0.00    -0.248 NA
ATOM     58  C   UNL A   1      47.211  30.252  27.166  1.00  0.00     0.031 C 
ATOM     59  C   UNL A   1      43.167  32.889  30.848  1.00  0.00     0.029 A 
ATOM     60  C   UNL A   1      43.804  31.984  30.012  1.00  0.00     0.049 A 
ATOM     61  H   UNL A   1      43.138  30.094  29.350  1.00  0.00     0.167 HD
ATOM     62  C   UNL A   1      45.648  31.160  28.575  1.00  0.00     0.074 A 
ATOM     63  C   UNL A   1      46.935  31.301  27.926  1.00  0.00     0.031 C 
ATOM     64  C   UNL A   1      45.089  32.105  29.371  1.00  0.00     0.037 A 
BRANCH  51  65
ATOM     65  C   UNL A   1      39.490  30.597  31.506  1.00  0.00     0.064 A 
ATOM     66  C   UNL A   1      39.365  30.291  32.870  1.00  0.00     0.173 A 
ATOM     67  C   UNL A   1      38.456  31.327  30.900  1.00  0.00     0.173 A 
ATOM     68  F   UNL A   1      40.316  29.580  33.494  1.00  0.00    -0.203 F 
ATOM     69  C   UNL A   1      38.237  30.678  33.589  1.00  0.00     0.198 A 
ATOM     70  C   UNL A   1      37.347  31.741  31.631  1.00  0.00     0.198 A 
ATOM     71  F   UNL A   1      38.525  31.646  29.599  1.00  0.00    -0.203 F 
ATOM     72  F   UNL A   1      38.114  30.329  34.878  1.00  0.00    -0.200 F 
ATOM     73  C   UNL A   1      37.234  31.410  32.972  1.00  0.00     0.200 A 
ATOM     74  F   UNL A   1      36.385  32.461  31.036  1.00  0.00    -0.200 F 
ATOM     75  F   UNL A   1      36.154  31.790  33.669  1.00  0.00    -0.200 F 
ENDBRANCH  51  65
BRANCH  52  76
ATOM     76  C   UNL A   1      47.221  27.604  25.920  1.00  0.00     0.064 A 
ATOM     77  C   UNL A   1      47.191  27.763  24.527  1.00  0.00     0.173 A 
ATOM     78  C   UNL A   1      48.360  27.003  26.480  1.00  0.00     0.173 A 
ATOM     79  F   UNL A   1      46.114  28.305  23.939  1.00  0.00    -0.203 F 
ATOM     80  C   UNL A   1      48.241  27.318  23.726  1.00  0.00     0.198 A 
ATOM     81  C   UNL A   1      49.423  26.588  25.681  1.00  0.00     0.198 A 
ATOM     82  F   UNL A   1      48.439  26.821  27.806  1.00  0.00    -0.203 F 
ATOM     83  F   UNL A   1      48.158  27.430  22.394  1.00  0.00    -0.200 F 
ATOM     84  C   UNL A   1      49.358  26.736  24.304  1.00  0.00     0.200 A 
ATOM     85  F   UNL A   1      50.506  26.037  26.246  1.00  0.00    -0.200 F 
ATOM     86  F   UNL A   1      50.367  26.307  23.534  1.00  0.00    -0.200 F 
ENDBRANCH  52  76
BRANCH  64  87
ATOM     87  C   UNL A   1      45.882  33.354  29.633  1.00  0.00     0.064 A 
ATOM     88  C   UNL A   1      46.790  33.448  30.699  1.00  0.00     0.173 A 
ATOM     89  C   UNL A   1      45.768  34.458  28.771  1.00  0.00     0.173 A 
ATOM     90  F   UNL A   1      46.931  32.427  31.558  1.00  0.00    -0.203 F 
ATOM     91  C   UNL A   1      47.527  34.610  30.911  1.00  0.00     0.198 A 
ATOM     92  C   UNL A   1      46.534  35.604  28.965  1.00  0.00     0.198 A 
ATOM     93  F   UNL A   1      44.924  34.418  27.730  1.00  0.00    -0.203 F 
ATOM     94  F   UNL A   1      48.348  34.697  31.967  1.00  0.00    -0.200 F 
ATOM     95  C   UNL A   1      47.405  35.683  30.039  1.00  0.00     0.200 A 
ATOM     96  F   UNL A   1      46.429  36.630  28.110  1.00  0.00    -0.200 F 
ATOM     97  F   UNL A   1      48.125  36.796  30.240  1.00  0.00    -0.200 F 
ENDBRANCH  64  87
ENDBRANCH  38  39
ENDBRANCH  31  33
ENDBRANCH  30  31
ENDBRANCH  29  30
ENDBRANCH  28  29
ENDBRANCH  27  28
ENDBRANCH  26  27
ENDBRANCH  25  26
ENDBRANCH  24  25
ENDBRANCH   1  24
TORSDOF 23
ENDMDL
MODEL 3
REMARK VINA RESULT:      -9.5      4.486      8.601
REMARK SMILES C[C@@H](C(=O)OCCOCCOCCOCCOC(=O)c1ccc(-c2c3nc(c(-c4c(F)c(F)c(F)c(F)c4F)c4ccc([nH]4)c(-c4c(F)c(F)c(F)c(F)c4F)c4nc(c(-c5c(F)c(F)c(F)c(F)c5F)c5ccc2[nH]5)C=C4)C=C3)cc1)c1ccc(Cc2ccsc2)cc1F
REMARK SMILES IDX 10 1 9 2 8 3 7 4 6 5 5 6 3 7 4 8 2 9 1 10 83 11 84 12 94 13
REMARK SMILES IDX 85 14 93 15 95 16 86 17 87 18 88 19 89 20 92 21 90 22 91 23
REMARK SMILES IDX 11 24 12 25 13 26 14 27 15 28 16 29 17 30 18 31 19 32 20 33
REMARK SMILES IDX 21 34 82 35 22 36 81 37 23 38 24 39 25 40 75 41 26 42 80 43
REMARK SMILES IDX 74 44 76 45 27 46 79 47 73 48 72 49 28 51 60 52 40 53 59 54
REMARK SMILES IDX 41 55 44 56 58 57 77 58 42 59 43 60 57 62 78 63 45 64 29 65
REMARK SMILES IDX 30 66 38 67 31 68 32 69 36 70 39 71 33 72 34 73 37 74 35 75
REMARK SMILES IDX 61 76 62 77 70 78 63 79 64 80 68 81 71 82 65 83 66 84 69 85
REMARK SMILES IDX 67 86 46 87 47 88 55 89 48 90 49 91 53 92 56 93 50 94 51 95
REMARK SMILES IDX 54 96 52 97
REMARK H PARENT 76 50 44 61
REMARK Flexibility Score: inf
ROOT
ATOM      1  C   UNL A   1      32.712  23.803  26.987  1.00  0.00     0.188 C 
ENDROOT
BRANCH   1   2
ATOM      2  C   UNL A   1      31.313  23.181  26.825  1.00  0.00     0.188 C 
BRANCH   2   3
ATOM      3  O   UNL A   1      30.910  22.755  25.539  1.00  0.00    -0.376 OA
BRANCH   3   4
ATOM      4  C   UNL A   1      30.649  23.705  24.519  1.00  0.00     0.202 C 
BRANCH   4   5
ATOM      5  C   UNL A   1      31.301  23.704  23.113  1.00  0.00     0.261 C 
BRANCH   5   6
ATOM      6  O   UNL A   1      32.103  24.827  22.711  1.00  0.00    -0.463 OA
BRANCH   6   7
ATOM      7  C   UNL A   1      32.635  25.587  23.706  1.00  0.00     0.313 C 
ATOM      8  O   UNL A   1      33.707  25.332  24.245  1.00  0.00    -0.252 OA
BRANCH   7   9
ATOM      9  C   UNL A   1      31.779  26.812  24.089  1.00  0.00     0.129 C 
ATOM     10  C   UNL A   1      31.057  27.583  22.975  1.00  0.00     0.025 C 
BRANCH   9  11
ATOM     11  C   UNL A   1      32.551  27.727  25.037  1.00  0.00     0.002 A 
ATOM     12  C   UNL A   1      33.571  28.591  24.607  1.00  0.00     0.008 A 
ATOM     13  C   UNL A   1      32.319  27.654  26.411  1.00  0.00     0.127 A 
ATOM     14  C   UNL A   1      34.367  29.293  25.517  1.00  0.00     0.004 A 
ATOM     15  C   UNL A   1      33.094  28.367  27.328  1.00  0.00     0.043 A 
ATOM     16  F   UNL A   1      31.317  26.892  26.875  1.00  0.00    -0.207 F 
ATOM     17  C   UNL A   1      34.147  29.184  26.894  1.00  0.00    -0.041 A 
BRANCH  17  18
ATOM     18  C   UNL A   1      34.976  29.980  27.872  1.00  0.00     0.072 C 
BRANCH  18  19
ATOM     19  C   UNL A   1      34.560  31.422  27.795  1.00  0.00    -0.033 A 
ATOM     20  C   UNL A   1      33.213  31.904  27.632  1.00  0.00     0.015 A 
ATOM     21  C   UNL A   1      35.425  32.489  27.974  1.00  0.00     0.068 A 
ATOM     22  C   UNL A   1      33.120  33.277  27.694  1.00  0.00     0.065 A 
ATOM     23  S   UNL A   1      34.641  34.008  27.948  1.00  0.00    -0.152 S 
ENDBRANCH  18  19
ENDBRANCH  17  18
ENDBRANCH   9  11
ENDBRANCH   7   9
ENDBRANCH   6   7
ENDBRANCH   5   6
ENDBRANCH   4   5
ENDBRANCH   3   4
ENDBRANCH   2   3
ENDBRANCH   1   2
BRANCH   1  24
ATOM     24  O   UNL A   1      33.669  22.943  27.567  1.00  0.00    -0.377 OA
BRANCH  24  25
ATOM     25  C   UNL A   1      33.604  21.575  27.203  1.00  0.00     0.188 C 
BRANCH  25  26
ATOM     26  C   UNL A   1      34.496  21.049  26.060  1.00  0.00     0.188 C 
BRANCH  26  27
ATOM     27  O   UNL A   1      35.343  22.027  25.469  1.00  0.00    -0.376 OA
BRANCH  27  28
ATOM     28  C   UNL A   1      36.178  21.647  24.384  1.00  0.00     0.202 C 
BRANCH  28  29
ATOM     29  C   UNL A   1      37.534  21.016  24.737  1.00  0.00     0.261 C 
BRANCH  29  30
ATOM     30  O   UNL A   1      38.056  21.322  26.038  1.00  0.00    -0.460 OA
BRANCH  30  31
ATOM     31  C   UNL A   1      39.381  21.133  26.242  1.00  0.00     0.338 C 
ATOM     32  O   UNL A   1      40.044  20.169  25.938  1.00  0.00    -0.246 OA
BRANCH  31  33
ATOM     33  C   UNL A   1      39.935  22.416  26.731  1.00  0.00     0.060 A 
ATOM     34  C   UNL A   1      39.431  23.612  26.204  1.00  0.00     0.016 A 
ATOM     35  C   UNL A   1      40.925  22.437  27.716  1.00  0.00     0.016 A 
ATOM     36  C   UNL A   1      39.939  24.835  26.638  1.00  0.00     0.010 A 
ATOM     37  C   UNL A   1      41.454  23.661  28.130  1.00  0.00     0.010 A 
ATOM     38  C   UNL A   1      40.987  24.863  27.567  1.00  0.00    -0.014 A 
BRANCH  38  39
ATOM     39  C   UNL A   1      41.743  26.120  27.778  1.00  0.00     0.031 A 
ATOM     40  C   UNL A   1      41.100  27.198  28.606  1.00  0.00     0.074 A 
ATOM     41  C   UNL A   1      42.975  26.296  27.271  1.00  0.00     0.049 A 
ATOM     42  N   UNL A   1      41.529  28.401  28.891  1.00  0.00    -0.248 NA
ATOM     43  C   UNL A   1      39.789  26.873  29.192  1.00  0.00     0.031 C 
ATOM     44  C   UNL A   1      43.722  25.309  26.498  1.00  0.00     0.029 A 
ATOM     45  N   UNL A   1      43.811  27.384  27.329  1.00  0.00    -0.354 N 
ATOM     46  C   UNL A   1      40.539  28.976  29.676  1.00  0.00     0.074 A 
ATOM     47  C   UNL A   1      39.475  28.006  29.800  1.00  0.00     0.031 C 
ATOM     48  C   UNL A   1      44.906  25.840  26.143  1.00  0.00     0.029 A 
ATOM     49  C   UNL A   1      44.982  27.216  26.632  1.00  0.00     0.049 A 
ATOM     50  H   UNL A   1      43.593  28.207  27.824  1.00  0.00     0.167 HD
ATOM     51  C   UNL A   1      40.523  30.203  30.248  1.00  0.00     0.037 A 
ATOM     52  C   UNL A   1      45.984  28.086  26.397  1.00  0.00     0.037 A 
ATOM     53  C   UNL A   1      41.584  31.165  30.121  1.00  0.00     0.049 A 
ATOM     54  C   UNL A   1      45.901  29.479  26.974  1.00  0.00     0.074 A 
ATOM     55  C   UNL A   1      41.674  32.429  30.678  1.00  0.00     0.029 A 
ATOM     56  N   UNL A   1      42.737  30.974  29.373  1.00  0.00    -0.354 N 
ATOM     57  N   UNL A   1      44.977  30.010  27.739  1.00  0.00    -0.248 NA
ATOM     58  C   UNL A   1      47.007  30.395  26.656  1.00  0.00     0.031 C 
ATOM     59  C   UNL A   1      42.849  33.027  30.212  1.00  0.00     0.029 A 
ATOM     60  C   UNL A   1      43.528  32.109  29.425  1.00  0.00     0.049 A 
ATOM     61  H   UNL A   1      42.959  30.152  28.878  1.00  0.00     0.167 HD
ATOM     62  C   UNL A   1      45.406  31.301  28.023  1.00  0.00     0.074 A 
ATOM     63  C   UNL A   1      46.680  31.470  27.357  1.00  0.00     0.031 C 
ATOM     64  C   UNL A   1      44.802  32.259  28.767  1.00  0.00     0.037 A 
BRANCH  51  65
ATOM     65  C   UNL A   1      39.300  30.589  31.030  1.00  0.00     0.064 A 
ATOM     66  C   UNL A   1      38.243  31.308  30.449  1.00  0.00     0.173 A 
ATOM     67  C   UNL A   1      39.173  30.208  32.374  1.00  0.00     0.173 A 
ATOM     68  F   UNL A   1      38.322  31.712  29.173  1.00  0.00    -0.203 F 
ATOM     69  C   UNL A   1      37.118  31.652  31.194  1.00  0.00     0.198 A 
ATOM     70  C   UNL A   1      38.031  30.524  33.105  1.00  0.00     0.198 A 
ATOM     71  F   UNL A   1      40.153  29.519  32.979  1.00  0.00    -0.203 F 
ATOM     72  F   UNL A   1      36.144  32.383  30.634  1.00  0.00    -0.200 F 
ATOM     73  C   UNL A   1      37.008  31.252  32.517  1.00  0.00     0.200 A 
ATOM     74  F   UNL A   1      37.922  30.125  34.380  1.00  0.00    -0.200 F 
ATOM     75  F   UNL A   1      35.921  31.576  33.229  1.00  0.00    -0.200 F 
ENDBRANCH  51  65
BRANCH  52  76
ATOM     76  C   UNL A   1      47.150  27.682  25.565  1.00  0.00     0.064 A 
ATOM     77  C   UNL A   1      48.332  27.212  26.154  1.00  0.00     0.173 A 
ATOM     78  C   UNL A   1      47.120  27.794  24.166  1.00  0.00     0.173 A 
ATOM     79  F   UNL A   1      48.422  27.114  27.489  1.00  0.00    -0.203 F 
ATOM     80  C   UNL A   1      49.446  26.892  25.380  1.00  0.00     0.198 A 
ATOM     81  C   UNL A   1      48.224  27.442  23.392  1.00  0.00     0.198 A 
ATOM     82  F   UNL A   1      46.017  28.243  23.551  1.00  0.00    -0.203 F 
ATOM     83  F   UNL A   1      50.581  26.501  25.974  1.00  0.00    -0.200 F 
ATOM     84  C   UNL A   1      49.390  27.002  23.999  1.00  0.00     0.200 A 
ATOM     85  F   UNL A   1      48.160  27.539  22.057  1.00  0.00    -0.200 F 
ATOM     86  F   UNL A   1      50.461  26.695  23.256  1.00  0.00    -0.200 F 
ENDBRANCH  52  76
BRANCH  64  87
ATOM     87  C   UNL A   1      45.530  33.561  28.950  1.00  0.00     0.064 A 
ATOM     88  C   UNL A   1      46.455  33.756  29.987  1.00  0.00     0.173 A 
ATOM     89  C   UNL A   1      45.334  34.615  28.042  1.00  0.00     0.173 A 
ATOM     90  F   UNL A   1      46.674  32.786  30.888  1.00  0.00    -0.203 F 
ATOM     91  C   UNL A   1      47.132  34.965  30.126  1.00  0.00     0.198 A 
ATOM     92  C   UNL A   1      46.039  35.809  28.162  1.00  0.00     0.198 A 
ATOM     93  F   UNL A   1      44.470  34.479  27.026  1.00  0.00    -0.203 F 
ATOM     94  F   UNL A   1      47.970  35.147  31.155  1.00  0.00    -0.200 F 
ATOM     95  C   UNL A   1      46.929  35.987  29.209  1.00  0.00     0.200 A 
ATOM     96  F   UNL A   1      45.857  36.786  27.264  1.00  0.00    -0.200 F 
ATOM     97  F   UNL A   1      47.590  37.146  29.339  1.00  0.00    -0.200 F 
ENDBRANCH  64  87
ENDBRANCH  38  39
ENDBRANCH  31  33
ENDBRANCH  30  31
ENDBRANCH  29  30
ENDBRANCH  28  29
ENDBRANCH  27  28
ENDBRANCH  26  27
ENDBRANCH  25  26
ENDBRANCH  24  25
ENDBRANCH   1  24
TORSDOF 23
ENDMDL
