MODEL 1
REMARK VINA RESULT:      -7.9      0.000      0.000
REMARK SMILES Cc1cccc(Cl)c1Nc1ccccc1CC(=O)OCCOCCOCCOCCOC(=O)c1ccc(-c2c3nc(c(-c4c(F)c(F)c(F)c(F)c4F)c4ccc([nH]4)c(-c4c(F)c(F)c(F)c(F)c4F)c4nc(c(-c5c(F)c(F)c(F)c(F)c5F)c5ccc2[nH]5)C=C4)C=C3)cc1
REMARK SMILES IDX 24 1 23 2 22 3 21 4 20 5 19 6 17 7 18 8 16 9 15 10 10 11
REMARK SMILES IDX 11 12 12 13 14 14 13 15 9 16 8 18 1 19 2 20 3 21 4 22 6 23
REMARK SMILES IDX 5 24 7 25 25 26 26 27 27 28 28 29 29 30 30 31 31 32 32 33
REMARK SMILES IDX 33 34 34 35 35 36 96 37 36 38 95 39 37 40 38 41 39 42 89 43
REMARK SMILES IDX 40 44 94 45 88 46 90 47 41 48 93 49 87 50 86 51 42 53 74 54
REMARK SMILES IDX 54 55 73 56 55 57 58 58 72 59 91 60 56 61 57 62 71 64 92 65
REMARK SMILES IDX 59 66 43 67 44 68 52 69 45 70 46 71 50 72 53 73 47 74 48 75
REMARK SMILES IDX 51 76 49 77 75 78 76 79 84 80 77 81 78 82 82 83 85 84 79 85
REMARK SMILES IDX 80 86 83 87 81 88 60 89 61 90 69 91 62 92 63 93 67 94 70 95
REMARK SMILES IDX 64 96 65 97 68 98 66 99
REMARK H PARENT 9 17 90 52 58 63
REMARK Flexibility Score: inf
ROOT
ATOM      1  C   UNL A   1      44.283  18.601  25.697  1.00  0.00     0.188 C 
ENDROOT
BRANCH   1   2
ATOM      2  C   UNL A   1      45.567  19.036  24.952  1.00  0.00     0.188 C 
BRANCH   2   3
ATOM      3  O   UNL A   1      46.288  20.207  25.337  1.00  0.00    -0.376 OA
BRANCH   3   4
ATOM      4  C   UNL A   1      46.313  21.327  24.471  1.00  0.00     0.202 C 
BRANCH   4   5
ATOM      5  C   UNL A   1      46.097  22.719  25.103  1.00  0.00     0.261 C 
BRANCH   5   6
ATOM      6  O   UNL A   1      45.880  22.732  26.534  1.00  0.00    -0.463 OA
BRANCH   6   7
ATOM      7  C   UNL A   1      46.270  23.842  27.204  1.00  0.00     0.310 C 
ATOM      8  O   UNL A   1      47.446  24.201  27.268  1.00  0.00    -0.252 OA
BRANCH   7   9
ATOM      9  C   UNL A   1      45.166  24.729  27.762  1.00  0.00     0.160 C 
BRANCH   9  10
ATOM     10  C   UNL A   1      45.177  25.327  29.169  1.00  0.00    -0.013 A 
ATOM     11  C   UNL A   1      45.543  26.656  29.473  1.00  0.00     0.042 A 
ATOM     12  C   UNL A   1      45.619  27.067  30.823  1.00  0.00     0.026 A 
ATOM     13  C   UNL A   1      45.222  26.229  31.862  1.00  0.00     0.002 A 
ATOM     14  C   UNL A   1      44.695  24.531  30.236  1.00  0.00     0.006 A 
ATOM     15  C   UNL A   1      44.718  24.973  31.563  1.00  0.00     0.000 A 
BRANCH  11  16
ATOM     16  N   UNL A   1      45.618  27.680  28.509  1.00  0.00    -0.354 N 
ATOM     17  H   UNL A   1      45.166  28.521  28.751  1.00  0.00     0.167 HD
BRANCH  16  18
ATOM     18  C   UNL A   1      46.250  27.674  27.241  1.00  0.00     0.060 A 
ATOM     19  C   UNL A   1      48.449  28.122  28.438  1.00  0.00     0.046 C 
ATOM     20  C   UNL A   1      47.660  27.753  27.211  1.00  0.00    -0.026 A 
ATOM     21  C   UNL A   1      48.349  27.418  26.034  1.00  0.00     0.005 A 
ATOM     22  C   UNL A   1      47.661  27.044  24.881  1.00  0.00     0.002 A 
ATOM     23  C   UNL A   1      45.569  27.426  26.021  1.00  0.00     0.064 A 
ATOM     24  C   UNL A   1      46.272  27.078  24.865  1.00  0.00     0.023 A 
ATOM     25  Cl  UNL A   1      43.847  27.558  25.845  1.00  0.00    -0.082 Cl
ENDBRANCH  16  18
ENDBRANCH  11  16
ENDBRANCH   9  10
ENDBRANCH   7   9
ENDBRANCH   6   7
ENDBRANCH   5   6
ENDBRANCH   4   5
ENDBRANCH   3   4
ENDBRANCH   2   3
ENDBRANCH   1   2
BRANCH   1  26
ATOM     26  O   UNL A   1      43.082  18.967  25.045  1.00  0.00    -0.377 OA
BRANCH  26  27
ATOM     27  C   UNL A   1      42.111  19.564  25.873  1.00  0.00     0.188 C 
BRANCH  27  28
ATOM     28  C   UNL A   1      42.443  20.987  26.345  1.00  0.00     0.188 C 
BRANCH  28  29
ATOM     29  O   UNL A   1      42.435  21.933  25.283  1.00  0.00    -0.376 OA
BRANCH  29  30
ATOM     30  C   UNL A   1      42.499  23.316  25.577  1.00  0.00     0.202 C 
BRANCH  30  31
ATOM     31  C   UNL A   1      41.545  23.891  26.639  1.00  0.00     0.261 C 
BRANCH  31  32
ATOM     32  O   UNL A   1      41.019  25.203  26.409  1.00  0.00    -0.460 OA
BRANCH  32  33
ATOM     33  C   UNL A   1      40.173  25.711  27.335  1.00  0.00     0.338 C 
ATOM     34  O   UNL A   1      39.213  25.166  27.825  1.00  0.00    -0.246 OA
BRANCH  33  35
ATOM     35  C   UNL A   1      40.752  26.997  27.802  1.00  0.00     0.060 A 
ATOM     36  C   UNL A   1      41.652  26.975  28.875  1.00  0.00     0.016 A 
ATOM     37  C   UNL A   1      40.448  28.201  27.161  1.00  0.00     0.016 A 
ATOM     38  C   UNL A   1      42.237  28.159  29.324  1.00  0.00     0.010 A 
ATOM     39  C   UNL A   1      41.004  29.393  27.637  1.00  0.00     0.010 A 
ATOM     40  C   UNL A   1      41.878  29.379  28.739  1.00  0.00    -0.014 A 
BRANCH  40  41
ATOM     41  C   UNL A   1      42.227  30.645  29.428  1.00  0.00     0.031 A 
ATOM     42  C   UNL A   1      43.500  31.336  29.020  1.00  0.00     0.074 A 
ATOM     43  C   UNL A   1      41.429  31.189  30.363  1.00  0.00     0.049 A 
ATOM     44  N   UNL A   1      44.046  32.426  29.491  1.00  0.00    -0.248 NA
ATOM     45  C   UNL A   1      44.259  30.703  27.929  1.00  0.00     0.031 C 
ATOM     46  C   UNL A   1      40.150  30.642  30.805  1.00  0.00     0.029 A 
ATOM     47  N   UNL A   1      41.591  32.325  31.117  1.00  0.00    -0.354 N 
ATOM     48  C   UNL A   1      45.212  32.607  28.757  1.00  0.00     0.074 A 
ATOM     49  C   UNL A   1      45.313  31.499  27.834  1.00  0.00     0.031 C 
ATOM     50  C   UNL A   1      39.646  31.438  31.766  1.00  0.00     0.029 A 
ATOM     51  C   UNL A   1      40.585  32.529  32.029  1.00  0.00     0.049 A 
ATOM     52  H   UNL A   1      42.356  32.937  31.013  1.00  0.00     0.167 HD
ATOM     53  C   UNL A   1      46.115  33.612  28.840  1.00  0.00     0.037 A 
ATOM     54  C   UNL A   1      40.456  33.474  32.981  1.00  0.00     0.037 A 
ATOM     55  C   UNL A   1      46.016  34.706  29.769  1.00  0.00     0.049 A 
ATOM     56  C   UNL A   1      41.522  34.535  33.116  1.00  0.00     0.074 A 
ATOM     57  C   UNL A   1      46.873  35.780  29.931  1.00  0.00     0.029 A 
ATOM     58  N   UNL A   1      45.002  34.857  30.704  1.00  0.00    -0.354 N 
ATOM     59  N   UNL A   1      42.610  34.716  32.405  1.00  0.00    -0.248 NA
ATOM     60  C   UNL A   1      41.340  35.527  34.187  1.00  0.00     0.031 C 
ATOM     61  C   UNL A   1      46.413  36.546  31.007  1.00  0.00     0.029 A 
ATOM     62  C   UNL A   1      45.230  35.991  31.468  1.00  0.00     0.049 A 
ATOM     63  H   UNL A   1      44.235  34.249  30.810  1.00  0.00     0.167 HD
ATOM     64  C   UNL A   1      43.218  35.856  32.914  1.00  0.00     0.074 A 
ATOM     65  C   UNL A   1      42.374  36.333  33.990  1.00  0.00     0.031 C 
ATOM     66  C   UNL A   1      44.371  36.458  32.527  1.00  0.00     0.037 A 
BRANCH  53  67
ATOM     67  C   UNL A   1      47.305  33.551  27.928  1.00  0.00     0.064 A 
ATOM     68  C   UNL A   1      48.419  32.747  28.215  1.00  0.00     0.173 A 
ATOM     69  C   UNL A   1      47.322  34.292  26.737  1.00  0.00     0.173 A 
ATOM     70  F   UNL A   1      48.461  32.033  29.350  1.00  0.00    -0.203 F 
ATOM     71  C   UNL A   1      49.516  32.711  27.358  1.00  0.00     0.198 A 
ATOM     72  C   UNL A   1      48.405  34.227  25.866  1.00  0.00     0.198 A 
ATOM     73  F   UNL A   1      46.283  35.078  26.413  1.00  0.00    -0.203 F 
ATOM     74  F   UNL A   1      50.592  31.979  27.680  1.00  0.00    -0.200 F 
ATOM     75  C   UNL A   1      49.505  33.443  26.181  1.00  0.00     0.200 A 
ATOM     76  F   UNL A   1      48.387  34.926  24.722  1.00  0.00    -0.200 F 
ATOM     77  F   UNL A   1      50.559  33.401  25.353  1.00  0.00    -0.200 F 
ENDBRANCH  53  67
BRANCH  54  78
ATOM     78  C   UNL A   1      39.283  33.459  33.897  1.00  0.00     0.064 A 
ATOM     79  C   UNL A   1      38.106  34.152  33.581  1.00  0.00     0.173 A 
ATOM     80  C   UNL A   1      39.329  32.780  35.124  1.00  0.00     0.173 A 
ATOM     81  F   UNL A   1      38.022  34.841  32.434  1.00  0.00    -0.203 F 
ATOM     82  C   UNL A   1      37.030  34.185  34.466  1.00  0.00     0.198 A 
ATOM     83  C   UNL A   1      38.239  32.787  35.993  1.00  0.00     0.198 A 
ATOM     84  F   UNL A   1      40.432  32.107  35.480  1.00  0.00    -0.203 F 
ATOM     85  F   UNL A   1      35.938  34.901  34.164  1.00  0.00    -0.200 F 
ATOM     86  C   UNL A   1      37.094  33.497  35.669  1.00  0.00     0.200 A 
ATOM     87  F   UNL A   1      38.303  32.110  37.149  1.00  0.00    -0.200 F 
ATOM     88  F   UNL A   1      36.059  33.528  36.519  1.00  0.00    -0.200 F 
ENDBRANCH  54  78
BRANCH  66  89
ATOM     89  C   UNL A   1      44.764  37.728  33.230  1.00  0.00     0.064 A 
ATOM     90  C   UNL A   1      44.320  38.985  32.797  1.00  0.00     0.173 A 
ATOM     91  C   UNL A   1      45.558  37.676  34.388  1.00  0.00     0.173 A 
ATOM     92  F   UNL A   1      43.568  39.092  31.690  1.00  0.00    -0.203 F 
ATOM     93  C   UNL A   1      44.679  40.145  33.478  1.00  0.00     0.198 A 
ATOM     94  C   UNL A   1      45.884  38.835  35.087  1.00  0.00     0.198 A 
ATOM     95  F   UNL A   1      46.001  36.499  34.853  1.00  0.00    -0.203 F 
ATOM     96  F   UNL A   1      44.287  41.341  33.015  1.00  0.00    -0.200 F 
ATOM     97  C   UNL A   1      45.453  40.069  34.626  1.00  0.00     0.200 A 
ATOM     98  F   UNL A   1      46.615  38.756  36.207  1.00  0.00    -0.200 F 
ATOM     99  F   UNL A   1      45.788  41.186  35.286  1.00  0.00    -0.200 F 
ENDBRANCH  66  89
ENDBRANCH  40  41
ENDBRANCH  33  35
ENDBRANCH  32  33
ENDBRANCH  31  32
ENDBRANCH  30  31
ENDBRANCH  29  30
ENDBRANCH  28  29
ENDBRANCH  27  28
ENDBRANCH  26  27
ENDBRANCH   1  26
TORSDOF 23
ENDMDL
MODEL 2
REMARK VINA RESULT:      -7.5      5.827     11.711
REMARK SMILES Cc1cccc(Cl)c1Nc1ccccc1CC(=O)OCCOCCOCCOCCOC(=O)c1ccc(-c2c3nc(c(-c4c(F)c(F)c(F)c(F)c4F)c4ccc([nH]4)c(-c4c(F)c(F)c(F)c(F)c4F)c4nc(c(-c5c(F)c(F)c(F)c(F)c5F)c5ccc2[nH]5)C=C4)C=C3)cc1
REMARK SMILES IDX 24 1 23 2 22 3 21 4 20 5 19 6 17 7 18 8 16 9 15 10 10 11
REMARK SMILES IDX 11 12 12 13 14 14 13 15 9 16 8 18 1 19 2 20 3 21 4 22 6 23
REMARK SMILES IDX 5 24 7 25 25 26 26 27 27 28 28 29 29 30 30 31 31 32 32 33
REMARK SMILES IDX 33 34 34 35 35 36 96 37 36 38 95 39 37 40 38 41 39 42 89 43
REMARK SMILES IDX 40 44 94 45 88 46 90 47 41 48 93 49 87 50 86 51 42 53 74 54
REMARK SMILES IDX 54 55 73 56 55 57 58 58 72 59 91 60 56 61 57 62 71 64 92 65
REMARK SMILES IDX 59 66 43 67 44 68 52 69 45 70 46 71 50 72 53 73 47 74 48 75
REMARK SMILES IDX 51 76 49 77 75 78 76 79 84 80 77 81 78 82 82 83 85 84 79 85
REMARK SMILES IDX 80 86 83 87 81 88 60 89 61 90 69 91 62 92 63 93 67 94 70 95
REMARK SMILES IDX 64 96 65 97 68 98 66 99
REMARK H PARENT 9 17 90 52 58 63
REMARK Flexibility Score: inf
ROOT
ATOM      1  C   UNL A   1      35.005  32.857  30.488  1.00  0.00     0.188 C 
ENDROOT
BRANCH   1   2
ATOM      2  C   UNL A   1      34.261  33.373  29.234  1.00  0.00     0.188 C 
BRANCH   2   3
ATOM      3  O   UNL A   1      34.532  32.839  27.939  1.00  0.00    -0.376 OA
BRANCH   3   4
ATOM      4  C   UNL A   1      34.609  31.435  27.765  1.00  0.00     0.202 C 
BRANCH   4   5
ATOM      5  C   UNL A   1      33.337  30.708  27.277  1.00  0.00     0.261 C 
BRANCH   5   6
ATOM      6  O   UNL A   1      33.327  29.272  27.455  1.00  0.00    -0.463 OA
BRANCH   6   7
ATOM      7  C   UNL A   1      33.600  28.517  26.366  1.00  0.00     0.310 C 
ATOM      8  O   UNL A   1      34.363  28.888  25.473  1.00  0.00    -0.252 OA
BRANCH   7   9
ATOM      9  C   UNL A   1      33.035  27.104  26.353  1.00  0.00     0.160 C 
BRANCH   9  10
ATOM     10  C   UNL A   1      32.885  26.252  25.092  1.00  0.00    -0.013 A 
ATOM     11  C   UNL A   1      31.694  26.129  24.344  1.00  0.00     0.042 A 
ATOM     12  C   UNL A   1      31.645  25.228  23.256  1.00  0.00     0.026 A 
ATOM     13  C   UNL A   1      32.779  24.547  22.822  1.00  0.00     0.002 A 
ATOM     14  C   UNL A   1      34.040  25.618  24.574  1.00  0.00     0.006 A 
ATOM     15  C   UNL A   1      33.990  24.776  23.459  1.00  0.00     0.000 A 
BRANCH  11  16
ATOM     16  N   UNL A   1      30.608  27.017  24.463  1.00  0.00    -0.354 N 
ATOM     17  H   UNL A   1      30.203  27.071  25.359  1.00  0.00     0.167 HD
BRANCH  16  18
ATOM     18  C   UNL A   1      30.012  27.844  23.478  1.00  0.00     0.060 A 
ATOM     19  C   UNL A   1      27.808  26.669  23.958  1.00  0.00     0.046 C 
ATOM     20  C   UNL A   1      28.610  27.774  23.325  1.00  0.00    -0.026 A 
ATOM     21  C   UNL A   1      27.937  28.787  22.622  1.00  0.00     0.005 A 
ATOM     22  C   UNL A   1      28.636  29.843  22.042  1.00  0.00     0.002 A 
ATOM     23  C   UNL A   1      30.713  28.850  22.764  1.00  0.00     0.064 A 
ATOM     24  C   UNL A   1      30.024  29.860  22.086  1.00  0.00     0.023 A 
ATOM     25  Cl  UNL A   1      32.443  28.906  22.643  1.00  0.00    -0.082 Cl
ENDBRANCH  16  18
ENDBRANCH  11  16
ENDBRANCH   9  10
ENDBRANCH   7   9
ENDBRANCH   6   7
ENDBRANCH   5   6
ENDBRANCH   4   5
ENDBRANCH   3   4
ENDBRANCH   2   3
ENDBRANCH   1   2
BRANCH   1  26
ATOM     26  O   UNL A   1      34.176  32.673  31.620  1.00  0.00    -0.377 OA
BRANCH  26  27
ATOM     27  C   UNL A   1      34.830  32.779  32.863  1.00  0.00     0.188 C 
BRANCH  27  28
ATOM     28  C   UNL A   1      36.347  32.996  32.785  1.00  0.00     0.188 C 
BRANCH  28  29
ATOM     29  O   UNL A   1      37.050  32.337  33.832  1.00  0.00    -0.376 OA
BRANCH  29  30
ATOM     30  C   UNL A   1      37.641  31.073  33.591  1.00  0.00     0.202 C 
BRANCH  30  31
ATOM     31  C   UNL A   1      37.855  30.622  32.136  1.00  0.00     0.261 C 
BRANCH  31  32
ATOM     32  O   UNL A   1      38.293  29.275  31.923  1.00  0.00    -0.460 OA
BRANCH  32  33
ATOM     33  C   UNL A   1      39.488  28.915  32.444  1.00  0.00     0.338 C 
ATOM     34  O   UNL A   1      39.728  27.946  33.124  1.00  0.00    -0.246 OA
BRANCH  33  35
ATOM     35  C   UNL A   1      40.513  29.819  31.862  1.00  0.00     0.060 A 
ATOM     36  C   UNL A   1      40.706  29.806  30.475  1.00  0.00     0.016 A 
ATOM     37  C   UNL A   1      41.239  30.701  32.667  1.00  0.00     0.016 A 
ATOM     38  C   UNL A   1      41.639  30.661  29.889  1.00  0.00     0.010 A 
ATOM     39  C   UNL A   1      42.203  31.530  32.083  1.00  0.00     0.010 A 
ATOM     40  C   UNL A   1      42.427  31.491  30.695  1.00  0.00    -0.014 A 
BRANCH  40  41
ATOM     41  C   UNL A   1      43.633  32.132  30.118  1.00  0.00     0.031 A 
ATOM     42  C   UNL A   1      43.515  33.560  29.659  1.00  0.00     0.074 A 
ATOM     43  C   UNL A   1      44.808  31.486  30.029  1.00  0.00     0.049 A 
ATOM     44  N   UNL A   1      44.404  34.331  29.089  1.00  0.00    -0.248 NA
ATOM     45  C   UNL A   1      42.209  34.204  29.877  1.00  0.00     0.031 C 
ATOM     46  C   UNL A   1      45.060  30.122  30.486  1.00  0.00     0.029 A 
ATOM     47  N   UNL A   1      46.012  31.898  29.513  1.00  0.00    -0.354 N 
ATOM     48  C   UNL A   1      43.764  35.546  28.876  1.00  0.00     0.074 A 
ATOM     49  C   UNL A   1      42.405  35.402  29.347  1.00  0.00     0.031 C 
ATOM     50  C   UNL A   1      46.339  29.803  30.215  1.00  0.00     0.029 A 
ATOM     51  C   UNL A   1      46.983  30.928  29.536  1.00  0.00     0.049 A 
ATOM     52  H   UNL A   1      46.164  32.805  29.158  1.00  0.00     0.167 HD
ATOM     53  C   UNL A   1      44.268  36.683  28.343  1.00  0.00     0.037 A 
ATOM     54  C   UNL A   1      48.237  30.943  29.043  1.00  0.00     0.037 A 
ATOM     55  C   UNL A   1      45.618  36.817  27.864  1.00  0.00     0.049 A 
ATOM     56  C   UNL A   1      48.748  32.194  28.369  1.00  0.00     0.074 A 
ATOM     57  C   UNL A   1      46.231  37.927  27.312  1.00  0.00     0.029 A 
ATOM     58  N   UNL A   1      46.561  35.799  27.870  1.00  0.00    -0.354 N 
ATOM     59  N   UNL A   1      48.149  33.348  28.192  1.00  0.00    -0.248 NA
ATOM     60  C   UNL A   1      50.115  32.146  27.828  1.00  0.00     0.031 C 
ATOM     61  C   UNL A   1      47.524  37.563  26.924  1.00  0.00     0.029 A 
ATOM     62  C   UNL A   1      47.743  36.248  27.301  1.00  0.00     0.049 A 
ATOM     63  H   UNL A   1      46.412  34.893  28.225  1.00  0.00     0.167 HD
ATOM     64  C   UNL A   1      49.073  34.169  27.558  1.00  0.00     0.074 A 
ATOM     65  C   UNL A   1      50.278  33.385  27.388  1.00  0.00     0.031 C 
ATOM     66  C   UNL A   1      48.939  35.457  27.153  1.00  0.00     0.037 A 
BRANCH  53  67
ATOM     67  C   UNL A   1      43.342  37.857  28.214  1.00  0.00     0.064 A 
ATOM     68  C   UNL A   1      43.301  38.878  29.177  1.00  0.00     0.173 A 
ATOM     69  C   UNL A   1      42.498  37.973  27.100  1.00  0.00     0.173 A 
ATOM     70  F   UNL A   1      44.074  38.806  30.270  1.00  0.00    -0.203 F 
ATOM     71  C   UNL A   1      42.428  39.955  29.042  1.00  0.00     0.198 A 
ATOM     72  C   UNL A   1      41.652  39.068  26.951  1.00  0.00     0.198 A 
ATOM     73  F   UNL A   1      42.496  37.025  26.150  1.00  0.00    -0.203 F 
ATOM     74  F   UNL A   1      42.367  40.889  30.000  1.00  0.00    -0.200 F 
ATOM     75  C   UNL A   1      41.612  40.054  27.926  1.00  0.00     0.200 A 
ATOM     76  F   UNL A   1      40.872  39.168  25.866  1.00  0.00    -0.200 F 
ATOM     77  F   UNL A   1      40.777  41.095  27.794  1.00  0.00    -0.200 F 
ENDBRANCH  53  67
BRANCH  54  78
ATOM     78  C   UNL A   1      49.097  29.734  29.146  1.00  0.00     0.064 A 
ATOM     79  C   UNL A   1      49.967  29.552  30.231  1.00  0.00     0.173 A 
ATOM     80  C   UNL A   1      49.095  28.752  28.144  1.00  0.00     0.173 A 
ATOM     81  F   UNL A   1      50.029  30.475  31.201  1.00  0.00    -0.203 F 
ATOM     82  C   UNL A   1      50.814  28.447  30.299  1.00  0.00     0.198 A 
ATOM     83  C   UNL A   1      49.920  27.631  28.229  1.00  0.00     0.198 A 
ATOM     84  F   UNL A   1      48.289  28.878  27.080  1.00  0.00    -0.203 F 
ATOM     85  F   UNL A   1      51.674  28.327  31.319  1.00  0.00    -0.200 F 
ATOM     86  C   UNL A   1      50.785  27.484  29.301  1.00  0.00     0.200 A 
ATOM     87  F   UNL A   1      49.879  26.698  27.268  1.00  0.00    -0.200 F 
ATOM     88  F   UNL A   1      51.600  26.422  29.367  1.00  0.00    -0.200 F 
ENDBRANCH  54  78
BRANCH  66  89
ATOM     89  C   UNL A   1      50.138  36.122  26.535  1.00  0.00     0.064 A 
ATOM     90  C   UNL A   1      50.404  36.045  25.161  1.00  0.00     0.173 A 
ATOM     91  C   UNL A   1      51.004  36.891  27.329  1.00  0.00     0.173 A 
ATOM     92  F   UNL A   1      49.613  35.314  24.359  1.00  0.00    -0.203 F 
ATOM     93  C   UNL A   1      51.508  36.689  24.608  1.00  0.00     0.198 A 
ATOM     94  C   UNL A   1      52.086  37.563  26.766  1.00  0.00     0.198 A 
ATOM     95  F   UNL A   1      50.790  37.008  28.647  1.00  0.00    -0.203 F 
ATOM     96  F   UNL A   1      51.772  36.558  23.300  1.00  0.00    -0.200 F 
ATOM     97  C   UNL A   1      52.343  37.454  25.409  1.00  0.00     0.200 A 
ATOM     98  F   UNL A   1      52.878  38.318  27.539  1.00  0.00    -0.200 F 
ATOM     99  F   UNL A   1      53.398  38.082  24.873  1.00  0.00    -0.200 F 
ENDBRANCH  66  89
ENDBRANCH  40  41
ENDBRANCH  33  35
ENDBRANCH  32  33
ENDBRANCH  31  32
ENDBRANCH  30  31
ENDBRANCH  29  30
ENDBRANCH  28  29
ENDBRANCH  27  28
ENDBRANCH  26  27
ENDBRANCH   1  26
TORSDOF 23
ENDMDL
MODEL 3
REMARK VINA RESULT:      -7.3      5.716     11.785
REMARK SMILES Cc1cccc(Cl)c1Nc1ccccc1CC(=O)OCCOCCOCCOCCOC(=O)c1ccc(-c2c3nc(c(-c4c(F)c(F)c(F)c(F)c4F)c4ccc([nH]4)c(-c4c(F)c(F)c(F)c(F)c4F)c4nc(c(-c5c(F)c(F)c(F)c(F)c5F)c5ccc2[nH]5)C=C4)C=C3)cc1
REMARK SMILES IDX 24 1 23 2 22 3 21 4 20 5 19 6 17 7 18 8 16 9 15 10 10 11
REMARK SMILES IDX 11 12 12 13 14 14 13 15 9 16 8 18 1 19 2 20 3 21 4 22 6 23
REMARK SMILES IDX 5 24 7 25 25 26 26 27 27 28 28 29 29 30 30 31 31 32 32 33
REMARK SMILES IDX 33 34 34 35 35 36 96 37 36 38 95 39 37 40 38 41 39 42 89 43
REMARK SMILES IDX 40 44 94 45 88 46 90 47 41 48 93 49 87 50 86 51 42 53 74 54
REMARK SMILES IDX 54 55 73 56 55 57 58 58 72 59 91 60 56 61 57 62 71 64 92 65
REMARK SMILES IDX 59 66 43 67 44 68 52 69 45 70 46 71 50 72 53 73 47 74 48 75
REMARK SMILES IDX 51 76 49 77 75 78 76 79 84 80 77 81 78 82 82 83 85 84 79 85
REMARK SMILES IDX 80 86 83 87 81 88 60 89 61 90 69 91 62 92 63 93 67 94 70 95
REMARK SMILES IDX 64 96 65 97 68 98 66 99
REMARK H PARENT 9 17 90 52 58 63
REMARK Flexibility Score: inf
ROOT
ATOM      1  C   UNL A   1      37.306  32.295  41.552  1.00  0.00     0.188 C 
ENDROOT
BRANCH   1   2
ATOM      2  C   UNL A   1      37.088  31.644  40.166  1.00  0.00     0.188 C 
BRANCH   2   3
ATOM      3  O   UNL A   1      37.336  32.365  38.960  1.00  0.00    -0.376 OA
BRANCH   3   4
ATOM      4  C   UNL A   1      37.559  31.654  37.755  1.00  0.00     0.202 C 
BRANCH   4   5
ATOM      5  C   UNL A   1      37.955  32.475  36.508  1.00  0.00     0.261 C 
BRANCH   5   6
ATOM      6  O   UNL A   1      36.899  32.703  35.546  1.00  0.00    -0.463 OA
BRANCH   6   7
ATOM      7  C   UNL A   1      37.158  33.578  34.546  1.00  0.00     0.310 C 
ATOM      8  O   UNL A   1      37.607  34.706  34.749  1.00  0.00    -0.252 OA
BRANCH   7   9
ATOM      9  C   UNL A   1      37.010  33.056  33.124  1.00  0.00     0.160 C 
BRANCH   9  10
ATOM     10  C   UNL A   1      38.128  33.084  32.081  1.00  0.00    -0.013 A 
ATOM     11  C   UNL A   1      38.513  31.982  31.288  1.00  0.00     0.042 A 
ATOM     12  C   UNL A   1      39.632  32.097  30.432  1.00  0.00     0.026 A 
ATOM     13  C   UNL A   1      40.294  33.309  30.256  1.00  0.00     0.002 A 
ATOM     14  C   UNL A   1      38.761  34.323  31.814  1.00  0.00     0.006 A 
ATOM     15  C   UNL A   1      39.828  34.435  30.918  1.00  0.00     0.000 A 
BRANCH  11  16
ATOM     16  N   UNL A   1      37.716  30.834  31.115  1.00  0.00    -0.354 N 
ATOM     17  H   UNL A   1      36.886  30.814  31.645  1.00  0.00     0.167 HD
BRANCH  16  18
ATOM     18  C   UNL A   1      37.937  29.704  30.290  1.00  0.00     0.060 A 
ATOM     19  C   UNL A   1      36.942  31.033  28.363  1.00  0.00     0.046 C 
ATOM     20  C   UNL A   1      37.686  29.844  28.907  1.00  0.00    -0.026 A 
ATOM     21  C   UNL A   1      38.195  28.891  28.010  1.00  0.00     0.005 A 
ATOM     22  C   UNL A   1      38.914  27.787  28.466  1.00  0.00     0.002 A 
ATOM     23  C   UNL A   1      38.549  28.505  30.740  1.00  0.00     0.064 A 
ATOM     24  C   UNL A   1      39.064  27.578  29.831  1.00  0.00     0.023 A 
ATOM     25  Cl  UNL A   1      38.685  28.074  32.416  1.00  0.00    -0.082 Cl
ENDBRANCH  16  18
ENDBRANCH  11  16
ENDBRANCH   9  10
ENDBRANCH   7   9
ENDBRANCH   6   7
ENDBRANCH   5   6
ENDBRANCH   4   5
ENDBRANCH   3   4
ENDBRANCH   2   3
ENDBRANCH   1   2
BRANCH   1  26
ATOM     26  O   UNL A   1      36.555  33.475  41.764  1.00  0.00    -0.377 OA
BRANCH  26  27
ATOM     27  C   UNL A   1      37.260  34.530  42.375  1.00  0.00     0.188 C 
BRANCH  27  28
ATOM     28  C   UNL A   1      38.495  35.021  41.606  1.00  0.00     0.188 C 
BRANCH  28  29
ATOM     29  O   UNL A   1      38.790  36.390  41.858  1.00  0.00    -0.376 OA
BRANCH  29  30
ATOM     30  C   UNL A   1      40.133  36.835  41.818  1.00  0.00     0.202 C 
BRANCH  30  31
ATOM     31  C   UNL A   1      41.104  36.166  40.831  1.00  0.00     0.261 C 
BRANCH  31  32
ATOM     32  O   UNL A   1      41.077  36.621  39.472  1.00  0.00    -0.460 OA
BRANCH  32  33
ATOM     33  C   UNL A   1      42.222  37.125  38.957  1.00  0.00     0.338 C 
ATOM     34  O   UNL A   1      42.979  37.905  39.483  1.00  0.00    -0.246 OA
BRANCH  33  35
ATOM     35  C   UNL A   1      42.497  36.391  37.695  1.00  0.00     0.060 A 
ATOM     36  C   UNL A   1      41.412  35.960  36.922  1.00  0.00     0.016 A 
ATOM     37  C   UNL A   1      43.807  36.172  37.257  1.00  0.00     0.016 A 
ATOM     38  C   UNL A   1      41.631  35.292  35.717  1.00  0.00     0.010 A 
ATOM     39  C   UNL A   1      44.025  35.467  36.069  1.00  0.00     0.010 A 
ATOM     40  C   UNL A   1      42.938  34.999  35.310  1.00  0.00    -0.014 A 
BRANCH  40  41
ATOM     41  C   UNL A   1      43.157  34.007  34.229  1.00  0.00     0.031 A 
ATOM     42  C   UNL A   1      43.304  34.524  32.824  1.00  0.00     0.074 A 
ATOM     43  C   UNL A   1      43.256  32.691  34.482  1.00  0.00     0.049 A 
ATOM     44  N   UNL A   1      43.464  33.868  31.705  1.00  0.00    -0.248 NA
ATOM     45  C   UNL A   1      43.264  35.987  32.665  1.00  0.00     0.031 C 
ATOM     46  C   UNL A   1      43.183  32.075  35.804  1.00  0.00     0.029 A 
ATOM     47  N   UNL A   1      43.433  31.632  33.625  1.00  0.00    -0.354 N 
ATOM     48  C   UNL A   1      43.540  34.835  30.711  1.00  0.00     0.074 A 
ATOM     49  C   UNL A   1      43.374  36.121  31.352  1.00  0.00     0.031 C 
ATOM     50  C   UNL A   1      43.299  30.742  35.669  1.00  0.00     0.029 A 
ATOM     51  C   UNL A   1      43.420  30.410  34.250  1.00  0.00     0.049 A 
ATOM     52  H   UNL A   1      43.557  31.741  32.654  1.00  0.00     0.167 HD
ATOM     53  C   UNL A   1      43.736  34.668  29.382  1.00  0.00     0.037 A 
ATOM     54  C   UNL A   1      43.475  29.169  33.727  1.00  0.00     0.037 A 
ATOM     55  C   UNL A   1      43.887  33.386  28.748  1.00  0.00     0.049 A 
ATOM     56  C   UNL A   1      43.603  29.003  32.232  1.00  0.00     0.074 A 
ATOM     57  C   UNL A   1      44.098  33.105  27.410  1.00  0.00     0.029 A 
ATOM     58  N   UNL A   1      43.830  32.167  29.409  1.00  0.00    -0.354 N 
ATOM     59  N   UNL A   1      43.698  29.921  31.299  1.00  0.00    -0.248 NA
ATOM     60  C   UNL A   1      43.635  27.626  31.716  1.00  0.00     0.031 C 
ATOM     61  C   UNL A   1      44.103  31.716  27.252  1.00  0.00     0.029 A 
ATOM     62  C   UNL A   1      43.970  31.130  28.500  1.00  0.00     0.049 A 
ATOM     63  H   UNL A   1      43.708  32.056  30.379  1.00  0.00     0.167 HD
ATOM     64  C   UNL A   1      43.838  29.236  30.098  1.00  0.00     0.074 A 
ATOM     65  C   UNL A   1      43.826  27.825  30.420  1.00  0.00     0.031 C 
ATOM     66  C   UNL A   1      43.968  29.729  28.841  1.00  0.00     0.037 A 
BRANCH  53  67
ATOM     67  C   UNL A   1      43.760  35.899  28.525  1.00  0.00     0.064 A 
ATOM     68  C   UNL A   1      42.586  36.452  27.988  1.00  0.00     0.173 A 
ATOM     69  C   UNL A   1      44.973  36.550  28.255  1.00  0.00     0.173 A 
ATOM     70  F   UNL A   1      41.403  35.858  28.200  1.00  0.00    -0.203 F 
ATOM     71  C   UNL A   1      42.632  37.591  27.189  1.00  0.00     0.198 A 
ATOM     72  C   UNL A   1      45.011  37.709  27.485  1.00  0.00     0.198 A 
ATOM     73  F   UNL A   1      46.125  36.065  28.744  1.00  0.00    -0.203 F 
ATOM     74  F   UNL A   1      41.506  38.069  26.641  1.00  0.00    -0.200 F 
ATOM     75  C   UNL A   1      43.841  38.224  26.946  1.00  0.00     0.200 A 
ATOM     76  F   UNL A   1      46.180  38.325  27.261  1.00  0.00    -0.200 F 
ATOM     77  F   UNL A   1      43.883  39.325  26.183  1.00  0.00    -0.200 F 
ENDBRANCH  53  67
BRANCH  54  78
ATOM     78  C   UNL A   1      43.393  27.978  34.616  1.00  0.00     0.064 A 
ATOM     79  C   UNL A   1      44.539  27.443  35.222  1.00  0.00     0.173 A 
ATOM     80  C   UNL A   1      42.171  27.329  34.849  1.00  0.00     0.173 A 
ATOM     81  F   UNL A   1      45.735  28.009  35.008  1.00  0.00    -0.203 F 
ATOM     82  C   UNL A   1      44.469  26.294  36.007  1.00  0.00     0.198 A 
ATOM     83  C   UNL A   1      42.098  26.198  35.662  1.00  0.00     0.198 A 
ATOM     84  F   UNL A   1      41.045  27.793  34.290  1.00  0.00    -0.203 F 
ATOM     85  F   UNL A   1      45.588  25.772  36.529  1.00  0.00    -0.200 F 
ATOM     86  C   UNL A   1      43.247  25.676  36.232  1.00  0.00     0.200 A 
ATOM     87  F   UNL A   1      40.913  25.612  35.886  1.00  0.00    -0.200 F 
ATOM     88  F   UNL A   1      43.181  24.572  36.988  1.00  0.00    -0.200 F 
ENDBRANCH  54  78
BRANCH  66  89
ATOM     89  C   UNL A   1      44.161  28.744  27.722  1.00  0.00     0.064 A 
ATOM     90  C   UNL A   1      45.418  28.201  27.419  1.00  0.00     0.173 A 
ATOM     91  C   UNL A   1      43.058  28.298  26.976  1.00  0.00     0.173 A 
ATOM     92  F   UNL A   1      46.507  28.600  28.094  1.00  0.00    -0.203 F 
ATOM     93  C   UNL A   1      45.568  27.272  26.392  1.00  0.00     0.198 A 
ATOM     94  C   UNL A   1      43.206  27.342  25.975  1.00  0.00     0.198 A 
ATOM     95  F   UNL A   1      41.831  28.775  27.231  1.00  0.00    -0.203 F 
ATOM     96  F   UNL A   1      46.788  26.807  26.085  1.00  0.00    -0.200 F 
ATOM     97  C   UNL A   1      44.462  26.837  25.677  1.00  0.00     0.200 A 
ATOM     98  F   UNL A   1      42.133  26.909  25.300  1.00  0.00    -0.200 F 
ATOM     99  F   UNL A   1      44.608  25.935  24.698  1.00  0.00    -0.200 F 
ENDBRANCH  66  89
ENDBRANCH  40  41
ENDBRANCH  33  35
ENDBRANCH  32  33
ENDBRANCH  31  32
ENDBRANCH  30  31
ENDBRANCH  29  30
ENDBRANCH  28  29
ENDBRANCH  27  28
ENDBRANCH  26  27
ENDBRANCH   1  26
TORSDOF 23
ENDMDL
