MODEL 1
REMARK VINA RESULT:     -10.2      0.000      0.000
REMARK SMILES C[C@@H]1CCCN(c2ccc(NC(=O)Cc3cccs3)c(C(=O)OCCOCCOCCOCCOC(=O)c3ccc(-c4c5nc(c(-c6c(F)c(F)c(F)c(F)c6F)c6ccc([nH]6)c(-c6c(F)c(F)c(F)c(F)c6F)c6nc(c(-c7c(F)c(F)c(F)c(F)c7F)c7ccc4[nH]7)C=C6)C=C5)cc3)c2)C1
REMARK SMILES IDX 28 1 27 2 26 3 25 4 24 5 23 6 21 7 22 8 20 9 7 10 8 11
REMARK SMILES IDX 101 12 9 13 10 14 6 15 1 16 2 17 3 18 102 19 4 20 5 21 11 22
REMARK SMILES IDX 12 23 13 25 14 26 15 27 16 28 19 29 17 30 18 31 29 32 30 33
REMARK SMILES IDX 31 34 32 35 33 36 34 37 35 38 36 39 37 40 38 41 39 42 100 43
REMARK SMILES IDX 40 44 99 45 41 46 42 47 43 48 93 49 44 50 98 51 92 52 94 53
REMARK SMILES IDX 45 54 97 55 91 56 90 57 46 59 78 60 58 61 77 62 59 63 62 64
REMARK SMILES IDX 76 65 95 66 60 67 61 68 75 70 96 71 63 72 47 73 48 74 56 75
REMARK SMILES IDX 49 76 50 77 54 78 57 79 51 80 52 81 55 82 53 83 79 84 80 85
REMARK SMILES IDX 88 86 81 87 82 88 86 89 89 90 83 91 84 92 87 93 85 94 64 95
REMARK SMILES IDX 65 96 73 97 66 98 67 99 71 100 74 101 68 102 69 103 72 104
REMARK SMILES IDX 70 105
REMARK H PARENT 11 24 94 58 62 69
REMARK Flexibility Score: inf
ROOT
ATOM      1  C   UNL A   1      34.163  21.621  25.186  1.00  0.00     0.188 C 
ENDROOT
BRANCH   1   2
ATOM      2  C   UNL A   1      33.142  21.877  24.056  1.00  0.00     0.188 C 
BRANCH   2   3
ATOM      3  O   UNL A   1      32.282  22.974  24.301  1.00  0.00    -0.376 OA
BRANCH   3   4
ATOM      4  C   UNL A   1      32.146  23.973  23.313  1.00  0.00     0.202 C 
BRANCH   4   5
ATOM      5  C   UNL A   1      33.302  24.958  23.112  1.00  0.00     0.261 C 
BRANCH   5   6
ATOM      6  O   UNL A   1      33.154  26.254  23.708  1.00  0.00    -0.460 OA
BRANCH   6   7
ATOM      7  C   UNL A   1      33.492  26.399  25.009  1.00  0.00     0.340 C 
ATOM      8  O   UNL A   1      34.100  25.590  25.690  1.00  0.00    -0.246 OA
BRANCH   7   9
ATOM      9  C   UNL A   1      33.167  27.785  25.448  1.00  0.00     0.085 A 
ATOM     10  C   UNL A   1      33.848  29.746  26.742  1.00  0.00     0.038 A 
ATOM     11  C   UNL A   1      32.661  30.360  26.360  1.00  0.00     0.028 A 
ATOM     12  C   UNL A   1      34.110  28.473  26.229  1.00  0.00     0.043 A 
ATOM     13  C   UNL A   1      31.714  29.690  25.576  1.00  0.00     0.029 A 
ATOM     14  C   UNL A   1      31.903  28.362  25.199  1.00  0.00     0.055 A 
BRANCH  10  15
ATOM     15  N   UNL A   1      34.744  30.343  27.598  1.00  0.00    -0.371 N 
ATOM     16  C   UNL A   1      38.224  29.727  29.013  1.00  0.00     0.009 C 
ATOM     17  C   UNL A   1      37.112  30.406  28.215  1.00  0.00     0.005 C 
ATOM     18  C   UNL A   1      36.892  31.841  28.722  1.00  0.00     0.007 C 
ATOM     19  C   UNL A   1      35.806  29.588  28.264  1.00  0.00     0.119 C 
ATOM     20  C   UNL A   1      35.740  32.520  27.983  1.00  0.00     0.022 C 
ATOM     21  C   UNL A   1      34.468  31.689  28.084  1.00  0.00     0.116 C 
ENDBRANCH  10  15
BRANCH  14  22
ATOM     22  N   UNL A   1      30.859  27.537  24.720  1.00  0.00    -0.325 N 
ATOM     23  C   UNL A   1      29.965  27.642  23.691  1.00  0.00     0.229 C 
ATOM     24  H   UNL A   1      30.752  26.708  25.240  1.00  0.00     0.169 HD
ATOM     25  O   UNL A   1      29.016  26.845  23.711  1.00  0.00    -0.274 OA
BRANCH  23  26
ATOM     26  C   UNL A   1      30.075  28.624  22.544  1.00  0.00     0.147 C 
BRANCH  26  27
ATOM     27  C   UNL A   1      29.273  29.896  22.677  1.00  0.00     0.014 A 
ATOM     28  C   UNL A   1      29.139  30.801  23.714  1.00  0.00     0.016 A 
ATOM     29  S   UNL A   1      28.392  30.435  21.295  1.00  0.00    -0.148 S 
ATOM     30  C   UNL A   1      28.388  31.959  23.352  1.00  0.00     0.012 A 
ATOM     31  C   UNL A   1      27.908  31.879  22.066  1.00  0.00     0.065 A 
ENDBRANCH  26  27
ENDBRANCH  23  26
ENDBRANCH  14  22
ENDBRANCH   7   9
ENDBRANCH   6   7
ENDBRANCH   5   6
ENDBRANCH   4   5
ENDBRANCH   3   4
ENDBRANCH   2   3
ENDBRANCH   1   2
BRANCH   1  32
ATOM     32  O   UNL A   1      35.429  21.051  24.882  1.00  0.00    -0.377 OA
BRANCH  32  33
ATOM     33  C   UNL A   1      36.569  21.886  24.705  1.00  0.00     0.188 C 
BRANCH  33  34
ATOM     34  C   UNL A   1      37.843  21.709  25.566  1.00  0.00     0.188 C 
BRANCH  34  35
ATOM     35  O   UNL A   1      38.598  22.894  25.740  1.00  0.00    -0.376 OA
BRANCH  35  36
ATOM     36  C   UNL A   1      39.281  23.079  26.963  1.00  0.00     0.202 C 
BRANCH  36  37
ATOM     37  C   UNL A   1      40.338  24.190  27.015  1.00  0.00     0.261 C 
BRANCH  37  38
ATOM     38  O   UNL A   1      41.209  24.187  28.157  1.00  0.00    -0.460 OA
BRANCH  38  39
ATOM     39  C   UNL A   1      42.346  23.469  28.069  1.00  0.00     0.338 C 
ATOM     40  O   UNL A   1      42.456  22.253  28.046  1.00  0.00    -0.246 OA
BRANCH  39  41
ATOM     41  C   UNL A   1      43.451  24.417  27.819  1.00  0.00     0.060 A 
ATOM     42  C   UNL A   1      44.122  24.995  28.905  1.00  0.00     0.016 A 
ATOM     43  C   UNL A   1      43.829  24.721  26.509  1.00  0.00     0.016 A 
ATOM     44  C   UNL A   1      45.156  25.905  28.682  1.00  0.00     0.010 A 
ATOM     45  C   UNL A   1      44.846  25.649  26.287  1.00  0.00     0.010 A 
ATOM     46  C   UNL A   1      45.491  26.271  27.373  1.00  0.00    -0.014 A 
BRANCH  46  47
ATOM     47  C   UNL A   1      46.356  27.452  27.133  1.00  0.00     0.031 A 
ATOM     48  C   UNL A   1      47.836  27.225  26.986  1.00  0.00     0.074 A 
ATOM     49  C   UNL A   1      45.848  28.692  27.038  1.00  0.00     0.049 A 
ATOM     50  N   UNL A   1      48.805  28.093  26.850  1.00  0.00    -0.248 NA
ATOM     51  C   UNL A   1      48.283  25.822  27.000  1.00  0.00     0.031 C 
ATOM     52  C   UNL A   1      44.431  29.034  27.115  1.00  0.00     0.029 A 
ATOM     53  N   UNL A   1      46.480  29.899  26.867  1.00  0.00    -0.354 N 
ATOM     54  C   UNL A   1      49.971  27.343  26.772  1.00  0.00     0.074 A 
ATOM     55  C   UNL A   1      49.596  25.953  26.910  1.00  0.00     0.031 C 
ATOM     56  C   UNL A   1      44.299  30.368  27.006  1.00  0.00     0.029 A 
ATOM     57  C   UNL A   1      45.626  30.974  26.891  1.00  0.00     0.049 A 
ATOM     58  H   UNL A   1      47.452  29.986  26.739  1.00  0.00     0.167 HD
ATOM     59  C   UNL A   1      51.242  27.776  26.592  1.00  0.00     0.037 A 
ATOM     60  C   UNL A   1      45.893  32.296  26.855  1.00  0.00     0.037 A 
ATOM     61  C   UNL A   1      51.611  29.160  26.460  1.00  0.00     0.049 A 
ATOM     62  C   UNL A   1      47.326  32.756  26.742  1.00  0.00     0.074 A 
ATOM     63  C   UNL A   1      52.868  29.702  26.263  1.00  0.00     0.029 A 
ATOM     64  N   UNL A   1      50.721  30.223  26.522  1.00  0.00    -0.354 N 
ATOM     65  N   UNL A   1      48.424  32.044  26.647  1.00  0.00    -0.248 NA
ATOM     66  C   UNL A   1      47.556  34.208  26.732  1.00  0.00     0.031 C 
ATOM     67  C   UNL A   1      52.748  31.095  26.270  1.00  0.00     0.029 A 
ATOM     68  C   UNL A   1      51.407  31.420  26.397  1.00  0.00     0.049 A 
ATOM     69  H   UNL A   1      49.747  30.138  26.637  1.00  0.00     0.167 HD
ATOM     70  C   UNL A   1      49.465  32.957  26.527  1.00  0.00     0.074 A 
ATOM     71  C   UNL A   1      48.868  34.275  26.550  1.00  0.00     0.031 C 
ATOM     72  C   UNL A   1      50.797  32.725  26.408  1.00  0.00     0.037 A 
BRANCH  59  73
ATOM     73  C   UNL A   1      52.329  26.741  26.562  1.00  0.00     0.064 A 
ATOM     74  C   UNL A   1      53.234  26.586  27.624  1.00  0.00     0.173 A 
ATOM     75  C   UNL A   1      52.450  25.872  25.467  1.00  0.00     0.173 A 
ATOM     76  F   UNL A   1      53.172  27.401  28.687  1.00  0.00    -0.203 F 
ATOM     77  C   UNL A   1      54.234  25.618  27.579  1.00  0.00     0.198 A 
ATOM     78  C   UNL A   1      53.429  24.883  25.440  1.00  0.00     0.198 A 
ATOM     79  F   UNL A   1      51.611  25.976  24.424  1.00  0.00    -0.203 F 
ATOM     80  F   UNL A   1      55.118  25.522  28.581  1.00  0.00    -0.200 F 
ATOM     81  C   UNL A   1      54.325  24.762  26.491  1.00  0.00     0.200 A 
ATOM     82  F   UNL A   1      53.507  24.048  24.395  1.00  0.00    -0.200 F 
ATOM     83  F   UNL A   1      55.282  23.825  26.453  1.00  0.00    -0.200 F 
ENDBRANCH  59  73
BRANCH  60  84
ATOM     84  C   UNL A   1      44.786  33.287  26.944  1.00  0.00     0.064 A 
ATOM     85  C   UNL A   1      44.107  33.720  25.796  1.00  0.00     0.173 A 
ATOM     86  C   UNL A   1      44.410  33.850  28.172  1.00  0.00     0.173 A 
ATOM     87  F   UNL A   1      44.447  33.233  24.593  1.00  0.00    -0.203 F 
ATOM     88  C   UNL A   1      43.115  34.696  25.871  1.00  0.00     0.198 A 
ATOM     89  C   UNL A   1      43.394  34.801  28.250  1.00  0.00     0.198 A 
ATOM     90  F   UNL A   1      45.030  33.476  29.302  1.00  0.00    -0.203 F 
ATOM     91  F   UNL A   1      42.525  35.135  24.750  1.00  0.00    -0.200 F 
ATOM     92  C   UNL A   1      42.756  35.231  27.097  1.00  0.00     0.200 A 
ATOM     93  F   UNL A   1      43.041  35.306  29.440  1.00  0.00    -0.200 F 
ATOM     94  F   UNL A   1      41.801  36.169  27.169  1.00  0.00    -0.200 F 
ENDBRANCH  60  84
BRANCH  72  95
ATOM     95  C   UNL A   1      51.698  33.917  26.239  1.00  0.00     0.064 A 
ATOM     96  C   UNL A   1      52.047  34.411  24.973  1.00  0.00     0.173 A 
ATOM     97  C   UNL A   1      52.179  34.604  27.364  1.00  0.00     0.173 A 
ATOM     98  F   UNL A   1      51.623  33.785  23.864  1.00  0.00    -0.203 F 
ATOM     99  C   UNL A   1      52.870  35.527  24.841  1.00  0.00     0.198 A 
ATOM    100  C   UNL A   1      52.971  35.742  27.228  1.00  0.00     0.198 A 
ATOM    101  F   UNL A   1      51.868  34.183  28.598  1.00  0.00    -0.203 F 
ATOM    102  F   UNL A   1      53.234  35.948  23.621  1.00  0.00    -0.200 F 
ATOM    103  C   UNL A   1      53.323  36.196  25.968  1.00  0.00     0.200 A 
ATOM    104  F   UNL A   1      53.392  36.398  28.318  1.00  0.00    -0.200 F 
ATOM    105  F   UNL A   1      54.106  37.277  25.838  1.00  0.00    -0.200 F 
ENDBRANCH  72  95
ENDBRANCH  46  47
ENDBRANCH  39  41
ENDBRANCH  38  39
ENDBRANCH  37  38
ENDBRANCH  36  37
ENDBRANCH  35  36
ENDBRANCH  34  35
ENDBRANCH  33  34
ENDBRANCH  32  33
ENDBRANCH   1  32
TORSDOF 24
ENDMDL
MODEL 2
REMARK VINA RESULT:     -10.1      2.800      7.147
REMARK SMILES C[C@@H]1CCCN(c2ccc(NC(=O)Cc3cccs3)c(C(=O)OCCOCCOCCOCCOC(=O)c3ccc(-c4c5nc(c(-c6c(F)c(F)c(F)c(F)c6F)c6ccc([nH]6)c(-c6c(F)c(F)c(F)c(F)c6F)c6nc(c(-c7c(F)c(F)c(F)c(F)c7F)c7ccc4[nH]7)C=C6)C=C5)cc3)c2)C1
REMARK SMILES IDX 28 1 27 2 26 3 25 4 24 5 23 6 21 7 22 8 20 9 7 10 8 11
REMARK SMILES IDX 101 12 9 13 10 14 6 15 1 16 2 17 3 18 102 19 4 20 5 21 11 22
REMARK SMILES IDX 12 23 13 25 14 26 15 27 16 28 19 29 17 30 18 31 29 32 30 33
REMARK SMILES IDX 31 34 32 35 33 36 34 37 35 38 36 39 37 40 38 41 39 42 100 43
REMARK SMILES IDX 40 44 99 45 41 46 42 47 43 48 93 49 44 50 98 51 92 52 94 53
REMARK SMILES IDX 45 54 97 55 91 56 90 57 46 59 78 60 58 61 77 62 59 63 62 64
REMARK SMILES IDX 76 65 95 66 60 67 61 68 75 70 96 71 63 72 47 73 48 74 56 75
REMARK SMILES IDX 49 76 50 77 54 78 57 79 51 80 52 81 55 82 53 83 79 84 80 85
REMARK SMILES IDX 88 86 81 87 82 88 86 89 89 90 83 91 84 92 87 93 85 94 64 95
REMARK SMILES IDX 65 96 73 97 66 98 67 99 71 100 74 101 68 102 69 103 72 104
REMARK SMILES IDX 70 105
REMARK H PARENT 11 24 94 58 62 69
REMARK Flexibility Score: inf
ROOT
ATOM      1  C   UNL A   1      32.964  22.324  23.567  1.00  0.00     0.188 C 
ENDROOT
BRANCH   1   2
ATOM      2  C   UNL A   1      31.614  22.926  23.120  1.00  0.00     0.188 C 
BRANCH   2   3
ATOM      3  O   UNL A   1      31.498  24.314  23.370  1.00  0.00    -0.376 OA
BRANCH   3   4
ATOM      4  C   UNL A   1      31.691  25.222  22.306  1.00  0.00     0.202 C 
BRANCH   4   5
ATOM      5  C   UNL A   1      33.040  25.942  22.201  1.00  0.00     0.261 C 
BRANCH   5   6
ATOM      6  O   UNL A   1      33.222  27.092  23.039  1.00  0.00    -0.460 OA
BRANCH   6   7
ATOM      7  C   UNL A   1      33.438  26.891  24.358  1.00  0.00     0.340 C 
ATOM      8  O   UNL A   1      33.964  25.912  24.861  1.00  0.00    -0.246 OA
BRANCH   7   9
ATOM      9  C   UNL A   1      33.099  28.134  25.106  1.00  0.00     0.085 A 
ATOM     10  C   UNL A   1      33.838  29.856  26.677  1.00  0.00     0.038 A 
ATOM     11  C   UNL A   1      32.577  30.433  26.576  1.00  0.00     0.028 A 
ATOM     12  C   UNL A   1      34.099  28.733  25.889  1.00  0.00     0.043 A 
ATOM     13  C   UNL A   1      31.572  29.852  25.793  1.00  0.00     0.029 A 
ATOM     14  C   UNL A   1      31.782  28.642  25.134  1.00  0.00     0.055 A 
BRANCH  10  15
ATOM     15  N   UNL A   1      34.807  30.348  27.520  1.00  0.00    -0.371 N 
ATOM     16  C   UNL A   1      38.393  29.582  28.543  1.00  0.00     0.009 C 
ATOM     17  C   UNL A   1      37.219  30.348  27.934  1.00  0.00     0.005 C 
ATOM     18  C   UNL A   1      37.050  31.707  28.634  1.00  0.00     0.007 C 
ATOM     19  C   UNL A   1      35.918  29.522  27.993  1.00  0.00     0.119 C 
ATOM     20  C   UNL A   1      35.841  32.466  28.087  1.00  0.00     0.022 C 
ATOM     21  C   UNL A   1      34.580  31.620  28.193  1.00  0.00     0.116 C 
ENDBRANCH  10  15
BRANCH  14  22
ATOM     22  N   UNL A   1      30.730  27.843  24.629  1.00  0.00    -0.325 N 
ATOM     23  C   UNL A   1      29.863  27.971  23.580  1.00  0.00     0.229 C 
ATOM     24  H   UNL A   1      30.592  27.016  25.145  1.00  0.00     0.169 HD
ATOM     25  O   UNL A   1      28.896  27.196  23.576  1.00  0.00    -0.274 OA
BRANCH  23  26
ATOM     26  C   UNL A   1      30.023  28.953  22.438  1.00  0.00     0.147 C 
BRANCH  26  27
ATOM     27  C   UNL A   1      29.261  30.249  22.563  1.00  0.00     0.014 A 
ATOM     28  C   UNL A   1      29.137  31.154  23.603  1.00  0.00     0.016 A 
ATOM     29  S   UNL A   1      28.424  30.824  21.168  1.00  0.00    -0.148 S 
ATOM     30  C   UNL A   1      28.432  32.337  23.232  1.00  0.00     0.012 A 
ATOM     31  C   UNL A   1      27.974  32.279  21.938  1.00  0.00     0.065 A 
ENDBRANCH  26  27
ENDBRANCH  23  26
ENDBRANCH  14  22
ENDBRANCH   7   9
ENDBRANCH   6   7
ENDBRANCH   5   6
ENDBRANCH   4   5
ENDBRANCH   3   4
ENDBRANCH   2   3
ENDBRANCH   1   2
BRANCH   1  32
ATOM     32  O   UNL A   1      34.172  22.770  22.966  1.00  0.00    -0.377 OA
BRANCH  32  33
ATOM     33  C   UNL A   1      35.236  23.264  23.773  1.00  0.00     0.188 C 
BRANCH  33  34
ATOM     34  C   UNL A   1      36.710  22.883  23.490  1.00  0.00     0.188 C 
BRANCH  34  35
ATOM     35  O   UNL A   1      37.506  22.732  24.651  1.00  0.00    -0.376 OA
BRANCH  35  36
ATOM     36  C   UNL A   1      37.359  21.553  25.416  1.00  0.00     0.202 C 
BRANCH  36  37
ATOM     37  C   UNL A   1      38.641  20.821  25.831  1.00  0.00     0.261 C 
BRANCH  37  38
ATOM     38  O   UNL A   1      39.803  21.639  26.040  1.00  0.00    -0.460 OA
BRANCH  38  39
ATOM     39  C   UNL A   1      40.967  21.011  26.300  1.00  0.00     0.338 C 
ATOM     40  O   UNL A   1      41.194  19.813  26.232  1.00  0.00    -0.246 OA
BRANCH  39  41
ATOM     41  C   UNL A   1      41.994  22.050  26.513  1.00  0.00     0.060 A 
ATOM     42  C   UNL A   1      42.778  22.016  27.674  1.00  0.00     0.016 A 
ATOM     43  C   UNL A   1      42.189  23.048  25.555  1.00  0.00     0.016 A 
ATOM     44  C   UNL A   1      43.741  23.002  27.895  1.00  0.00     0.010 A 
ATOM     45  C   UNL A   1      43.134  24.047  25.788  1.00  0.00     0.010 A 
ATOM     46  C   UNL A   1      43.890  24.048  26.976  1.00  0.00    -0.014 A 
BRANCH  46  47
ATOM     47  C   UNL A   1      44.673  25.251  27.345  1.00  0.00     0.031 A 
ATOM     48  C   UNL A   1      44.049  26.236  28.295  1.00  0.00     0.074 A 
ATOM     49  C   UNL A   1      45.909  25.466  26.862  1.00  0.00     0.049 A 
ATOM     50  N   UNL A   1      44.492  27.395  28.708  1.00  0.00    -0.248 NA
ATOM     51  C   UNL A   1      42.737  25.861  28.851  1.00  0.00     0.031 C 
ATOM     52  C   UNL A   1      46.638  24.565  25.975  1.00  0.00     0.029 A 
ATOM     53  N   UNL A   1      46.762  26.526  27.047  1.00  0.00    -0.354 N 
ATOM     54  C   UNL A   1      43.514  27.888  29.562  1.00  0.00     0.074 A 
ATOM     55  C   UNL A   1      42.438  26.921  29.582  1.00  0.00     0.031 C 
ATOM     56  C   UNL A   1      47.829  25.118  25.678  1.00  0.00     0.029 A 
ATOM     57  C   UNL A   1      47.925  26.427  26.324  1.00  0.00     0.049 A 
ATOM     58  H   UNL A   1      46.560  27.285  27.641  1.00  0.00     0.167 HD
ATOM     59  C   UNL A   1      43.517  29.040  30.273  1.00  0.00     0.037 A 
ATOM     60  C   UNL A   1      48.935  27.309  26.181  1.00  0.00     0.037 A 
ATOM     61  C   UNL A   1      44.587  30.001  30.246  1.00  0.00     0.049 A 
ATOM     62  C   UNL A   1      48.875  28.626  26.915  1.00  0.00     0.074 A 
ATOM     63  C   UNL A   1      44.693  31.194  30.938  1.00  0.00     0.029 A 
ATOM     64  N   UNL A   1      45.736  29.881  29.477  1.00  0.00    -0.354 N 
ATOM     65  N   UNL A   1      47.959  29.079  27.738  1.00  0.00    -0.248 NA
ATOM     66  C   UNL A   1      49.993  29.556  26.700  1.00  0.00     0.031 C 
ATOM     67  C   UNL A   1      45.874  31.827  30.539  1.00  0.00     0.029 A 
ATOM     68  C   UNL A   1      46.541  30.994  29.655  1.00  0.00     0.049 A 
ATOM     69  H   UNL A   1      45.947  29.118  28.892  1.00  0.00     0.167 HD
ATOM     70  C   UNL A   1      48.407  30.323  28.165  1.00  0.00     0.074 A 
ATOM     71  C   UNL A   1      49.683  30.550  27.520  1.00  0.00     0.031 C 
ATOM     72  C   UNL A   1      47.816  31.200  29.016  1.00  0.00     0.037 A 
BRANCH  59  73
ATOM     73  C   UNL A   1      42.309  29.341  31.113  1.00  0.00     0.064 A 
ATOM     74  C   UNL A   1      42.109  28.741  32.365  1.00  0.00     0.173 A 
ATOM     75  C   UNL A   1      41.352  30.267  30.670  1.00  0.00     0.173 A 
ATOM     76  F   UNL A   1      42.985  27.837  32.828  1.00  0.00    -0.203 F 
ATOM     77  C   UNL A   1      40.983  29.036  33.130  1.00  0.00     0.198 A 
ATOM     78  C   UNL A   1      40.245  30.585  31.452  1.00  0.00     0.198 A 
ATOM     79  F   UNL A   1      41.494  30.872  29.480  1.00  0.00    -0.203 F 
ATOM     80  F   UNL A   1      40.787  28.411  34.300  1.00  0.00    -0.200 F 
ATOM     81  C   UNL A   1      40.057  29.964  32.677  1.00  0.00     0.200 A 
ATOM     82  F   UNL A   1      39.360  31.493  31.019  1.00  0.00    -0.200 F 
ATOM     83  F   UNL A   1      38.980  30.254  33.419  1.00  0.00    -0.200 F 
ENDBRANCH  59  73
BRANCH  60  84
ATOM     84  C   UNL A   1      50.087  26.991  25.292  1.00  0.00     0.064 A 
ATOM     85  C   UNL A   1      51.268  26.438  25.806  1.00  0.00     0.173 A 
ATOM     86  C   UNL A   1      50.045  27.271  23.918  1.00  0.00     0.173 A 
ATOM     87  F   UNL A   1      51.369  26.178  27.118  1.00  0.00    -0.203 F 
ATOM     88  C   UNL A   1      52.370  26.201  24.986  1.00  0.00     0.198 A 
ATOM     89  C   UNL A   1      51.135  27.001  23.093  1.00  0.00     0.198 A 
ATOM     90  F   UNL A   1      48.942  27.806  23.374  1.00  0.00    -0.203 F 
ATOM     91  F   UNL A   1      53.506  25.727  25.516  1.00  0.00    -0.200 F 
ATOM     92  C   UNL A   1      52.301  26.478  23.630  1.00  0.00     0.200 A 
ATOM     93  F   UNL A   1      51.059  27.259  21.780  1.00  0.00    -0.200 F 
ATOM     94  F   UNL A   1      53.360  26.249  22.842  1.00  0.00    -0.200 F 
ENDBRANCH  60  84
BRANCH  72  95
ATOM     95  C   UNL A   1      48.564  32.463  29.344  1.00  0.00     0.064 A 
ATOM     96  C   UNL A   1      48.381  33.646  28.614  1.00  0.00     0.173 A 
ATOM     97  C   UNL A   1      49.442  32.499  30.439  1.00  0.00     0.173 A 
ATOM     98  F   UNL A   1      47.562  33.663  27.551  1.00  0.00    -0.203 F 
ATOM     99  C   UNL A   1      49.073  34.808  28.947  1.00  0.00     0.198 A 
ATOM    100  C   UNL A   1      50.103  33.673  30.792  1.00  0.00     0.198 A 
ATOM    101  F   UNL A   1      49.647  31.400  31.179  1.00  0.00    -0.203 F 
ATOM    102  F   UNL A   1      48.923  35.912  28.200  1.00  0.00    -0.200 F 
ATOM    103  C   UNL A   1      49.926  34.823  30.040  1.00  0.00     0.200 A 
ATOM    104  F   UNL A   1      50.912  33.689  31.861  1.00  0.00    -0.200 F 
ATOM    105  F   UNL A   1      50.582  35.946  30.365  1.00  0.00    -0.200 F 
ENDBRANCH  72  95
ENDBRANCH  46  47
ENDBRANCH  39  41
ENDBRANCH  38  39
ENDBRANCH  37  38
ENDBRANCH  36  37
ENDBRANCH  35  36
ENDBRANCH  34  35
ENDBRANCH  33  34
ENDBRANCH  32  33
ENDBRANCH   1  32
TORSDOF 24
ENDMDL
MODEL 3
REMARK VINA RESULT:      -9.8      4.058      7.038
REMARK SMILES C[C@@H]1CCCN(c2ccc(NC(=O)Cc3cccs3)c(C(=O)OCCOCCOCCOCCOC(=O)c3ccc(-c4c5nc(c(-c6c(F)c(F)c(F)c(F)c6F)c6ccc([nH]6)c(-c6c(F)c(F)c(F)c(F)c6F)c6nc(c(-c7c(F)c(F)c(F)c(F)c7F)c7ccc4[nH]7)C=C6)C=C5)cc3)c2)C1
REMARK SMILES IDX 28 1 27 2 26 3 25 4 24 5 23 6 21 7 22 8 20 9 7 10 8 11
REMARK SMILES IDX 101 12 9 13 10 14 6 15 1 16 2 17 3 18 102 19 4 20 5 21 11 22
REMARK SMILES IDX 12 23 13 25 14 26 15 27 16 28 19 29 17 30 18 31 29 32 30 33
REMARK SMILES IDX 31 34 32 35 33 36 34 37 35 38 36 39 37 40 38 41 39 42 100 43
REMARK SMILES IDX 40 44 99 45 41 46 42 47 43 48 93 49 44 50 98 51 92 52 94 53
REMARK SMILES IDX 45 54 97 55 91 56 90 57 46 59 78 60 58 61 77 62 59 63 62 64
REMARK SMILES IDX 76 65 95 66 60 67 61 68 75 70 96 71 63 72 47 73 48 74 56 75
REMARK SMILES IDX 49 76 50 77 54 78 57 79 51 80 52 81 55 82 53 83 79 84 80 85
REMARK SMILES IDX 88 86 81 87 82 88 86 89 89 90 83 91 84 92 87 93 85 94 64 95
REMARK SMILES IDX 65 96 73 97 66 98 67 99 71 100 74 101 68 102 69 103 72 104
REMARK SMILES IDX 70 105
REMARK H PARENT 11 24 94 58 62 69
REMARK Flexibility Score: inf
ROOT
ATOM      1  C   UNL A   1      34.807  22.132  25.864  1.00  0.00     0.188 C 
ENDROOT
BRANCH   1   2
ATOM      2  C   UNL A   1      34.055  21.908  24.534  1.00  0.00     0.188 C 
BRANCH   2   3
ATOM      3  O   UNL A   1      33.191  22.973  24.181  1.00  0.00    -0.376 OA
BRANCH   3   4
ATOM      4  C   UNL A   1      33.517  23.782  23.071  1.00  0.00     0.202 C 
BRANCH   4   5
ATOM      5  C   UNL A   1      34.031  25.202  23.333  1.00  0.00     0.261 C 
BRANCH   5   6
ATOM      6  O   UNL A   1      33.130  26.099  23.996  1.00  0.00    -0.460 OA
BRANCH   6   7
ATOM      7  C   UNL A   1      33.307  26.317  25.319  1.00  0.00     0.340 C 
ATOM      8  O   UNL A   1      33.733  25.512  26.130  1.00  0.00    -0.246 OA
BRANCH   7   9
ATOM      9  C   UNL A   1      33.072  27.758  25.614  1.00  0.00     0.085 A 
ATOM     10  C   UNL A   1      33.843  29.773  26.765  1.00  0.00     0.038 A 
ATOM     11  C   UNL A   1      32.728  30.437  26.264  1.00  0.00     0.028 A 
ATOM     12  C   UNL A   1      34.027  28.443  26.383  1.00  0.00     0.043 A 
ATOM     13  C   UNL A   1      31.772  29.770  25.489  1.00  0.00     0.029 A 
ATOM     14  C   UNL A   1      31.872  28.402  25.243  1.00  0.00     0.055 A 
BRANCH  10  15
ATOM     15  N   UNL A   1      34.740  30.379  27.614  1.00  0.00    -0.371 N 
ATOM     16  C   UNL A   1      34.864  33.274  30.082  1.00  0.00     0.009 C 
ATOM     17  C   UNL A   1      34.895  31.833  29.577  1.00  0.00     0.005 C 
ATOM     18  C   UNL A   1      36.259  31.190  29.884  1.00  0.00     0.007 C 
ATOM     19  C   UNL A   1      34.567  31.758  28.072  1.00  0.00     0.119 C 
ATOM     20  C   UNL A   1      36.339  29.769  29.331  1.00  0.00     0.022 C 
ATOM     21  C   UNL A   1      36.036  29.752  27.839  1.00  0.00     0.116 C 
ENDBRANCH  10  15
BRANCH  14  22
ATOM     22  N   UNL A   1      30.791  27.618  24.780  1.00  0.00    -0.325 N 
ATOM     23  C   UNL A   1      29.900  27.744  23.751  1.00  0.00     0.229 C 
ATOM     24  H   UNL A   1      30.647  26.804  25.316  1.00  0.00     0.169 HD
ATOM     25  O   UNL A   1      28.916  26.991  23.787  1.00  0.00    -0.274 OA
BRANCH  23  26
ATOM     26  C   UNL A   1      30.052  28.699  22.586  1.00  0.00     0.147 C 
BRANCH  26  27
ATOM     27  C   UNL A   1      29.257  29.979  22.666  1.00  0.00     0.014 A 
ATOM     28  C   UNL A   1      29.095  30.907  23.679  1.00  0.00     0.016 A 
ATOM     29  S   UNL A   1      28.426  30.496  21.244  1.00  0.00    -0.148 S 
ATOM     30  C   UNL A   1      28.366  32.062  23.267  1.00  0.00     0.012 A 
ATOM     31  C   UNL A   1      27.929  31.958  21.969  1.00  0.00     0.065 A 
ENDBRANCH  26  27
ENDBRANCH  23  26
ENDBRANCH  14  22
ENDBRANCH   7   9
ENDBRANCH   6   7
ENDBRANCH   5   6
ENDBRANCH   4   5
ENDBRANCH   3   4
ENDBRANCH   2   3
ENDBRANCH   1   2
BRANCH   1  32
ATOM     32  O   UNL A   1      36.128  21.631  26.024  1.00  0.00    -0.377 OA
BRANCH  32  33
ATOM     33  C   UNL A   1      37.182  22.111  25.195  1.00  0.00     0.188 C 
BRANCH  33  34
ATOM     34  C   UNL A   1      38.649  21.667  25.415  1.00  0.00     0.188 C 
BRANCH  34  35
ATOM     35  O   UNL A   1      39.047  21.622  26.772  1.00  0.00    -0.376 OA
BRANCH  35  36
ATOM     36  C   UNL A   1      40.134  22.428  27.179  1.00  0.00     0.202 C 
BRANCH  36  37
ATOM     37  C   UNL A   1      40.749  23.361  26.129  1.00  0.00     0.261 C 
BRANCH  37  38
ATOM     38  O   UNL A   1      41.121  24.672  26.582  1.00  0.00    -0.460 OA
BRANCH  38  39
ATOM     39  C   UNL A   1      40.140  25.472  27.043  1.00  0.00     0.338 C 
ATOM     40  O   UNL A   1      38.958  25.195  27.175  1.00  0.00    -0.246 OA
BRANCH  39  41
ATOM     41  C   UNL A   1      40.773  26.709  27.542  1.00  0.00     0.060 A 
ATOM     42  C   UNL A   1      41.518  26.672  28.728  1.00  0.00     0.016 A 
ATOM     43  C   UNL A   1      40.640  27.901  26.826  1.00  0.00     0.016 A 
ATOM     44  C   UNL A   1      42.108  27.839  29.219  1.00  0.00     0.010 A 
ATOM     45  C   UNL A   1      41.209  29.071  27.330  1.00  0.00     0.010 A 
ATOM     46  C   UNL A   1      41.916  29.052  28.546  1.00  0.00    -0.014 A 
BRANCH  46  47
ATOM     47  C   UNL A   1      42.264  30.330  29.213  1.00  0.00     0.031 A 
ATOM     48  C   UNL A   1      43.608  30.937  28.918  1.00  0.00     0.074 A 
ATOM     49  C   UNL A   1      41.411  30.945  30.050  1.00  0.00     0.049 A 
ATOM     50  N   UNL A   1      44.176  31.998  29.430  1.00  0.00    -0.248 NA
ATOM     51  C   UNL A   1      44.427  30.244  27.909  1.00  0.00     0.031 C 
ATOM     52  C   UNL A   1      40.066  30.482  30.377  1.00  0.00     0.029 A 
ATOM     53  N   UNL A   1      41.565  32.093  30.787  1.00  0.00    -0.354 N 
ATOM     54  C   UNL A   1      45.416  32.095  28.813  1.00  0.00     0.074 A 
ATOM     55  C   UNL A   1      45.535  30.967  27.915  1.00  0.00     0.031 C 
ATOM     56  C   UNL A   1      39.519  31.332  31.265  1.00  0.00     0.029 A 
ATOM     57  C   UNL A   1      40.491  32.374  31.595  1.00  0.00     0.049 A 
ATOM     58  H   UNL A   1      42.368  32.660  30.742  1.00  0.00     0.167 HD
ATOM     59  C   UNL A   1      46.368  33.044  28.974  1.00  0.00     0.037 A 
ATOM     60  C   UNL A   1      40.329  33.346  32.516  1.00  0.00     0.037 A 
ATOM     61  C   UNL A   1      46.247  34.162  29.872  1.00  0.00     0.049 A 
ATOM     62  C   UNL A   1      41.440  34.342  32.741  1.00  0.00     0.074 A 
ATOM     63  C   UNL A   1      47.149  35.186  30.101  1.00  0.00     0.029 A 
ATOM     64  N   UNL A   1      45.156  34.396  30.698  1.00  0.00    -0.354 N 
ATOM     65  N   UNL A   1      42.602  34.443  32.141  1.00  0.00    -0.248 NA
ATOM     66  C   UNL A   1      41.215  35.364  33.775  1.00  0.00     0.031 C 
ATOM     67  C   UNL A   1      46.633  36.004  31.110  1.00  0.00     0.029 A 
ATOM     68  C   UNL A   1      45.377  35.532  31.459  1.00  0.00     0.049 A 
ATOM     69  H   UNL A   1      44.347  33.838  30.736  1.00  0.00     0.167 HD
ATOM     70  C   UNL A   1      43.227  35.554  32.694  1.00  0.00     0.074 A 
ATOM     71  C   UNL A   1      42.310  36.103  33.671  1.00  0.00     0.031 C 
ATOM     72  C   UNL A   1      44.449  36.075  32.418  1.00  0.00     0.037 A 
BRANCH  59  73
ATOM     73  C   UNL A   1      47.638  32.895  28.188  1.00  0.00     0.064 A 
ATOM     74  C   UNL A   1      48.636  31.980  28.557  1.00  0.00     0.173 A 
ATOM     75  C   UNL A   1      47.847  33.659  27.029  1.00  0.00     0.173 A 
ATOM     76  F   UNL A   1      48.493  31.237  29.665  1.00  0.00    -0.203 F 
ATOM     77  C   UNL A   1      49.805  31.855  27.812  1.00  0.00     0.198 A 
ATOM     78  C   UNL A   1      49.002  33.507  26.267  1.00  0.00     0.198 A 
ATOM     79  F   UNL A   1      46.925  34.549  26.629  1.00  0.00    -0.203 F 
ATOM     80  F   UNL A   1      50.767  31.012  28.213  1.00  0.00    -0.200 F 
ATOM     81  C   UNL A   1      49.984  32.612  26.664  1.00  0.00     0.200 A 
ATOM     82  F   UNL A   1      49.165  34.228  25.150  1.00  0.00    -0.200 F 
ATOM     83  F   UNL A   1      51.105  32.483  25.942  1.00  0.00    -0.200 F 
ENDBRANCH  59  73
BRANCH  60  84
ATOM     84  C   UNL A   1      39.074  33.422  33.313  1.00  0.00     0.064 A 
ATOM     85  C   UNL A   1      38.953  32.755  34.540  1.00  0.00     0.173 A 
ATOM     86  C   UNL A   1      37.956  34.129  32.846  1.00  0.00     0.173 A 
ATOM     87  F   UNL A   1      39.984  32.041  35.018  1.00  0.00    -0.203 F 
ATOM     88  C   UNL A   1      37.757  32.771  35.255  1.00  0.00     0.198 A 
ATOM     89  C   UNL A   1      36.771  34.173  33.579  1.00  0.00     0.198 A 
ATOM     90  F   UNL A   1      38.013  34.781  31.675  1.00  0.00    -0.203 F 
ATOM     91  F   UNL A   1      37.652  32.075  36.396  1.00  0.00    -0.200 F 
ATOM     92  C   UNL A   1      36.670  33.484  34.777  1.00  0.00     0.200 A 
ATOM     93  F   UNL A   1      35.727  34.875  33.119  1.00  0.00    -0.200 F 
ATOM     94  F   UNL A   1      35.520  33.500  35.466  1.00  0.00    -0.200 F 
ENDBRANCH  60  84
BRANCH  72  95
ATOM     95  C   UNL A   1      44.849  37.331  33.141  1.00  0.00     0.064 A 
ATOM     96  C   UNL A   1      45.608  37.300  34.320  1.00  0.00     0.173 A 
ATOM     97  C   UNL A   1      44.507  38.588  32.616  1.00  0.00     0.173 A 
ATOM     98  F   UNL A   1      45.953  36.126  34.871  1.00  0.00    -0.203 F 
ATOM     99  C   UNL A   1      45.981  38.479  34.964  1.00  0.00     0.198 A 
ATOM    100  C   UNL A   1      44.913  39.763  33.242  1.00  0.00     0.198 A 
ATOM    101  F   UNL A   1      43.791  38.677  31.486  1.00  0.00    -0.203 F 
ATOM    102  F   UNL A   1      46.660  38.423  36.119  1.00  0.00    -0.200 F 
ATOM    103  C   UNL A   1      45.641  39.708  34.419  1.00  0.00     0.200 A 
ATOM    104  F   UNL A   1      44.600  40.950  32.703  1.00  0.00    -0.200 F 
ATOM    105  F   UNL A   1      46.011  40.840  35.034  1.00  0.00    -0.200 F 
ENDBRANCH  72  95
ENDBRANCH  46  47
ENDBRANCH  39  41
ENDBRANCH  38  39
ENDBRANCH  37  38
ENDBRANCH  36  37
ENDBRANCH  35  36
ENDBRANCH  34  35
ENDBRANCH  33  34
ENDBRANCH  32  33
ENDBRANCH   1  32
TORSDOF 24
ENDMDL
