MODEL 1
REMARK VINA RESULT:     -10.7      0.000      0.000
REMARK SMILES O=C(C[C@H](C(=O)OC[C@H]1CCCO1)[NH+]1CCOCC1)OCCOCCOCCOCCOC(=O)c1ccc(-c2c3nc(c(-c4c(F)c(F)c(F)c(F)c4F)c4ccc([nH]4)c(-c4c(F)c(F)c(F)c(F)c4F)c4nc(c(-c5c(F)c(F)c(F)c(F)c5F)c5ccc2[nH]5)C=C4)C=C3)cc1
REMARK SMILES IDX 24 1 23 2 22 3 21 4 20 5 2 6 1 7 3 8 4 9 14 10 15 11 19 12
REMARK SMILES IDX 16 14 18 15 17 16 5 17 6 18 7 19 8 20 9 21 10 22 13 23 11 24
REMARK SMILES IDX 12 25 25 26 26 27 27 28 28 29 29 30 30 31 31 32 32 33 33 34
REMARK SMILES IDX 34 35 35 36 36 37 97 38 37 39 96 40 38 41 39 42 40 43 90 44
REMARK SMILES IDX 41 45 95 46 89 47 91 48 42 49 94 50 88 51 87 52 43 54 75 55
REMARK SMILES IDX 55 56 74 57 56 58 59 59 73 60 92 61 57 62 58 63 72 65 93 66
REMARK SMILES IDX 60 67 44 68 45 69 53 70 46 71 47 72 51 73 54 74 48 75 49 76
REMARK SMILES IDX 52 77 50 78 76 79 77 80 85 81 78 82 79 83 83 84 86 85 80 86
REMARK SMILES IDX 81 87 84 88 82 89 61 90 62 91 70 92 63 93 64 94 68 95 71 96
REMARK SMILES IDX 65 97 66 98 69 99 67 100
REMARK H PARENT 14 13 91 53 59 64
REMARK Flexibility Score: inf
ROOT
ATOM      1  C   UNL A   1      40.601  20.048  26.141  1.00  0.00     0.188 C 
ENDROOT
BRANCH   1   2
ATOM      2  O   UNL A   1      40.032  21.262  26.577  1.00  0.00    -0.376 OA
BRANCH   2   3
ATOM      3  C   UNL A   1      38.918  21.784  25.879  1.00  0.00     0.202 C 
BRANCH   3   4
ATOM      4  C   UNL A   1      38.023  20.807  25.143  1.00  0.00     0.261 C 
BRANCH   4   5
ATOM      5  O   UNL A   1      36.662  21.234  24.867  1.00  0.00    -0.463 OA
BRANCH   5   6
ATOM      6  C   UNL A   1      35.941  22.343  25.111  1.00  0.00     0.312 C 
ATOM      7  O   UNL A   1      36.262  23.032  26.083  1.00  0.00    -0.252 OA
BRANCH   6   8
ATOM      8  C   UNL A   1      34.736  22.736  24.296  1.00  0.00     0.200 C 
BRANCH   8   9
ATOM      9  C   UNL A   1      33.319  22.248  24.706  1.00  0.00     0.306 C 
BRANCH   9  10
ATOM     10  N   UNL A   1      32.225  23.237  24.707  1.00  0.00    -0.319 N 
ATOM     11  C   UNL A   1      32.591  24.652  24.792  1.00  0.00     0.291 C 
ATOM     12  C   UNL A   1      30.968  22.947  25.374  1.00  0.00     0.291 C 
ATOM     13  H   UNL A   1      31.989  23.054  23.732  1.00  0.00     0.348 HD
ATOM     14  C   UNL A   1      32.289  25.310  26.145  1.00  0.00     0.221 C 
ATOM     15  C   UNL A   1      30.645  23.734  26.646  1.00  0.00     0.221 C 
ATOM     16  O   UNL A   1      30.919  25.124  26.515  1.00  0.00    -0.370 OA
ENDBRANCH   9  10
BRANCH   9  17
ATOM     17  C   UNL A   1      33.024  20.861  24.083  1.00  0.00     0.365 C 
ATOM     18  O   UNL A   1      32.408  20.761  23.024  1.00  0.00    -0.245 OA
BRANCH  17  19
ATOM     19  O   UNL A   1      33.493  19.791  24.784  1.00  0.00    -0.459 OA
BRANCH  19  20
ATOM     20  C   UNL A   1      32.530  18.762  25.115  1.00  0.00     0.265 C 
BRANCH  20  21
ATOM     21  C   UNL A   1      32.915  17.379  24.560  1.00  0.00     0.156 C 
ATOM     22  C   UNL A   1      34.394  17.165  24.243  1.00  0.00     0.038 C 
ATOM     23  O   UNL A   1      32.521  16.334  25.460  1.00  0.00    -0.375 OA
ATOM     24  C   UNL A   1      34.794  15.934  25.023  1.00  0.00     0.031 C 
ATOM     25  C   UNL A   1      33.482  15.281  25.374  1.00  0.00     0.161 C 
ENDBRANCH  20  21
ENDBRANCH  19  20
ENDBRANCH  17  19
ENDBRANCH   9  17
ENDBRANCH   8   9
ENDBRANCH   6   8
ENDBRANCH   5   6
ENDBRANCH   4   5
ENDBRANCH   3   4
ENDBRANCH   2   3
ENDBRANCH   1   2
BRANCH   1  26
ATOM     26  C   UNL A   1      42.130  19.857  26.170  1.00  0.00     0.188 C 
BRANCH  26  27
ATOM     27  O   UNL A   1      42.987  19.652  25.069  1.00  0.00    -0.377 OA
BRANCH  27  28
ATOM     28  C   UNL A   1      44.195  18.935  25.079  1.00  0.00     0.188 C 
BRANCH  28  29
ATOM     29  C   UNL A   1      45.559  19.522  24.652  1.00  0.00     0.188 C 
BRANCH  29  30
ATOM     30  O   UNL A   1      46.099  20.669  25.258  1.00  0.00    -0.376 OA
BRANCH  30  31
ATOM     31  C   UNL A   1      46.082  21.931  24.627  1.00  0.00     0.202 C 
BRANCH  31  32
ATOM     32  C   UNL A   1      45.930  23.278  25.359  1.00  0.00     0.261 C 
BRANCH  32  33
ATOM     33  O   UNL A   1      44.714  23.499  26.081  1.00  0.00    -0.460 OA
BRANCH  33  34
ATOM     34  C   UNL A   1      43.642  23.823  25.323  1.00  0.00     0.338 C 
ATOM     35  O   UNL A   1      43.233  23.239  24.331  1.00  0.00    -0.246 OA
BRANCH  34  36
ATOM     36  C   UNL A   1      42.861  24.884  25.993  1.00  0.00     0.060 A 
ATOM     37  C   UNL A   1      43.536  26.066  26.333  1.00  0.00     0.016 A 
ATOM     38  C   UNL A   1      41.508  24.726  26.300  1.00  0.00     0.016 A 
ATOM     39  C   UNL A   1      42.884  27.062  27.052  1.00  0.00     0.010 A 
ATOM     40  C   UNL A   1      40.861  25.711  27.055  1.00  0.00     0.010 A 
ATOM     41  C   UNL A   1      41.571  26.849  27.487  1.00  0.00    -0.014 A 
BRANCH  41  42
ATOM     42  C   UNL A   1      41.110  27.616  28.671  1.00  0.00     0.031 A 
ATOM     43  C   UNL A   1      41.915  27.464  29.938  1.00  0.00     0.074 A 
ATOM     44  C   UNL A   1      40.090  28.487  28.614  1.00  0.00     0.049 A 
ATOM     45  N   UNL A   1      41.771  28.051  31.098  1.00  0.00    -0.248 NA
ATOM     46  C   UNL A   1      43.044  26.519  29.882  1.00  0.00     0.031 C 
ATOM     47  C   UNL A   1      39.276  28.766  27.434  1.00  0.00     0.029 A 
ATOM     48  N   UNL A   1      39.570  29.307  29.584  1.00  0.00    -0.354 N 
ATOM     49  C   UNL A   1      42.782  27.542  31.903  1.00  0.00     0.074 A 
ATOM     50  C   UNL A   1      43.512  26.574  31.116  1.00  0.00     0.031 C 
ATOM     51  C   UNL A   1      38.356  29.694  27.751  1.00  0.00     0.029 A 
ATOM     52  C   UNL A   1      38.502  30.057  29.161  1.00  0.00     0.049 A 
ATOM     53  H   UNL A   1      39.931  29.352  30.500  1.00  0.00     0.167 HD
ATOM     54  C   UNL A   1      43.087  27.858  33.183  1.00  0.00     0.037 A 
ATOM     55  C   UNL A   1      37.731  30.926  29.844  1.00  0.00     0.037 A 
ATOM     56  C   UNL A   1      42.360  28.817  33.965  1.00  0.00     0.049 A 
ATOM     57  C   UNL A   1      38.046  31.207  31.294  1.00  0.00     0.074 A 
ATOM     58  C   UNL A   1      42.584  29.215  35.270  1.00  0.00     0.029 A 
ATOM     59  N   UNL A   1      41.254  29.524  33.513  1.00  0.00    -0.354 N 
ATOM     60  N   UNL A   1      39.018  30.742  32.042  1.00  0.00    -0.248 NA
ATOM     61  C   UNL A   1      37.158  32.150  31.991  1.00  0.00     0.031 C 
ATOM     62  C   UNL A   1      41.578  30.119  35.628  1.00  0.00     0.029 A 
ATOM     63  C   UNL A   1      40.771  30.339  34.522  1.00  0.00     0.049 A 
ATOM     64  H   UNL A   1      40.871  29.455  32.609  1.00  0.00     0.167 HD
ATOM     65  C   UNL A   1      38.887  31.367  33.277  1.00  0.00     0.074 A 
ATOM     66  C   UNL A   1      37.745  32.251  33.175  1.00  0.00     0.031 C 
ATOM     67  C   UNL A   1      39.646  31.230  34.393  1.00  0.00     0.037 A 
BRANCH  54  68
ATOM     68  C   UNL A   1      44.229  27.120  33.821  1.00  0.00     0.064 A 
ATOM     69  C   UNL A   1      44.040  25.919  34.521  1.00  0.00     0.173 A 
ATOM     70  C   UNL A   1      45.534  27.627  33.729  1.00  0.00     0.173 A 
ATOM     71  F   UNL A   1      42.809  25.403  34.659  1.00  0.00    -0.203 F 
ATOM     72  C   UNL A   1      45.110  25.270  35.132  1.00  0.00     0.198 A 
ATOM     73  C   UNL A   1      46.607  26.958  34.312  1.00  0.00     0.198 A 
ATOM     74  F   UNL A   1      45.770  28.774  33.075  1.00  0.00    -0.203 F 
ATOM     75  F   UNL A   1      44.897  24.156  35.847  1.00  0.00    -0.200 F 
ATOM     76  C   UNL A   1      46.393  25.786  35.021  1.00  0.00     0.200 A 
ATOM     77  F   UNL A   1      47.846  27.452  34.193  1.00  0.00    -0.200 F 
ATOM     78  F   UNL A   1      47.422  25.158  35.605  1.00  0.00    -0.200 F 
ENDBRANCH  54  68
BRANCH  55  79
ATOM     79  C   UNL A   1      36.589  31.606  29.174  1.00  0.00     0.064 A 
ATOM     80  C   UNL A   1      36.605  32.987  28.935  1.00  0.00     0.173 A 
ATOM     81  C   UNL A   1      35.440  30.896  28.798  1.00  0.00     0.173 A 
ATOM     82  F   UNL A   1      37.669  33.718  29.300  1.00  0.00    -0.203 F 
ATOM     83  C   UNL A   1      35.508  33.636  28.371  1.00  0.00     0.198 A 
ATOM     84  C   UNL A   1      34.355  31.539  28.204  1.00  0.00     0.198 A 
ATOM     85  F   UNL A   1      35.369  29.572  29.006  1.00  0.00    -0.203 F 
ATOM     86  F   UNL A   1      35.529  34.965  28.207  1.00  0.00    -0.200 F 
ATOM     87  C   UNL A   1      34.385  32.910  28.002  1.00  0.00     0.200 A 
ATOM     88  F   UNL A   1      33.277  30.832  27.838  1.00  0.00    -0.200 F 
ATOM     89  F   UNL A   1      33.330  33.533  27.460  1.00  0.00    -0.200 F 
ENDBRANCH  55  79
BRANCH  67  90
ATOM     90  C   UNL A   1      39.316  32.105  35.569  1.00  0.00     0.064 A 
ATOM     91  C   UNL A   1      38.413  31.710  36.567  1.00  0.00     0.173 A 
ATOM     92  C   UNL A   1      39.945  33.354  35.714  1.00  0.00     0.173 A 
ATOM     93  F   UNL A   1      37.779  30.531  36.474  1.00  0.00    -0.203 F 
ATOM     94  C   UNL A   1      38.120  32.547  37.641  1.00  0.00     0.198 A 
ATOM     95  C   UNL A   1      39.679  34.170  36.809  1.00  0.00     0.198 A 
ATOM     96  F   UNL A   1      40.828  33.777  34.797  1.00  0.00    -0.203 F 
ATOM     97  F   UNL A   1      37.207  32.174  38.548  1.00  0.00    -0.200 F 
ATOM     98  C   UNL A   1      38.759  33.772  37.765  1.00  0.00     0.200 A 
ATOM     99  F   UNL A   1      40.312  35.344  36.936  1.00  0.00    -0.200 F 
ATOM    100  F   UNL A   1      38.478  34.574  38.802  1.00  0.00    -0.200 F 
ENDBRANCH  67  90
ENDBRANCH  41  42
ENDBRANCH  34  36
ENDBRANCH  33  34
ENDBRANCH  32  33
ENDBRANCH  31  32
ENDBRANCH  30  31
ENDBRANCH  29  30
ENDBRANCH  28  29
ENDBRANCH  27  28
ENDBRANCH  26  27
ENDBRANCH   1  26
TORSDOF 26
ENDMDL
MODEL 2
REMARK VINA RESULT:     -10.6      5.230     11.058
REMARK SMILES O=C(C[C@H](C(=O)OC[C@H]1CCCO1)[NH+]1CCOCC1)OCCOCCOCCOCCOC(=O)c1ccc(-c2c3nc(c(-c4c(F)c(F)c(F)c(F)c4F)c4ccc([nH]4)c(-c4c(F)c(F)c(F)c(F)c4F)c4nc(c(-c5c(F)c(F)c(F)c(F)c5F)c5ccc2[nH]5)C=C4)C=C3)cc1
REMARK SMILES IDX 24 1 23 2 22 3 21 4 20 5 2 6 1 7 3 8 4 9 14 10 15 11 19 12
REMARK SMILES IDX 16 14 18 15 17 16 5 17 6 18 7 19 8 20 9 21 10 22 13 23 11 24
REMARK SMILES IDX 12 25 25 26 26 27 27 28 28 29 29 30 30 31 31 32 32 33 33 34
REMARK SMILES IDX 34 35 35 36 36 37 97 38 37 39 96 40 38 41 39 42 40 43 90 44
REMARK SMILES IDX 41 45 95 46 89 47 91 48 42 49 94 50 88 51 87 52 43 54 75 55
REMARK SMILES IDX 55 56 74 57 56 58 59 59 73 60 92 61 57 62 58 63 72 65 93 66
REMARK SMILES IDX 60 67 44 68 45 69 53 70 46 71 47 72 51 73 54 74 48 75 49 76
REMARK SMILES IDX 52 77 50 78 76 79 77 80 85 81 78 82 79 83 83 84 86 85 80 86
REMARK SMILES IDX 81 87 84 88 82 89 61 90 62 91 70 92 63 93 64 94 68 95 71 96
REMARK SMILES IDX 65 97 66 98 69 99 67 100
REMARK H PARENT 14 13 91 53 59 64
REMARK Flexibility Score: inf
ROOT
ATOM      1  C   UNL A   1      34.716  31.973  28.064  1.00  0.00     0.188 C 
ENDROOT
BRANCH   1   2
ATOM      2  O   UNL A   1      34.916  30.578  28.086  1.00  0.00    -0.376 OA
BRANCH   2   3
ATOM      3  C   UNL A   1      34.122  29.760  27.248  1.00  0.00     0.202 C 
BRANCH   3   4
ATOM      4  C   UNL A   1      32.858  30.360  26.666  1.00  0.00     0.261 C 
BRANCH   4   5
ATOM      5  O   UNL A   1      31.830  29.435  26.221  1.00  0.00    -0.463 OA
BRANCH   5   6
ATOM      6  C   UNL A   1      31.563  28.133  26.427  1.00  0.00     0.312 C 
ATOM      7  O   UNL A   1      31.223  27.792  27.562  1.00  0.00    -0.252 OA
BRANCH   6   8
ATOM      8  C   UNL A   1      31.724  27.082  25.358  1.00  0.00     0.200 C 
BRANCH   8   9
ATOM      9  C   UNL A   1      30.475  26.386  24.749  1.00  0.00     0.306 C 
BRANCH   9  10
ATOM     10  N   UNL A   1      29.978  26.880  23.452  1.00  0.00    -0.319 N 
ATOM     11  C   UNL A   1      30.965  27.371  22.489  1.00  0.00     0.291 C 
ATOM     12  C   UNL A   1      28.718  27.599  23.369  1.00  0.00     0.291 C 
ATOM     13  H   UNL A   1      29.705  25.948  23.142  1.00  0.00     0.348 HD
ATOM     14  C   UNL A   1      30.980  28.895  22.307  1.00  0.00     0.221 C 
ATOM     15  C   UNL A   1      28.776  29.093  23.042  1.00  0.00     0.221 C 
ATOM     16  O   UNL A   1      29.676  29.387  21.981  1.00  0.00    -0.370 OA
ENDBRANCH   9  10
BRANCH   9  17
ATOM     17  C   UNL A   1      30.565  24.851  24.938  1.00  0.00     0.365 C 
ATOM     18  O   UNL A   1      30.788  24.108  23.985  1.00  0.00    -0.245 OA
BRANCH  17  19
ATOM     19  O   UNL A   1      30.385  24.406  26.214  1.00  0.00    -0.459 OA
BRANCH  19  20
ATOM     20  C   UNL A   1      30.990  23.133  26.544  1.00  0.00     0.265 C 
BRANCH  20  21
ATOM     21  C   UNL A   1      32.510  23.233  26.774  1.00  0.00     0.156 C 
ATOM     22  C   UNL A   1      33.063  22.477  27.980  1.00  0.00     0.038 C 
ATOM     23  O   UNL A   1      33.236  22.783  25.623  1.00  0.00    -0.375 OA
ATOM     24  C   UNL A   1      34.144  21.579  27.424  1.00  0.00     0.031 C 
ATOM     25  C   UNL A   1      34.444  22.164  26.068  1.00  0.00     0.161 C 
ENDBRANCH  20  21
ENDBRANCH  19  20
ENDBRANCH  17  19
ENDBRANCH   9  17
ENDBRANCH   8   9
ENDBRANCH   6   8
ENDBRANCH   5   6
ENDBRANCH   4   5
ENDBRANCH   3   4
ENDBRANCH   2   3
ENDBRANCH   1   2
BRANCH   1  26
ATOM     26  C   UNL A   1      34.693  32.772  29.382  1.00  0.00     0.188 C 
BRANCH  26  27
ATOM     27  O   UNL A   1      34.726  34.174  29.532  1.00  0.00    -0.377 OA
BRANCH  27  28
ATOM     28  C   UNL A   1      33.706  34.975  30.072  1.00  0.00     0.188 C 
BRANCH  28  29
ATOM     29  C   UNL A   1      33.620  35.390  31.558  1.00  0.00     0.188 C 
BRANCH  29  30
ATOM     30  O   UNL A   1      32.910  34.632  32.504  1.00  0.00    -0.376 OA
BRANCH  30  31
ATOM     31  C   UNL A   1      33.512  33.586  33.235  1.00  0.00     0.202 C 
BRANCH  31  32
ATOM     32  C   UNL A   1      34.961  33.598  33.757  1.00  0.00     0.261 C 
BRANCH  32  33
ATOM     33  O   UNL A   1      35.962  33.001  32.926  1.00  0.00    -0.460 OA
BRANCH  33  34
ATOM     34  C   UNL A   1      36.857  32.218  33.570  1.00  0.00     0.338 C 
ATOM     35  O   UNL A   1      36.997  32.094  34.777  1.00  0.00    -0.246 OA
BRANCH  34  36
ATOM     36  C   UNL A   1      37.524  31.323  32.602  1.00  0.00     0.060 A 
ATOM     37  C   UNL A   1      38.450  30.398  33.108  1.00  0.00     0.016 A 
ATOM     38  C   UNL A   1      37.269  31.394  31.230  1.00  0.00     0.016 A 
ATOM     39  C   UNL A   1      39.184  29.596  32.240  1.00  0.00     0.010 A 
ATOM     40  C   UNL A   1      38.033  30.614  30.354  1.00  0.00     0.010 A 
ATOM     41  C   UNL A   1      39.037  29.764  30.858  1.00  0.00    -0.014 A 
BRANCH  41  42
ATOM     42  C   UNL A   1      40.168  29.344  29.995  1.00  0.00     0.031 A 
ATOM     43  C   UNL A   1      41.268  30.353  29.773  1.00  0.00     0.074 A 
ATOM     44  C   UNL A   1      40.279  28.098  29.506  1.00  0.00     0.049 A 
ATOM     45  N   UNL A   1      42.390  30.238  29.110  1.00  0.00    -0.248 NA
ATOM     46  C   UNL A   1      41.071  31.676  30.391  1.00  0.00     0.031 C 
ATOM     47  C   UNL A   1      39.315  27.019  29.703  1.00  0.00     0.029 A 
ATOM     48  N   UNL A   1      41.271  27.532  28.744  1.00  0.00    -0.354 N 
ATOM     49  C   UNL A   1      43.022  31.469  29.230  1.00  0.00     0.074 A 
ATOM     50  C   UNL A   1      42.149  32.329  29.995  1.00  0.00     0.031 C 
ATOM     51  C   UNL A   1      39.763  25.918  29.074  1.00  0.00     0.029 A 
ATOM     52  C   UNL A   1      41.032  26.222  28.413  1.00  0.00     0.049 A 
ATOM     53  H   UNL A   1      42.078  28.020  28.462  1.00  0.00     0.167 HD
ATOM     54  C   UNL A   1      44.230  31.851  28.754  1.00  0.00     0.037 A 
ATOM     55  C   UNL A   1      41.758  25.376  27.655  1.00  0.00     0.037 A 
ATOM     56  C   UNL A   1      45.096  30.997  27.991  1.00  0.00     0.049 A 
ATOM     57  C   UNL A   1      43.069  25.849  27.072  1.00  0.00     0.074 A 
ATOM     58  C   UNL A   1      46.342  31.281  27.462  1.00  0.00     0.029 A 
ATOM     59  N   UNL A   1      44.798  29.689  27.638  1.00  0.00    -0.354 N 
ATOM     60  N   UNL A   1      43.673  27.005  27.209  1.00  0.00    -0.248 NA
ATOM     61  C   UNL A   1      43.806  24.888  26.238  1.00  0.00     0.031 C 
ATOM     62  C   UNL A   1      46.772  30.164  26.738  1.00  0.00     0.029 A 
ATOM     63  C   UNL A   1      45.827  29.159  26.879  1.00  0.00     0.049 A 
ATOM     64  H   UNL A   1      43.976  29.209  27.891  1.00  0.00     0.167 HD
ATOM     65  C   UNL A   1      44.876  26.895  26.521  1.00  0.00     0.074 A 
ATOM     66  C   UNL A   1      44.919  25.556  25.973  1.00  0.00     0.031 C 
ATOM     67  C   UNL A   1      45.861  27.815  26.361  1.00  0.00     0.037 A 
BRANCH  54  68
ATOM     68  C   UNL A   1      44.655  33.268  29.012  1.00  0.00     0.064 A 
ATOM     69  C   UNL A   1      45.378  33.631  30.159  1.00  0.00     0.173 A 
ATOM     70  C   UNL A   1      44.332  34.279  28.094  1.00  0.00     0.173 A 
ATOM     71  F   UNL A   1      45.692  32.708  31.081  1.00  0.00    -0.203 F 
ATOM     72  C   UNL A   1      45.733  34.957  30.392  1.00  0.00     0.198 A 
ATOM     73  C   UNL A   1      44.718  35.598  28.313  1.00  0.00     0.198 A 
ATOM     74  F   UNL A   1      43.639  33.987  26.983  1.00  0.00    -0.203 F 
ATOM     75  F   UNL A   1      46.370  35.291  31.524  1.00  0.00    -0.200 F 
ATOM     76  C   UNL A   1      45.410  35.938  29.466  1.00  0.00     0.200 A 
ATOM     77  F   UNL A   1      44.415  36.541  27.411  1.00  0.00    -0.200 F 
ATOM     78  F   UNL A   1      45.756  37.213  29.689  1.00  0.00    -0.200 F 
ENDBRANCH  54  68
BRANCH  55  79
ATOM     79  C   UNL A   1      41.276  23.991  27.400  1.00  0.00     0.064 A 
ATOM     80  C   UNL A   1      41.939  22.881  27.942  1.00  0.00     0.173 A 
ATOM     81  C   UNL A   1      40.167  23.746  26.577  1.00  0.00     0.173 A 
ATOM     82  F   UNL A   1      43.021  23.058  28.715  1.00  0.00    -0.203 F 
ATOM     83  C   UNL A   1      41.530  21.581  27.648  1.00  0.00     0.198 A 
ATOM     84  C   UNL A   1      39.739  22.448  26.310  1.00  0.00     0.198 A 
ATOM     85  F   UNL A   1      39.498  24.772  26.030  1.00  0.00    -0.203 F 
ATOM     86  F   UNL A   1      42.218  20.538  28.133  1.00  0.00    -0.200 F 
ATOM     87  C   UNL A   1      40.427  21.365  26.836  1.00  0.00     0.200 A 
ATOM     88  F   UNL A   1      38.665  22.244  25.533  1.00  0.00    -0.200 F 
ATOM     89  F   UNL A   1      40.034  20.116  26.554  1.00  0.00    -0.200 F 
ENDBRANCH  55  79
BRANCH  67  90
ATOM     90  C   UNL A   1      47.101  27.385  25.629  1.00  0.00     0.064 A 
ATOM     91  C   UNL A   1      47.276  27.614  24.256  1.00  0.00     0.173 A 
ATOM     92  C   UNL A   1      48.148  26.759  26.326  1.00  0.00     0.173 A 
ATOM     93  F   UNL A   1      46.305  28.201  23.540  1.00  0.00    -0.203 F 
ATOM     94  C   UNL A   1      48.433  27.195  23.602  1.00  0.00     0.198 A 
ATOM     95  C   UNL A   1      49.318  26.378  25.677  1.00  0.00     0.198 A 
ATOM     96  F   UNL A   1      48.040  26.528  27.644  1.00  0.00    -0.203 F 
ATOM     97  F   UNL A   1      48.550  27.368  22.278  1.00  0.00    -0.200 F 
ATOM     98  C   UNL A   1      49.454  26.585  24.314  1.00  0.00     0.200 A 
ATOM     99  F   UNL A   1      50.311  25.806  26.371  1.00  0.00    -0.200 F 
ATOM    100  F   UNL A   1      50.568  26.187  23.683  1.00  0.00    -0.200 F 
ENDBRANCH  67  90
ENDBRANCH  41  42
ENDBRANCH  34  36
ENDBRANCH  33  34
ENDBRANCH  32  33
ENDBRANCH  31  32
ENDBRANCH  30  31
ENDBRANCH  29  30
ENDBRANCH  28  29
ENDBRANCH  27  28
ENDBRANCH  26  27
ENDBRANCH   1  26
TORSDOF 26
ENDMDL
MODEL 3
REMARK VINA RESULT:     -10.4      4.276      7.307
REMARK SMILES O=C(C[C@H](C(=O)OC[C@H]1CCCO1)[NH+]1CCOCC1)OCCOCCOCCOCCOC(=O)c1ccc(-c2c3nc(c(-c4c(F)c(F)c(F)c(F)c4F)c4ccc([nH]4)c(-c4c(F)c(F)c(F)c(F)c4F)c4nc(c(-c5c(F)c(F)c(F)c(F)c5F)c5ccc2[nH]5)C=C4)C=C3)cc1
REMARK SMILES IDX 24 1 23 2 22 3 21 4 20 5 2 6 1 7 3 8 4 9 14 10 15 11 19 12
REMARK SMILES IDX 16 14 18 15 17 16 5 17 6 18 7 19 8 20 9 21 10 22 13 23 11 24
REMARK SMILES IDX 12 25 25 26 26 27 27 28 28 29 29 30 30 31 31 32 32 33 33 34
REMARK SMILES IDX 34 35 35 36 36 37 97 38 37 39 96 40 38 41 39 42 40 43 90 44
REMARK SMILES IDX 41 45 95 46 89 47 91 48 42 49 94 50 88 51 87 52 43 54 75 55
REMARK SMILES IDX 55 56 74 57 56 58 59 59 73 60 92 61 57 62 58 63 72 65 93 66
REMARK SMILES IDX 60 67 44 68 45 69 53 70 46 71 47 72 51 73 54 74 48 75 49 76
REMARK SMILES IDX 52 77 50 78 76 79 77 80 85 81 78 82 79 83 83 84 86 85 80 86
REMARK SMILES IDX 81 87 84 88 82 89 61 90 62 91 70 92 63 93 64 94 68 95 71 96
REMARK SMILES IDX 65 97 66 98 69 99 67 100
REMARK H PARENT 14 13 91 53 59 64
REMARK Flexibility Score: inf
ROOT
ATOM      1  C   UNL A   1      34.636  21.669  26.854  1.00  0.00     0.188 C 
ENDROOT
BRANCH   1   2
ATOM      2  O   UNL A   1      34.419  20.795  25.770  1.00  0.00    -0.376 OA
BRANCH   2   3
ATOM      3  C   UNL A   1      33.219  20.047  25.724  1.00  0.00     0.202 C 
BRANCH   3   4
ATOM      4  C   UNL A   1      32.779  19.500  24.380  1.00  0.00     0.261 C 
BRANCH   4   5
ATOM      5  O   UNL A   1      32.950  20.365  23.225  1.00  0.00    -0.463 OA
BRANCH   5   6
ATOM      6  C   UNL A   1      32.410  21.526  22.813  1.00  0.00     0.312 C 
ATOM      7  O   UNL A   1      31.383  21.469  22.132  1.00  0.00    -0.252 OA
BRANCH   6   8
ATOM      8  C   UNL A   1      33.036  22.869  23.092  1.00  0.00     0.200 C 
BRANCH   8   9
ATOM      9  C   UNL A   1      32.250  24.176  22.798  1.00  0.00     0.306 C 
BRANCH   9  10
ATOM     10  N   UNL A   1      30.977  24.389  23.511  1.00  0.00    -0.319 N 
ATOM     11  C   UNL A   1      30.266  25.644  23.268  1.00  0.00     0.291 C 
ATOM     12  C   UNL A   1      30.802  23.906  24.870  1.00  0.00     0.291 C 
ATOM     13  H   UNL A   1      30.495  23.670  22.972  1.00  0.00     0.348 HD
ATOM     14  C   UNL A   1      30.314  26.643  24.433  1.00  0.00     0.221 C 
ATOM     15  C   UNL A   1      30.712  24.949  25.985  1.00  0.00     0.221 C 
ATOM     16  O   UNL A   1      29.861  26.039  25.649  1.00  0.00    -0.370 OA
ENDBRANCH   9  10
BRANCH   9  17
ATOM     17  C   UNL A   1      33.220  25.380  22.700  1.00  0.00     0.365 C 
ATOM     18  O   UNL A   1      33.667  25.745  21.615  1.00  0.00    -0.245 OA
BRANCH  17  19
ATOM     19  O   UNL A   1      33.525  25.985  23.882  1.00  0.00    -0.459 OA
BRANCH  19  20
ATOM     20  C   UNL A   1      33.746  27.415  23.837  1.00  0.00     0.265 C 
BRANCH  20  21
ATOM     21  C   UNL A   1      33.780  28.062  25.234  1.00  0.00     0.156 C 
ATOM     22  C   UNL A   1      32.967  29.342  25.407  1.00  0.00     0.038 C 
ATOM     23  O   UNL A   1      33.337  27.140  26.239  1.00  0.00    -0.375 OA
ATOM     24  C   UNL A   1      32.045  29.073  26.574  1.00  0.00     0.031 C 
ATOM     25  C   UNL A   1      32.658  27.878  27.256  1.00  0.00     0.161 C 
ENDBRANCH  20  21
ENDBRANCH  19  20
ENDBRANCH  17  19
ENDBRANCH   9  17
ENDBRANCH   8   9
ENDBRANCH   6   8
ENDBRANCH   5   6
ENDBRANCH   4   5
ENDBRANCH   3   4
ENDBRANCH   2   3
ENDBRANCH   1   2
BRANCH   1  26
ATOM     26  C   UNL A   1      34.481  23.191  26.664  1.00  0.00     0.188 C 
BRANCH  26  27
ATOM     27  O   UNL A   1      35.129  24.003  25.710  1.00  0.00    -0.377 OA
BRANCH  27  28
ATOM     28  C   UNL A   1      36.118  23.591  24.803  1.00  0.00     0.188 C 
BRANCH  28  29
ATOM     29  C   UNL A   1      37.423  22.867  25.208  1.00  0.00     0.188 C 
BRANCH  29  30
ATOM     30  O   UNL A   1      37.762  21.602  24.699  1.00  0.00    -0.376 OA
BRANCH  30  31
ATOM     31  C   UNL A   1      38.136  20.530  25.536  1.00  0.00     0.202 C 
BRANCH  31  32
ATOM     32  C   UNL A   1      39.482  19.786  25.464  1.00  0.00     0.261 C 
BRANCH  32  33
ATOM     33  O   UNL A   1      40.372  19.930  26.577  1.00  0.00    -0.460 OA
BRANCH  33  34
ATOM     34  C   UNL A   1      41.504  20.626  26.326  1.00  0.00     0.338 C 
ATOM     35  O   UNL A   1      42.384  20.342  25.527  1.00  0.00    -0.246 OA
BRANCH  34  36
ATOM     36  C   UNL A   1      41.442  21.939  26.999  1.00  0.00     0.060 A 
ATOM     37  C   UNL A   1      40.752  22.970  26.343  1.00  0.00     0.016 A 
ATOM     38  C   UNL A   1      42.057  22.170  28.232  1.00  0.00     0.016 A 
ATOM     39  C   UNL A   1      40.741  24.254  26.876  1.00  0.00     0.010 A 
ATOM     40  C   UNL A   1      42.077  23.470  28.750  1.00  0.00     0.010 A 
ATOM     41  C   UNL A   1      41.475  24.524  28.037  1.00  0.00    -0.014 A 
BRANCH  41  42
ATOM     42  C   UNL A   1      41.906  25.926  28.262  1.00  0.00     0.031 A 
ATOM     43  C   UNL A   1      43.237  26.332  27.680  1.00  0.00     0.074 A 
ATOM     44  C   UNL A   1      41.122  26.834  28.864  1.00  0.00     0.049 A 
ATOM     45  N   UNL A   1      43.833  27.497  27.682  1.00  0.00    -0.248 NA
ATOM     46  C   UNL A   1      44.000  25.272  26.998  1.00  0.00     0.031 C 
ATOM     47  C   UNL A   1      39.792  26.579  29.412  1.00  0.00     0.029 A 
ATOM     48  N   UNL A   1      41.337  28.168  29.107  1.00  0.00    -0.354 N 
ATOM     49  C   UNL A   1      45.033  27.304  27.009  1.00  0.00     0.074 A 
ATOM     50  C   UNL A   1      45.103  25.908  26.644  1.00  0.00     0.031 C 
ATOM     51  C   UNL A   1      39.310  27.723  29.930  1.00  0.00     0.029 A 
ATOM     52  C   UNL A   1      40.305  28.783  29.770  1.00  0.00     0.049 A 
ATOM     53  H   UNL A   1      42.156  28.639  28.830  1.00  0.00     0.167 HD
ATOM     54  C   UNL A   1      45.992  28.210  26.710  1.00  0.00     0.037 A 
ATOM     55  C   UNL A   1      40.191  30.054  30.201  1.00  0.00     0.037 A 
ATOM     56  C   UNL A   1      45.925  29.597  27.076  1.00  0.00     0.049 A 
ATOM     57  C   UNL A   1      41.308  31.031  29.920  1.00  0.00     0.074 A 
ATOM     58  C   UNL A   1      46.839  30.603  26.821  1.00  0.00     0.029 A 
ATOM     59  N   UNL A   1      44.881  30.172  27.787  1.00  0.00    -0.354 N 
ATOM     60  N   UNL A   1      42.429  30.850  29.263  1.00  0.00    -0.248 NA
ATOM     61  C   UNL A   1      41.135  32.399  30.433  1.00  0.00     0.031 C 
ATOM     62  C   UNL A   1      46.377  31.774  27.431  1.00  0.00     0.029 A 
ATOM     63  C   UNL A   1      45.140  31.515  28.000  1.00  0.00     0.049 A 
ATOM     64  H   UNL A   1      44.076  29.695  28.094  1.00  0.00     0.167 HD
ATOM     65  C   UNL A   1      43.069  32.083  29.243  1.00  0.00     0.074 A 
ATOM     66  C   UNL A   1      42.206  33.008  29.949  1.00  0.00     0.031 C 
ATOM     67  C   UNL A   1      44.258  32.425  28.686  1.00  0.00     0.037 A 
BRANCH  54  68
ATOM     68  C   UNL A   1      47.212  27.710  25.991  1.00  0.00     0.064 A 
ATOM     69  C   UNL A   1      47.305  27.714  24.591  1.00  0.00     0.173 A 
ATOM     70  C   UNL A   1      48.307  27.219  26.719  1.00  0.00     0.173 A 
ATOM     71  F   UNL A   1      46.277  28.151  23.847  1.00  0.00    -0.203 F 
ATOM     72  C   UNL A   1      48.434  27.215  23.946  1.00  0.00     0.198 A 
ATOM     73  C   UNL A   1      49.448  26.753  26.072  1.00  0.00     0.198 A 
ATOM     74  F   UNL A   1      48.270  27.190  28.059  1.00  0.00    -0.203 F 
ATOM     75  F   UNL A   1      48.475  27.173  22.606  1.00  0.00    -0.200 F 
ATOM     76  C   UNL A   1      49.507  26.743  24.687  1.00  0.00     0.200 A 
ATOM     77  F   UNL A   1      50.488  26.308  26.790  1.00  0.00    -0.200 F 
ATOM     78  F   UNL A   1      50.595  26.268  24.065  1.00  0.00    -0.200 F 
ENDBRANCH  54  68
BRANCH  55  79
ATOM     79  C   UNL A   1      38.975  30.492  30.940  1.00  0.00     0.064 A 
ATOM     80  C   UNL A   1      37.859  31.005  30.263  1.00  0.00     0.173 A 
ATOM     81  C   UNL A   1      38.919  30.445  32.340  1.00  0.00     0.173 A 
ATOM     82  F   UNL A   1      37.872  31.097  28.924  1.00  0.00    -0.203 F 
ATOM     83  C   UNL A   1      36.748  31.480  30.957  1.00  0.00     0.198 A 
ATOM     84  C   UNL A   1      37.794  30.889  33.033  1.00  0.00     0.198 A 
ATOM     85  F   UNL A   1      39.959  29.967  33.039  1.00  0.00    -0.203 F 
ATOM     86  F   UNL A   1      35.721  32.018  30.286  1.00  0.00    -0.200 F 
ATOM     87  C   UNL A   1      36.714  31.417  32.342  1.00  0.00     0.200 A 
ATOM     88  F   UNL A   1      37.761  30.817  34.371  1.00  0.00    -0.200 F 
ATOM     89  F   UNL A   1      35.646  31.873  33.010  1.00  0.00    -0.200 F 
ENDBRANCH  55  79
BRANCH  67  90
ATOM     90  C   UNL A   1      44.665  33.870  28.749  1.00  0.00     0.064 A 
ATOM     91  C   UNL A   1      44.265  34.803  27.781  1.00  0.00     0.173 A 
ATOM     92  C   UNL A   1      45.445  34.335  29.821  1.00  0.00     0.173 A 
ATOM     93  F   UNL A   1      43.525  34.412  26.731  1.00  0.00    -0.203 F 
ATOM     94  C   UNL A   1      44.665  36.135  27.861  1.00  0.00     0.198 A 
ATOM     95  C   UNL A   1      45.810  35.674  29.918  1.00  0.00     0.198 A 
ATOM     96  F   UNL A   1      45.844  33.489  30.783  1.00  0.00    -0.203 F 
ATOM     97  F   UNL A   1      44.323  36.994  26.890  1.00  0.00    -0.200 F 
ATOM     98  C   UNL A   1      45.430  36.570  28.932  1.00  0.00     0.200 A 
ATOM     99  F   UNL A   1      46.533  36.095  30.964  1.00  0.00    -0.200 F 
ATOM    100  F   UNL A   1      45.811  37.853  29.009  1.00  0.00    -0.200 F 
ENDBRANCH  67  90
ENDBRANCH  41  42
ENDBRANCH  34  36
ENDBRANCH  33  34
ENDBRANCH  32  33
ENDBRANCH  31  32
ENDBRANCH  30  31
ENDBRANCH  29  30
ENDBRANCH  28  29
ENDBRANCH  27  28
ENDBRANCH  26  27
ENDBRANCH   1  26
TORSDOF 26
ENDMDL
