MODEL 1
REMARK VINA RESULT:      -9.7      0.000      0.000
REMARK SMILES Cc1cn2c(CC(=O)N[C@@H](C(=O)OCCOCCOCCOCCOC(=O)c3ccc(-c4c5nc(c(-c6c(F)c(F)c(F)c(F)c6F)c6ccc([nH]6)c(-c6c(F)c(F)c(F)c(F)c6F)c6nc(c(-c7c(F)c(F)c(F)c(F)c7F)c7ccc4[nH]7)C=C6)C=C5)cc3)[C@H](C)O)csc2n1
REMARK SMILES IDX 18 1 17 2 16 3 15 4 14 5 13 6 11 7 12 8 10 9 9 10 7 11 8 12
REMARK SMILES IDX 6 14 5 15 1 16 2 17 3 18 97 19 4 20 96 21 95 22 94 23 91 24
REMARK SMILES IDX 92 25 93 26 19 28 20 29 21 30 22 31 23 32 24 33 25 34 26 35
REMARK SMILES IDX 27 36 28 37 29 38 90 39 30 40 89 41 31 42 32 43 33 44 83 45
REMARK SMILES IDX 34 46 88 47 82 48 84 49 35 50 87 51 81 52 80 53 36 55 68 56
REMARK SMILES IDX 48 57 67 58 49 59 52 60 66 61 85 62 50 63 51 64 65 66 86 67
REMARK SMILES IDX 53 68 37 69 38 70 46 71 39 72 40 73 44 74 47 75 41 76 42 77
REMARK SMILES IDX 45 78 43 79 69 80 70 81 78 82 71 83 72 84 76 85 79 86 73 87
REMARK SMILES IDX 74 88 77 89 75 90 54 91 55 92 63 93 56 94 57 95 61 96 64 97
REMARK SMILES IDX 58 98 59 99 62 100 60 101
REMARK H PARENT 9 13 93 27 84 54 52 65
REMARK Flexibility Score: inf
ROOT
ATOM      1  C   UNL A   1      34.857  31.528  27.885  1.00  0.00     0.188 C 
ENDROOT
BRANCH   1   2
ATOM      2  C   UNL A   1      33.620  30.716  27.476  1.00  0.00     0.188 C 
BRANCH   2   3
ATOM      3  O   UNL A   1      33.699  29.772  26.424  1.00  0.00    -0.376 OA
BRANCH   3   4
ATOM      4  C   UNL A   1      34.129  28.439  26.663  1.00  0.00     0.202 C 
BRANCH   4   5
ATOM      5  C   UNL A   1      33.499  27.195  26.001  1.00  0.00     0.261 C 
BRANCH   5   6
ATOM      6  O   UNL A   1      33.872  26.902  24.641  1.00  0.00    -0.462 OA
BRANCH   6   7
ATOM      7  C   UNL A   1      32.892  27.021  23.712  1.00  0.00     0.331 C 
ATOM      8  O   UNL A   1      32.928  26.501  22.601  1.00  0.00    -0.250 OA
BRANCH   7   9
ATOM      9  C   UNL A   1      31.660  27.826  24.191  1.00  0.00     0.221 C 
BRANCH   9  10
ATOM     10  N   UNL A   1      30.291  27.345  23.904  1.00  0.00    -0.340 N 
ATOM     11  C   UNL A   1      29.566  26.321  24.426  1.00  0.00     0.226 C 
ATOM     12  O   UNL A   1      28.398  26.180  24.060  1.00  0.00    -0.275 OA
ATOM     13  H   UNL A   1      29.820  27.859  23.210  1.00  0.00     0.164 HD
BRANCH  11  14
ATOM     14  C   UNL A   1      30.176  25.396  25.462  1.00  0.00     0.155 C 
BRANCH  14  15
ATOM     15  C   UNL A   1      30.894  24.279  24.786  1.00  0.00     0.044 A 
ATOM     16  C   UNL A   1      35.081  22.956  27.113  1.00  0.00     0.068 C 
ATOM     17  C   UNL A   1      33.868  23.047  26.267  1.00  0.00     0.057 A 
ATOM     18  C   UNL A   1      32.710  23.771  26.509  1.00  0.00     0.117 A 
ATOM     19  N   UNL A   1      33.809  22.408  25.037  1.00  0.00    -0.224 NA
ATOM     20  N   UNL A   1      31.997  23.667  25.352  1.00  0.00    -0.294 N 
ATOM     21  C   UNL A   1      32.656  22.783  24.555  1.00  0.00     0.194 A 
ATOM     22  S   UNL A   1      31.843  22.582  23.034  1.00  0.00    -0.105 S 
ATOM     23  C   UNL A   1      30.671  23.812  23.540  1.00  0.00     0.091 A 
ENDBRANCH  14  15
ENDBRANCH  11  14
ENDBRANCH   9  10
BRANCH   9  24
ATOM     24  C   UNL A   1      31.843  29.277  23.659  1.00  0.00     0.145 C 
ATOM     25  C   UNL A   1      31.053  29.518  22.377  1.00  0.00     0.041 C 
BRANCH  24  26
ATOM     26  O   UNL A   1      33.224  29.581  23.424  1.00  0.00    -0.391 OA
ATOM     27  H   UNL A   1      33.374  29.691  22.472  1.00  0.00     0.211 HD
ENDBRANCH  24  26
ENDBRANCH   9  24
ENDBRANCH   7   9
ENDBRANCH   6   7
ENDBRANCH   5   6
ENDBRANCH   4   5
ENDBRANCH   3   4
ENDBRANCH   2   3
ENDBRANCH   1   2
BRANCH   1  28
ATOM     28  O   UNL A   1      34.807  32.900  27.553  1.00  0.00    -0.377 OA
BRANCH  28  29
ATOM     29  C   UNL A   1      33.966  33.732  28.344  1.00  0.00     0.188 C 
BRANCH  29  30
ATOM     30  C   UNL A   1      34.560  34.439  29.579  1.00  0.00     0.188 C 
BRANCH  30  31
ATOM     31  O   UNL A   1      33.645  34.614  30.652  1.00  0.00    -0.376 OA
BRANCH  31  32
ATOM     32  C   UNL A   1      34.114  34.515  31.988  1.00  0.00     0.202 C 
BRANCH  32  33
ATOM     33  C   UNL A   1      34.104  33.134  32.666  1.00  0.00     0.261 C 
BRANCH  33  34
ATOM     34  O   UNL A   1      35.170  32.237  32.313  1.00  0.00    -0.460 OA
BRANCH  34  35
ATOM     35  C   UNL A   1      36.294  32.248  33.056  1.00  0.00     0.338 C 
ATOM     36  O   UNL A   1      36.408  32.582  34.223  1.00  0.00    -0.246 OA
BRANCH  35  37
ATOM     37  C   UNL A   1      37.351  31.579  32.267  1.00  0.00     0.060 A 
ATOM     38  C   UNL A   1      38.281  30.764  32.927  1.00  0.00     0.016 A 
ATOM     39  C   UNL A   1      37.410  31.739  30.881  1.00  0.00     0.016 A 
ATOM     40  C   UNL A   1      39.284  30.119  32.202  1.00  0.00     0.010 A 
ATOM     41  C   UNL A   1      38.432  31.116  30.161  1.00  0.00     0.010 A 
ATOM     42  C   UNL A   1      39.388  30.321  30.820  1.00  0.00    -0.014 A 
BRANCH  42  43
ATOM     43  C   UNL A   1      40.580  29.836  30.084  1.00  0.00     0.031 A 
ATOM     44  C   UNL A   1      41.699  30.801  29.813  1.00  0.00     0.074 A 
ATOM     45  C   UNL A   1      40.666  28.563  29.661  1.00  0.00     0.049 A 
ATOM     46  N   UNL A   1      42.791  30.636  29.112  1.00  0.00    -0.248 NA
ATOM     47  C   UNL A   1      41.564  32.137  30.416  1.00  0.00     0.031 C 
ATOM     48  C   UNL A   1      39.673  27.522  29.905  1.00  0.00     0.029 A 
ATOM     49  N   UNL A   1      41.638  27.937  28.917  1.00  0.00    -0.354 N 
ATOM     50  C   UNL A   1      43.468  31.848  29.179  1.00  0.00     0.074 A 
ATOM     51  C   UNL A   1      42.652  32.747  29.967  1.00  0.00     0.031 C 
ATOM     52  C   UNL A   1      40.075  26.388  29.305  1.00  0.00     0.029 A 
ATOM     53  C   UNL A   1      41.331  26.637  28.598  1.00  0.00     0.049 A 
ATOM     54  H   UNL A   1      42.473  28.378  28.640  1.00  0.00     0.167 HD
ATOM     55  C   UNL A   1      44.663  32.176  28.636  1.00  0.00     0.037 A 
ATOM     56  C   UNL A   1      41.974  25.764  27.798  1.00  0.00     0.037 A 
ATOM     57  C   UNL A   1      45.467  31.279  27.849  1.00  0.00     0.049 A 
ATOM     58  C   UNL A   1      43.256  26.187  27.121  1.00  0.00     0.074 A 
ATOM     59  C   UNL A   1      46.705  31.508  27.275  1.00  0.00     0.029 A 
ATOM     60  N   UNL A   1      45.103  29.983  27.510  1.00  0.00    -0.354 N 
ATOM     61  N   UNL A   1      43.906  27.321  27.211  1.00  0.00    -0.248 NA
ATOM     62  C   UNL A   1      43.888  25.207  26.225  1.00  0.00     0.031 C 
ATOM     63  C   UNL A   1      47.059  30.377  26.533  1.00  0.00     0.029 A 
ATOM     64  C   UNL A   1      46.074  29.416  26.699  1.00  0.00     0.049 A 
ATOM     65  H   UNL A   1      44.278  29.533  27.803  1.00  0.00     0.167 HD
ATOM     66  C   UNL A   1      45.032  27.184  26.408  1.00  0.00     0.074 A 
ATOM     67  C   UNL A   1      44.987  25.849  25.852  1.00  0.00     0.031 C 
ATOM     68  C   UNL A   1      46.015  28.084  26.152  1.00  0.00     0.037 A 
BRANCH  55  69
ATOM     69  C   UNL A   1      45.159  33.579  28.842  1.00  0.00     0.064 A 
ATOM     70  C   UNL A   1      44.857  34.612  27.943  1.00  0.00     0.173 A 
ATOM     71  C   UNL A   1      45.921  33.900  29.976  1.00  0.00     0.173 A 
ATOM     72  F   UNL A   1      44.143  34.356  26.835  1.00  0.00    -0.203 F 
ATOM     73  C   UNL A   1      45.320  35.908  28.156  1.00  0.00     0.198 A 
ATOM     74  C   UNL A   1      46.354  35.203  30.205  1.00  0.00     0.198 A 
ATOM     75  F   UNL A   1      46.236  32.952  30.871  1.00  0.00    -0.203 F 
ATOM     76  F   UNL A   1      45.061  36.867  27.258  1.00  0.00    -0.200 F 
ATOM     77  C   UNL A   1      46.062  36.204  29.290  1.00  0.00     0.200 A 
ATOM     78  F   UNL A   1      47.058  35.490  31.308  1.00  0.00    -0.200 F 
ATOM     79  F   UNL A   1      46.499  37.453  29.500  1.00  0.00    -0.200 F 
ENDBRANCH  55  69
BRANCH  56  80
ATOM     80  C   UNL A   1      41.403  24.411  27.561  1.00  0.00     0.064 A 
ATOM     81  C   UNL A   1      41.994  23.267  28.116  1.00  0.00     0.173 A 
ATOM     82  C   UNL A   1      40.269  24.230  26.753  1.00  0.00     0.173 A 
ATOM     83  F   UNL A   1      43.097  23.384  28.870  1.00  0.00    -0.203 F 
ATOM     84  C   UNL A   1      41.484  21.996  27.859  1.00  0.00     0.198 A 
ATOM     85  C   UNL A   1      39.741  22.961  26.524  1.00  0.00     0.198 A 
ATOM     86  F   UNL A   1      39.669  25.289  26.190  1.00  0.00    -0.203 F 
ATOM     87  F   UNL A   1      42.103  20.916  28.357  1.00  0.00    -0.200 F 
ATOM     88  C   UNL A   1      40.355  21.844  27.069  1.00  0.00     0.200 A 
ATOM     89  F   UNL A   1      38.644  22.821  25.767  1.00  0.00    -0.200 F 
ATOM     90  F   UNL A   1      39.867  20.622  26.820  1.00  0.00    -0.200 F 
ENDBRANCH  56  80
BRANCH  68  91
ATOM     91  C   UNL A   1      47.136  27.652  25.248  1.00  0.00     0.064 A 
ATOM     92  C   UNL A   1      48.227  26.914  25.728  1.00  0.00     0.173 A 
ATOM     93  C   UNL A   1      47.089  27.931  23.873  1.00  0.00     0.173 A 
ATOM     94  F   UNL A   1      48.328  26.632  27.036  1.00  0.00    -0.203 F 
ATOM     95  C   UNL A   1      49.238  26.489  24.870  1.00  0.00     0.198 A 
ATOM     96  C   UNL A   1      48.084  27.474  23.012  1.00  0.00     0.198 A 
ATOM     97  F   UNL A   1      46.063  28.626  23.358  1.00  0.00    -0.203 F 
ATOM     98  F   UNL A   1      50.295  25.823  25.360  1.00  0.00    -0.200 F 
ATOM     99  C   UNL A   1      49.162  26.761  23.513  1.00  0.00     0.200 A 
ATOM    100  F   UNL A   1      47.997  27.723  21.698  1.00  0.00    -0.200 F 
ATOM    101  F   UNL A   1      50.129  26.338  22.687  1.00  0.00    -0.200 F 
ENDBRANCH  68  91
ENDBRANCH  42  43
ENDBRANCH  35  37
ENDBRANCH  34  35
ENDBRANCH  33  34
ENDBRANCH  32  33
ENDBRANCH  31  32
ENDBRANCH  30  31
ENDBRANCH  29  30
ENDBRANCH  28  29
ENDBRANCH   1  28
TORSDOF 25
ENDMDL
MODEL 2
REMARK VINA RESULT:      -9.2      1.237      2.053
REMARK SMILES Cc1cn2c(CC(=O)N[C@@H](C(=O)OCCOCCOCCOCCOC(=O)c3ccc(-c4c5nc(c(-c6c(F)c(F)c(F)c(F)c6F)c6ccc([nH]6)c(-c6c(F)c(F)c(F)c(F)c6F)c6nc(c(-c7c(F)c(F)c(F)c(F)c7F)c7ccc4[nH]7)C=C6)C=C5)cc3)[C@H](C)O)csc2n1
REMARK SMILES IDX 18 1 17 2 16 3 15 4 14 5 13 6 11 7 12 8 10 9 9 10 7 11 8 12
REMARK SMILES IDX 6 14 5 15 1 16 2 17 3 18 97 19 4 20 96 21 95 22 94 23 91 24
REMARK SMILES IDX 92 25 93 26 19 28 20 29 21 30 22 31 23 32 24 33 25 34 26 35
REMARK SMILES IDX 27 36 28 37 29 38 90 39 30 40 89 41 31 42 32 43 33 44 83 45
REMARK SMILES IDX 34 46 88 47 82 48 84 49 35 50 87 51 81 52 80 53 36 55 68 56
REMARK SMILES IDX 48 57 67 58 49 59 52 60 66 61 85 62 50 63 51 64 65 66 86 67
REMARK SMILES IDX 53 68 37 69 38 70 46 71 39 72 40 73 44 74 47 75 41 76 42 77
REMARK SMILES IDX 45 78 43 79 69 80 70 81 78 82 71 83 72 84 76 85 79 86 73 87
REMARK SMILES IDX 74 88 77 89 75 90 54 91 55 92 63 93 56 94 57 95 61 96 64 97
REMARK SMILES IDX 58 98 59 99 62 100 60 101
REMARK H PARENT 9 13 93 27 84 54 52 65
REMARK Flexibility Score: inf
ROOT
ATOM      1  C   UNL A   1      33.630  31.495  27.561  1.00  0.00     0.188 C 
ENDROOT
BRANCH   1   2
ATOM      2  C   UNL A   1      32.170  31.145  27.239  1.00  0.00     0.188 C 
BRANCH   2   3
ATOM      3  O   UNL A   1      31.830  29.854  26.769  1.00  0.00    -0.376 OA
BRANCH   3   4
ATOM      4  C   UNL A   1      32.701  28.749  26.961  1.00  0.00     0.202 C 
BRANCH   4   5
ATOM      5  C   UNL A   1      33.413  27.998  25.814  1.00  0.00     0.261 C 
BRANCH   5   6
ATOM      6  O   UNL A   1      33.905  28.781  24.710  1.00  0.00    -0.462 OA
BRANCH   6   7
ATOM      7  C   UNL A   1      33.543  28.365  23.472  1.00  0.00     0.331 C 
ATOM      8  O   UNL A   1      33.944  28.872  22.428  1.00  0.00    -0.250 OA
BRANCH   7   9
ATOM      9  C   UNL A   1      32.613  27.127  23.466  1.00  0.00     0.221 C 
BRANCH   9  10
ATOM     10  N   UNL A   1      32.908  25.970  22.593  1.00  0.00    -0.340 N 
ATOM     11  C   UNL A   1      33.526  24.786  22.841  1.00  0.00     0.226 C 
ATOM     12  O   UNL A   1      33.575  23.947  21.939  1.00  0.00    -0.275 OA
ATOM     13  H   UNL A   1      32.600  26.078  21.664  1.00  0.00     0.164 HD
BRANCH  11  14
ATOM     14  C   UNL A   1      34.113  24.496  24.209  1.00  0.00     0.155 C 
BRANCH  14  15
ATOM     15  C   UNL A   1      33.129  23.739  25.033  1.00  0.00     0.044 A 
ATOM     16  C   UNL A   1      32.911  18.913  23.872  1.00  0.00     0.068 C 
ATOM     17  C   UNL A   1      32.818  20.250  24.503  1.00  0.00     0.057 A 
ATOM     18  C   UNL A   1      33.647  21.345  24.310  1.00  0.00     0.117 A 
ATOM     19  N   UNL A   1      31.778  20.558  25.367  1.00  0.00    -0.224 NA
ATOM     20  N   UNL A   1      33.024  22.362  24.969  1.00  0.00    -0.294 N 
ATOM     21  C   UNL A   1      31.973  21.818  25.642  1.00  0.00     0.194 A 
ATOM     22  S   UNL A   1      31.088  23.032  26.511  1.00  0.00    -0.105 S 
ATOM     23  C   UNL A   1      32.164  24.259  25.821  1.00  0.00     0.091 A 
ENDBRANCH  14  15
ENDBRANCH  11  14
ENDBRANCH   9  10
BRANCH   9  24
ATOM     24  C   UNL A   1      31.174  27.653  23.196  1.00  0.00     0.145 C 
ATOM     25  C   UNL A   1      30.110  26.632  23.589  1.00  0.00     0.041 C 
BRANCH  24  26
ATOM     26  O   UNL A   1      30.994  28.013  21.821  1.00  0.00    -0.391 OA
ATOM     27  H   UNL A   1      31.861  28.156  21.407  1.00  0.00     0.211 HD
ENDBRANCH  24  26
ENDBRANCH   9  24
ENDBRANCH   7   9
ENDBRANCH   6   7
ENDBRANCH   5   6
ENDBRANCH   4   5
ENDBRANCH   3   4
ENDBRANCH   2   3
ENDBRANCH   1   2
BRANCH   1  28
ATOM     28  O   UNL A   1      33.987  32.842  27.327  1.00  0.00    -0.377 OA
BRANCH  28  29
ATOM     29  C   UNL A   1      33.683  33.784  28.349  1.00  0.00     0.188 C 
BRANCH  29  30
ATOM     30  C   UNL A   1      34.635  33.913  29.555  1.00  0.00     0.188 C 
BRANCH  30  31
ATOM     31  O   UNL A   1      34.178  34.793  30.573  1.00  0.00    -0.376 OA
BRANCH  31  32
ATOM     32  C   UNL A   1      34.408  34.460  31.934  1.00  0.00     0.202 C 
BRANCH  32  33
ATOM     33  C   UNL A   1      34.386  32.976  32.337  1.00  0.00     0.261 C 
BRANCH  33  34
ATOM     34  O   UNL A   1      35.563  32.210  32.038  1.00  0.00    -0.460 OA
BRANCH  34  35
ATOM     35  C   UNL A   1      36.551  32.160  32.954  1.00  0.00     0.338 C 
ATOM     36  O   UNL A   1      36.441  32.230  34.166  1.00  0.00    -0.246 OA
BRANCH  35  37
ATOM     37  C   UNL A   1      37.795  31.796  32.243  1.00  0.00     0.060 A 
ATOM     38  C   UNL A   1      37.862  31.971  30.854  1.00  0.00     0.016 A 
ATOM     39  C   UNL A   1      38.896  31.305  32.947  1.00  0.00     0.016 A 
ATOM     40  C   UNL A   1      39.028  31.639  30.162  1.00  0.00     0.010 A 
ATOM     41  C   UNL A   1      40.052  30.946  32.249  1.00  0.00     0.010 A 
ATOM     42  C   UNL A   1      40.116  31.090  30.851  1.00  0.00    -0.014 A 
BRANCH  42  43
ATOM     43  C   UNL A   1      41.260  30.518  30.101  1.00  0.00     0.031 A 
ATOM     44  C   UNL A   1      42.450  31.394  29.828  1.00  0.00     0.074 A 
ATOM     45  C   UNL A   1      41.243  29.246  29.668  1.00  0.00     0.049 A 
ATOM     46  N   UNL A   1      43.520  31.149  29.116  1.00  0.00    -0.248 NA
ATOM     47  C   UNL A   1      42.426  32.731  30.442  1.00  0.00     0.031 C 
ATOM     48  C   UNL A   1      40.173  28.284  29.913  1.00  0.00     0.029 A 
ATOM     49  N   UNL A   1      42.156  28.551  28.912  1.00  0.00    -0.354 N 
ATOM     50  C   UNL A   1      44.291  32.303  29.188  1.00  0.00     0.074 A 
ATOM     51  C   UNL A   1      43.555  33.257  29.989  1.00  0.00     0.031 C 
ATOM     52  C   UNL A   1      40.480  27.127  29.301  1.00  0.00     0.029 A 
ATOM     53  C   UNL A   1      41.745  27.282  28.585  1.00  0.00     0.049 A 
ATOM     54  H   UNL A   1      43.022  28.927  28.630  1.00  0.00     0.167 HD
ATOM     55  C   UNL A   1      45.504  32.540  28.637  1.00  0.00     0.037 A 
ATOM     56  C   UNL A   1      42.311  26.368  27.773  1.00  0.00     0.037 A 
ATOM     57  C   UNL A   1      46.229  31.589  27.836  1.00  0.00     0.049 A 
ATOM     58  C   UNL A   1      43.617  26.694  27.088  1.00  0.00     0.074 A 
ATOM     59  C   UNL A   1      47.476  31.725  27.253  1.00  0.00     0.029 A 
ATOM     60  N   UNL A   1      45.761  30.329  27.490  1.00  0.00    -0.354 N 
ATOM     61  N   UNL A   1      44.356  27.773  27.182  1.00  0.00    -0.248 NA
ATOM     62  C   UNL A   1      44.163  25.674  26.180  1.00  0.00     0.031 C 
ATOM     63  C   UNL A   1      47.734  30.575  26.500  1.00  0.00     0.029 A 
ATOM     64  C   UNL A   1      46.678  29.694  26.667  1.00  0.00     0.049 A 
ATOM     65  H   UNL A   1      44.905  29.943  27.787  1.00  0.00     0.167 HD
ATOM     66  C   UNL A   1      45.461  27.554  26.368  1.00  0.00     0.074 A 
ATOM     67  C   UNL A   1      45.306  26.230  25.802  1.00  0.00     0.031 C 
ATOM     68  C   UNL A   1      46.510  28.375  26.110  1.00  0.00     0.037 A 
BRANCH  55  69
ATOM     69  C   UNL A   1      46.111  33.898  28.849  1.00  0.00     0.064 A 
ATOM     70  C   UNL A   1      45.743  35.005  28.070  1.00  0.00     0.173 A 
ATOM     71  C   UNL A   1      47.051  34.101  29.871  1.00  0.00     0.173 A 
ATOM     72  F   UNL A   1      44.858  34.864  27.070  1.00  0.00    -0.203 F 
ATOM     73  C   UNL A   1      46.312  36.257  28.288  1.00  0.00     0.198 A 
ATOM     74  C   UNL A   1      47.593  35.360  30.109  1.00  0.00     0.198 A 
ATOM     75  F   UNL A   1      47.436  33.078  30.649  1.00  0.00    -0.203 F 
ATOM     76  F   UNL A   1      45.983  37.288  27.499  1.00  0.00    -0.200 F 
ATOM     77  C   UNL A   1      47.231  36.436  29.312  1.00  0.00     0.200 A 
ATOM     78  F   UNL A   1      48.469  35.533  31.108  1.00  0.00    -0.200 F 
ATOM     79  F   UNL A   1      47.771  37.643  29.528  1.00  0.00    -0.200 F 
ENDBRANCH  55  69
BRANCH  56  80
ATOM     80  C   UNL A   1      41.633  25.066  27.531  1.00  0.00     0.064 A 
ATOM     81  C   UNL A   1      40.500  24.979  26.709  1.00  0.00     0.173 A 
ATOM     82  C   UNL A   1      42.089  23.884  28.136  1.00  0.00     0.173 A 
ATOM     83  F   UNL A   1      40.008  26.086  26.132  1.00  0.00    -0.203 F 
ATOM     84  C   UNL A   1      39.840  23.768  26.518  1.00  0.00     0.198 A 
ATOM     85  C   UNL A   1      41.446  22.667  27.917  1.00  0.00     0.198 A 
ATOM     86  F   UNL A   1      43.163  23.910  28.939  1.00  0.00    -0.203 F 
ATOM     87  F   UNL A   1      38.727  23.726  25.772  1.00  0.00    -0.200 F 
ATOM     88  C   UNL A   1      40.317  22.612  27.116  1.00  0.00     0.200 A 
ATOM     89  F   UNL A   1      41.917  21.551  28.491  1.00  0.00    -0.200 F 
ATOM     90  F   UNL A   1      39.680  21.447  26.932  1.00  0.00    -0.200 F 
ENDBRANCH  56  80
BRANCH  68  91
ATOM     91  C   UNL A   1      47.586  27.864  25.194  1.00  0.00     0.064 A 
ATOM     92  C   UNL A   1      48.727  27.214  25.687  1.00  0.00     0.173 A 
ATOM     93  C   UNL A   1      47.446  27.973  23.801  1.00  0.00     0.173 A 
ATOM     94  F   UNL A   1      48.916  27.094  27.010  1.00  0.00    -0.203 F 
ATOM     95  C   UNL A   1      49.696  26.712  24.822  1.00  0.00     0.198 A 
ATOM     96  C   UNL A   1      48.400  27.440  22.939  1.00  0.00     0.198 A 
ATOM     97  F   UNL A   1      46.370  28.577  23.275  1.00  0.00    -0.203 F 
ATOM     98  F   UNL A   1      50.800  26.135  25.319  1.00  0.00    -0.200 F 
ATOM     99  C   UNL A   1      49.528  26.817  23.450  1.00  0.00     0.200 A 
ATOM    100  F   UNL A   1      48.226  27.526  21.613  1.00  0.00    -0.200 F 
ATOM    101  F   UNL A   1      50.455  26.320  22.620  1.00  0.00    -0.200 F 
ENDBRANCH  68  91
ENDBRANCH  42  43
ENDBRANCH  35  37
ENDBRANCH  34  35
ENDBRANCH  33  34
ENDBRANCH  32  33
ENDBRANCH  31  32
ENDBRANCH  30  31
ENDBRANCH  29  30
ENDBRANCH  28  29
ENDBRANCH   1  28
TORSDOF 25
ENDMDL
MODEL 3
REMARK VINA RESULT:      -8.0      4.807     10.378
REMARK SMILES Cc1cn2c(CC(=O)N[C@@H](C(=O)OCCOCCOCCOCCOC(=O)c3ccc(-c4c5nc(c(-c6c(F)c(F)c(F)c(F)c6F)c6ccc([nH]6)c(-c6c(F)c(F)c(F)c(F)c6F)c6nc(c(-c7c(F)c(F)c(F)c(F)c7F)c7ccc4[nH]7)C=C6)C=C5)cc3)[C@H](C)O)csc2n1
REMARK SMILES IDX 18 1 17 2 16 3 15 4 14 5 13 6 11 7 12 8 10 9 9 10 7 11 8 12
REMARK SMILES IDX 6 14 5 15 1 16 2 17 3 18 97 19 4 20 96 21 95 22 94 23 91 24
REMARK SMILES IDX 92 25 93 26 19 28 20 29 21 30 22 31 23 32 24 33 25 34 26 35
REMARK SMILES IDX 27 36 28 37 29 38 90 39 30 40 89 41 31 42 32 43 33 44 83 45
REMARK SMILES IDX 34 46 88 47 82 48 84 49 35 50 87 51 81 52 80 53 36 55 68 56
REMARK SMILES IDX 48 57 67 58 49 59 52 60 66 61 85 62 50 63 51 64 65 66 86 67
REMARK SMILES IDX 53 68 37 69 38 70 46 71 39 72 40 73 44 74 47 75 41 76 42 77
REMARK SMILES IDX 45 78 43 79 69 80 70 81 78 82 71 83 72 84 76 85 79 86 73 87
REMARK SMILES IDX 74 88 77 89 75 90 54 91 55 92 63 93 56 94 57 95 61 96 64 97
REMARK SMILES IDX 58 98 59 99 62 100 60 101
REMARK H PARENT 9 13 93 27 84 54 52 65
REMARK Flexibility Score: inf
ROOT
ATOM      1  C   UNL A   1      33.574  37.192  31.255  1.00  0.00     0.188 C 
ENDROOT
BRANCH   1   2
ATOM      2  C   UNL A   1      33.395  36.578  32.652  1.00  0.00     0.188 C 
BRANCH   2   3
ATOM      3  O   UNL A   1      33.350  35.173  32.816  1.00  0.00    -0.376 OA
BRANCH   3   4
ATOM      4  C   UNL A   1      34.383  34.479  33.500  1.00  0.00     0.202 C 
BRANCH   4   5
ATOM      5  C   UNL A   1      35.885  34.624  33.176  1.00  0.00     0.261 C 
BRANCH   5   6
ATOM      6  O   UNL A   1      36.781  33.628  33.707  1.00  0.00    -0.462 OA
BRANCH   6   7
ATOM      7  C   UNL A   1      36.756  33.454  35.050  1.00  0.00     0.331 C 
ATOM      8  O   UNL A   1      35.783  33.691  35.759  1.00  0.00    -0.250 OA
BRANCH   7   9
ATOM      9  C   UNL A   1      38.058  32.853  35.635  1.00  0.00     0.221 C 
BRANCH   9  10
ATOM     10  N   UNL A   1      38.374  31.420  35.447  1.00  0.00    -0.340 N 
ATOM     11  C   UNL A   1      38.918  30.746  34.401  1.00  0.00     0.226 C 
ATOM     12  O   UNL A   1      39.152  29.543  34.533  1.00  0.00    -0.275 OA
ATOM     13  H   UNL A   1      38.150  30.853  36.220  1.00  0.00     0.164 HD
BRANCH  11  14
ATOM     14  C   UNL A   1      39.259  31.470  33.112  1.00  0.00     0.155 C 
BRANCH  14  15
ATOM     15  C   UNL A   1      40.469  32.316  33.309  1.00  0.00     0.044 A 
ATOM     16  C   UNL A   1      41.521  35.168  29.379  1.00  0.00     0.068 C 
ATOM     17  C   UNL A   1      41.416  34.534  30.713  1.00  0.00     0.057 A 
ATOM     18  C   UNL A   1      40.365  33.787  31.224  1.00  0.00     0.117 A 
ATOM     19  N   UNL A   1      42.470  34.592  31.614  1.00  0.00    -0.224 NA
ATOM     20  N   UNL A   1      40.844  33.285  32.397  1.00  0.00    -0.294 N 
ATOM     21  C   UNL A   1      42.057  33.862  32.613  1.00  0.00     0.194 A 
ATOM     22  S   UNL A   1      42.776  33.281  34.082  1.00  0.00    -0.105 S 
ATOM     23  C   UNL A   1      41.397  32.187  34.281  1.00  0.00     0.091 A 
ENDBRANCH  14  15
ENDBRANCH  11  14
ENDBRANCH   9  10
BRANCH   9  24
ATOM     24  C   UNL A   1      38.073  33.214  37.148  1.00  0.00     0.145 C 
ATOM     25  C   UNL A   1      38.963  34.419  37.438  1.00  0.00     0.041 C 
BRANCH  24  26
ATOM     26  O   UNL A   1      38.505  32.107  37.950  1.00  0.00    -0.391 OA
ATOM     27  H   UNL A   1      38.233  32.249  38.871  1.00  0.00     0.211 HD
ENDBRANCH  24  26
ENDBRANCH   9  24
ENDBRANCH   7   9
ENDBRANCH   6   7
ENDBRANCH   5   6
ENDBRANCH   4   5
ENDBRANCH   3   4
ENDBRANCH   2   3
ENDBRANCH   1   2
BRANCH   1  28
ATOM     28  O   UNL A   1      32.557  36.873  30.328  1.00  0.00    -0.377 OA
BRANCH  28  29
ATOM     29  C   UNL A   1      32.954  36.246  29.114  1.00  0.00     0.188 C 
BRANCH  29  30
ATOM     30  C   UNL A   1      33.217  34.726  29.108  1.00  0.00     0.188 C 
BRANCH  30  31
ATOM     31  O   UNL A   1      34.349  34.323  29.865  1.00  0.00    -0.376 OA
BRANCH  31  32
ATOM     32  C   UNL A   1      34.597  32.939  30.063  1.00  0.00     0.202 C 
BRANCH  32  33
ATOM     33  C   UNL A   1      34.754  32.040  28.825  1.00  0.00     0.261 C 
BRANCH  33  34
ATOM     34  O   UNL A   1      36.024  31.390  28.658  1.00  0.00    -0.460 OA
BRANCH  34  35
ATOM     35  C   UNL A   1      36.056  30.045  28.583  1.00  0.00     0.338 C 
ATOM     36  O   UNL A   1      35.112  29.290  28.423  1.00  0.00    -0.246 OA
BRANCH  35  37
ATOM     37  C   UNL A   1      37.476  29.639  28.522  1.00  0.00     0.060 A 
ATOM     38  C   UNL A   1      38.105  29.182  29.687  1.00  0.00     0.016 A 
ATOM     39  C   UNL A   1      38.176  29.689  27.315  1.00  0.00     0.016 A 
ATOM     40  C   UNL A   1      39.444  28.789  29.652  1.00  0.00     0.010 A 
ATOM     41  C   UNL A   1      39.524  29.322  27.287  1.00  0.00     0.010 A 
ATOM     42  C   UNL A   1      40.171  28.892  28.460  1.00  0.00    -0.014 A 
BRANCH  42  43
ATOM     43  C   UNL A   1      41.642  28.704  28.466  1.00  0.00     0.031 A 
ATOM     44  C   UNL A   1      42.200  27.394  27.988  1.00  0.00     0.074 A 
ATOM     45  C   UNL A   1      42.467  29.676  28.891  1.00  0.00     0.049 A 
ATOM     46  N   UNL A   1      43.436  26.964  27.989  1.00  0.00    -0.248 NA
ATOM     47  C   UNL A   1      41.229  26.438  27.432  1.00  0.00     0.031 C 
ATOM     48  C   UNL A   1      42.051  31.005  29.330  1.00  0.00     0.029 A 
ATOM     49  N   UNL A   1      43.833  29.683  29.037  1.00  0.00    -0.354 N 
ATOM     50  C   UNL A   1      43.389  25.685  27.447  1.00  0.00     0.074 A 
ATOM     51  C   UNL A   1      42.002  25.398  27.153  1.00  0.00     0.031 C 
ATOM     52  C   UNL A   1      43.138  31.695  29.717  1.00  0.00     0.029 A 
ATOM     53  C   UNL A   1      44.319  30.840  29.595  1.00  0.00     0.049 A 
ATOM     54  H   UNL A   1      44.408  28.930  28.769  1.00  0.00     0.167 HD
ATOM     55  C   UNL A   1      44.414  24.832  27.213  1.00  0.00     0.037 A 
ATOM     56  C   UNL A   1      45.568  31.156  29.990  1.00  0.00     0.037 A 
ATOM     57  C   UNL A   1      45.791  25.121  27.513  1.00  0.00     0.049 A 
ATOM     58  C   UNL A   1      46.678  30.148  29.812  1.00  0.00     0.074 A 
ATOM     59  C   UNL A   1      46.906  24.332  27.291  1.00  0.00     0.029 A 
ATOM     60  N   UNL A   1      46.240  26.286  28.117  1.00  0.00    -0.354 N 
ATOM     61  N   UNL A   1      46.635  28.954  29.273  1.00  0.00    -0.248 NA
ATOM     62  C   UNL A   1      48.009  30.533  30.304  1.00  0.00     0.031 C 
ATOM     63  C   UNL A   1      48.020  24.991  27.821  1.00  0.00     0.029 A 
ATOM     64  C   UNL A   1      47.610  26.220  28.314  1.00  0.00     0.049 A 
ATOM     65  H   UNL A   1      45.670  27.049  28.368  1.00  0.00     0.167 HD
ATOM     66  C   UNL A   1      47.930  28.456  29.337  1.00  0.00     0.074 A 
ATOM     67  C   UNL A   1      48.742  29.485  29.952  1.00  0.00     0.031 C 
ATOM     68  C   UNL A   1      48.406  27.253  28.927  1.00  0.00     0.037 A 
BRANCH  55  69
ATOM     69  C   UNL A   1      44.079  23.485  26.637  1.00  0.00     0.064 A 
ATOM     70  C   UNL A   1      44.490  23.105  25.351  1.00  0.00     0.173 A 
ATOM     71  C   UNL A   1      43.366  22.548  27.400  1.00  0.00     0.173 A 
ATOM     72  F   UNL A   1      45.164  23.969  24.574  1.00  0.00    -0.203 F 
ATOM     73  C   UNL A   1      44.176  21.849  24.839  1.00  0.00     0.198 A 
ATOM     74  C   UNL A   1      43.082  21.281  26.898  1.00  0.00     0.198 A 
ATOM     75  F   UNL A   1      42.952  22.856  28.637  1.00  0.00    -0.203 F 
ATOM     76  F   UNL A   1      44.535  21.528  23.589  1.00  0.00    -0.200 F 
ATOM     77  C   UNL A   1      43.479  20.935  25.615  1.00  0.00     0.200 A 
ATOM     78  F   UNL A   1      42.422  20.394  27.656  1.00  0.00    -0.200 F 
ATOM     79  F   UNL A   1      43.186  19.723  25.125  1.00  0.00    -0.200 F 
ENDBRANCH  55  69
BRANCH  56  80
ATOM     80  C   UNL A   1      45.836  32.473  30.628  1.00  0.00     0.064 A 
ATOM     81  C   UNL A   1      45.885  32.607  32.023  1.00  0.00     0.173 A 
ATOM     82  C   UNL A   1      46.024  33.631  29.857  1.00  0.00     0.173 A 
ATOM     83  F   UNL A   1      45.680  31.536  32.805  1.00  0.00    -0.203 F 
ATOM     84  C   UNL A   1      46.092  33.849  32.621  1.00  0.00     0.198 A 
ATOM     85  C   UNL A   1      46.264  34.866  30.456  1.00  0.00     0.198 A 
ATOM     86  F   UNL A   1      45.978  33.562  28.518  1.00  0.00    -0.203 F 
ATOM     87  F   UNL A   1      46.078  33.956  33.957  1.00  0.00    -0.200 F 
ATOM     88  C   UNL A   1      46.288  34.976  31.837  1.00  0.00     0.200 A 
ATOM     89  F   UNL A   1      46.462  35.950  29.693  1.00  0.00    -0.200 F 
ATOM     90  F   UNL A   1      46.486  36.169  32.413  1.00  0.00    -0.200 F 
ENDBRANCH  56  80
BRANCH  68  91
ATOM     91  C   UNL A   1      49.875  26.987  29.106  1.00  0.00     0.064 A 
ATOM     92  C   UNL A   1      50.371  26.326  30.239  1.00  0.00     0.173 A 
ATOM     93  C   UNL A   1      50.790  27.346  28.105  1.00  0.00     0.173 A 
ATOM     94  F   UNL A   1      49.541  25.972  31.232  1.00  0.00    -0.203 F 
ATOM     95  C   UNL A   1      51.731  26.053  30.372  1.00  0.00     0.198 A 
ATOM     96  C   UNL A   1      52.144  27.041  28.225  1.00  0.00     0.198 A 
ATOM     97  F   UNL A   1      50.368  27.973  26.995  1.00  0.00    -0.203 F 
ATOM     98  F   UNL A   1      52.188  25.461  31.484  1.00  0.00    -0.200 F 
ATOM     99  C   UNL A   1      52.614  26.402  29.362  1.00  0.00     0.200 A 
ATOM    100  F   UNL A   1      52.992  27.363  27.238  1.00  0.00    -0.200 F 
ATOM    101  F   UNL A   1      53.919  26.126  29.485  1.00  0.00    -0.200 F 
ENDBRANCH  68  91
ENDBRANCH  42  43
ENDBRANCH  35  37
ENDBRANCH  34  35
ENDBRANCH  33  34
ENDBRANCH  32  33
ENDBRANCH  31  32
ENDBRANCH  30  31
ENDBRANCH  29  30
ENDBRANCH  28  29
ENDBRANCH   1  28
TORSDOF 25
ENDMDL
