MODEL 1
REMARK VINA RESULT:      -9.2      0.000      0.000
REMARK SMILES NS(=O)(=O)c1ccc(-n2nc(NC(=O)NCCCCCCCCCCC(=O)OCCOCCOCCOCCOC(=O)c3ccc(-c4c5nc(c(-c6c(F)c(F)c(F)c(F)c6F)c6ccc([nH]6)c(-c6c(F)c(F)c(F)c(F)c6F)c6nc(c(-c7c(F)c(F)c(F)c(F)c7F)c7ccc4[nH]7)C=C6)C=C5)cc3)cc2-c2ccccc2)cc1
REMARK SMILES IDX 28 1 26 2 27 3 25 4 24 5 23 6 22 7 21 8 20 9 19 10 18 11
REMARK SMILES IDX 17 12 16 13 15 14 12 15 13 16 14 18 11 20 9 21 10 22 107 23
REMARK SMILES IDX 106 24 8 25 5 26 6 27 115 28 7 29 114 30 2 31 3 32 4 33 1 34
REMARK SMILES IDX 108 37 109 38 113 39 110 40 112 41 111 42 29 43 30 44 31 45
REMARK SMILES IDX 32 46 33 47 34 48 35 49 36 50 37 51 38 52 39 53 40 54 41 55
REMARK SMILES IDX 42 56 43 57 44 58 105 59 45 60 104 61 46 62 47 63 48 64
REMARK SMILES IDX 98 65 49 66 103 67 97 68 99 69 50 70 102 71 96 72 95 73
REMARK SMILES IDX 51 75 83 76 63 77 82 78 64 79 67 80 81 81 100 82 65 83 66 84
REMARK SMILES IDX 80 86 101 87 68 88 52 89 53 90 61 91 54 92 55 93 59 94 62 95
REMARK SMILES IDX 56 96 57 97 60 98 58 99 84 100 85 101 93 102 86 103 87 104
REMARK SMILES IDX 91 105 94 106 88 107 89 108 92 109 90 110 69 111 70 112
REMARK SMILES IDX 78 113 71 114 72 115 76 116 79 117 73 118 74 119 77 120
REMARK SMILES IDX 75 121
REMARK H PARENT 12 17 15 19 1 35 1 36 99 74 67 85
REMARK Flexibility Score: inf
ROOT
ATOM      1  O   UNL A   1      32.867  27.463  25.968  1.00  0.00    -0.463 OA
ENDROOT
BRANCH   1   2
ATOM      2  C   UNL A   1      31.778  26.957  26.585  1.00  0.00     0.305 C 
ATOM      3  O   UNL A   1      31.124  27.560  27.428  1.00  0.00    -0.252 OA
BRANCH   2   4
ATOM      4  C   UNL A   1      31.353  25.584  26.084  1.00  0.00     0.123 C 
BRANCH   4   5
ATOM      5  C   UNL A   1      32.303  24.614  25.373  1.00  0.00     0.012 C 
BRANCH   5   6
ATOM      6  C   UNL A   1      31.690  23.686  24.329  1.00  0.00     0.001 C 
BRANCH   6   7
ATOM      7  C   UNL A   1      32.681  23.390  23.215  1.00  0.00     0.000 C 
BRANCH   7   8
ATOM      8  C   UNL A   1      34.105  23.273  23.749  1.00  0.00     0.000 C 
BRANCH   8   9
ATOM      9  C   UNL A   1      34.464  21.853  24.192  1.00  0.00     0.000 C 
BRANCH   9  10
ATOM     10  C   UNL A   1      35.092  21.778  25.588  1.00  0.00     0.000 C 
BRANCH  10  11
ATOM     11  C   UNL A   1      36.460  21.084  25.619  1.00  0.00     0.002 C 
BRANCH  11  12
ATOM     12  C   UNL A   1      37.583  21.855  24.929  1.00  0.00     0.021 C 
BRANCH  12  13
ATOM     13  C   UNL A   1      38.879  21.905  25.714  1.00  0.00     0.117 C 
BRANCH  13  14
ATOM     14  N   UNL A   1      39.393  20.614  26.103  1.00  0.00    -0.338 N 
ATOM     15  N   UNL A   1      41.717  20.952  25.744  1.00  0.00    -0.291 N 
ATOM     16  C   UNL A   1      40.666  20.166  26.070  1.00  0.00     0.320 C 
ATOM     17  H   UNL A   1      42.505  20.459  25.417  1.00  0.00     0.173 HD
ATOM     18  O   UNL A   1      40.852  18.956  26.232  1.00  0.00    -0.248 OA
ATOM     19  H   UNL A   1      38.724  19.974  26.437  1.00  0.00     0.165 HD
BRANCH  15  20
ATOM     20  C   UNL A   1      41.882  22.319  25.790  1.00  0.00     0.157 A 
ATOM     21  N   UNL A   1      42.820  24.212  25.655  1.00  0.00    -0.231 N 
ATOM     22  N   UNL A   1      42.691  23.036  25.005  1.00  0.00    -0.149 NA
ATOM     23  C   UNL A   1      41.762  24.416  26.533  1.00  0.00     0.076 A 
ATOM     24  C   UNL A   1      41.178  23.169  26.674  1.00  0.00     0.078 A 
BRANCH  21  25
ATOM     25  C   UNL A   1      43.971  25.029  25.460  1.00  0.00     0.065 A 
ATOM     26  C   UNL A   1      46.189  26.634  24.922  1.00  0.00     0.082 A 
ATOM     27  C   UNL A   1      44.947  27.229  25.156  1.00  0.00     0.024 A 
ATOM     28  C   UNL A   1      46.341  25.245  25.011  1.00  0.00     0.024 A 
ATOM     29  C   UNL A   1      43.837  26.426  25.415  1.00  0.00     0.030 A 
ATOM     30  C   UNL A   1      45.233  24.441  25.306  1.00  0.00     0.030 A 
BRANCH  26  31
ATOM     31  S   UNL A   1      47.548  27.696  24.537  1.00  0.00     0.238 S 
ATOM     32  O   UNL A   1      48.764  26.931  24.597  1.00  0.00    -0.207 OA
ATOM     33  O   UNL A   1      47.364  28.942  25.253  1.00  0.00    -0.207 OA
BRANCH  31  34
ATOM     34  N   UNL A   1      47.352  28.074  22.911  1.00  0.00    -0.225 NA
ATOM     35  H   UNL A   1      46.379  28.321  22.735  1.00  0.00     0.137 HD
ATOM     36  H   UNL A   1      47.607  27.267  22.341  1.00  0.00     0.137 HD
ENDBRANCH  31  34
ENDBRANCH  26  31
ENDBRANCH  21  25
BRANCH  23  37
ATOM     37  C   UNL A   1      41.427  25.716  27.104  1.00  0.00     0.000 A 
ATOM     38  C   UNL A   1      41.564  25.912  28.488  1.00  0.00     0.010 A 
ATOM     39  C   UNL A   1      40.908  26.748  26.318  1.00  0.00     0.010 A 
ATOM     40  C   UNL A   1      41.142  27.095  29.087  1.00  0.00     0.001 A 
ATOM     41  C   UNL A   1      40.495  27.940  26.920  1.00  0.00     0.001 A 
ATOM     42  C   UNL A   1      40.603  28.108  28.301  1.00  0.00     0.000 A 
ENDBRANCH  23  37
ENDBRANCH  15  20
ENDBRANCH  13  14
ENDBRANCH  12  13
ENDBRANCH  11  12
ENDBRANCH  10  11
ENDBRANCH   9  10
ENDBRANCH   8   9
ENDBRANCH   7   8
ENDBRANCH   6   7
ENDBRANCH   5   6
ENDBRANCH   4   5
ENDBRANCH   2   4
ENDBRANCH   1   2
BRANCH   1  43
ATOM     43  C   UNL A   1      33.895  28.028  26.787  1.00  0.00     0.261 C 
BRANCH  43  44
ATOM     44  C   UNL A   1      33.896  29.560  26.924  1.00  0.00     0.202 C 
BRANCH  44  45
ATOM     45  O   UNL A   1      34.617  30.280  27.906  1.00  0.00    -0.376 OA
BRANCH  45  46
ATOM     46  C   UNL A   1      35.101  31.580  27.660  1.00  0.00     0.188 C 
BRANCH  46  47
ATOM     47  C   UNL A   1      34.238  32.795  28.033  1.00  0.00     0.188 C 
BRANCH  47  48
ATOM     48  O   UNL A   1      34.828  34.011  28.437  1.00  0.00    -0.377 OA
BRANCH  48  49
ATOM     49  C   UNL A   1      34.286  35.245  27.999  1.00  0.00     0.188 C 
BRANCH  49  50
ATOM     50  C   UNL A   1      33.687  36.272  28.983  1.00  0.00     0.188 C 
BRANCH  50  51
ATOM     51  O   UNL A   1      32.587  35.825  29.753  1.00  0.00    -0.376 OA
BRANCH  51  52
ATOM     52  C   UNL A   1      32.681  35.610  31.150  1.00  0.00     0.202 C 
BRANCH  52  53
ATOM     53  C   UNL A   1      34.022  35.220  31.773  1.00  0.00     0.261 C 
BRANCH  53  54
ATOM     54  O   UNL A   1      34.485  33.927  31.438  1.00  0.00    -0.460 OA
BRANCH  54  55
ATOM     55  C   UNL A   1      34.351  33.034  32.434  1.00  0.00     0.338 C 
ATOM     56  O   UNL A   1      33.465  32.988  33.271  1.00  0.00    -0.246 OA
BRANCH  55  57
ATOM     57  C   UNL A   1      35.557  32.212  32.489  1.00  0.00     0.060 A 
ATOM     58  C   UNL A   1      36.389  32.450  33.577  1.00  0.00     0.016 A 
ATOM     59  C   UNL A   1      36.008  31.594  31.311  1.00  0.00     0.016 A 
ATOM     60  C   UNL A   1      37.740  32.340  33.370  1.00  0.00     0.010 A 
ATOM     61  C   UNL A   1      37.360  31.483  31.108  1.00  0.00     0.010 A 
ATOM     62  C   UNL A   1      38.206  31.960  32.101  1.00  0.00    -0.014 A 
BRANCH  62  63
ATOM     63  C   UNL A   1      39.636  31.910  31.911  1.00  0.00     0.031 A 
ATOM     64  C   UNL A   1      40.180  30.658  32.464  1.00  0.00     0.074 A 
ATOM     65  C   UNL A   1      40.363  32.873  31.315  1.00  0.00     0.049 A 
ATOM     66  N   UNL A   1      40.806  30.542  33.585  1.00  0.00    -0.248 NA
ATOM     67  C   UNL A   1      39.766  29.380  31.864  1.00  0.00     0.031 C 
ATOM     68  C   UNL A   1      39.900  34.048  30.579  1.00  0.00     0.029 A 
ATOM     69  N   UNL A   1      41.718  32.960  31.200  1.00  0.00    -0.354 N 
ATOM     70  C   UNL A   1      41.085  29.191  33.708  1.00  0.00     0.074 A 
ATOM     71  C   UNL A   1      40.242  28.513  32.761  1.00  0.00     0.031 C 
ATOM     72  C   UNL A   1      40.941  34.593  29.904  1.00  0.00     0.029 A 
ATOM     73  C   UNL A   1      42.162  33.891  30.266  1.00  0.00     0.049 A 
ATOM     74  H   UNL A   1      42.333  32.407  31.735  1.00  0.00     0.167 HD
ATOM     75  C   UNL A   1      42.232  28.814  34.331  1.00  0.00     0.037 A 
ATOM     76  C   UNL A   1      43.435  34.014  29.803  1.00  0.00     0.037 A 
ATOM     77  C   UNL A   1      42.722  29.874  35.185  1.00  0.00     0.049 A 
ATOM     78  C   UNL A   1      44.330  33.405  30.822  1.00  0.00     0.074 A 
ATOM     79  C   UNL A   1      42.203  30.587  36.251  1.00  0.00     0.029 A 
ATOM     80  N   UNL A   1      43.779  30.618  34.723  1.00  0.00    -0.354 N 
ATOM     81  N   UNL A   1      44.537  33.926  31.998  1.00  0.00    -0.248 NA
ATOM     82  C   UNL A   1      44.607  31.981  30.711  1.00  0.00     0.031 C 
ATOM     83  C   UNL A   1      42.676  31.923  36.076  1.00  0.00     0.029 A 
ATOM     84  C   UNL A   1      43.522  31.941  34.968  1.00  0.00     0.049 A 
ATOM     85  H   UNL A   1      44.586  30.261  34.287  1.00  0.00     0.167 HD
ATOM     86  C   UNL A   1      44.488  32.845  32.864  1.00  0.00     0.074 A 
ATOM     87  C   UNL A   1      44.613  31.665  32.009  1.00  0.00     0.031 C 
ATOM     88  C   UNL A   1      44.044  33.005  34.145  1.00  0.00     0.037 A 
BRANCH  75  89
ATOM     89  C   UNL A   1      43.139  27.741  33.774  1.00  0.00     0.064 A 
ATOM     90  C   UNL A   1      43.526  27.833  32.424  1.00  0.00     0.173 A 
ATOM     91  C   UNL A   1      43.357  26.483  34.384  1.00  0.00     0.173 A 
ATOM     92  F   UNL A   1      43.345  28.972  31.740  1.00  0.00    -0.203 F 
ATOM     93  C   UNL A   1      43.992  26.723  31.716  1.00  0.00     0.198 A 
ATOM     94  C   UNL A   1      43.872  25.395  33.688  1.00  0.00     0.198 A 
ATOM     95  F   UNL A   1      42.975  26.206  35.635  1.00  0.00    -0.203 F 
ATOM     96  F   UNL A   1      44.202  26.820  30.397  1.00  0.00    -0.200 F 
ATOM     97  C   UNL A   1      44.155  25.503  32.346  1.00  0.00     0.200 A 
ATOM     98  F   UNL A   1      43.997  24.216  34.315  1.00  0.00    -0.200 F 
ATOM     99  F   UNL A   1      44.531  24.421  31.653  1.00  0.00    -0.200 F 
ENDBRANCH  75  89
BRANCH  76 100
ATOM    100  C   UNL A   1      43.901  34.256  28.411  1.00  0.00     0.064 A 
ATOM    101  C   UNL A   1      44.379  35.524  28.026  1.00  0.00     0.173 A 
ATOM    102  C   UNL A   1      44.188  33.194  27.533  1.00  0.00     0.173 A 
ATOM    103  F   UNL A   1      44.183  36.589  28.817  1.00  0.00    -0.203 F 
ATOM    104  C   UNL A   1      45.142  35.705  26.867  1.00  0.00     0.198 A 
ATOM    105  C   UNL A   1      44.945  33.378  26.374  1.00  0.00     0.198 A 
ATOM    106  F   UNL A   1      43.827  31.938  27.827  1.00  0.00    -0.203 F 
ATOM    107  F   UNL A   1      45.646  36.914  26.578  1.00  0.00    -0.200 F 
ATOM    108  C   UNL A   1      45.439  34.628  26.050  1.00  0.00     0.200 A 
ATOM    109  F   UNL A   1      45.252  32.321  25.608  1.00  0.00    -0.200 F 
ATOM    110  F   UNL A   1      46.232  34.784  24.980  1.00  0.00    -0.200 F 
ENDBRANCH  76 100
BRANCH  88 111
ATOM    111  C   UNL A   1      43.928  34.409  34.671  1.00  0.00     0.064 A 
ATOM    112  C   UNL A   1      42.810  35.243  34.497  1.00  0.00     0.173 A 
ATOM    113  C   UNL A   1      44.977  34.896  35.463  1.00  0.00     0.173 A 
ATOM    114  F   UNL A   1      41.721  34.815  33.843  1.00  0.00    -0.203 F 
ATOM    115  C   UNL A   1      42.778  36.529  35.037  1.00  0.00     0.198 A 
ATOM    116  C   UNL A   1      44.924  36.163  36.036  1.00  0.00     0.198 A 
ATOM    117  F   UNL A   1      46.048  34.125  35.709  1.00  0.00    -0.203 F 
ATOM    118  F   UNL A   1      41.715  37.320  34.832  1.00  0.00    -0.200 F 
ATOM    119  C   UNL A   1      43.835  36.986  35.808  1.00  0.00     0.200 A 
ATOM    120  F   UNL A   1      45.928  36.578  36.821  1.00  0.00    -0.200 F 
ATOM    121  F   UNL A   1      43.794  38.211  36.351  1.00  0.00    -0.200 F 
ENDBRANCH  88 111
ENDBRANCH  62  63
ENDBRANCH  55  57
ENDBRANCH  54  55
ENDBRANCH  53  54
ENDBRANCH  52  53
ENDBRANCH  51  52
ENDBRANCH  50  51
ENDBRANCH  49  50
ENDBRANCH  48  49
ENDBRANCH  47  48
ENDBRANCH  46  47
ENDBRANCH  45  46
ENDBRANCH  44  45
ENDBRANCH  43  44
ENDBRANCH   1  43
TORSDOF 35
ENDMDL
MODEL 2
REMARK VINA RESULT:      -8.9      2.116      6.010
REMARK SMILES NS(=O)(=O)c1ccc(-n2nc(NC(=O)NCCCCCCCCCCC(=O)OCCOCCOCCOCCOC(=O)c3ccc(-c4c5nc(c(-c6c(F)c(F)c(F)c(F)c6F)c6ccc([nH]6)c(-c6c(F)c(F)c(F)c(F)c6F)c6nc(c(-c7c(F)c(F)c(F)c(F)c7F)c7ccc4[nH]7)C=C6)C=C5)cc3)cc2-c2ccccc2)cc1
REMARK SMILES IDX 28 1 26 2 27 3 25 4 24 5 23 6 22 7 21 8 20 9 19 10 18 11
REMARK SMILES IDX 17 12 16 13 15 14 12 15 13 16 14 18 11 20 9 21 10 22 107 23
REMARK SMILES IDX 106 24 8 25 5 26 6 27 115 28 7 29 114 30 2 31 3 32 4 33 1 34
REMARK SMILES IDX 108 37 109 38 113 39 110 40 112 41 111 42 29 43 30 44 31 45
REMARK SMILES IDX 32 46 33 47 34 48 35 49 36 50 37 51 38 52 39 53 40 54 41 55
REMARK SMILES IDX 42 56 43 57 44 58 105 59 45 60 104 61 46 62 47 63 48 64
REMARK SMILES IDX 98 65 49 66 103 67 97 68 99 69 50 70 102 71 96 72 95 73
REMARK SMILES IDX 51 75 83 76 63 77 82 78 64 79 67 80 81 81 100 82 65 83 66 84
REMARK SMILES IDX 80 86 101 87 68 88 52 89 53 90 61 91 54 92 55 93 59 94 62 95
REMARK SMILES IDX 56 96 57 97 60 98 58 99 84 100 85 101 93 102 86 103 87 104
REMARK SMILES IDX 91 105 94 106 88 107 89 108 92 109 90 110 69 111 70 112
REMARK SMILES IDX 78 113 71 114 72 115 76 116 79 117 73 118 74 119 77 120
REMARK SMILES IDX 75 121
REMARK H PARENT 12 17 15 19 1 35 1 36 99 74 67 85
REMARK Flexibility Score: inf
ROOT
ATOM      1  O   UNL A   1      33.237  28.273  25.663  1.00  0.00    -0.463 OA
ENDROOT
BRANCH   1   2
ATOM      2  C   UNL A   1      32.455  27.255  26.082  1.00  0.00     0.305 C 
ATOM      3  O   UNL A   1      31.912  27.212  27.179  1.00  0.00    -0.252 OA
BRANCH   2   4
ATOM      4  C   UNL A   1      32.215  26.176  25.035  1.00  0.00     0.123 C 
BRANCH   4   5
ATOM      5  C   UNL A   1      33.295  25.192  24.575  1.00  0.00     0.012 C 
BRANCH   5   6
ATOM      6  C   UNL A   1      32.848  24.045  23.674  1.00  0.00     0.001 C 
BRANCH   6   7
ATOM      7  C   UNL A   1      34.022  23.476  22.895  1.00  0.00     0.000 C 
BRANCH   7   8
ATOM      8  C   UNL A   1      35.136  23.006  23.825  1.00  0.00     0.000 C 
BRANCH   8   9
ATOM      9  C   UNL A   1      34.781  21.727  24.587  1.00  0.00     0.000 C 
BRANCH   9  10
ATOM     10  C   UNL A   1      35.800  21.344  25.666  1.00  0.00     0.000 C 
BRANCH  10  11
ATOM     11  C   UNL A   1      37.184  20.982  25.113  1.00  0.00     0.002 C 
BRANCH  11  12
ATOM     12  C   UNL A   1      38.220  22.101  25.200  1.00  0.00     0.021 C 
BRANCH  12  13
ATOM     13  C   UNL A   1      39.359  21.824  26.159  1.00  0.00     0.117 C 
BRANCH  13  14
ATOM     14  N   UNL A   1      39.775  20.444  26.211  1.00  0.00    -0.338 N 
ATOM     15  N   UNL A   1      42.097  20.678  25.766  1.00  0.00    -0.291 N 
ATOM     16  C   UNL A   1      40.999  19.920  25.986  1.00  0.00     0.320 C 
ATOM     17  H   UNL A   1      42.819  20.215  25.280  1.00  0.00     0.173 HD
ATOM     18  O   UNL A   1      41.084  18.694  25.859  1.00  0.00    -0.248 OA
ATOM     19  H   UNL A   1      39.071  19.796  26.443  1.00  0.00     0.165 HD
BRANCH  15  20
ATOM     20  C   UNL A   1      42.387  21.982  26.104  1.00  0.00     0.157 A 
ATOM     21  N   UNL A   1      43.376  23.853  26.131  1.00  0.00    -0.231 N 
ATOM     22  N   UNL A   1      42.917  22.900  25.292  1.00  0.00    -0.149 NA
ATOM     23  C   UNL A   1      42.729  23.790  27.359  1.00  0.00     0.076 A 
ATOM     24  C   UNL A   1      42.128  22.544  27.376  1.00  0.00     0.078 A 
BRANCH  21  25
ATOM     25  C   UNL A   1      44.445  24.712  25.743  1.00  0.00     0.065 A 
ATOM     26  C   UNL A   1      46.497  26.368  24.832  1.00  0.00     0.082 A 
ATOM     27  C   UNL A   1      45.220  26.897  25.032  1.00  0.00     0.024 A 
ATOM     28  C   UNL A   1      46.769  25.030  25.138  1.00  0.00     0.024 A 
ATOM     29  C   UNL A   1      44.193  26.067  25.478  1.00  0.00     0.030 A 
ATOM     30  C   UNL A   1      45.744  24.204  25.619  1.00  0.00     0.030 A 
BRANCH  26  31
ATOM     31  S   UNL A   1      47.745  27.451  24.206  1.00  0.00     0.238 S 
ATOM     32  O   UNL A   1      48.829  26.659  23.691  1.00  0.00    -0.207 OA
ATOM     33  O   UNL A   1      47.937  28.520  25.166  1.00  0.00    -0.207 OA
BRANCH  31  34
ATOM     34  N   UNL A   1      47.052  28.173  22.855  1.00  0.00    -0.225 NA
ATOM     35  H   UNL A   1      46.049  28.281  23.005  1.00  0.00     0.137 HD
ATOM     36  H   UNL A   1      47.213  27.586  22.036  1.00  0.00     0.137 HD
ENDBRANCH  31  34
ENDBRANCH  26  31
ENDBRANCH  21  25
BRANCH  23  37
ATOM     37  C   UNL A   1      42.738  24.877  28.333  1.00  0.00     0.000 A 
ATOM     38  C   UNL A   1      41.670  25.789  28.352  1.00  0.00     0.010 A 
ATOM     39  C   UNL A   1      43.816  25.072  29.201  1.00  0.00     0.010 A 
ATOM     40  C   UNL A   1      41.699  26.905  29.181  1.00  0.00     0.001 A 
ATOM     41  C   UNL A   1      43.838  26.188  30.042  1.00  0.00     0.001 A 
ATOM     42  C   UNL A   1      42.788  27.106  30.025  1.00  0.00     0.000 A 
ENDBRANCH  23  37
ENDBRANCH  15  20
ENDBRANCH  13  14
ENDBRANCH  12  13
ENDBRANCH  11  12
ENDBRANCH  10  11
ENDBRANCH   9  10
ENDBRANCH   8   9
ENDBRANCH   7   8
ENDBRANCH   6   7
ENDBRANCH   5   6
ENDBRANCH   4   5
ENDBRANCH   2   4
ENDBRANCH   1   2
BRANCH   1  43
ATOM     43  C   UNL A   1      34.251  28.745  26.555  1.00  0.00     0.261 C 
BRANCH  43  44
ATOM     44  C   UNL A   1      34.113  30.197  27.042  1.00  0.00     0.202 C 
BRANCH  44  45
ATOM     45  O   UNL A   1      34.901  30.784  28.060  1.00  0.00    -0.376 OA
BRANCH  45  46
ATOM     46  C   UNL A   1      35.282  32.140  28.009  1.00  0.00     0.188 C 
BRANCH  46  47
ATOM     47  C   UNL A   1      34.718  33.127  29.041  1.00  0.00     0.188 C 
BRANCH  47  48
ATOM     48  O   UNL A   1      34.949  34.513  28.926  1.00  0.00    -0.377 OA
BRANCH  48  49
ATOM     49  C   UNL A   1      33.930  35.366  28.433  1.00  0.00     0.188 C 
BRANCH  49  50
ATOM     50  C   UNL A   1      33.316  36.492  29.292  1.00  0.00     0.188 C 
BRANCH  50  51
ATOM     51  O   UNL A   1      32.310  36.095  30.206  1.00  0.00    -0.376 OA
BRANCH  51  52
ATOM     52  C   UNL A   1      32.561  35.963  31.594  1.00  0.00     0.202 C 
BRANCH  52  53
ATOM     53  C   UNL A   1      33.994  36.043  32.121  1.00  0.00     0.261 C 
BRANCH  53  54
ATOM     54  O   UNL A   1      34.718  34.829  32.076  1.00  0.00    -0.460 OA
BRANCH  54  55
ATOM     55  C   UNL A   1      35.297  34.505  33.246  1.00  0.00     0.338 C 
ATOM     56  O   UNL A   1      35.071  34.990  34.341  1.00  0.00    -0.246 OA
BRANCH  55  57
ATOM     57  C   UNL A   1      36.407  33.593  32.979  1.00  0.00     0.060 A 
ATOM     58  C   UNL A   1      36.349  32.376  33.648  1.00  0.00     0.016 A 
ATOM     59  C   UNL A   1      37.602  34.117  32.459  1.00  0.00     0.016 A 
ATOM     60  C   UNL A   1      37.537  31.827  34.057  1.00  0.00     0.010 A 
ATOM     61  C   UNL A   1      38.789  33.564  32.868  1.00  0.00     0.010 A 
ATOM     62  C   UNL A   1      38.735  32.492  33.750  1.00  0.00    -0.014 A 
BRANCH  62  63
ATOM     63  C   UNL A   1      39.959  31.909  34.247  1.00  0.00     0.031 A 
ATOM     64  C   UNL A   1      40.424  32.638  35.440  1.00  0.00     0.074 A 
ATOM     65  C   UNL A   1      40.582  30.852  33.694  1.00  0.00     0.049 A 
ATOM     66  N   UNL A   1      41.384  33.497  35.467  1.00  0.00    -0.248 NA
ATOM     67  C   UNL A   1      39.587  32.622  36.649  1.00  0.00     0.031 C 
ATOM     68  C   UNL A   1      40.110  29.959  32.637  1.00  0.00     0.029 A 
ATOM     69  N   UNL A   1      41.790  30.316  34.024  1.00  0.00    -0.354 N 
ATOM     70  C   UNL A   1      41.431  33.948  36.776  1.00  0.00     0.074 A 
ATOM     71  C   UNL A   1      40.188  33.560  37.386  1.00  0.00     0.031 C 
ATOM     72  C   UNL A   1      40.912  28.868  32.581  1.00  0.00     0.029 A 
ATOM     73  C   UNL A   1      42.026  29.050  33.498  1.00  0.00     0.049 A 
ATOM     74  H   UNL A   1      42.444  30.788  34.590  1.00  0.00     0.167 HD
ATOM     75  C   UNL A   1      42.634  34.285  37.309  1.00  0.00     0.037 A 
ATOM     76  C   UNL A   1      43.038  28.213  33.851  1.00  0.00     0.037 A 
ATOM     77  C   UNL A   1      43.593  34.576  36.265  1.00  0.00     0.049 A 
ATOM     78  C   UNL A   1      44.115  29.055  34.438  1.00  0.00     0.074 A 
ATOM     79  C   UNL A   1      43.645  35.468  35.208  1.00  0.00     0.029 A 
ATOM     80  N   UNL A   1      44.525  33.610  35.979  1.00  0.00    -0.354 N 
ATOM     81  N   UNL A   1      44.833  29.890  33.741  1.00  0.00    -0.248 NA
ATOM     82  C   UNL A   1      44.060  29.319  35.868  1.00  0.00     0.031 C 
ATOM     83  C   UNL A   1      44.262  34.749  34.139  1.00  0.00     0.029 A 
ATOM     84  C   UNL A   1      44.628  33.492  34.618  1.00  0.00     0.049 A 
ATOM     85  H   UNL A   1      45.033  33.087  36.641  1.00  0.00     0.167 HD
ATOM     86  C   UNL A   1      44.904  31.024  34.534  1.00  0.00     0.074 A 
ATOM     87  C   UNL A   1      44.484  30.586  35.865  1.00  0.00     0.031 C 
ATOM     88  C   UNL A   1      45.000  32.261  33.965  1.00  0.00     0.037 A 
BRANCH  75  89
ATOM     89  C   UNL A   1      43.055  33.849  38.694  1.00  0.00     0.064 A 
ATOM     90  C   UNL A   1      43.666  34.800  39.533  1.00  0.00     0.173 A 
ATOM     91  C   UNL A   1      43.201  32.501  39.096  1.00  0.00     0.173 A 
ATOM     92  F   UNL A   1      43.609  36.106  39.236  1.00  0.00    -0.203 F 
ATOM     93  C   UNL A   1      44.448  34.421  40.626  1.00  0.00     0.198 A 
ATOM     94  C   UNL A   1      43.937  32.131  40.217  1.00  0.00     0.198 A 
ATOM     95  F   UNL A   1      42.750  31.473  38.371  1.00  0.00    -0.203 F 
ATOM     96  F   UNL A   1      45.133  35.351  41.304  1.00  0.00    -0.200 F 
ATOM     97  C   UNL A   1      44.592  33.087  40.961  1.00  0.00     0.200 A 
ATOM     98  F   UNL A   1      44.082  30.830  40.507  1.00  0.00    -0.200 F 
ATOM     99  F   UNL A   1      45.399  32.717  41.962  1.00  0.00    -0.200 F 
ENDBRANCH  75  89
BRANCH  76 100
ATOM    100  C   UNL A   1      42.997  26.744  34.078  1.00  0.00     0.064 A 
ATOM    101  C   UNL A   1      44.060  25.922  33.653  1.00  0.00     0.173 A 
ATOM    102  C   UNL A   1      42.090  26.161  34.983  1.00  0.00     0.173 A 
ATOM    103  F   UNL A   1      44.993  26.403  32.818  1.00  0.00    -0.203 F 
ATOM    104  C   UNL A   1      44.234  24.624  34.146  1.00  0.00     0.198 A 
ATOM    105  C   UNL A   1      42.262  24.863  35.469  1.00  0.00     0.198 A 
ATOM    106  F   UNL A   1      41.073  26.868  35.493  1.00  0.00    -0.203 F 
ATOM    107  F   UNL A   1      45.304  23.905  33.777  1.00  0.00    -0.200 F 
ATOM    108  C   UNL A   1      43.344  24.102  35.067  1.00  0.00     0.200 A 
ATOM    109  F   UNL A   1      41.410  24.380  36.385  1.00  0.00    -0.200 F 
ATOM    110  F   UNL A   1      43.549  22.887  35.597  1.00  0.00    -0.200 F 
ENDBRANCH  76 100
BRANCH  88 111
ATOM    111  C   UNL A   1      45.351  32.329  32.504  1.00  0.00     0.064 A 
ATOM    112  C   UNL A   1      46.659  32.305  31.989  1.00  0.00     0.173 A 
ATOM    113  C   UNL A   1      44.296  32.333  31.580  1.00  0.00     0.173 A 
ATOM    114  F   UNL A   1      47.721  32.195  32.800  1.00  0.00    -0.203 F 
ATOM    115  C   UNL A   1      46.894  32.352  30.615  1.00  0.00     0.198 A 
ATOM    116  C   UNL A   1      44.533  32.337  30.210  1.00  0.00     0.198 A 
ATOM    117  F   UNL A   1      43.025  32.301  32.012  1.00  0.00    -0.203 F 
ATOM    118  F   UNL A   1      48.151  32.362  30.146  1.00  0.00    -0.200 F 
ATOM    119  C   UNL A   1      45.830  32.365  29.727  1.00  0.00     0.200 A 
ATOM    120  F   UNL A   1      43.500  32.299  29.358  1.00  0.00    -0.200 F 
ATOM    121  F   UNL A   1      46.054  32.382  28.406  1.00  0.00    -0.200 F 
ENDBRANCH  88 111
ENDBRANCH  62  63
ENDBRANCH  55  57
ENDBRANCH  54  55
ENDBRANCH  53  54
ENDBRANCH  52  53
ENDBRANCH  51  52
ENDBRANCH  50  51
ENDBRANCH  49  50
ENDBRANCH  48  49
ENDBRANCH  47  48
ENDBRANCH  46  47
ENDBRANCH  45  46
ENDBRANCH  44  45
ENDBRANCH  43  44
ENDBRANCH   1  43
TORSDOF 35
ENDMDL
MODEL 3
REMARK VINA RESULT:      -8.7      2.533      6.388
REMARK SMILES NS(=O)(=O)c1ccc(-n2nc(NC(=O)NCCCCCCCCCCC(=O)OCCOCCOCCOCCOC(=O)c3ccc(-c4c5nc(c(-c6c(F)c(F)c(F)c(F)c6F)c6ccc([nH]6)c(-c6c(F)c(F)c(F)c(F)c6F)c6nc(c(-c7c(F)c(F)c(F)c(F)c7F)c7ccc4[nH]7)C=C6)C=C5)cc3)cc2-c2ccccc2)cc1
REMARK SMILES IDX 28 1 26 2 27 3 25 4 24 5 23 6 22 7 21 8 20 9 19 10 18 11
REMARK SMILES IDX 17 12 16 13 15 14 12 15 13 16 14 18 11 20 9 21 10 22 107 23
REMARK SMILES IDX 106 24 8 25 5 26 6 27 115 28 7 29 114 30 2 31 3 32 4 33 1 34
REMARK SMILES IDX 108 37 109 38 113 39 110 40 112 41 111 42 29 43 30 44 31 45
REMARK SMILES IDX 32 46 33 47 34 48 35 49 36 50 37 51 38 52 39 53 40 54 41 55
REMARK SMILES IDX 42 56 43 57 44 58 105 59 45 60 104 61 46 62 47 63 48 64
REMARK SMILES IDX 98 65 49 66 103 67 97 68 99 69 50 70 102 71 96 72 95 73
REMARK SMILES IDX 51 75 83 76 63 77 82 78 64 79 67 80 81 81 100 82 65 83 66 84
REMARK SMILES IDX 80 86 101 87 68 88 52 89 53 90 61 91 54 92 55 93 59 94 62 95
REMARK SMILES IDX 56 96 57 97 60 98 58 99 84 100 85 101 93 102 86 103 87 104
REMARK SMILES IDX 91 105 94 106 88 107 89 108 92 109 90 110 69 111 70 112
REMARK SMILES IDX 78 113 71 114 72 115 76 116 79 117 73 118 74 119 77 120
REMARK SMILES IDX 75 121
REMARK H PARENT 12 17 15 19 1 35 1 36 99 74 67 85
REMARK Flexibility Score: inf
ROOT
ATOM      1  O   UNL A   1      33.376  28.412  25.683  1.00  0.00    -0.463 OA
ENDROOT
BRANCH   1   2
ATOM      2  C   UNL A   1      32.616  27.330  25.952  1.00  0.00     0.305 C 
ATOM      3  O   UNL A   1      31.925  27.209  26.957  1.00  0.00    -0.252 OA
BRANCH   2   4
ATOM      4  C   UNL A   1      32.605  26.281  24.850  1.00  0.00     0.123 C 
BRANCH   4   5
ATOM      5  C   UNL A   1      33.792  25.361  24.549  1.00  0.00     0.012 C 
BRANCH   5   6
ATOM      6  C   UNL A   1      33.599  24.317  23.454  1.00  0.00     0.001 C 
BRANCH   6   7
ATOM      7  C   UNL A   1      34.912  23.627  23.121  1.00  0.00     0.000 C 
BRANCH   7   8
ATOM      8  C   UNL A   1      35.635  23.162  24.381  1.00  0.00     0.000 C 
BRANCH   8   9
ATOM      9  C   UNL A   1      35.669  21.637  24.524  1.00  0.00     0.000 C 
BRANCH   9  10
ATOM     10  C   UNL A   1      36.582  21.141  25.650  1.00  0.00     0.000 C 
BRANCH  10  11
ATOM     11  C   UNL A   1      38.068  21.097  25.273  1.00  0.00     0.002 C 
BRANCH  11  12
ATOM     12  C   UNL A   1      38.904  22.245  25.835  1.00  0.00     0.021 C 
BRANCH  12  13
ATOM     13  C   UNL A   1      40.049  21.805  26.724  1.00  0.00     0.117 C 
BRANCH  13  14
ATOM     14  N   UNL A   1      40.445  20.429  26.555  1.00  0.00    -0.338 N 
ATOM     15  N   UNL A   1      42.676  20.713  25.788  1.00  0.00    -0.291 N 
ATOM     16  C   UNL A   1      41.611  19.934  26.086  1.00  0.00     0.320 C 
ATOM     17  H   UNL A   1      43.306  20.309  25.148  1.00  0.00     0.173 HD
ATOM     18  O   UNL A   1      41.654  18.731  25.810  1.00  0.00    -0.248 OA
ATOM     19  H   UNL A   1      39.773  19.759  26.817  1.00  0.00     0.165 HD
BRANCH  15  20
ATOM     20  C   UNL A   1      43.036  21.970  26.223  1.00  0.00     0.157 A 
ATOM     21  N   UNL A   1      42.846  23.954  26.935  1.00  0.00    -0.231 N 
ATOM     22  N   UNL A   1      42.378  22.703  27.126  1.00  0.00    -0.149 NA
ATOM     23  C   UNL A   1      44.084  23.933  26.304  1.00  0.00     0.076 A 
ATOM     24  C   UNL A   1      44.191  22.656  25.783  1.00  0.00     0.078 A 
BRANCH  21  25
ATOM     25  C   UNL A   1      42.061  25.088  27.293  1.00  0.00     0.065 A 
ATOM     26  C   UNL A   1      40.635  27.399  27.933  1.00  0.00     0.082 A 
ATOM     27  C   UNL A   1      40.491  26.828  26.667  1.00  0.00     0.024 A 
ATOM     28  C   UNL A   1      41.443  26.791  28.901  1.00  0.00     0.024 A 
ATOM     29  C   UNL A   1      41.211  25.679  26.344  1.00  0.00     0.030 A 
ATOM     30  C   UNL A   1      42.140  25.617  28.587  1.00  0.00     0.030 A 
BRANCH  26  31
ATOM     31  S   UNL A   1      39.748  28.891  28.266  1.00  0.00     0.238 S 
ATOM     32  O   UNL A   1      39.196  29.386  27.034  1.00  0.00    -0.207 OA
ATOM     33  O   UNL A   1      40.553  29.706  29.153  1.00  0.00    -0.207 OA
BRANCH  31  34
ATOM     34  N   UNL A   1      38.419  28.408  29.175  1.00  0.00    -0.225 NA
ATOM     35  H   UNL A   1      38.427  27.393  29.276  1.00  0.00     0.137 HD
ATOM     36  H   UNL A   1      37.561  28.696  28.703  1.00  0.00     0.137 HD
ENDBRANCH  31  34
ENDBRANCH  26  31
ENDBRANCH  21  25
BRANCH  23  37
ATOM     37  C   UNL A   1      44.997  25.072  26.280  1.00  0.00     0.000 A 
ATOM     38  C   UNL A   1      45.349  25.641  25.044  1.00  0.00     0.010 A 
ATOM     39  C   UNL A   1      45.582  25.566  27.449  1.00  0.00     0.010 A 
ATOM     40  C   UNL A   1      46.306  26.647  24.969  1.00  0.00     0.001 A 
ATOM     41  C   UNL A   1      46.534  26.585  27.372  1.00  0.00     0.001 A 
ATOM     42  C   UNL A   1      46.903  27.117  26.136  1.00  0.00     0.000 A 
ENDBRANCH  23  37
ENDBRANCH  15  20
ENDBRANCH  13  14
ENDBRANCH  12  13
ENDBRANCH  11  12
ENDBRANCH  10  11
ENDBRANCH   9  10
ENDBRANCH   8   9
ENDBRANCH   7   8
ENDBRANCH   6   7
ENDBRANCH   5   6
ENDBRANCH   4   5
ENDBRANCH   2   4
ENDBRANCH   1   2
BRANCH   1  43
ATOM     43  C   UNL A   1      34.290  28.854  26.692  1.00  0.00     0.261 C 
BRANCH  43  44
ATOM     44  C   UNL A   1      34.142  30.311  27.159  1.00  0.00     0.202 C 
BRANCH  44  45
ATOM     45  O   UNL A   1      34.814  30.874  28.270  1.00  0.00    -0.376 OA
BRANCH  45  46
ATOM     46  C   UNL A   1      35.343  32.179  28.229  1.00  0.00     0.188 C 
BRANCH  46  47
ATOM     47  C   UNL A   1      34.675  33.295  29.046  1.00  0.00     0.188 C 
BRANCH  47  48
ATOM     48  O   UNL A   1      35.011  34.649  28.840  1.00  0.00    -0.377 OA
BRANCH  48  49
ATOM     49  C   UNL A   1      34.051  35.548  28.311  1.00  0.00     0.188 C 
BRANCH  49  50
ATOM     50  C   UNL A   1      33.379  36.633  29.179  1.00  0.00     0.188 C 
BRANCH  50  51
ATOM     51  O   UNL A   1      32.328  36.193  30.019  1.00  0.00    -0.376 OA
BRANCH  51  52
ATOM     52  C   UNL A   1      32.497  36.024  31.416  1.00  0.00     0.202 C 
BRANCH  52  53
ATOM     53  C   UNL A   1      33.896  36.098  32.028  1.00  0.00     0.261 C 
BRANCH  53  54
ATOM     54  O   UNL A   1      34.584  34.865  32.101  1.00  0.00    -0.460 OA
BRANCH  54  55
ATOM     55  C   UNL A   1      35.321  34.726  33.217  1.00  0.00     0.338 C 
ATOM     56  O   UNL A   1      35.217  35.357  34.255  1.00  0.00    -0.246 OA
BRANCH  55  57
ATOM     57  C   UNL A   1      36.426  33.812  32.934  1.00  0.00     0.060 A 
ATOM     58  C   UNL A   1      36.351  32.576  33.568  1.00  0.00     0.016 A 
ATOM     59  C   UNL A   1      37.630  34.340  32.441  1.00  0.00     0.016 A 
ATOM     60  C   UNL A   1      37.530  32.006  33.972  1.00  0.00     0.010 A 
ATOM     61  C   UNL A   1      38.808  33.765  32.845  1.00  0.00     0.010 A 
ATOM     62  C   UNL A   1      38.737  32.669  33.696  1.00  0.00    -0.014 A 
BRANCH  62  63
ATOM     63  C   UNL A   1      39.951  32.061  34.187  1.00  0.00     0.031 A 
ATOM     64  C   UNL A   1      40.441  32.786  35.372  1.00  0.00     0.074 A 
ATOM     65  C   UNL A   1      40.546  30.987  33.636  1.00  0.00     0.049 A 
ATOM     66  N   UNL A   1      41.421  33.624  35.387  1.00  0.00    -0.248 NA
ATOM     67  C   UNL A   1      39.614  32.796  36.588  1.00  0.00     0.031 C 
ATOM     68  C   UNL A   1      40.045  30.099  32.588  1.00  0.00     0.029 A 
ATOM     69  N   UNL A   1      41.744  30.426  33.960  1.00  0.00    -0.354 N 
ATOM     70  C   UNL A   1      41.488  34.081  36.693  1.00  0.00     0.074 A 
ATOM     71  C   UNL A   1      40.241  33.725  37.314  1.00  0.00     0.031 C 
ATOM     72  C   UNL A   1      40.822  28.990  32.533  1.00  0.00     0.029 A 
ATOM     73  C   UNL A   1      41.947  29.152  33.440  1.00  0.00     0.049 A 
ATOM     74  H   UNL A   1      42.413  30.886  34.519  1.00  0.00     0.167 HD
ATOM     75  C   UNL A   1      42.702  34.394  37.215  1.00  0.00     0.037 A 
ATOM     76  C   UNL A   1      42.943  28.294  33.791  1.00  0.00     0.037 A 
ATOM     77  C   UNL A   1      43.660  34.656  36.163  1.00  0.00     0.049 A 
ATOM     78  C   UNL A   1      44.043  29.114  34.365  1.00  0.00     0.074 A 
ATOM     79  C   UNL A   1      43.724  35.541  35.100  1.00  0.00     0.029 A 
ATOM     80  N   UNL A   1      44.567  33.668  35.875  1.00  0.00    -0.354 N 
ATOM     81  N   UNL A   1      44.774  29.929  33.657  1.00  0.00    -0.248 NA
ATOM     82  C   UNL A   1      44.004  29.388  35.793  1.00  0.00     0.031 C 
ATOM     83  C   UNL A   1      44.316  34.802  34.031  1.00  0.00     0.029 A 
ATOM     84  C   UNL A   1      44.658  33.540  34.515  1.00  0.00     0.049 A 
ATOM     85  H   UNL A   1      45.068  33.138  36.536  1.00  0.00     0.167 HD
ATOM     86  C   UNL A   1      44.877  31.066  34.443  1.00  0.00     0.074 A 
ATOM     87  C   UNL A   1      44.457  30.645  35.779  1.00  0.00     0.031 C 
ATOM     88  C   UNL A   1      44.997  32.297  33.866  1.00  0.00     0.037 A 
BRANCH  75  89
ATOM     89  C   UNL A   1      43.124  33.956  38.599  1.00  0.00     0.064 A 
ATOM     90  C   UNL A   1      43.805  34.883  39.411  1.00  0.00     0.173 A 
ATOM     91  C   UNL A   1      43.198  32.609  39.022  1.00  0.00     0.173 A 
ATOM     92  F   UNL A   1      43.820  36.186  39.091  1.00  0.00    -0.203 F 
ATOM     93  C   UNL A   1      44.585  34.476  40.495  1.00  0.00     0.198 A 
ATOM     94  C   UNL A   1      43.933  32.215  40.136  1.00  0.00     0.198 A 
ATOM     95  F   UNL A   1      42.673  31.597  38.324  1.00  0.00    -0.203 F 
ATOM     96  F   UNL A   1      45.336  35.376  41.144  1.00  0.00    -0.200 F 
ATOM     97  C   UNL A   1      44.656  33.142  40.851  1.00  0.00     0.200 A 
ATOM     98  F   UNL A   1      44.007  30.912  40.446  1.00  0.00    -0.200 F 
ATOM     99  F   UNL A   1      45.460  32.742  41.844  1.00  0.00    -0.200 F 
ENDBRANCH  75  89
BRANCH  76 100
ATOM    100  C   UNL A   1      42.870  26.827  34.027  1.00  0.00     0.064 A 
ATOM    101  C   UNL A   1      43.802  25.957  33.427  1.00  0.00     0.173 A 
ATOM    102  C   UNL A   1      42.106  26.285  35.078  1.00  0.00     0.173 A 
ATOM    103  F   UNL A   1      44.598  26.396  32.441  1.00  0.00    -0.203 F 
ATOM    104  C   UNL A   1      43.995  24.650  33.887  1.00  0.00     0.198 A 
ATOM    105  C   UNL A   1      42.296  24.978  35.531  1.00  0.00     0.198 A 
ATOM    106  F   UNL A   1      41.229  27.038  35.753  1.00  0.00    -0.203 F 
ATOM    107  F   UNL A   1      44.949  23.881  33.340  1.00  0.00    -0.200 F 
ATOM    108  C   UNL A   1      43.254  24.167  34.951  1.00  0.00     0.200 A 
ATOM    109  F   UNL A   1      41.594  24.532  36.583  1.00  0.00    -0.200 F 
ATOM    110  F   UNL A   1      43.488  22.941  35.442  1.00  0.00    -0.200 F 
ENDBRANCH  76 100
BRANCH  88 111
ATOM    111  C   UNL A   1      45.338  32.348  32.402  1.00  0.00     0.064 A 
ATOM    112  C   UNL A   1      44.400  32.304  31.356  1.00  0.00     0.173 A 
ATOM    113  C   UNL A   1      46.683  32.537  32.053  1.00  0.00     0.173 A 
ATOM    114  F   UNL A   1      43.085  32.232  31.607  1.00  0.00    -0.203 F 
ATOM    115  C   UNL A   1      44.802  32.377  30.022  1.00  0.00     0.198 A 
ATOM    116  C   UNL A   1      47.076  32.652  30.724  1.00  0.00     0.198 A 
ATOM    117  F   UNL A   1      47.617  32.641  33.010  1.00  0.00    -0.203 F 
ATOM    118  F   UNL A   1      43.893  32.300  29.038  1.00  0.00    -0.200 F 
ATOM    119  C   UNL A   1      46.140  32.555  29.708  1.00  0.00     0.200 A 
ATOM    120  F   UNL A   1      48.365  32.873  30.430  1.00  0.00    -0.200 F 
ATOM    121  F   UNL A   1      46.525  32.653  28.428  1.00  0.00    -0.200 F 
ENDBRANCH  88 111
ENDBRANCH  62  63
ENDBRANCH  55  57
ENDBRANCH  54  55
ENDBRANCH  53  54
ENDBRANCH  52  53
ENDBRANCH  51  52
ENDBRANCH  50  51
ENDBRANCH  49  50
ENDBRANCH  48  49
ENDBRANCH  47  48
ENDBRANCH  46  47
ENDBRANCH  45  46
ENDBRANCH  44  45
ENDBRANCH  43  44
ENDBRANCH   1  43
TORSDOF 35
ENDMDL
