MODEL 1
REMARK VINA RESULT:     -10.8      0.000      0.000
REMARK SMILES O=C(OCCOCCOCCOCCOC(=O)c1ccc(S(=O)(=O)Cc2ncccn2)c(F)c1)c1ccc(-c2c3nc(c(-c4c(F)c(F)c(F)c(F)c4F)c4ccc([nH]4)c(-c4c(F)c(F)c(F)c(F)c4F)c4nc(c(-c5c(F)c(F)c(F)c(F)c5F)c5ccc2[nH]5)C=C4)C=C3)cc1
REMARK SMILES IDX 10 1 9 2 8 3 7 4 6 5 5 6 4 7 3 8 2 9 1 10 35 11 36 12 97 13
REMARK SMILES IDX 37 14 96 15 38 16 39 17 40 18 90 19 41 20 95 21 89 22 91 23
REMARK SMILES IDX 42 24 94 25 88 26 87 27 43 29 75 30 55 31 74 32 56 33 59 34
REMARK SMILES IDX 73 35 92 36 57 37 58 38 72 40 93 41 60 42 44 43 45 44 53 45
REMARK SMILES IDX 46 46 47 47 51 48 54 49 48 50 49 51 52 52 50 53 76 54 77 55
REMARK SMILES IDX 85 56 78 57 79 58 83 59 86 60 80 61 81 62 84 63 82 64 61 65
REMARK SMILES IDX 62 66 70 67 63 68 64 69 68 70 71 71 65 72 66 73 69 74 67 75
REMARK SMILES IDX 11 76 12 77 13 78 14 79 15 80 16 81 17 82 18 83 19 84 34 85
REMARK SMILES IDX 20 86 32 87 21 88 33 89 22 90 23 91 24 92 25 93 26 94 27 95
REMARK SMILES IDX 31 96 28 97 30 98 29 99
REMARK H PARENT 91 28 59 39
REMARK Flexibility Score: inf
ROOT
ATOM      1  C   UNL A   1      33.610  27.289  22.394  1.00  0.00     0.188 C 
ENDROOT
BRANCH   1   2
ATOM      2  O   UNL A   1      33.373  26.124  23.173  1.00  0.00    -0.377 OA
BRANCH   2   3
ATOM      3  C   UNL A   1      33.966  24.917  22.705  1.00  0.00     0.188 C 
BRANCH   3   4
ATOM      4  C   UNL A   1      34.890  24.229  23.708  1.00  0.00     0.188 C 
BRANCH   4   5
ATOM      5  O   UNL A   1      35.720  23.250  23.069  1.00  0.00    -0.376 OA
BRANCH   5   6
ATOM      6  C   UNL A   1      36.939  22.953  23.755  1.00  0.00     0.202 C 
BRANCH   6   7
ATOM      7  C   UNL A   1      37.037  21.522  24.288  1.00  0.00     0.261 C 
BRANCH   7   8
ATOM      8  O   UNL A   1      37.549  21.465  25.626  1.00  0.00    -0.460 OA
BRANCH   8   9
ATOM      9  C   UNL A   1      38.811  21.714  26.057  1.00  0.00     0.338 C 
ATOM     10  O   UNL A   1      39.642  20.812  25.948  1.00  0.00    -0.246 OA
BRANCH   9  11
ATOM     11  C   UNL A   1      39.274  23.013  26.652  1.00  0.00     0.060 A 
ATOM     12  C   UNL A   1      38.686  24.263  26.457  1.00  0.00     0.016 A 
ATOM     13  C   UNL A   1      40.402  22.951  27.492  1.00  0.00     0.016 A 
ATOM     14  C   UNL A   1      39.246  25.422  26.971  1.00  0.00     0.010 A 
ATOM     15  C   UNL A   1      40.973  24.111  28.028  1.00  0.00     0.010 A 
ATOM     16  C   UNL A   1      40.422  25.353  27.708  1.00  0.00    -0.014 A 
BRANCH  16  17
ATOM     17  C   UNL A   1      41.178  26.607  27.852  1.00  0.00     0.031 A 
ATOM     18  C   UNL A   1      40.563  27.678  28.706  1.00  0.00     0.074 A 
ATOM     19  C   UNL A   1      42.451  26.680  27.429  1.00  0.00     0.049 A 
ATOM     20  N   UNL A   1      41.021  28.856  29.023  1.00  0.00    -0.248 NA
ATOM     21  C   UNL A   1      39.256  27.360  29.312  1.00  0.00     0.031 C 
ATOM     22  C   UNL A   1      43.173  25.602  26.753  1.00  0.00     0.029 A 
ATOM     23  N   UNL A   1      43.375  27.681  27.554  1.00  0.00    -0.354 N 
ATOM     24  C   UNL A   1      40.052  29.424  29.840  1.00  0.00     0.074 A 
ATOM     25  C   UNL A   1      38.977  28.472  29.970  1.00  0.00     0.031 C 
ATOM     26  C   UNL A   1      44.441  25.992  26.545  1.00  0.00     0.029 A 
ATOM     27  C   UNL A   1      44.597  27.366  27.015  1.00  0.00     0.049 A 
ATOM     28  H   UNL A   1      43.182  28.543  27.990  1.00  0.00     0.167 HD
ATOM     29  C   UNL A   1      40.067  30.642  30.425  1.00  0.00     0.037 A 
ATOM     30  C   UNL A   1      45.702  28.126  26.897  1.00  0.00     0.037 A 
ATOM     31  C   UNL A   1      41.157  31.564  30.271  1.00  0.00     0.049 A 
ATOM     32  C   UNL A   1      45.654  29.524  27.455  1.00  0.00     0.074 A 
ATOM     33  C   UNL A   1      41.259  32.868  30.711  1.00  0.00     0.029 A 
ATOM     34  N   UNL A   1      42.345  31.258  29.619  1.00  0.00    -0.354 N 
ATOM     35  N   UNL A   1      44.689  30.112  28.124  1.00  0.00    -0.248 NA
ATOM     36  C   UNL A   1      46.833  30.368  27.234  1.00  0.00     0.031 C 
ATOM     37  C   UNL A   1      42.495  33.366  30.286  1.00  0.00     0.029 A 
ATOM     38  C   UNL A   1      43.188  32.353  29.637  1.00  0.00     0.049 A 
ATOM     39  H   UNL A   1      42.556  30.389  29.206  1.00  0.00     0.167 HD
ATOM     40  C   UNL A   1      45.145  31.387  28.420  1.00  0.00     0.074 A 
ATOM     41  C   UNL A   1      46.484  31.483  27.866  1.00  0.00     0.031 C 
ATOM     42  C   UNL A   1      44.520  32.392  29.083  1.00  0.00     0.037 A 
BRANCH  29  43
ATOM     43  C   UNL A   1      38.845  31.048  31.195  1.00  0.00     0.064 A 
ATOM     44  C   UNL A   1      38.788  30.839  32.582  1.00  0.00     0.173 A 
ATOM     45  C   UNL A   1      37.754  31.684  30.584  1.00  0.00     0.173 A 
ATOM     46  F   UNL A   1      39.809  30.248  33.220  1.00  0.00    -0.203 F 
ATOM     47  C   UNL A   1      37.684  31.250  33.325  1.00  0.00     0.198 A 
ATOM     48  C   UNL A   1      36.665  32.120  31.335  1.00  0.00     0.198 A 
ATOM     49  F   UNL A   1      37.775  31.941  29.266  1.00  0.00    -0.203 F 
ATOM     50  F   UNL A   1      37.651  31.035  34.648  1.00  0.00    -0.200 F 
ATOM     51  C   UNL A   1      36.628  31.899  32.703  1.00  0.00     0.200 A 
ATOM     52  F   UNL A   1      35.664  32.781  30.738  1.00  0.00    -0.200 F 
ATOM     53  F   UNL A   1      35.583  32.326  33.425  1.00  0.00    -0.200 F 
ENDBRANCH  29  43
BRANCH  30  54
ATOM     54  C   UNL A   1      46.902  27.584  26.208  1.00  0.00     0.064 A 
ATOM     55  C   UNL A   1      47.988  27.072  26.938  1.00  0.00     0.173 A 
ATOM     56  C   UNL A   1      47.015  27.602  24.811  1.00  0.00     0.173 A 
ATOM     57  F   UNL A   1      47.933  27.026  28.279  1.00  0.00    -0.203 F 
ATOM     58  C   UNL A   1      49.147  26.632  26.304  1.00  0.00     0.198 A 
ATOM     59  C   UNL A   1      48.165  27.134  24.175  1.00  0.00     0.198 A 
ATOM     60  F   UNL A   1      46.001  28.061  24.063  1.00  0.00    -0.203 F 
ATOM     61  F   UNL A   1      50.181  26.191  27.032  1.00  0.00    -0.200 F 
ATOM     62  C   UNL A   1      49.234  26.660  24.921  1.00  0.00     0.200 A 
ATOM     63  F   UNL A   1      48.237  27.141  22.836  1.00  0.00    -0.200 F 
ATOM     64  F   UNL A   1      50.346  26.231  24.309  1.00  0.00    -0.200 F 
ENDBRANCH  30  54
BRANCH  42  65
ATOM     65  C   UNL A   1      45.286  33.664  29.283  1.00  0.00     0.064 A 
ATOM     66  C   UNL A   1      45.177  34.702  28.344  1.00  0.00     0.173 A 
ATOM     67  C   UNL A   1      46.197  33.814  30.335  1.00  0.00     0.173 A 
ATOM     68  F   UNL A   1      44.325  34.595  27.314  1.00  0.00    -0.203 F 
ATOM     69  C   UNL A   1      45.972  35.837  28.444  1.00  0.00     0.198 A 
ATOM     70  C   UNL A   1      46.970  34.966  30.448  1.00  0.00     0.198 A 
ATOM     71  F   UNL A   1      46.327  32.850  31.260  1.00  0.00    -0.203 F 
ATOM     72  F   UNL A   1      45.884  36.797  27.512  1.00  0.00    -0.200 F 
ATOM     73  C   UNL A   1      46.865  35.970  29.496  1.00  0.00     0.200 A 
ATOM     74  F   UNL A   1      47.817  35.103  31.476  1.00  0.00    -0.200 F 
ATOM     75  F   UNL A   1      47.628  37.067  29.593  1.00  0.00    -0.200 F 
ENDBRANCH  42  65
ENDBRANCH  16  17
ENDBRANCH   9  11
ENDBRANCH   8   9
ENDBRANCH   7   8
ENDBRANCH   6   7
ENDBRANCH   5   6
ENDBRANCH   4   5
ENDBRANCH   3   4
ENDBRANCH   2   3
ENDBRANCH   1   2
BRANCH   1  76
ATOM     76  C   UNL A   1      33.469  28.662  23.088  1.00  0.00     0.188 C 
BRANCH  76  77
ATOM     77  O   UNL A   1      32.686  28.619  24.265  1.00  0.00    -0.376 OA
BRANCH  77  78
ATOM     78  C   UNL A   1      31.572  29.500  24.317  1.00  0.00     0.202 C 
BRANCH  78  79
ATOM     79  C   UNL A   1      30.235  29.077  23.676  1.00  0.00     0.261 C 
BRANCH  79  80
ATOM     80  O   UNL A   1      30.140  27.732  23.170  1.00  0.00    -0.460 OA
BRANCH  80  81
ATOM     81  C   UNL A   1      29.277  26.861  23.748  1.00  0.00     0.338 C 
ATOM     82  O   UNL A   1      28.076  26.949  23.816  1.00  0.00    -0.246 OA
BRANCH  81  83
ATOM     83  C   UNL A   1      30.068  25.640  24.060  1.00  0.00     0.063 A 
ATOM     84  C   UNL A   1      30.250  24.615  23.127  1.00  0.00     0.017 A 
ATOM     85  C   UNL A   1      30.465  25.450  25.388  1.00  0.00     0.056 A 
ATOM     86  C   UNL A   1      30.907  23.438  23.516  1.00  0.00     0.024 A 
ATOM     87  C   UNL A   1      30.955  24.214  25.792  1.00  0.00     0.142 A 
ATOM     88  C   UNL A   1      31.282  23.251  24.857  1.00  0.00     0.103 A 
ATOM     89  F   UNL A   1      31.030  23.975  27.107  1.00  0.00    -0.206 F 
BRANCH  88  90
ATOM     90  S   UNL A   1      32.225  21.816  25.278  1.00  0.00     0.188 S 
ATOM     91  O   UNL A   1      33.255  22.321  26.177  1.00  0.00    -0.223 OA
ATOM     92  O   UNL A   1      31.275  20.838  25.781  1.00  0.00    -0.223 OA
BRANCH  90  93
ATOM     93  C   UNL A   1      33.076  21.124  23.907  1.00  0.00     0.219 C 
BRANCH  93  94
ATOM     94  C   UNL A   1      33.131  19.628  23.904  1.00  0.00     0.143 A 
ATOM     95  N   UNL A   1      32.372  18.923  23.046  1.00  0.00    -0.240 NA
ATOM     96  N   UNL A   1      34.172  19.086  24.572  1.00  0.00    -0.240 NA
ATOM     97  C   UNL A   1      32.712  17.640  22.815  1.00  0.00     0.115 A 
ATOM     98  C   UNL A   1      34.448  17.786  24.337  1.00  0.00     0.115 A 
ATOM     99  C   UNL A   1      33.760  17.015  23.435  1.00  0.00     0.040 A 
ENDBRANCH  93  94
ENDBRANCH  90  93
ENDBRANCH  88  90
ENDBRANCH  81  83
ENDBRANCH  80  81
ENDBRANCH  79  80
ENDBRANCH  78  79
ENDBRANCH  77  78
ENDBRANCH  76  77
ENDBRANCH   1  76
TORSDOF 23
ENDMDL
MODEL 2
REMARK VINA RESULT:     -10.0      5.748     12.761
REMARK SMILES O=C(OCCOCCOCCOCCOC(=O)c1ccc(S(=O)(=O)Cc2ncccn2)c(F)c1)c1ccc(-c2c3nc(c(-c4c(F)c(F)c(F)c(F)c4F)c4ccc([nH]4)c(-c4c(F)c(F)c(F)c(F)c4F)c4nc(c(-c5c(F)c(F)c(F)c(F)c5F)c5ccc2[nH]5)C=C4)C=C3)cc1
REMARK SMILES IDX 10 1 9 2 8 3 7 4 6 5 5 6 4 7 3 8 2 9 1 10 35 11 36 12 97 13
REMARK SMILES IDX 37 14 96 15 38 16 39 17 40 18 90 19 41 20 95 21 89 22 91 23
REMARK SMILES IDX 42 24 94 25 88 26 87 27 43 29 75 30 55 31 74 32 56 33 59 34
REMARK SMILES IDX 73 35 92 36 57 37 58 38 72 40 93 41 60 42 44 43 45 44 53 45
REMARK SMILES IDX 46 46 47 47 51 48 54 49 48 50 49 51 52 52 50 53 76 54 77 55
REMARK SMILES IDX 85 56 78 57 79 58 83 59 86 60 80 61 81 62 84 63 82 64 61 65
REMARK SMILES IDX 62 66 70 67 63 68 64 69 68 70 71 71 65 72 66 73 69 74 67 75
REMARK SMILES IDX 11 76 12 77 13 78 14 79 15 80 16 81 17 82 18 83 19 84 34 85
REMARK SMILES IDX 20 86 32 87 21 88 33 89 22 90 23 91 24 92 25 93 26 94 27 95
REMARK SMILES IDX 31 96 28 97 30 98 29 99
REMARK H PARENT 91 28 59 39
REMARK Flexibility Score: inf
ROOT
ATOM      1  C   UNL A   1      46.017  22.863  24.321  1.00  0.00     0.188 C 
ENDROOT
BRANCH   1   2
ATOM      2  O   UNL A   1      46.625  21.614  24.626  1.00  0.00    -0.377 OA
BRANCH   2   3
ATOM      3  C   UNL A   1      45.790  20.636  25.239  1.00  0.00     0.188 C 
BRANCH   3   4
ATOM      4  C   UNL A   1      46.375  19.225  25.265  1.00  0.00     0.188 C 
BRANCH   4   5
ATOM      5  O   UNL A   1      45.343  18.232  25.320  1.00  0.00    -0.376 OA
BRANCH   5   6
ATOM      6  C   UNL A   1      44.023  18.718  25.061  1.00  0.00     0.202 C 
BRANCH   6   7
ATOM      7  C   UNL A   1      42.985  18.337  26.118  1.00  0.00     0.261 C 
BRANCH   7   8
ATOM      8  O   UNL A   1      41.670  18.810  25.797  1.00  0.00    -0.460 OA
BRANCH   8   9
ATOM      9  C   UNL A   1      41.084  19.979  26.156  1.00  0.00     0.338 C 
ATOM     10  O   UNL A   1      39.869  20.087  25.987  1.00  0.00    -0.246 OA
BRANCH   9  11
ATOM     11  C   UNL A   1      41.805  21.153  26.754  1.00  0.00     0.060 A 
ATOM     12  C   UNL A   1      42.108  21.333  28.105  1.00  0.00     0.016 A 
ATOM     13  C   UNL A   1      42.221  22.156  25.858  1.00  0.00     0.016 A 
ATOM     14  C   UNL A   1      42.691  22.499  28.574  1.00  0.00     0.010 A 
ATOM     15  C   UNL A   1      42.821  23.335  26.315  1.00  0.00     0.010 A 
ATOM     16  C   UNL A   1      42.995  23.524  27.688  1.00  0.00    -0.014 A 
BRANCH  16  17
ATOM     17  C   UNL A   1      43.202  24.858  28.275  1.00  0.00     0.031 A 
ATOM     18  C   UNL A   1      44.623  25.313  28.446  1.00  0.00     0.074 A 
ATOM     19  C   UNL A   1      42.164  25.697  28.424  1.00  0.00     0.049 A 
ATOM     20  N   UNL A   1      45.086  26.441  28.906  1.00  0.00    -0.248 NA
ATOM     21  C   UNL A   1      45.668  24.369  28.006  1.00  0.00     0.031 C 
ATOM     22  C   UNL A   1      40.774  25.378  28.101  1.00  0.00     0.029 A 
ATOM     23  N   UNL A   1      42.126  27.002  28.833  1.00  0.00    -0.354 N 
ATOM     24  C   UNL A   1      46.469  26.331  28.834  1.00  0.00     0.074 A 
ATOM     25  C   UNL A   1      46.776  25.030  28.293  1.00  0.00     0.031 C 
ATOM     26  C   UNL A   1      40.020  26.471  28.300  1.00  0.00     0.029 A 
ATOM     27  C   UNL A   1      40.864  27.541  28.824  1.00  0.00     0.049 A 
ATOM     28  H   UNL A   1      42.927  27.506  29.106  1.00  0.00     0.167 HD
ATOM     29  C   UNL A   1      47.396  27.246  29.194  1.00  0.00     0.037 A 
ATOM     30  C   UNL A   1      40.450  28.757  29.224  1.00  0.00     0.037 A 
ATOM     31  C   UNL A   1      47.049  28.532  29.730  1.00  0.00     0.049 A 
ATOM     32  C   UNL A   1      41.490  29.720  29.734  1.00  0.00     0.074 A 
ATOM     33  C   UNL A   1      47.877  29.512  30.240  1.00  0.00     0.029 A 
ATOM     34  N   UNL A   1      45.748  29.012  29.815  1.00  0.00    -0.354 N 
ATOM     35  N   UNL A   1      42.794  29.574  29.782  1.00  0.00    -0.248 NA
ATOM     36  C   UNL A   1      41.009  31.005  30.253  1.00  0.00     0.031 C 
ATOM     37  C   UNL A   1      47.071  30.568  30.675  1.00  0.00     0.029 A 
ATOM     38  C   UNL A   1      45.747  30.274  30.378  1.00  0.00     0.049 A 
ATOM     39  H   UNL A   1      44.945  28.525  29.518  1.00  0.00     0.167 HD
ATOM     40  C   UNL A   1      43.294  30.749  30.322  1.00  0.00     0.074 A 
ATOM     41  C   UNL A   1      42.149  31.606  30.572  1.00  0.00     0.031 C 
ATOM     42  C   UNL A   1      44.579  31.093  30.592  1.00  0.00     0.037 A 
BRANCH  29  43
ATOM     43  C   UNL A   1      48.836  26.840  29.092  1.00  0.00     0.064 A 
ATOM     44  C   UNL A   1      49.592  27.209  27.969  1.00  0.00     0.173 A 
ATOM     45  C   UNL A   1      49.486  26.132  30.115  1.00  0.00     0.173 A 
ATOM     46  F   UNL A   1      49.025  27.899  26.969  1.00  0.00    -0.203 F 
ATOM     47  C   UNL A   1      50.943  26.884  27.874  1.00  0.00     0.198 A 
ATOM     48  C   UNL A   1      50.844  25.834  30.029  1.00  0.00     0.198 A 
ATOM     49  F   UNL A   1      48.818  25.787  31.227  1.00  0.00    -0.203 F 
ATOM     50  F   UNL A   1      51.643  27.245  26.788  1.00  0.00    -0.200 F 
ATOM     51  C   UNL A   1      51.570  26.206  28.908  1.00  0.00     0.200 A 
ATOM     52  F   UNL A   1      51.458  25.213  31.046  1.00  0.00    -0.200 F 
ATOM     53  F   UNL A   1      52.878  25.926  28.831  1.00  0.00    -0.200 F 
ENDBRANCH  29  43
BRANCH  30  54
ATOM     54  C   UNL A   1      39.003  29.097  29.181  1.00  0.00     0.064 A 
ATOM     55  C   UNL A   1      38.380  29.462  27.976  1.00  0.00     0.173 A 
ATOM     56  C   UNL A   1      38.219  29.108  30.342  1.00  0.00     0.173 A 
ATOM     57  F   UNL A   1      39.083  29.465  26.832  1.00  0.00    -0.203 F 
ATOM     58  C   UNL A   1      37.045  29.855  27.938  1.00  0.00     0.198 A 
ATOM     59  C   UNL A   1      36.873  29.473  30.299  1.00  0.00     0.198 A 
ATOM     60  F   UNL A   1      38.756  28.749  31.517  1.00  0.00    -0.203 F 
ATOM     61  F   UNL A   1      36.493  30.240  26.779  1.00  0.00    -0.200 F 
ATOM     62  C   UNL A   1      36.290  29.857  29.100  1.00  0.00     0.200 A 
ATOM     63  F   UNL A   1      36.139  29.452  31.421  1.00  0.00    -0.200 F 
ATOM     64  F   UNL A   1      35.003  30.228  29.065  1.00  0.00    -0.200 F 
ENDBRANCH  30  54
BRANCH  42  65
ATOM     65  C   UNL A   1      44.820  32.463  31.149  1.00  0.00     0.064 A 
ATOM     66  C   UNL A   1      44.850  33.573  30.291  1.00  0.00     0.173 A 
ATOM     67  C   UNL A   1      45.123  32.661  32.502  1.00  0.00     0.173 A 
ATOM     68  F   UNL A   1      44.578  33.427  28.986  1.00  0.00    -0.203 F 
ATOM     69  C   UNL A   1      45.196  34.832  30.768  1.00  0.00     0.198 A 
ATOM     70  C   UNL A   1      45.439  33.929  32.980  1.00  0.00     0.198 A 
ATOM     71  F   UNL A   1      45.098  31.629  33.358  1.00  0.00    -0.203 F 
ATOM     72  F   UNL A   1      45.260  35.870  29.923  1.00  0.00    -0.200 F 
ATOM     73  C   UNL A   1      45.487  35.010  32.111  1.00  0.00     0.200 A 
ATOM     74  F   UNL A   1      45.699  34.104  34.283  1.00  0.00    -0.200 F 
ATOM     75  F   UNL A   1      45.816  36.225  32.571  1.00  0.00    -0.200 F 
ENDBRANCH  42  65
ENDBRANCH  16  17
ENDBRANCH   9  11
ENDBRANCH   8   9
ENDBRANCH   7   8
ENDBRANCH   6   7
ENDBRANCH   5   6
ENDBRANCH   4   5
ENDBRANCH   3   4
ENDBRANCH   2   3
ENDBRANCH   1   2
BRANCH   1  76
ATOM     76  C   UNL A   1      46.827  24.148  24.603  1.00  0.00     0.188 C 
BRANCH  76  77
ATOM     77  O   UNL A   1      46.049  25.328  24.536  1.00  0.00    -0.376 OA
BRANCH  77  78
ATOM     78  C   UNL A   1      46.654  26.513  25.034  1.00  0.00     0.202 C 
BRANCH  78  79
ATOM     79  C   UNL A   1      46.104  27.889  24.606  1.00  0.00     0.261 C 
BRANCH  79  80
ATOM     80  O   UNL A   1      46.595  29.045  25.310  1.00  0.00    -0.460 OA
BRANCH  80  81
ATOM     81  C   UNL A   1      45.833  29.610  26.278  1.00  0.00     0.338 C 
ATOM     82  O   UNL A   1      44.977  29.082  26.945  1.00  0.00    -0.246 OA
BRANCH  81  83
ATOM     83  C   UNL A   1      46.430  30.947  26.548  1.00  0.00     0.063 A 
ATOM     84  C   UNL A   1      45.768  32.134  26.223  1.00  0.00     0.017 A 
ATOM     85  C   UNL A   1      47.765  30.985  26.961  1.00  0.00     0.056 A 
ATOM     86  C   UNL A   1      46.429  33.360  26.396  1.00  0.00     0.024 A 
ATOM     87  C   UNL A   1      48.454  32.192  26.959  1.00  0.00     0.142 A 
ATOM     88  C   UNL A   1      47.777  33.384  26.791  1.00  0.00     0.103 A 
ATOM     89  F   UNL A   1      49.789  32.146  27.058  1.00  0.00    -0.206 F 
BRANCH  88  90
ATOM     90  S   UNL A   1      48.531  34.947  27.127  1.00  0.00     0.188 S 
ATOM     91  O   UNL A   1      48.452  35.659  25.859  1.00  0.00    -0.223 OA
ATOM     92  O   UNL A   1      47.837  35.493  28.281  1.00  0.00    -0.223 OA
BRANCH  90  93
ATOM     93  C   UNL A   1      50.241  34.820  27.506  1.00  0.00     0.219 C 
BRANCH  93  94
ATOM     94  C   UNL A   1      51.154  35.189  26.378  1.00  0.00     0.143 A 
ATOM     95  N   UNL A   1      51.238  34.403  25.290  1.00  0.00    -0.240 NA
ATOM     96  N   UNL A   1      51.617  36.457  26.399  1.00  0.00    -0.240 NA
ATOM     97  C   UNL A   1      51.762  34.936  24.169  1.00  0.00     0.115 A 
ATOM     98  C   UNL A   1      52.169  36.933  25.264  1.00  0.00     0.115 A 
ATOM     99  C   UNL A   1      52.242  36.217  24.096  1.00  0.00     0.040 A 
ENDBRANCH  93  94
ENDBRANCH  90  93
ENDBRANCH  88  90
ENDBRANCH  81  83
ENDBRANCH  80  81
ENDBRANCH  79  80
ENDBRANCH  78  79
ENDBRANCH  77  78
ENDBRANCH  76  77
ENDBRANCH   1  76
TORSDOF 23
ENDMDL
MODEL 3
REMARK VINA RESULT:     -10.0      2.145      3.512
REMARK SMILES O=C(OCCOCCOCCOCCOC(=O)c1ccc(S(=O)(=O)Cc2ncccn2)c(F)c1)c1ccc(-c2c3nc(c(-c4c(F)c(F)c(F)c(F)c4F)c4ccc([nH]4)c(-c4c(F)c(F)c(F)c(F)c4F)c4nc(c(-c5c(F)c(F)c(F)c(F)c5F)c5ccc2[nH]5)C=C4)C=C3)cc1
REMARK SMILES IDX 10 1 9 2 8 3 7 4 6 5 5 6 4 7 3 8 2 9 1 10 35 11 36 12 97 13
REMARK SMILES IDX 37 14 96 15 38 16 39 17 40 18 90 19 41 20 95 21 89 22 91 23
REMARK SMILES IDX 42 24 94 25 88 26 87 27 43 29 75 30 55 31 74 32 56 33 59 34
REMARK SMILES IDX 73 35 92 36 57 37 58 38 72 40 93 41 60 42 44 43 45 44 53 45
REMARK SMILES IDX 46 46 47 47 51 48 54 49 48 50 49 51 52 52 50 53 76 54 77 55
REMARK SMILES IDX 85 56 78 57 79 58 83 59 86 60 80 61 81 62 84 63 82 64 61 65
REMARK SMILES IDX 62 66 70 67 63 68 64 69 68 70 71 71 65 72 66 73 69 74 67 75
REMARK SMILES IDX 11 76 12 77 13 78 14 79 15 80 16 81 17 82 18 83 19 84 34 85
REMARK SMILES IDX 20 86 32 87 21 88 33 89 22 90 23 91 24 92 25 93 26 94 27 95
REMARK SMILES IDX 31 96 28 97 30 98 29 99
REMARK H PARENT 91 28 59 39
REMARK Flexibility Score: inf
ROOT
ATOM      1  C   UNL A   1      35.053  24.602  24.963  1.00  0.00     0.188 C 
ENDROOT
BRANCH   1   2
ATOM      2  O   UNL A   1      35.710  23.867  25.987  1.00  0.00    -0.377 OA
BRANCH   2   3
ATOM      3  C   UNL A   1      37.116  23.693  25.840  1.00  0.00     0.188 C 
BRANCH   3   4
ATOM      4  C   UNL A   1      37.528  22.420  25.103  1.00  0.00     0.188 C 
BRANCH   4   5
ATOM      5  O   UNL A   1      38.237  21.522  25.966  1.00  0.00    -0.376 OA
BRANCH   5   6
ATOM      6  C   UNL A   1      39.628  21.812  26.126  1.00  0.00     0.202 C 
BRANCH   6   7
ATOM      7  C   UNL A   1      40.445  20.683  26.758  1.00  0.00     0.261 C 
BRANCH   7   8
ATOM      8  O   UNL A   1      41.295  20.020  25.813  1.00  0.00    -0.460 OA
BRANCH   8   9
ATOM      9  C   UNL A   1      42.645  20.092  25.698  1.00  0.00     0.338 C 
ATOM     10  O   UNL A   1      43.257  19.047  25.477  1.00  0.00    -0.246 OA
BRANCH   9  11
ATOM     11  C   UNL A   1      43.450  21.354  25.811  1.00  0.00     0.060 A 
ATOM     12  C   UNL A   1      44.255  21.723  26.890  1.00  0.00     0.016 A 
ATOM     13  C   UNL A   1      43.388  22.238  24.717  1.00  0.00     0.016 A 
ATOM     14  C   UNL A   1      44.883  22.958  26.945  1.00  0.00     0.010 A 
ATOM     15  C   UNL A   1      44.024  23.484  24.752  1.00  0.00     0.010 A 
ATOM     16  C   UNL A   1      44.720  23.862  25.902  1.00  0.00    -0.014 A 
BRANCH  16  17
ATOM     17  C   UNL A   1      45.038  25.268  26.199  1.00  0.00     0.031 A 
ATOM     18  C   UNL A   1      43.961  26.085  26.850  1.00  0.00     0.074 A 
ATOM     19  C   UNL A   1      46.303  25.709  26.100  1.00  0.00     0.049 A 
ATOM     20  N   UNL A   1      43.981  27.329  27.243  1.00  0.00    -0.248 NA
ATOM     21  C   UNL A   1      42.688  25.391  27.124  1.00  0.00     0.031 C 
ATOM     22  C   UNL A   1      47.439  24.906  25.647  1.00  0.00     0.029 A 
ATOM     23  N   UNL A   1      46.852  26.919  26.425  1.00  0.00    -0.354 N 
ATOM     24  C   UNL A   1      42.724  27.568  27.783  1.00  0.00     0.074 A 
ATOM     25  C   UNL A   1      41.959  26.350  27.667  1.00  0.00     0.031 C 
ATOM     26  C   UNL A   1      48.558  25.640  25.748  1.00  0.00     0.029 A 
ATOM     27  C   UNL A   1      48.206  26.980  26.210  1.00  0.00     0.049 A 
ATOM     28  H   UNL A   1      46.327  27.673  26.780  1.00  0.00     0.167 HD
ATOM     29  C   UNL A   1      42.256  28.713  28.326  1.00  0.00     0.037 A 
ATOM     30  C   UNL A   1      49.049  28.020  26.350  1.00  0.00     0.037 A 
ATOM     31  C   UNL A   1      43.049  29.907  28.423  1.00  0.00     0.049 A 
ATOM     32  C   UNL A   1      48.479  29.323  26.846  1.00  0.00     0.074 A 
ATOM     33  C   UNL A   1      42.673  31.167  28.843  1.00  0.00     0.029 A 
ATOM     34  N   UNL A   1      44.396  29.972  28.090  1.00  0.00    -0.354 N 
ATOM     35  N   UNL A   1      47.256  29.589  27.244  1.00  0.00    -0.248 NA
ATOM     36  C   UNL A   1      49.392  30.469  26.902  1.00  0.00     0.031 C 
ATOM     37  C   UNL A   1      43.786  32.005  28.724  1.00  0.00     0.029 A 
ATOM     38  C   UNL A   1      44.870  31.255  28.289  1.00  0.00     0.049 A 
ATOM     39  H   UNL A   1      44.935  29.215  27.762  1.00  0.00     0.167 HD
ATOM     40  C   UNL A   1      47.252  30.925  27.613  1.00  0.00     0.074 A 
ATOM     41  C   UNL A   1      48.604  31.413  27.403  1.00  0.00     0.031 C 
ATOM     42  C   UNL A   1      46.230  31.686  28.079  1.00  0.00     0.037 A 
BRANCH  29  43
ATOM     43  C   UNL A   1      40.821  28.729  28.763  1.00  0.00     0.064 A 
ATOM     44  C   UNL A   1      40.492  28.476  30.103  1.00  0.00     0.173 A 
ATOM     45  C   UNL A   1      39.775  29.040  27.880  1.00  0.00     0.173 A 
ATOM     46  F   UNL A   1      41.454  28.188  30.993  1.00  0.00    -0.203 F 
ATOM     47  C   UNL A   1      39.172  28.531  30.542  1.00  0.00     0.198 A 
ATOM     48  C   UNL A   1      38.459  29.123  28.328  1.00  0.00     0.198 A 
ATOM     49  F   UNL A   1      40.040  29.327  26.595  1.00  0.00    -0.203 F 
ATOM     50  F   UNL A   1      38.883  28.281  31.827  1.00  0.00    -0.200 F 
ATOM     51  C   UNL A   1      38.158  28.865  29.656  1.00  0.00     0.200 A 
ATOM     52  F   UNL A   1      37.485  29.484  27.481  1.00  0.00    -0.200 F 
ATOM     53  F   UNL A   1      36.892  28.953  30.088  1.00  0.00    -0.200 F 
ENDBRANCH  29  43
BRANCH  30  54
ATOM     54  C   UNL A   1      50.483  27.864  25.989  1.00  0.00     0.064 A 
ATOM     55  C   UNL A   1      51.459  27.652  26.977  1.00  0.00     0.173 A 
ATOM     56  C   UNL A   1      50.919  27.963  24.661  1.00  0.00     0.173 A 
ATOM     57  F   UNL A   1      51.099  27.545  28.265  1.00  0.00    -0.203 F 
ATOM     58  C   UNL A   1      52.813  27.581  26.656  1.00  0.00     0.198 A 
ATOM     59  C   UNL A   1      52.272  27.861  24.337  1.00  0.00     0.198 A 
ATOM     60  F   UNL A   1      50.028  28.144  23.675  1.00  0.00    -0.203 F 
ATOM     61  F   UNL A   1      53.722  27.423  27.627  1.00  0.00    -0.200 F 
ATOM     62  C   UNL A   1      53.219  27.681  25.335  1.00  0.00     0.200 A 
ATOM     63  F   UNL A   1      52.659  27.936  23.056  1.00  0.00    -0.200 F 
ATOM     64  F   UNL A   1      54.519  27.606  25.024  1.00  0.00    -0.200 F 
ENDBRANCH  30  54
BRANCH  42  65
ATOM     65  C   UNL A   1      46.538  33.110  28.431  1.00  0.00     0.064 A 
ATOM     66  C   UNL A   1      46.897  33.444  29.745  1.00  0.00     0.173 A 
ATOM     67  C   UNL A   1      46.378  34.145  27.502  1.00  0.00     0.173 A 
ATOM     68  F   UNL A   1      47.050  32.484  30.670  1.00  0.00    -0.203 F 
ATOM     69  C   UNL A   1      47.064  34.772  30.121  1.00  0.00     0.198 A 
ATOM     70  C   UNL A   1      46.575  35.471  27.875  1.00  0.00     0.198 A 
ATOM     71  F   UNL A   1      46.043  33.869  26.232  1.00  0.00    -0.203 F 
ATOM     72  F   UNL A   1      47.365  35.072  31.392  1.00  0.00    -0.200 F 
ATOM     73  C   UNL A   1      46.906  35.783  29.186  1.00  0.00     0.200 A 
ATOM     74  F   UNL A   1      46.444  36.446  26.967  1.00  0.00    -0.200 F 
ATOM     75  F   UNL A   1      47.072  37.062  29.549  1.00  0.00    -0.200 F 
ENDBRANCH  42  65
ENDBRANCH  16  17
ENDBRANCH   9  11
ENDBRANCH   8   9
ENDBRANCH   7   8
ENDBRANCH   6   7
ENDBRANCH   5   6
ENDBRANCH   4   5
ENDBRANCH   3   4
ENDBRANCH   2   3
ENDBRANCH   1   2
BRANCH   1  76
ATOM     76  C   UNL A   1      34.221  25.835  25.379  1.00  0.00     0.188 C 
BRANCH  76  77
ATOM     77  O   UNL A   1      33.798  26.624  24.283  1.00  0.00    -0.376 OA
BRANCH  77  78
ATOM     78  C   UNL A   1      33.045  27.787  24.595  1.00  0.00     0.202 C 
BRANCH  78  79
ATOM     79  C   UNL A   1      31.574  27.888  24.141  1.00  0.00     0.261 C 
BRANCH  79  80
ATOM     80  O   UNL A   1      30.582  27.254  24.970  1.00  0.00    -0.460 OA
BRANCH  80  81
ATOM     81  C   UNL A   1      29.845  26.234  24.467  1.00  0.00     0.338 C 
ATOM     82  O   UNL A   1      28.794  26.304  23.879  1.00  0.00    -0.246 OA
BRANCH  81  83
ATOM     83  C   UNL A   1      30.706  25.023  24.546  1.00  0.00     0.063 A 
ATOM     84  C   UNL A   1      31.073  24.298  23.408  1.00  0.00     0.017 A 
ATOM     85  C   UNL A   1      30.982  24.509  25.817  1.00  0.00     0.056 A 
ATOM     86  C   UNL A   1      31.789  23.100  23.557  1.00  0.00     0.024 A 
ATOM     87  C   UNL A   1      31.536  23.242  25.944  1.00  0.00     0.142 A 
ATOM     88  C   UNL A   1      32.041  22.584  24.839  1.00  0.00     0.103 A 
ATOM     89  F   UNL A   1      31.498  22.664  27.152  1.00  0.00    -0.206 F 
BRANCH  88  90
ATOM     90  S   UNL A   1      33.061  21.148  24.986  1.00  0.00     0.188 S 
ATOM     91  O   UNL A   1      34.215  21.445  24.148  1.00  0.00    -0.223 OA
ATOM     92  O   UNL A   1      33.265  20.938  26.410  1.00  0.00    -0.223 OA
BRANCH  90  93
ATOM     93  C   UNL A   1      32.325  19.707  24.303  1.00  0.00     0.219 C 
BRANCH  93  94
ATOM     94  C   UNL A   1      32.898  18.420  24.810  1.00  0.00     0.143 A 
ATOM     95  N   UNL A   1      32.158  17.607  25.585  1.00  0.00    -0.240 NA
ATOM     96  N   UNL A   1      34.035  18.015  24.204  1.00  0.00    -0.240 NA
ATOM     97  C   UNL A   1      32.554  16.325  25.708  1.00  0.00     0.115 A 
ATOM     98  C   UNL A   1      34.412  16.733  24.390  1.00  0.00     0.115 A 
ATOM     99  C   UNL A   1      33.684  15.825  25.118  1.00  0.00     0.040 A 
ENDBRANCH  93  94
ENDBRANCH  90  93
ENDBRANCH  88  90
ENDBRANCH  81  83
ENDBRANCH  80  81
ENDBRANCH  79  80
ENDBRANCH  78  79
ENDBRANCH  77  78
ENDBRANCH  76  77
ENDBRANCH   1  76
TORSDOF 23
ENDMDL
