MODEL 1
REMARK VINA RESULT:     -11.5      0.000      0.000
REMARK SMILES Cc1cccc(C)c1Nc1ccccc1CC(=O)OCCOCCOCCOCCOC(=O)c1ccc(-c2c3nc(c(-c4c(F)c(F)c(F)c(F)c4F)c4ccc([nH]4)c(-c4c(F)c(F)c(F)c(F)c4F)c4nc(c(-c5c(F)c(F)c(F)c(F)c5F)c5ccc2[nH]5)C=C4)C=C3)cc1
REMARK SMILES IDX 24 1 23 2 22 3 21 4 20 5 19 6 17 7 18 8 16 9 15 10 10 11
REMARK SMILES IDX 11 12 12 13 14 14 13 15 9 16 8 18 1 19 2 20 3 21 4 22 6 23
REMARK SMILES IDX 5 24 7 25 25 26 26 27 27 28 28 29 29 30 30 31 31 32 32 33
REMARK SMILES IDX 33 34 34 35 35 36 96 37 36 38 95 39 37 40 38 41 39 42 89 43
REMARK SMILES IDX 40 44 94 45 88 46 90 47 41 48 93 49 87 50 86 51 42 53 74 54
REMARK SMILES IDX 54 55 73 56 55 57 58 58 72 59 91 60 56 61 57 62 71 64 92 65
REMARK SMILES IDX 59 66 43 67 44 68 52 69 45 70 46 71 50 72 53 73 47 74 48 75
REMARK SMILES IDX 51 76 49 77 75 78 76 79 84 80 77 81 78 82 82 83 85 84 79 85
REMARK SMILES IDX 80 86 83 87 81 88 60 89 61 90 69 91 62 92 63 93 67 94 70 95
REMARK SMILES IDX 64 96 65 97 68 98 66 99
REMARK H PARENT 9 17 90 52 58 63
REMARK Flexibility Score: inf
ROOT
ATOM      1  C   UNL A   1      43.445  18.986  25.205  1.00  0.00     0.188 C 
ENDROOT
BRANCH   1   2
ATOM      2  C   UNL A   1      42.439  19.043  26.376  1.00  0.00     0.188 C 
BRANCH   2   3
ATOM      3  O   UNL A   1      42.235  20.240  27.124  1.00  0.00    -0.376 OA
BRANCH   3   4
ATOM      4  C   UNL A   1      40.920  20.729  27.319  1.00  0.00     0.202 C 
BRANCH   4   5
ATOM      5  C   UNL A   1      40.124  21.127  26.058  1.00  0.00     0.261 C 
BRANCH   5   6
ATOM      6  O   UNL A   1      39.145  22.178  26.241  1.00  0.00    -0.463 OA
BRANCH   6   7
ATOM      7  C   UNL A   1      37.982  22.051  25.560  1.00  0.00     0.310 C 
ATOM      8  O   UNL A   1      37.663  21.013  24.981  1.00  0.00    -0.252 OA
BRANCH   7   9
ATOM      9  C   UNL A   1      36.988  23.196  25.674  1.00  0.00     0.160 C 
BRANCH   9  10
ATOM     10  C   UNL A   1      35.542  23.063  26.160  1.00  0.00    -0.013 A 
ATOM     11  C   UNL A   1      34.530  24.008  25.908  1.00  0.00     0.042 A 
ATOM     12  C   UNL A   1      33.250  23.840  26.487  1.00  0.00     0.026 A 
ATOM     13  C   UNL A   1      32.914  22.684  27.183  1.00  0.00     0.002 A 
ATOM     14  C   UNL A   1      35.141  21.855  26.782  1.00  0.00     0.006 A 
ATOM     15  C   UNL A   1      33.850  21.668  27.289  1.00  0.00     0.000 A 
BRANCH  11  16
ATOM     16  N   UNL A   1      34.629  24.997  24.913  1.00  0.00    -0.355 N 
ATOM     17  H   UNL A   1      35.529  25.103  24.529  1.00  0.00     0.167 HD
BRANCH  16  18
ATOM     18  C   UNL A   1      33.649  25.863  24.372  1.00  0.00     0.044 A 
ATOM     19  C   UNL A   1      33.383  24.162  22.491  1.00  0.00     0.046 C 
ATOM     20  C   UNL A   1      32.959  25.411  23.220  1.00  0.00    -0.027 A 
ATOM     21  C   UNL A   1      31.813  26.089  22.779  1.00  0.00     0.005 A 
ATOM     22  C   UNL A   1      31.348  27.211  23.455  1.00  0.00     0.001 A 
ATOM     23  C   UNL A   1      33.230  27.073  24.992  1.00  0.00    -0.027 A 
ATOM     24  C   UNL A   1      32.056  27.704  24.544  1.00  0.00     0.005 A 
ATOM     25  C   UNL A   1      33.912  27.720  26.172  1.00  0.00     0.046 C 
ENDBRANCH  16  18
ENDBRANCH  11  16
ENDBRANCH   9  10
ENDBRANCH   7   9
ENDBRANCH   6   7
ENDBRANCH   5   6
ENDBRANCH   4   5
ENDBRANCH   3   4
ENDBRANCH   2   3
ENDBRANCH   1   2
BRANCH   1  26
ATOM     26  O   UNL A   1      44.560  18.150  25.438  1.00  0.00    -0.377 OA
BRANCH  26  27
ATOM     27  C   UNL A   1      45.809  18.800  25.409  1.00  0.00     0.188 C 
BRANCH  27  28
ATOM     28  C   UNL A   1      45.874  20.029  24.493  1.00  0.00     0.188 C 
BRANCH  28  29
ATOM     29  O   UNL A   1      46.327  21.195  25.171  1.00  0.00    -0.376 OA
BRANCH  29  30
ATOM     30  C   UNL A   1      46.414  22.420  24.466  1.00  0.00     0.202 C 
BRANCH  30  31
ATOM     31  C   UNL A   1      45.917  23.706  25.149  1.00  0.00     0.261 C 
BRANCH  31  32
ATOM     32  O   UNL A   1      44.812  24.390  24.547  1.00  0.00    -0.460 OA
BRANCH  32  33
ATOM     33  C   UNL A   1      43.566  23.922  24.800  1.00  0.00     0.338 C 
ATOM     34  O   UNL A   1      43.104  22.859  24.463  1.00  0.00    -0.246 OA
BRANCH  33  35
ATOM     35  C   UNL A   1      42.928  24.864  25.756  1.00  0.00     0.060 A 
ATOM     36  C   UNL A   1      43.438  26.166  25.851  1.00  0.00     0.016 A 
ATOM     37  C   UNL A   1      41.816  24.487  26.512  1.00  0.00     0.016 A 
ATOM     38  C   UNL A   1      42.846  27.090  26.713  1.00  0.00     0.010 A 
ATOM     39  C   UNL A   1      41.249  25.401  27.408  1.00  0.00     0.010 A 
ATOM     40  C   UNL A   1      41.780  26.697  27.531  1.00  0.00    -0.014 A 
BRANCH  40  41
ATOM     41  C   UNL A   1      41.391  27.559  28.673  1.00  0.00     0.031 A 
ATOM     42  C   UNL A   1      42.203  27.458  29.935  1.00  0.00     0.074 A 
ATOM     43  C   UNL A   1      40.370  28.430  28.592  1.00  0.00     0.049 A 
ATOM     44  N   UNL A   1      42.050  28.072  31.080  1.00  0.00    -0.248 NA
ATOM     45  C   UNL A   1      43.349  26.535  29.896  1.00  0.00     0.031 C 
ATOM     46  C   UNL A   1      39.543  28.656  27.409  1.00  0.00     0.029 A 
ATOM     47  N   UNL A   1      39.854  29.286  29.534  1.00  0.00    -0.354 N 
ATOM     48  C   UNL A   1      43.075  27.607  31.894  1.00  0.00     0.074 A 
ATOM     49  C   UNL A   1      43.823  26.637  31.127  1.00  0.00     0.031 C 
ATOM     50  C   UNL A   1      38.610  29.581  27.703  1.00  0.00     0.029 A 
ATOM     51  C   UNL A   1      38.755  29.984  29.101  1.00  0.00     0.049 A 
ATOM     52  H   UNL A   1      40.237  29.387  30.436  1.00  0.00     0.167 HD
ATOM     53  C   UNL A   1      43.368  27.963  33.167  1.00  0.00     0.037 A 
ATOM     54  C   UNL A   1      37.948  30.833  29.770  1.00  0.00     0.037 A 
ATOM     55  C   UNL A   1      42.614  28.920  33.930  1.00  0.00     0.049 A 
ATOM     56  C   UNL A   1      38.243  31.145  31.217  1.00  0.00     0.074 A 
ATOM     57  C   UNL A   1      42.834  29.358  35.223  1.00  0.00     0.029 A 
ATOM     58  N   UNL A   1      41.482  29.577  33.470  1.00  0.00    -0.354 N 
ATOM     59  N   UNL A   1      39.227  30.723  31.975  1.00  0.00    -0.248 NA
ATOM     60  C   UNL A   1      37.315  32.057  31.901  1.00  0.00     0.031 C 
ATOM     61  C   UNL A   1      41.798  30.232  35.568  1.00  0.00     0.029 A 
ATOM     62  C   UNL A   1      40.973  30.394  34.467  1.00  0.00     0.049 A 
ATOM     63  H   UNL A   1      41.097  29.478  32.569  1.00  0.00     0.167 HD
ATOM     64  C   UNL A   1      39.057  31.342  33.208  1.00  0.00     0.074 A 
ATOM     65  C   UNL A   1      37.881  32.179  33.093  1.00  0.00     0.031 C 
ATOM     66  C   UNL A   1      39.806  31.230  34.333  1.00  0.00     0.037 A 
BRANCH  53  67
ATOM     67  C   UNL A   1      44.533  27.280  33.824  1.00  0.00     0.064 A 
ATOM     68  C   UNL A   1      45.825  27.827  33.798  1.00  0.00     0.173 A 
ATOM     69  C   UNL A   1      44.348  26.070  34.509  1.00  0.00     0.173 A 
ATOM     70  F   UNL A   1      46.061  28.973  33.140  1.00  0.00    -0.203 F 
ATOM     71  C   UNL A   1      46.892  27.174  34.408  1.00  0.00     0.198 A 
ATOM     72  C   UNL A   1      45.411  25.437  35.147  1.00  0.00     0.198 A 
ATOM     73  F   UNL A   1      43.134  25.502  34.564  1.00  0.00    -0.203 F 
ATOM     74  F   UNL A   1      48.127  27.687  34.323  1.00  0.00    -0.200 F 
ATOM     75  C   UNL A   1      46.683  25.984  35.090  1.00  0.00     0.200 A 
ATOM     76  F   UNL A   1      45.204  24.294  35.816  1.00  0.00    -0.200 F 
ATOM     77  F   UNL A   1      47.710  25.361  35.683  1.00  0.00    -0.200 F 
ENDBRANCH  53  67
BRANCH  54  78
ATOM     78  C   UNL A   1      36.768  31.435  29.091  1.00  0.00     0.064 A 
ATOM     79  C   UNL A   1      36.742  32.794  28.748  1.00  0.00     0.173 A 
ATOM     80  C   UNL A   1      35.628  30.671  28.802  1.00  0.00     0.173 A 
ATOM     81  F   UNL A   1      37.795  33.576  29.030  1.00  0.00    -0.203 F 
ATOM     82  C   UNL A   1      35.614  33.369  28.165  1.00  0.00     0.198 A 
ATOM     83  C   UNL A   1      34.513  31.239  28.188  1.00  0.00     0.198 A 
ATOM     84  F   UNL A   1      35.595  29.366  29.114  1.00  0.00    -0.203 F 
ATOM     85  F   UNL A   1      35.596  34.684  27.900  1.00  0.00    -0.200 F 
ATOM     86  C   UNL A   1      34.503  32.591  27.879  1.00  0.00     0.200 A 
ATOM     87  F   UNL A   1      33.447  30.480  27.906  1.00  0.00    -0.200 F 
ATOM     88  F   UNL A   1      33.420  33.144  27.319  1.00  0.00    -0.200 F 
ENDBRANCH  54  78
BRANCH  66  89
ATOM     89  C   UNL A   1      39.409  32.064  35.520  1.00  0.00     0.064 A 
ATOM     90  C   UNL A   1      39.851  33.384  35.680  1.00  0.00     0.173 A 
ATOM     91  C   UNL A   1      38.529  31.546  36.485  1.00  0.00     0.173 A 
ATOM     92  F   UNL A   1      40.701  33.925  34.792  1.00  0.00    -0.203 F 
ATOM     93  C   UNL A   1      39.454  34.145  36.777  1.00  0.00     0.198 A 
ATOM     94  C   UNL A   1      38.105  32.322  37.560  1.00  0.00     0.198 A 
ATOM     95  F   UNL A   1      38.066  30.292  36.375  1.00  0.00    -0.203 F 
ATOM     96  F   UNL A   1      39.932  35.387  36.937  1.00  0.00    -0.200 F 
ATOM     97  C   UNL A   1      38.576  33.616  37.711  1.00  0.00     0.200 A 
ATOM     98  F   UNL A   1      37.241  31.815  38.449  1.00  0.00    -0.200 F 
ATOM     99  F   UNL A   1      38.186  34.354  38.760  1.00  0.00    -0.200 F 
ENDBRANCH  66  89
ENDBRANCH  40  41
ENDBRANCH  33  35
ENDBRANCH  32  33
ENDBRANCH  31  32
ENDBRANCH  30  31
ENDBRANCH  29  30
ENDBRANCH  28  29
ENDBRANCH  27  28
ENDBRANCH  26  27
ENDBRANCH   1  26
TORSDOF 23
ENDMDL
MODEL 2
REMARK VINA RESULT:     -10.3      1.005      2.326
REMARK SMILES Cc1cccc(C)c1Nc1ccccc1CC(=O)OCCOCCOCCOCCOC(=O)c1ccc(-c2c3nc(c(-c4c(F)c(F)c(F)c(F)c4F)c4ccc([nH]4)c(-c4c(F)c(F)c(F)c(F)c4F)c4nc(c(-c5c(F)c(F)c(F)c(F)c5F)c5ccc2[nH]5)C=C4)C=C3)cc1
REMARK SMILES IDX 24 1 23 2 22 3 21 4 20 5 19 6 17 7 18 8 16 9 15 10 10 11
REMARK SMILES IDX 11 12 12 13 14 14 13 15 9 16 8 18 1 19 2 20 3 21 4 22 6 23
REMARK SMILES IDX 5 24 7 25 25 26 26 27 27 28 28 29 29 30 30 31 31 32 32 33
REMARK SMILES IDX 33 34 34 35 35 36 96 37 36 38 95 39 37 40 38 41 39 42 89 43
REMARK SMILES IDX 40 44 94 45 88 46 90 47 41 48 93 49 87 50 86 51 42 53 74 54
REMARK SMILES IDX 54 55 73 56 55 57 58 58 72 59 91 60 56 61 57 62 71 64 92 65
REMARK SMILES IDX 59 66 43 67 44 68 52 69 45 70 46 71 50 72 53 73 47 74 48 75
REMARK SMILES IDX 51 76 49 77 75 78 76 79 84 80 77 81 78 82 82 83 85 84 79 85
REMARK SMILES IDX 80 86 83 87 81 88 60 89 61 90 69 91 62 92 63 93 67 94 70 95
REMARK SMILES IDX 64 96 65 97 68 98 66 99
REMARK H PARENT 9 17 90 52 58 63
REMARK Flexibility Score: inf
ROOT
ATOM      1  C   UNL A   1      43.066  19.757  25.433  1.00  0.00     0.188 C 
ENDROOT
BRANCH   1   2
ATOM      2  C   UNL A   1      42.232  19.517  26.711  1.00  0.00     0.188 C 
BRANCH   2   3
ATOM      3  O   UNL A   1      41.261  20.464  27.155  1.00  0.00    -0.376 OA
BRANCH   3   4
ATOM      4  C   UNL A   1      39.913  20.334  26.738  1.00  0.00     0.202 C 
BRANCH   4   5
ATOM      5  C   UNL A   1      39.286  21.538  26.003  1.00  0.00     0.261 C 
BRANCH   5   6
ATOM      6  O   UNL A   1      38.187  21.226  25.114  1.00  0.00    -0.463 OA
BRANCH   6   7
ATOM      7  C   UNL A   1      37.205  22.150  25.014  1.00  0.00     0.310 C 
ATOM      8  O   UNL A   1      37.333  23.188  24.364  1.00  0.00    -0.252 OA
BRANCH   7   9
ATOM      9  C   UNL A   1      35.851  21.785  25.605  1.00  0.00     0.160 C 
BRANCH   9  10
ATOM     10  C   UNL A   1      34.602  21.433  24.793  1.00  0.00    -0.013 A 
ATOM     11  C   UNL A   1      33.911  22.339  23.966  1.00  0.00     0.042 A 
ATOM     12  C   UNL A   1      32.709  21.941  23.336  1.00  0.00     0.026 A 
ATOM     13  C   UNL A   1      32.261  20.625  23.390  1.00  0.00     0.002 A 
ATOM     14  C   UNL A   1      34.179  20.082  24.745  1.00  0.00     0.006 A 
ATOM     15  C   UNL A   1      33.026  19.683  24.059  1.00  0.00     0.000 A 
BRANCH  11  16
ATOM     16  N   UNL A   1      34.466  23.552  23.521  1.00  0.00    -0.355 N 
ATOM     17  H   UNL A   1      35.417  23.504  23.277  1.00  0.00     0.167 HD
BRANCH  16  18
ATOM     18  C   UNL A   1      33.880  24.832  23.366  1.00  0.00     0.044 A 
ATOM     19  C   UNL A   1      34.507  25.260  25.801  1.00  0.00     0.046 C 
ATOM     20  C   UNL A   1      33.981  25.721  24.466  1.00  0.00    -0.027 A 
ATOM     21  C   UNL A   1      33.656  27.075  24.304  1.00  0.00     0.005 A 
ATOM     22  C   UNL A   1      33.225  27.559  23.074  1.00  0.00     0.001 A 
ATOM     23  C   UNL A   1      33.336  25.313  22.144  1.00  0.00    -0.027 A 
ATOM     24  C   UNL A   1      33.055  26.684  22.008  1.00  0.00     0.005 A 
ATOM     25  C   UNL A   1      33.093  24.471  20.915  1.00  0.00     0.046 C 
ENDBRANCH  16  18
ENDBRANCH  11  16
ENDBRANCH   9  10
ENDBRANCH   7   9
ENDBRANCH   6   7
ENDBRANCH   5   6
ENDBRANCH   4   5
ENDBRANCH   3   4
ENDBRANCH   2   3
ENDBRANCH   1   2
BRANCH   1  26
ATOM     26  O   UNL A   1      44.103  18.820  25.232  1.00  0.00    -0.377 OA
BRANCH  26  27
ATOM     27  C   UNL A   1      45.393  19.373  25.118  1.00  0.00     0.188 C 
BRANCH  27  28
ATOM     28  C   UNL A   1      45.455  20.714  24.375  1.00  0.00     0.188 C 
BRANCH  28  29
ATOM     29  O   UNL A   1      46.328  21.647  25.000  1.00  0.00    -0.376 OA
BRANCH  29  30
ATOM     30  C   UNL A   1      46.474  22.942  24.446  1.00  0.00     0.202 C 
BRANCH  30  31
ATOM     31  C   UNL A   1      45.799  24.131  25.150  1.00  0.00     0.261 C 
BRANCH  31  32
ATOM     32  O   UNL A   1      44.614  24.670  24.550  1.00  0.00    -0.460 OA
BRANCH  32  33
ATOM     33  C   UNL A   1      43.424  24.135  24.914  1.00  0.00     0.338 C 
ATOM     34  O   UNL A   1      43.014  23.028  24.665  1.00  0.00    -0.246 OA
BRANCH  33  35
ATOM     35  C   UNL A   1      42.787  25.086  25.863  1.00  0.00     0.060 A 
ATOM     36  C   UNL A   1      43.399  26.329  26.074  1.00  0.00     0.016 A 
ATOM     37  C   UNL A   1      41.583  24.777  26.500  1.00  0.00     0.016 A 
ATOM     38  C   UNL A   1      42.815  27.262  26.932  1.00  0.00     0.010 A 
ATOM     39  C   UNL A   1      41.021  25.696  27.394  1.00  0.00     0.010 A 
ATOM     40  C   UNL A   1      41.650  26.930  27.634  1.00  0.00    -0.014 A 
BRANCH  40  41
ATOM     41  C   UNL A   1      41.237  27.768  28.785  1.00  0.00     0.031 A 
ATOM     42  C   UNL A   1      42.045  27.668  30.050  1.00  0.00     0.074 A 
ATOM     43  C   UNL A   1      40.199  28.619  28.710  1.00  0.00     0.049 A 
ATOM     44  N   UNL A   1      41.873  28.263  31.202  1.00  0.00    -0.248 NA
ATOM     45  C   UNL A   1      43.211  26.769  30.005  1.00  0.00     0.031 C 
ATOM     46  C   UNL A   1      39.373  28.842  27.526  1.00  0.00     0.029 A 
ATOM     47  N   UNL A   1      39.660  29.451  29.661  1.00  0.00    -0.354 N 
ATOM     48  C   UNL A   1      42.903  27.809  32.016  1.00  0.00     0.074 A 
ATOM     49  C   UNL A   1      43.676  26.865  31.240  1.00  0.00     0.031 C 
ATOM     50  C   UNL A   1      38.419  29.743  27.827  1.00  0.00     0.029 A 
ATOM     51  C   UNL A   1      38.548  30.131  29.231  1.00  0.00     0.049 A 
ATOM     52  H   UNL A   1      40.036  29.548  30.565  1.00  0.00     0.167 HD
ATOM     53  C   UNL A   1      43.183  28.154  33.294  1.00  0.00     0.037 A 
ATOM     54  C   UNL A   1      37.720  30.954  29.906  1.00  0.00     0.037 A 
ATOM     55  C   UNL A   1      42.405  29.085  34.065  1.00  0.00     0.049 A 
ATOM     56  C   UNL A   1      38.002  31.254  31.359  1.00  0.00     0.074 A 
ATOM     57  C   UNL A   1      42.609  29.511  35.365  1.00  0.00     0.029 A 
ATOM     58  N   UNL A   1      41.262  29.724  33.609  1.00  0.00    -0.354 N 
ATOM     59  N   UNL A   1      38.990  30.842  32.117  1.00  0.00    -0.248 NA
ATOM     60  C   UNL A   1      37.050  32.136  32.050  1.00  0.00     0.031 C 
ATOM     61  C   UNL A   1      41.553  30.358  35.716  1.00  0.00     0.029 A 
ATOM     62  C   UNL A   1      40.730  30.517  34.614  1.00  0.00     0.049 A 
ATOM     63  H   UNL A   1      40.883  29.629  32.704  1.00  0.00     0.167 HD
ATOM     64  C   UNL A   1      38.801  31.441  33.356  1.00  0.00     0.074 A 
ATOM     65  C   UNL A   1      37.608  32.255  33.247  1.00  0.00     0.031 C 
ATOM     66  C   UNL A   1      39.546  31.330  34.485  1.00  0.00     0.037 A 
BRANCH  53  67
ATOM     67  C   UNL A   1      44.359  27.488  33.949  1.00  0.00     0.064 A 
ATOM     68  C   UNL A   1      44.199  26.530  34.961  1.00  0.00     0.173 A 
ATOM     69  C   UNL A   1      45.664  27.799  33.541  1.00  0.00     0.173 A 
ATOM     70  F   UNL A   1      42.973  26.209  35.402  1.00  0.00    -0.203 F 
ATOM     71  C   UNL A   1      45.304  25.929  35.560  1.00  0.00     0.198 A 
ATOM     72  C   UNL A   1      46.765  27.172  34.118  1.00  0.00     0.198 A 
ATOM     73  F   UNL A   1      45.874  28.710  32.578  1.00  0.00    -0.203 F 
ATOM     74  F   UNL A   1      45.129  25.058  36.563  1.00  0.00    -0.200 F 
ATOM     75  C   UNL A   1      46.585  26.244  35.132  1.00  0.00     0.200 A 
ATOM     76  F   UNL A   1      48.001  27.469  33.694  1.00  0.00    -0.200 F 
ATOM     77  F   UNL A   1      47.646  25.660  35.704  1.00  0.00    -0.200 F 
ENDBRANCH  53  67
BRANCH  54  78
ATOM     78  C   UNL A   1      36.531  31.540  29.229  1.00  0.00     0.064 A 
ATOM     79  C   UNL A   1      35.499  30.728  28.741  1.00  0.00     0.173 A 
ATOM     80  C   UNL A   1      36.420  32.923  29.025  1.00  0.00     0.173 A 
ATOM     81  F   UNL A   1      35.571  29.395  28.883  1.00  0.00    -0.203 F 
ATOM     82  C   UNL A   1      34.415  31.272  28.055  1.00  0.00     0.198 A 
ATOM     83  C   UNL A   1      35.319  33.471  28.369  1.00  0.00     0.198 A 
ATOM     84  F   UNL A   1      37.383  33.748  29.465  1.00  0.00    -0.203 F 
ATOM     85  F   UNL A   1      33.471  30.466  27.548  1.00  0.00    -0.200 F 
ATOM     86  C   UNL A   1      34.322  32.644  27.875  1.00  0.00     0.200 A 
ATOM     87  F   UNL A   1      35.231  34.798  28.207  1.00  0.00    -0.200 F 
ATOM     88  F   UNL A   1      33.280  33.168  27.216  1.00  0.00    -0.200 F 
ENDBRANCH  54  78
BRANCH  66  89
ATOM     89  C   UNL A   1      39.126  32.139  35.679  1.00  0.00     0.064 A 
ATOM     90  C   UNL A   1      38.305  31.607  36.684  1.00  0.00     0.173 A 
ATOM     91  C   UNL A   1      39.595  33.453  35.843  1.00  0.00     0.173 A 
ATOM     92  F   UNL A   1      37.821  30.360  36.572  1.00  0.00    -0.203 F 
ATOM     93  C   UNL A   1      37.944  32.370  37.793  1.00  0.00     0.198 A 
ATOM     94  C   UNL A   1      39.262  34.199  36.971  1.00  0.00     0.198 A 
ATOM     95  F   UNL A   1      40.392  34.008  34.918  1.00  0.00    -0.203 F 
ATOM     96  F   UNL A   1      37.116  31.858  38.714  1.00  0.00    -0.200 F 
ATOM     97  C   UNL A   1      38.429  33.661  37.939  1.00  0.00     0.200 A 
ATOM     98  F   UNL A   1      39.749  35.438  37.119  1.00  0.00    -0.200 F 
ATOM     99  F   UNL A   1      38.090  34.389  39.012  1.00  0.00    -0.200 F 
ENDBRANCH  66  89
ENDBRANCH  40  41
ENDBRANCH  33  35
ENDBRANCH  32  33
ENDBRANCH  31  32
ENDBRANCH  30  31
ENDBRANCH  29  30
ENDBRANCH  28  29
ENDBRANCH  27  28
ENDBRANCH  26  27
ENDBRANCH   1  26
TORSDOF 23
ENDMDL
MODEL 3
REMARK VINA RESULT:      -9.3      5.683     11.080
REMARK SMILES Cc1cccc(C)c1Nc1ccccc1CC(=O)OCCOCCOCCOCCOC(=O)c1ccc(-c2c3nc(c(-c4c(F)c(F)c(F)c(F)c4F)c4ccc([nH]4)c(-c4c(F)c(F)c(F)c(F)c4F)c4nc(c(-c5c(F)c(F)c(F)c(F)c5F)c5ccc2[nH]5)C=C4)C=C3)cc1
REMARK SMILES IDX 24 1 23 2 22 3 21 4 20 5 19 6 17 7 18 8 16 9 15 10 10 11
REMARK SMILES IDX 11 12 12 13 14 14 13 15 9 16 8 18 1 19 2 20 3 21 4 22 6 23
REMARK SMILES IDX 5 24 7 25 25 26 26 27 27 28 28 29 29 30 30 31 31 32 32 33
REMARK SMILES IDX 33 34 34 35 35 36 96 37 36 38 95 39 37 40 38 41 39 42 89 43
REMARK SMILES IDX 40 44 94 45 88 46 90 47 41 48 93 49 87 50 86 51 42 53 74 54
REMARK SMILES IDX 54 55 73 56 55 57 58 58 72 59 91 60 56 61 57 62 71 64 92 65
REMARK SMILES IDX 59 66 43 67 44 68 52 69 45 70 46 71 50 72 53 73 47 74 48 75
REMARK SMILES IDX 51 76 49 77 75 78 76 79 84 80 77 81 78 82 82 83 85 84 79 85
REMARK SMILES IDX 80 86 83 87 81 88 60 89 61 90 69 91 62 92 63 93 67 94 70 95
REMARK SMILES IDX 64 96 65 97 68 98 66 99
REMARK H PARENT 9 17 90 52 58 63
REMARK Flexibility Score: inf
ROOT
ATOM      1  C   UNL A   1      34.011  31.104  27.649  1.00  0.00     0.188 C 
ENDROOT
BRANCH   1   2
ATOM      2  C   UNL A   1      32.820  30.259  27.145  1.00  0.00     0.188 C 
BRANCH   2   3
ATOM      3  O   UNL A   1      32.930  28.847  26.973  1.00  0.00    -0.376 OA
BRANCH   3   4
ATOM      4  C   UNL A   1      31.941  28.151  26.235  1.00  0.00     0.202 C 
BRANCH   4   5
ATOM      5  C   UNL A   1      32.311  26.746  25.715  1.00  0.00     0.261 C 
BRANCH   5   6
ATOM      6  O   UNL A   1      31.201  25.930  25.270  1.00  0.00    -0.463 OA
BRANCH   6   7
ATOM      7  C   UNL A   1      31.431  24.602  25.153  1.00  0.00     0.310 C 
ATOM      8  O   UNL A   1      30.867  23.766  25.860  1.00  0.00    -0.252 OA
BRANCH   7   9
ATOM      9  C   UNL A   1      32.299  24.153  23.987  1.00  0.00     0.160 C 
BRANCH   9  10
ATOM     10  C   UNL A   1      33.618  23.386  24.115  1.00  0.00    -0.013 A 
ATOM     11  C   UNL A   1      33.718  22.042  24.521  1.00  0.00     0.042 A 
ATOM     12  C   UNL A   1      34.992  21.455  24.704  1.00  0.00     0.026 A 
ATOM     13  C   UNL A   1      36.159  22.126  24.350  1.00  0.00     0.002 A 
ATOM     14  C   UNL A   1      34.811  24.004  23.668  1.00  0.00     0.006 A 
ATOM     15  C   UNL A   1      36.062  23.387  23.785  1.00  0.00     0.000 A 
BRANCH  11  16
ATOM     16  N   UNL A   1      32.627  21.155  24.526  1.00  0.00    -0.355 N 
ATOM     17  H   UNL A   1      31.826  21.493  24.987  1.00  0.00     0.167 HD
BRANCH  16  18
ATOM     18  C   UNL A   1      32.490  19.857  23.977  1.00  0.00     0.044 A 
ATOM     19  C   UNL A   1      31.880  21.002  21.782  1.00  0.00     0.046 C 
ATOM     20  C   UNL A   1      32.210  19.774  22.590  1.00  0.00    -0.027 A 
ATOM     21  C   UNL A   1      32.311  18.542  21.929  1.00  0.00     0.005 A 
ATOM     22  C   UNL A   1      32.673  17.392  22.621  1.00  0.00     0.001 A 
ATOM     23  C   UNL A   1      32.753  18.660  24.697  1.00  0.00    -0.027 A 
ATOM     24  C   UNL A   1      32.880  17.448  23.993  1.00  0.00     0.005 A 
ATOM     25  C   UNL A   1      32.988  18.579  26.186  1.00  0.00     0.046 C 
ENDBRANCH  16  18
ENDBRANCH  11  16
ENDBRANCH   9  10
ENDBRANCH   7   9
ENDBRANCH   6   7
ENDBRANCH   5   6
ENDBRANCH   4   5
ENDBRANCH   3   4
ENDBRANCH   2   3
ENDBRANCH   1   2
BRANCH   1  26
ATOM     26  O   UNL A   1      33.678  32.436  27.984  1.00  0.00    -0.377 OA
BRANCH  26  27
ATOM     27  C   UNL A   1      34.723  33.187  28.553  1.00  0.00     0.188 C 
BRANCH  27  28
ATOM     28  C   UNL A   1      34.270  34.393  29.386  1.00  0.00     0.188 C 
BRANCH  28  29
ATOM     29  O   UNL A   1      34.004  34.055  30.742  1.00  0.00    -0.376 OA
BRANCH  29  30
ATOM     30  C   UNL A   1      34.874  34.517  31.758  1.00  0.00     0.202 C 
BRANCH  30  31
ATOM     31  C   UNL A   1      36.339  34.047  31.751  1.00  0.00     0.261 C 
BRANCH  31  32
ATOM     32  O   UNL A   1      36.680  32.932  32.585  1.00  0.00    -0.460 OA
BRANCH  32  33
ATOM     33  C   UNL A   1      36.292  31.700  32.179  1.00  0.00     0.338 C 
ATOM     34  O   UNL A   1      35.178  31.235  32.219  1.00  0.00    -0.246 OA
BRANCH  33  35
ATOM     35  C   UNL A   1      37.447  31.084  31.476  1.00  0.00     0.060 A 
ATOM     36  C   UNL A   1      38.530  30.630  32.240  1.00  0.00     0.016 A 
ATOM     37  C   UNL A   1      37.445  30.914  30.089  1.00  0.00     0.016 A 
ATOM     38  C   UNL A   1      39.619  30.017  31.620  1.00  0.00     0.010 A 
ATOM     39  C   UNL A   1      38.556  30.338  29.464  1.00  0.00     0.010 A 
ATOM     40  C   UNL A   1      39.659  29.913  30.224  1.00  0.00    -0.014 A 
BRANCH  40  41
ATOM     41  C   UNL A   1      40.945  29.589  29.561  1.00  0.00     0.031 A 
ATOM     42  C   UNL A   1      41.123  28.196  29.021  1.00  0.00     0.074 A 
ATOM     43  C   UNL A   1      41.917  30.504  29.408  1.00  0.00     0.049 A 
ATOM     44  N   UNL A   1      42.157  27.652  28.434  1.00  0.00    -0.248 NA
ATOM     45  C   UNL A   1      39.969  27.292  29.167  1.00  0.00     0.031 C 
ATOM     46  C   UNL A   1      41.843  31.897  29.841  1.00  0.00     0.029 A 
ATOM     47  N   UNL A   1      43.166  30.390  28.847  1.00  0.00    -0.354 N 
ATOM     48  C   UNL A   1      41.780  26.347  28.145  1.00  0.00     0.074 A 
ATOM     49  C   UNL A   1      40.437  26.168  28.649  1.00  0.00     0.031 C 
ATOM     50  C   UNL A   1      43.006  32.506  29.542  1.00  0.00     0.029 A 
ATOM     51  C   UNL A   1      43.914  31.537  28.930  1.00  0.00     0.049 A 
ATOM     52  H   UNL A   1      43.493  29.562  28.426  1.00  0.00     0.167 HD
ATOM     53  C   UNL A   1      42.489  25.385  27.509  1.00  0.00     0.037 A 
ATOM     54  C   UNL A   1      45.195  31.766  28.572  1.00  0.00     0.037 A 
ATOM     55  C   UNL A   1      43.829  25.564  27.019  1.00  0.00     0.049 A 
ATOM     56  C   UNL A   1      45.996  30.649  27.946  1.00  0.00     0.074 A 
ATOM     57  C   UNL A   1      44.632  24.656  26.352  1.00  0.00     0.029 A 
ATOM     58  N   UNL A   1      44.570  26.729  27.158  1.00  0.00    -0.354 N 
ATOM     59  N   UNL A   1      45.627  29.426  27.652  1.00  0.00    -0.248 NA
ATOM     60  C   UNL A   1      47.393  30.949  27.601  1.00  0.00     0.031 C 
ATOM     61  C   UNL A   1      45.881  25.251  26.145  1.00  0.00     0.029 A 
ATOM     62  C   UNL A   1      45.833  26.552  26.618  1.00  0.00     0.049 A 
ATOM     63  H   UNL A   1      44.245  27.559  27.578  1.00  0.00     0.167 HD
ATOM     64  C   UNL A   1      46.730  28.824  27.057  1.00  0.00     0.074 A 
ATOM     65  C   UNL A   1      47.778  29.822  27.021  1.00  0.00     0.031 C 
ATOM     66  C   UNL A   1      46.864  27.560  26.581  1.00  0.00     0.037 A 
BRANCH  53  67
ATOM     67  C   UNL A   1      41.840  24.041  27.345  1.00  0.00     0.064 A 
ATOM     68  C   UNL A   1      42.329  22.897  27.993  1.00  0.00     0.173 A 
ATOM     69  C   UNL A   1      40.698  23.902  26.542  1.00  0.00     0.173 A 
ATOM     70  F   UNL A   1      43.429  22.971  28.758  1.00  0.00    -0.203 F 
ATOM     71  C   UNL A   1      41.715  21.659  27.822  1.00  0.00     0.198 A 
ATOM     72  C   UNL A   1      40.067  22.669  26.400  1.00  0.00     0.198 A 
ATOM     73  F   UNL A   1      40.190  24.963  25.897  1.00  0.00    -0.203 F 
ATOM     74  F   UNL A   1      42.232  20.570  28.407  1.00  0.00    -0.200 F 
ATOM     75  C   UNL A   1      40.580  21.548  27.032  1.00  0.00     0.200 A 
ATOM     76  F   UNL A   1      38.963  22.567  25.647  1.00  0.00    -0.200 F 
ATOM     77  F   UNL A   1      39.986  20.357  26.875  1.00  0.00    -0.200 F 
ENDBRANCH  53  67
BRANCH  54  78
ATOM     78  C   UNL A   1      45.813  33.098  28.814  1.00  0.00     0.064 A 
ATOM     79  C   UNL A   1      45.624  34.160  27.918  1.00  0.00     0.173 A 
ATOM     80  C   UNL A   1      46.634  33.327  29.928  1.00  0.00     0.173 A 
ATOM     81  F   UNL A   1      44.873  33.984  26.821  1.00  0.00    -0.203 F 
ATOM     82  C   UNL A   1      46.250  35.389  28.115  1.00  0.00     0.198 A 
ATOM     83  C   UNL A   1      47.233  34.567  30.142  1.00  0.00     0.198 A 
ATOM     84  F   UNL A   1      46.855  32.344  30.814  1.00  0.00    -0.203 F 
ATOM     85  F   UNL A   1      46.098  36.368  27.212  1.00  0.00    -0.200 F 
ATOM     86  C   UNL A   1      47.049  35.595  29.229  1.00  0.00     0.200 A 
ATOM     87  F   UNL A   1      47.995  34.762  31.226  1.00  0.00    -0.200 F 
ATOM     88  F   UNL A   1      47.651  36.776  29.418  1.00  0.00    -0.200 F 
ENDBRANCH  54  78
BRANCH  66  89
ATOM     89  C   UNL A   1      48.172  27.193  25.939  1.00  0.00     0.064 A 
ATOM     90  C   UNL A   1      48.405  27.382  24.569  1.00  0.00     0.173 A 
ATOM     91  C   UNL A   1      49.227  26.692  26.720  1.00  0.00     0.173 A 
ATOM     92  F   UNL A   1      47.428  27.849  23.775  1.00  0.00    -0.203 F 
ATOM     93  C   UNL A   1      49.633  27.054  23.999  1.00  0.00     0.198 A 
ATOM     94  C   UNL A   1      50.464  26.399  26.153  1.00  0.00     0.198 A 
ATOM     95  F   UNL A   1      49.062  26.502  28.037  1.00  0.00    -0.203 F 
ATOM     96  F   UNL A   1      49.815  27.192  22.678  1.00  0.00    -0.200 F 
ATOM     97  C   UNL A   1      50.663  26.571  24.792  1.00  0.00     0.200 A 
ATOM     98  F   UNL A   1      51.463  25.952  26.926  1.00  0.00    -0.200 F 
ATOM     99  F   UNL A   1      51.847  26.266  24.244  1.00  0.00    -0.200 F 
ENDBRANCH  66  89
ENDBRANCH  40  41
ENDBRANCH  33  35
ENDBRANCH  32  33
ENDBRANCH  31  32
ENDBRANCH  30  31
ENDBRANCH  29  30
ENDBRANCH  28  29
ENDBRANCH  27  28
ENDBRANCH  26  27
ENDBRANCH   1  26
TORSDOF 23
ENDMDL
