MODEL 1
REMARK VINA RESULT:     -11.8      0.000      0.000
REMARK SMILES Cc1ncc(CO)c([C@H]2[NH2+][C@@H](C(=O)OCCOCCOCCOCCOC(=O)c3ccc(-c4c5nc(c(-c6c(F)c(F)c(F)c(F)c6F)c6ccc([nH]6)c(-c6c(F)c(F)c(F)c(F)c6F)c6nc(c(-c7c(F)c(F)c(F)c(F)c7F)c7ccc4[nH]7)C=C6)C=C5)cc3)Cc3[nH]cnc32)c1O
REMARK SMILES IDX 19 1 18 2 17 3 16 4 15 5 14 6 12 7 13 8 11 9 9 10 10 11
REMARK SMILES IDX 97 12 93 15 96 16 92 17 94 18 95 19 8 21 1 22 2 23 3 24
REMARK SMILES IDX 98 25 4 26 5 27 99 28 6 30 7 31 20 33 21 34 22 35 23 36
REMARK SMILES IDX 24 37 25 38 26 39 27 40 28 41 29 42 30 43 91 44 31 45 90 46
REMARK SMILES IDX 32 47 33 48 34 49 84 50 35 51 89 52 83 53 85 54 36 55 88 56
REMARK SMILES IDX 82 57 81 58 37 60 69 61 49 62 68 63 50 64 53 65 67 66 86 67
REMARK SMILES IDX 51 68 52 69 66 71 87 72 54 73 38 74 39 75 47 76 40 77 41 78
REMARK SMILES IDX 45 79 48 80 42 81 43 82 46 83 44 84 70 85 71 86 79 87 72 88
REMARK SMILES IDX 73 89 77 90 80 91 74 92 75 93 78 94 76 95 55 96 56 97 64 98
REMARK SMILES IDX 57 99 58 100 62 101 65 102 59 103 60 104 63 105 61 106
REMARK H PARENT 10 13 10 14 94 20 99 29 7 32 85 59 53 70
REMARK Flexibility Score: inf
ROOT
ATOM      1  C   UNL A   1      41.690  19.345  26.324  1.00  0.00     0.188 C 
ENDROOT
BRANCH   1   2
ATOM      2  C   UNL A   1      40.394  20.133  25.976  1.00  0.00     0.188 C 
BRANCH   2   3
ATOM      3  O   UNL A   1      40.312  21.537  26.179  1.00  0.00    -0.376 OA
BRANCH   3   4
ATOM      4  C   UNL A   1      39.047  22.167  26.257  1.00  0.00     0.202 C 
BRANCH   4   5
ATOM      5  C   UNL A   1      37.808  21.505  25.633  1.00  0.00     0.261 C 
BRANCH   5   6
ATOM      6  O   UNL A   1      36.901  22.365  24.924  1.00  0.00    -0.459 OA
BRANCH   6   7
ATOM      7  C   UNL A   1      36.211  23.283  25.666  1.00  0.00     0.365 C 
ATOM      8  O   UNL A   1      36.627  24.393  25.965  1.00  0.00    -0.245 OA
BRANCH   7   9
ATOM      9  C   UNL A   1      34.841  22.703  26.054  1.00  0.00     0.300 C 
ATOM     10  C   UNL A   1      33.042  21.149  25.532  1.00  0.00     0.270 C 
ATOM     11  N   UNL A   1      34.214  21.864  24.968  1.00  0.00    -0.323 N 
ATOM     12  C   UNL A   1      32.042  22.191  25.922  1.00  0.00     0.124 A 
ATOM     13  H   UNL A   1      33.913  22.464  24.201  1.00  0.00     0.347 HD
ATOM     14  H   UNL A   1      34.894  21.189  24.617  1.00  0.00     0.347 HD
ATOM     15  C   UNL A   1      32.484  23.408  26.420  1.00  0.00     0.051 A 
ATOM     16  N   UNL A   1      30.687  22.088  26.072  1.00  0.00    -0.235 NA
ATOM     17  C   UNL A   1      33.904  23.866  26.483  1.00  0.00     0.133 C 
ATOM     18  N   UNL A   1      31.376  24.077  26.830  1.00  0.00    -0.348 N 
ATOM     19  C   UNL A   1      30.314  23.241  26.596  1.00  0.00     0.197 A 
ATOM     20  H   UNL A   1      31.342  24.980  27.218  1.00  0.00     0.167 HD
BRANCH  10  21
ATOM     21  C   UNL A   1      32.640  19.945  24.698  1.00  0.00     0.066 A 
ATOM     22  C   UNL A   1      32.493  16.133  25.283  1.00  0.00     0.071 C 
ATOM     23  C   UNL A   1      32.471  17.479  24.615  1.00  0.00     0.079 A 
ATOM     24  N   UNL A   1      32.175  17.480  23.304  1.00  0.00    -0.257 NA
ATOM     25  C   UNL A   1      32.700  18.663  25.332  1.00  0.00     0.146 A 
ATOM     26  C   UNL A   1      32.118  18.685  22.700  1.00  0.00     0.118 A 
ATOM     27  C   UNL A   1      32.354  19.930  23.314  1.00  0.00     0.009 A 
BRANCH  25  28
ATOM     28  O   UNL A   1      33.039  18.470  26.652  1.00  0.00    -0.505 OA
ATOM     29  H   UNL A   1      32.844  19.131  27.286  1.00  0.00     0.293 HD
ENDBRANCH  25  28
BRANCH  27  30
ATOM     30  C   UNL A   1      32.229  21.134  22.420  1.00  0.00     0.194 C 
BRANCH  30  31
ATOM     31  O   UNL A   1      31.371  20.837  21.315  1.00  0.00    -0.392 OA
ATOM     32  H   UNL A   1      31.265  19.876  21.237  1.00  0.00     0.211 HD
ENDBRANCH  30  31
ENDBRANCH  27  30
ENDBRANCH  10  21
ENDBRANCH   7   9
ENDBRANCH   6   7
ENDBRANCH   5   6
ENDBRANCH   4   5
ENDBRANCH   3   4
ENDBRANCH   2   3
ENDBRANCH   1   2
BRANCH   1  33
ATOM     33  O   UNL A   1      42.478  18.954  25.212  1.00  0.00    -0.377 OA
BRANCH  33  34
ATOM     34  C   UNL A   1      43.882  19.130  25.370  1.00  0.00     0.188 C 
BRANCH  34  35
ATOM     35  C   UNL A   1      44.725  19.337  24.088  1.00  0.00     0.188 C 
BRANCH  35  36
ATOM     36  O   UNL A   1      45.602  20.454  24.147  1.00  0.00    -0.376 OA
BRANCH  36  37
ATOM     37  C   UNL A   1      45.997  21.039  25.374  1.00  0.00     0.202 C 
BRANCH  37  38
ATOM     38  C   UNL A   1      45.670  22.521  25.535  1.00  0.00     0.261 C 
BRANCH  38  39
ATOM     39  O   UNL A   1      44.541  22.757  26.356  1.00  0.00    -0.460 OA
BRANCH  39  40
ATOM     40  C   UNL A   1      43.430  23.095  25.693  1.00  0.00     0.338 C 
ATOM     41  O   UNL A   1      43.196  22.937  24.493  1.00  0.00    -0.246 OA
BRANCH  40  42
ATOM     42  C   UNL A   1      42.547  23.819  26.596  1.00  0.00     0.060 A 
ATOM     43  C   UNL A   1      41.680  24.728  25.995  1.00  0.00     0.016 A 
ATOM     44  C   UNL A   1      42.885  23.872  27.957  1.00  0.00     0.016 A 
ATOM     45  C   UNL A   1      41.406  25.878  26.685  1.00  0.00     0.010 A 
ATOM     46  C   UNL A   1      42.630  25.030  28.637  1.00  0.00     0.010 A 
ATOM     47  C   UNL A   1      41.991  26.051  27.945  1.00  0.00    -0.014 A 
BRANCH  47  48
ATOM     48  C   UNL A   1      41.868  27.350  28.550  1.00  0.00     0.031 A 
ATOM     49  C   UNL A   1      43.013  28.219  28.229  1.00  0.00     0.074 A 
ATOM     50  C   UNL A   1      40.787  27.694  29.272  1.00  0.00     0.049 A 
ATOM     51  N   UNL A   1      43.920  28.653  29.037  1.00  0.00    -0.248 NA
ATOM     52  C   UNL A   1      43.297  28.464  26.806  1.00  0.00     0.031 C 
ATOM     53  C   UNL A   1      39.515  26.980  29.402  1.00  0.00     0.029 A 
ATOM     54  N   UNL A   1      40.574  28.832  29.979  1.00  0.00    -0.354 N 
ATOM     55  C   UNL A   1      44.782  29.400  28.247  1.00  0.00     0.074 A 
ATOM     56  C   UNL A   1      44.475  29.081  26.880  1.00  0.00     0.031 C 
ATOM     57  C   UNL A   1      38.595  27.811  29.946  1.00  0.00     0.029 A 
ATOM     58  C   UNL A   1      39.247  29.057  30.310  1.00  0.00     0.049 A 
ATOM     59  H   UNL A   1      41.300  29.445  30.235  1.00  0.00     0.167 HD
ATOM     60  C   UNL A   1      45.477  30.437  28.782  1.00  0.00     0.037 A 
ATOM     61  C   UNL A   1      38.737  30.232  30.755  1.00  0.00     0.037 A 
ATOM     62  C   UNL A   1      45.577  30.308  30.214  1.00  0.00     0.049 A 
ATOM     63  C   UNL A   1      39.874  31.054  31.250  1.00  0.00     0.074 A 
ATOM     64  C   UNL A   1      46.131  29.369  31.063  1.00  0.00     0.029 A 
ATOM     65  N   UNL A   1      44.719  31.053  30.986  1.00  0.00    -0.354 N 
ATOM     66  N   UNL A   1      40.566  30.767  32.318  1.00  0.00    -0.248 NA
ATOM     67  C   UNL A   1      40.541  31.931  30.297  1.00  0.00     0.031 C 
ATOM     68  C   UNL A   1      45.248  29.308  32.180  1.00  0.00     0.029 A 
ATOM     69  C   UNL A   1      44.236  30.246  31.982  1.00  0.00     0.049 A 
ATOM     70  H   UNL A   1      44.490  32.000  30.847  1.00  0.00     0.167 HD
ATOM     71  C   UNL A   1      41.880  31.061  31.981  1.00  0.00     0.074 A 
ATOM     72  C   UNL A   1      41.792  31.856  30.759  1.00  0.00     0.031 C 
ATOM     73  C   UNL A   1      42.918  30.386  32.557  1.00  0.00     0.037 A 
BRANCH  60  74
ATOM     74  C   UNL A   1      45.682  31.747  28.063  1.00  0.00     0.064 A 
ATOM     75  C   UNL A   1      44.547  32.473  27.656  1.00  0.00     0.173 A 
ATOM     76  C   UNL A   1      46.906  32.161  27.491  1.00  0.00     0.173 A 
ATOM     77  F   UNL A   1      43.331  32.159  28.125  1.00  0.00    -0.203 F 
ATOM     78  C   UNL A   1      44.623  33.471  26.681  1.00  0.00     0.198 A 
ATOM     79  C   UNL A   1      46.986  33.194  26.561  1.00  0.00     0.198 A 
ATOM     80  F   UNL A   1      48.061  31.523  27.710  1.00  0.00    -0.203 F 
ATOM     81  F   UNL A   1      43.499  34.038  26.225  1.00  0.00    -0.200 F 
ATOM     82  C   UNL A   1      45.840  33.824  26.128  1.00  0.00     0.200 A 
ATOM     83  F   UNL A   1      48.174  33.509  26.028  1.00  0.00    -0.200 F 
ATOM     84  F   UNL A   1      45.907  34.731  25.147  1.00  0.00    -0.200 F 
ENDBRANCH  60  74
BRANCH  61  85
ATOM     85  C   UNL A   1      37.408  30.811  30.449  1.00  0.00     0.064 A 
ATOM     86  C   UNL A   1      36.539  31.217  31.474  1.00  0.00     0.173 A 
ATOM     87  C   UNL A   1      37.069  31.222  29.143  1.00  0.00     0.173 A 
ATOM     88  F   UNL A   1      36.817  30.916  32.751  1.00  0.00    -0.203 F 
ATOM     89  C   UNL A   1      35.408  31.998  31.210  1.00  0.00     0.198 A 
ATOM     90  C   UNL A   1      35.937  31.992  28.881  1.00  0.00     0.198 A 
ATOM     91  F   UNL A   1      37.883  30.967  28.109  1.00  0.00    -0.203 F 
ATOM     92  F   UNL A   1      34.634  32.417  32.222  1.00  0.00    -0.200 F 
ATOM     93  C   UNL A   1      35.111  32.391  29.915  1.00  0.00     0.200 A 
ATOM     94  F   UNL A   1      35.686  32.399  27.628  1.00  0.00    -0.200 F 
ATOM     95  F   UNL A   1      34.061  33.184  29.669  1.00  0.00    -0.200 F 
ENDBRANCH  61  85
BRANCH  73  96
ATOM     96  C   UNL A   1      42.614  29.535  33.758  1.00  0.00     0.064 A 
ATOM     97  C   UNL A   1      42.114  28.223  33.688  1.00  0.00     0.173 A 
ATOM     98  C   UNL A   1      42.982  30.018  35.021  1.00  0.00     0.173 A 
ATOM     99  F   UNL A   1      41.834  27.654  32.508  1.00  0.00    -0.203 F 
ATOM    100  C   UNL A   1      41.951  27.449  34.836  1.00  0.00     0.198 A 
ATOM    101  C   UNL A   1      42.856  29.230  36.161  1.00  0.00     0.198 A 
ATOM    102  F   UNL A   1      43.518  31.243  35.141  1.00  0.00    -0.203 F 
ATOM    103  F   UNL A   1      41.461  26.205  34.746  1.00  0.00    -0.200 F 
ATOM    104  C   UNL A   1      42.331  27.951  36.071  1.00  0.00     0.200 A 
ATOM    105  F   UNL A   1      43.274  29.702  37.344  1.00  0.00    -0.200 F 
ATOM    106  F   UNL A   1      42.218  27.192  37.169  1.00  0.00    -0.200 F 
ENDBRANCH  73  96
ENDBRANCH  47  48
ENDBRANCH  40  42
ENDBRANCH  39  40
ENDBRANCH  38  39
ENDBRANCH  37  38
ENDBRANCH  36  37
ENDBRANCH  35  36
ENDBRANCH  34  35
ENDBRANCH  33  34
ENDBRANCH   1  33
TORSDOF 24
ENDMDL
MODEL 2
REMARK VINA RESULT:     -11.5      3.057      4.496
REMARK SMILES Cc1ncc(CO)c([C@H]2[NH2+][C@@H](C(=O)OCCOCCOCCOCCOC(=O)c3ccc(-c4c5nc(c(-c6c(F)c(F)c(F)c(F)c6F)c6ccc([nH]6)c(-c6c(F)c(F)c(F)c(F)c6F)c6nc(c(-c7c(F)c(F)c(F)c(F)c7F)c7ccc4[nH]7)C=C6)C=C5)cc3)Cc3[nH]cnc32)c1O
REMARK SMILES IDX 19 1 18 2 17 3 16 4 15 5 14 6 12 7 13 8 11 9 9 10 10 11
REMARK SMILES IDX 97 12 93 15 96 16 92 17 94 18 95 19 8 21 1 22 2 23 3 24
REMARK SMILES IDX 98 25 4 26 5 27 99 28 6 30 7 31 20 33 21 34 22 35 23 36
REMARK SMILES IDX 24 37 25 38 26 39 27 40 28 41 29 42 30 43 91 44 31 45 90 46
REMARK SMILES IDX 32 47 33 48 34 49 84 50 35 51 89 52 83 53 85 54 36 55 88 56
REMARK SMILES IDX 82 57 81 58 37 60 69 61 49 62 68 63 50 64 53 65 67 66 86 67
REMARK SMILES IDX 51 68 52 69 66 71 87 72 54 73 38 74 39 75 47 76 40 77 41 78
REMARK SMILES IDX 45 79 48 80 42 81 43 82 46 83 44 84 70 85 71 86 79 87 72 88
REMARK SMILES IDX 73 89 77 90 80 91 74 92 75 93 78 94 76 95 55 96 56 97 64 98
REMARK SMILES IDX 57 99 58 100 62 101 65 102 59 103 60 104 63 105 61 106
REMARK H PARENT 10 13 10 14 94 20 99 29 7 32 85 59 53 70
REMARK Flexibility Score: inf
ROOT
ATOM      1  C   UNL A   1      37.732  22.274  25.243  1.00  0.00     0.188 C 
ENDROOT
BRANCH   1   2
ATOM      2  C   UNL A   1      36.471  21.887  24.419  1.00  0.00     0.188 C 
BRANCH   2   3
ATOM      3  O   UNL A   1      35.279  22.657  24.496  1.00  0.00    -0.376 OA
BRANCH   3   4
ATOM      4  C   UNL A   1      34.095  22.192  23.875  1.00  0.00     0.202 C 
BRANCH   4   5
ATOM      5  C   UNL A   1      33.373  23.056  22.829  1.00  0.00     0.261 C 
BRANCH   5   6
ATOM      6  O   UNL A   1      34.109  24.163  22.283  1.00  0.00    -0.459 OA
BRANCH   6   7
ATOM      7  C   UNL A   1      33.381  25.158  21.691  1.00  0.00     0.365 C 
ATOM      8  O   UNL A   1      33.232  25.291  20.486  1.00  0.00    -0.245 OA
BRANCH   7   9
ATOM      9  C   UNL A   1      32.780  26.067  22.776  1.00  0.00     0.300 C 
ATOM     10  C   UNL A   1      31.042  27.650  23.403  1.00  0.00     0.270 C 
ATOM     11  N   UNL A   1      31.732  27.018  22.252  1.00  0.00    -0.323 N 
ATOM     12  C   UNL A   1      32.062  28.469  24.128  1.00  0.00     0.124 A 
ATOM     13  H   UNL A   1      32.176  27.736  21.681  1.00  0.00     0.347 HD
ATOM     14  H   UNL A   1      31.058  26.508  21.682  1.00  0.00     0.347 HD
ATOM     15  C   UNL A   1      33.372  28.017  24.200  1.00  0.00     0.051 A 
ATOM     16  N   UNL A   1      31.892  29.548  24.950  1.00  0.00    -0.235 NA
ATOM     17  C   UNL A   1      33.931  26.829  23.490  1.00  0.00     0.133 C 
ATOM     18  N   UNL A   1      34.022  28.866  25.038  1.00  0.00    -0.348 N 
ATOM     19  C   UNL A   1      33.088  29.777  25.462  1.00  0.00     0.197 A 
ATOM     20  H   UNL A   1      34.972  28.835  25.290  1.00  0.00     0.167 HD
BRANCH  10  21
ATOM     21  C   UNL A   1      29.692  28.233  23.021  1.00  0.00     0.066 A 
ATOM     22  C   UNL A   1      28.503  31.379  21.128  1.00  0.00     0.071 C 
ATOM     23  C   UNL A   1      28.508  30.129  21.962  1.00  0.00     0.079 A 
ATOM     24  N   UNL A   1      27.305  29.687  22.368  1.00  0.00    -0.257 NA
ATOM     25  C   UNL A   1      29.697  29.444  22.258  1.00  0.00     0.146 A 
ATOM     26  C   UNL A   1      27.294  28.546  23.088  1.00  0.00     0.118 A 
ATOM     27  C   UNL A   1      28.424  27.793  23.463  1.00  0.00     0.009 A 
BRANCH  25  28
ATOM     28  O   UNL A   1      30.838  30.068  21.807  1.00  0.00    -0.505 OA
ATOM     29  H   UNL A   1      30.843  30.485  20.969  1.00  0.00     0.293 HD
ENDBRANCH  25  28
BRANCH  27  30
ATOM     30  C   UNL A   1      28.145  26.554  24.270  1.00  0.00     0.194 C 
BRANCH  30  31
ATOM     31  O   UNL A   1      26.785  26.149  24.092  1.00  0.00    -0.392 OA
ATOM     32  H   UNL A   1      26.307  26.244  24.931  1.00  0.00     0.211 HD
ENDBRANCH  30  31
ENDBRANCH  27  30
ENDBRANCH  10  21
ENDBRANCH   7   9
ENDBRANCH   6   7
ENDBRANCH   5   6
ENDBRANCH   4   5
ENDBRANCH   3   4
ENDBRANCH   2   3
ENDBRANCH   1   2
BRANCH   1  33
ATOM     33  O   UNL A   1      38.506  21.183  25.714  1.00  0.00    -0.377 OA
BRANCH  33  34
ATOM     34  C   UNL A   1      39.823  21.512  26.145  1.00  0.00     0.188 C 
BRANCH  34  35
ATOM     35  C   UNL A   1      40.464  20.617  27.232  1.00  0.00     0.188 C 
BRANCH  35  36
ATOM     36  O   UNL A   1      41.885  20.603  27.207  1.00  0.00    -0.376 OA
BRANCH  36  37
ATOM     37  C   UNL A   1      42.615  20.187  26.067  1.00  0.00     0.202 C 
BRANCH  37  38
ATOM     38  C   UNL A   1      43.688  21.157  25.580  1.00  0.00     0.261 C 
BRANCH  38  39
ATOM     39  O   UNL A   1      43.694  22.383  26.289  1.00  0.00    -0.460 OA
BRANCH  39  40
ATOM     40  C   UNL A   1      43.203  23.424  25.607  1.00  0.00     0.338 C 
ATOM     41  O   UNL A   1      43.523  23.797  24.477  1.00  0.00    -0.246 OA
BRANCH  40  42
ATOM     42  C   UNL A   1      42.291  24.161  26.470  1.00  0.00     0.060 A 
ATOM     43  C   UNL A   1      41.508  25.125  25.840  1.00  0.00     0.016 A 
ATOM     44  C   UNL A   1      42.534  24.159  27.852  1.00  0.00     0.016 A 
ATOM     45  C   UNL A   1      41.235  26.266  26.545  1.00  0.00     0.010 A 
ATOM     46  C   UNL A   1      42.282  25.307  28.549  1.00  0.00     0.010 A 
ATOM     47  C   UNL A   1      41.738  26.376  27.847  1.00  0.00    -0.014 A 
BRANCH  47  48
ATOM     48  C   UNL A   1      41.628  27.662  28.484  1.00  0.00     0.031 A 
ATOM     49  C   UNL A   1      42.780  28.527  28.180  1.00  0.00     0.074 A 
ATOM     50  C   UNL A   1      40.552  27.998  29.216  1.00  0.00     0.049 A 
ATOM     51  N   UNL A   1      43.693  28.933  28.997  1.00  0.00    -0.248 NA
ATOM     52  C   UNL A   1      43.063  28.803  26.763  1.00  0.00     0.031 C 
ATOM     53  C   UNL A   1      39.273  27.293  29.332  1.00  0.00     0.029 A 
ATOM     54  N   UNL A   1      40.351  29.121  29.951  1.00  0.00    -0.354 N 
ATOM     55  C   UNL A   1      44.561  29.691  28.223  1.00  0.00     0.074 A 
ATOM     56  C   UNL A   1      44.247  29.407  26.849  1.00  0.00     0.031 C 
ATOM     57  C   UNL A   1      38.363  28.119  29.898  1.00  0.00     0.029 A 
ATOM     58  C   UNL A   1      39.027  29.349  30.290  1.00  0.00     0.049 A 
ATOM     59  H   UNL A   1      41.083  29.721  30.220  1.00  0.00     0.167 HD
ATOM     60  C   UNL A   1      45.266  30.708  28.781  1.00  0.00     0.037 A 
ATOM     61  C   UNL A   1      38.528  30.519  30.764  1.00  0.00     0.037 A 
ATOM     62  C   UNL A   1      45.367  30.544  30.209  1.00  0.00     0.049 A 
ATOM     63  C   UNL A   1      39.674  31.317  31.276  1.00  0.00     0.074 A 
ATOM     64  C   UNL A   1      45.915  29.580  31.034  1.00  0.00     0.029 A 
ATOM     65  N   UNL A   1      44.518  31.278  31.000  1.00  0.00    -0.354 N 
ATOM     66  N   UNL A   1      40.366  30.999  32.335  1.00  0.00    -0.248 NA
ATOM     67  C   UNL A   1      40.347  32.211  30.342  1.00  0.00     0.031 C 
ATOM     68  C   UNL A   1      45.034  29.500  32.152  1.00  0.00     0.029 A 
ATOM     69  C   UNL A   1      44.030  30.452  31.978  1.00  0.00     0.049 A 
ATOM     70  H   UNL A   1      44.298  32.231  30.885  1.00  0.00     0.167 HD
ATOM     71  C   UNL A   1      41.682  31.289  32.002  1.00  0.00     0.074 A 
ATOM     72  C   UNL A   1      41.599  32.113  30.800  1.00  0.00     0.031 C 
ATOM     73  C   UNL A   1      42.714  30.591  32.560  1.00  0.00     0.037 A 
BRANCH  60  74
ATOM     74  C   UNL A   1      45.481  32.033  28.093  1.00  0.00     0.064 A 
ATOM     75  C   UNL A   1      44.353  32.794  27.734  1.00  0.00     0.173 A 
ATOM     76  C   UNL A   1      46.700  32.437  27.502  1.00  0.00     0.173 A 
ATOM     77  F   UNL A   1      43.142  32.493  28.225  1.00  0.00    -0.203 F 
ATOM     78  C   UNL A   1      44.427  33.816  26.786  1.00  0.00     0.198 A 
ATOM     79  C   UNL A   1      46.779  33.494  26.599  1.00  0.00     0.198 A 
ATOM     80  F   UNL A   1      47.846  31.768  27.674  1.00  0.00    -0.203 F 
ATOM     81  F   UNL A   1      43.304  34.419  26.374  1.00  0.00    -0.200 F 
ATOM     82  C   UNL A   1      45.637  34.159  26.212  1.00  0.00     0.200 A 
ATOM     83  F   UNL A   1      47.961  33.797  26.045  1.00  0.00    -0.200 F 
ATOM     84  F   UNL A   1      45.700  35.092  25.254  1.00  0.00    -0.200 F 
ENDBRANCH  60  74
BRANCH  61  85
ATOM     85  C   UNL A   1      37.204  31.117  30.476  1.00  0.00     0.064 A 
ATOM     86  C   UNL A   1      36.316  31.449  31.510  1.00  0.00     0.173 A 
ATOM     87  C   UNL A   1      36.889  31.619  29.196  1.00  0.00     0.173 A 
ATOM     88  F   UNL A   1      36.571  31.060  32.767  1.00  0.00    -0.203 F 
ATOM     89  C   UNL A   1      35.189  32.247  31.281  1.00  0.00     0.198 A 
ATOM     90  C   UNL A   1      35.760  32.405  28.968  1.00  0.00     0.198 A 
ATOM     91  F   UNL A   1      37.722  31.438  28.162  1.00  0.00    -0.203 F 
ATOM     92  F   UNL A   1      34.395  32.593  32.305  1.00  0.00    -0.200 F 
ATOM     93  C   UNL A   1      34.915  32.729  30.012  1.00  0.00     0.200 A 
ATOM     94  F   UNL A   1      35.532  32.899  27.742  1.00  0.00    -0.200 F 
ATOM     95  F   UNL A   1      33.868  33.538  29.803  1.00  0.00    -0.200 F 
ENDBRANCH  61  85
BRANCH  73  96
ATOM     96  C   UNL A   1      42.405  29.714  33.741  1.00  0.00     0.064 A 
ATOM     97  C   UNL A   1      42.000  28.371  33.641  1.00  0.00     0.173 A 
ATOM     98  C   UNL A   1      42.671  30.213  35.023  1.00  0.00     0.173 A 
ATOM     99  F   UNL A   1      41.823  27.792  32.446  1.00  0.00    -0.203 F 
ATOM    100  C   UNL A   1      41.829  27.582  34.777  1.00  0.00     0.198 A 
ATOM    101  C   UNL A   1      42.538  29.412  36.153  1.00  0.00     0.198 A 
ATOM    102  F   UNL A   1      43.115  31.471  35.174  1.00  0.00    -0.203 F 
ATOM    103  F   UNL A   1      41.430  26.307  34.657  1.00  0.00    -0.200 F 
ATOM    104  C   UNL A   1      42.107  28.101  36.031  1.00  0.00     0.200 A 
ATOM    105  F   UNL A   1      42.858  29.904  37.357  1.00  0.00    -0.200 F 
ATOM    106  F   UNL A   1      41.987  27.330  37.121  1.00  0.00    -0.200 F 
ENDBRANCH  73  96
ENDBRANCH  47  48
ENDBRANCH  40  42
ENDBRANCH  39  40
ENDBRANCH  38  39
ENDBRANCH  37  38
ENDBRANCH  36  37
ENDBRANCH  35  36
ENDBRANCH  34  35
ENDBRANCH  33  34
ENDBRANCH   1  33
TORSDOF 24
ENDMDL
MODEL 3
REMARK VINA RESULT:     -11.3      1.733      2.963
REMARK SMILES Cc1ncc(CO)c([C@H]2[NH2+][C@@H](C(=O)OCCOCCOCCOCCOC(=O)c3ccc(-c4c5nc(c(-c6c(F)c(F)c(F)c(F)c6F)c6ccc([nH]6)c(-c6c(F)c(F)c(F)c(F)c6F)c6nc(c(-c7c(F)c(F)c(F)c(F)c7F)c7ccc4[nH]7)C=C6)C=C5)cc3)Cc3[nH]cnc32)c1O
REMARK SMILES IDX 19 1 18 2 17 3 16 4 15 5 14 6 12 7 13 8 11 9 9 10 10 11
REMARK SMILES IDX 97 12 93 15 96 16 92 17 94 18 95 19 8 21 1 22 2 23 3 24
REMARK SMILES IDX 98 25 4 26 5 27 99 28 6 30 7 31 20 33 21 34 22 35 23 36
REMARK SMILES IDX 24 37 25 38 26 39 27 40 28 41 29 42 30 43 91 44 31 45 90 46
REMARK SMILES IDX 32 47 33 48 34 49 84 50 35 51 89 52 83 53 85 54 36 55 88 56
REMARK SMILES IDX 82 57 81 58 37 60 69 61 49 62 68 63 50 64 53 65 67 66 86 67
REMARK SMILES IDX 51 68 52 69 66 71 87 72 54 73 38 74 39 75 47 76 40 77 41 78
REMARK SMILES IDX 45 79 48 80 42 81 43 82 46 83 44 84 70 85 71 86 79 87 72 88
REMARK SMILES IDX 73 89 77 90 80 91 74 92 75 93 78 94 76 95 55 96 56 97 64 98
REMARK SMILES IDX 57 99 58 100 62 101 65 102 59 103 60 104 63 105 61 106
REMARK H PARENT 10 13 10 14 94 20 99 29 7 32 85 59 53 70
REMARK Flexibility Score: inf
ROOT
ATOM      1  C   UNL A   1      42.427  18.918  26.554  1.00  0.00     0.188 C 
ENDROOT
BRANCH   1   2
ATOM      2  C   UNL A   1      41.566  20.198  26.358  1.00  0.00     0.188 C 
BRANCH   2   3
ATOM      3  O   UNL A   1      40.189  20.111  26.016  1.00  0.00    -0.376 OA
BRANCH   3   4
ATOM      4  C   UNL A   1      39.449  21.289  25.756  1.00  0.00     0.202 C 
BRANCH   4   5
ATOM      5  C   UNL A   1      37.939  21.214  25.477  1.00  0.00     0.261 C 
BRANCH   5   6
ATOM      6  O   UNL A   1      37.376  22.262  24.670  1.00  0.00    -0.459 OA
BRANCH   6   7
ATOM      7  C   UNL A   1      36.831  23.327  25.332  1.00  0.00     0.365 C 
ATOM      8  O   UNL A   1      37.447  24.078  26.073  1.00  0.00    -0.245 OA
BRANCH   7   9
ATOM      9  C   UNL A   1      35.335  23.430  24.991  1.00  0.00     0.300 C 
ATOM     10  C   UNL A   1      33.436  24.863  24.478  1.00  0.00     0.270 C 
ATOM     11  N   UNL A   1      34.795  24.837  25.073  1.00  0.00    -0.323 N 
ATOM     12  C   UNL A   1      32.567  24.002  25.338  1.00  0.00     0.124 A 
ATOM     13  H   UNL A   1      34.748  25.131  26.048  1.00  0.00     0.347 HD
ATOM     14  H   UNL A   1      35.408  25.473  24.563  1.00  0.00     0.347 HD
ATOM     15  C   UNL A   1      33.102  22.865  25.927  1.00  0.00     0.051 A 
ATOM     16  N   UNL A   1      31.210  24.022  25.504  1.00  0.00    -0.235 NA
ATOM     17  C   UNL A   1      34.539  22.464  25.911  1.00  0.00     0.133 C 
ATOM     18  N   UNL A   1      32.062  22.210  26.504  1.00  0.00    -0.348 N 
ATOM     19  C   UNL A   1      30.940  22.949  26.226  1.00  0.00     0.197 A 
ATOM     20  H   UNL A   1      32.104  21.373  27.020  1.00  0.00     0.167 HD
BRANCH  10  21
ATOM     21  C   UNL A   1      33.006  26.264  24.076  1.00  0.00     0.066 A 
ATOM     22  C   UNL A   1      32.826  29.690  25.844  1.00  0.00     0.071 C 
ATOM     23  C   UNL A   1      32.654  28.592  24.831  1.00  0.00     0.079 A 
ATOM     24  N   UNL A   1      32.051  28.941  23.682  1.00  0.00    -0.257 NA
ATOM     25  C   UNL A   1      33.138  27.295  25.059  1.00  0.00     0.146 A 
ATOM     26  C   UNL A   1      31.922  27.973  22.751  1.00  0.00     0.118 A 
ATOM     27  C   UNL A   1      32.346  26.637  22.883  1.00  0.00     0.009 A 
BRANCH  25  28
ATOM     28  O   UNL A   1      33.681  27.103  26.310  1.00  0.00    -0.505 OA
ATOM     29  H   UNL A   1      33.285  26.498  26.904  1.00  0.00     0.293 HD
ENDBRANCH  25  28
BRANCH  27  30
ATOM     30  C   UNL A   1      32.086  25.749  21.697  1.00  0.00     0.194 C 
BRANCH  30  31
ATOM     31  O   UNL A   1      33.275  25.616  20.913  1.00  0.00    -0.392 OA
ATOM     32  H   UNL A   1      33.073  25.805  19.983  1.00  0.00     0.211 HD
ENDBRANCH  30  31
ENDBRANCH  27  30
ENDBRANCH  10  21
ENDBRANCH   7   9
ENDBRANCH   6   7
ENDBRANCH   5   6
ENDBRANCH   4   5
ENDBRANCH   3   4
ENDBRANCH   2   3
ENDBRANCH   1   2
BRANCH   1  33
ATOM     33  O   UNL A   1      42.972  18.367  25.366  1.00  0.00    -0.377 OA
BRANCH  33  34
ATOM     34  C   UNL A   1      44.382  18.501  25.223  1.00  0.00     0.188 C 
BRANCH  34  35
ATOM     35  C   UNL A   1      44.906  19.272  23.988  1.00  0.00     0.188 C 
BRANCH  35  36
ATOM     36  O   UNL A   1      45.090  20.664  24.210  1.00  0.00    -0.376 OA
BRANCH  36  37
ATOM     37  C   UNL A   1      45.718  21.165  25.376  1.00  0.00     0.202 C 
BRANCH  37  38
ATOM     38  C   UNL A   1      45.302  22.572  25.797  1.00  0.00     0.261 C 
BRANCH  38  39
ATOM     39  O   UNL A   1      44.006  22.624  26.365  1.00  0.00    -0.460 OA
BRANCH  39  40
ATOM     40  C   UNL A   1      43.109  23.309  25.646  1.00  0.00     0.338 C 
ATOM     41  O   UNL A   1      43.059  23.420  24.419  1.00  0.00    -0.246 OA
BRANCH  40  42
ATOM     42  C   UNL A   1      42.239  24.039  26.557  1.00  0.00     0.060 A 
ATOM     43  C   UNL A   1      41.376  24.957  25.964  1.00  0.00     0.016 A 
ATOM     44  C   UNL A   1      42.586  24.085  27.916  1.00  0.00     0.016 A 
ATOM     45  C   UNL A   1      41.116  26.107  26.657  1.00  0.00     0.010 A 
ATOM     46  C   UNL A   1      42.346  25.244  28.600  1.00  0.00     0.010 A 
ATOM     47  C   UNL A   1      41.711  26.273  27.914  1.00  0.00    -0.014 A 
BRANCH  47  48
ATOM     48  C   UNL A   1      41.604  27.571  28.523  1.00  0.00     0.031 A 
ATOM     49  C   UNL A   1      42.760  28.426  28.206  1.00  0.00     0.074 A 
ATOM     50  C   UNL A   1      40.526  27.926  29.244  1.00  0.00     0.049 A 
ATOM     51  N   UNL A   1      43.671  28.846  29.017  1.00  0.00    -0.248 NA
ATOM     52  C   UNL A   1      43.049  28.672  26.784  1.00  0.00     0.031 C 
ATOM     53  C   UNL A   1      39.244  27.228  29.369  1.00  0.00     0.029 A 
ATOM     54  N   UNL A   1      40.326  29.065  29.954  1.00  0.00    -0.354 N 
ATOM     55  C   UNL A   1      44.544  29.585  28.231  1.00  0.00     0.074 A 
ATOM     56  C   UNL A   1      44.235  29.273  26.862  1.00  0.00     0.031 C 
ATOM     57  C   UNL A   1      38.335  28.069  29.914  1.00  0.00     0.029 A 
ATOM     58  C   UNL A   1      39.002  29.306  30.283  1.00  0.00     0.049 A 
ATOM     59  H   UNL A   1      41.059  29.668  30.213  1.00  0.00     0.167 HD
ATOM     60  C   UNL A   1      45.251  30.612  28.770  1.00  0.00     0.037 A 
ATOM     61  C   UNL A   1      38.505  30.486  30.731  1.00  0.00     0.037 A 
ATOM     62  C   UNL A   1      45.346  30.477  30.202  1.00  0.00     0.049 A 
ATOM     63  C   UNL A   1      39.652  31.292  31.230  1.00  0.00     0.074 A 
ATOM     64  C   UNL A   1      45.887  29.529  31.049  1.00  0.00     0.029 A 
ATOM     65  N   UNL A   1      44.497  31.231  30.974  1.00  0.00    -0.354 N 
ATOM     66  N   UNL A   1      40.339  30.994  32.299  1.00  0.00    -0.248 NA
ATOM     67  C   UNL A   1      40.332  32.163  30.281  1.00  0.00     0.031 C 
ATOM     68  C   UNL A   1      45.002  29.475  32.165  1.00  0.00     0.029 A 
ATOM     69  C   UNL A   1      44.001  30.427  31.967  1.00  0.00     0.049 A 
ATOM     70  H   UNL A   1      44.280  32.181  30.838  1.00  0.00     0.167 HD
ATOM     71  C   UNL A   1      41.656  31.271  31.964  1.00  0.00     0.074 A 
ATOM     72  C   UNL A   1      41.581  32.071  30.745  1.00  0.00     0.031 C 
ATOM     73  C   UNL A   1      42.684  30.582  32.541  1.00  0.00     0.037 A 
BRANCH  60  74
ATOM     74  C   UNL A   1      45.473  31.921  28.055  1.00  0.00     0.064 A 
ATOM     75  C   UNL A   1      44.351  32.700  27.717  1.00  0.00     0.173 A 
ATOM     76  C   UNL A   1      46.683  32.290  27.423  1.00  0.00     0.173 A 
ATOM     77  F   UNL A   1      43.149  32.432  28.248  1.00  0.00    -0.203 F 
ATOM     78  C   UNL A   1      44.418  33.706  26.751  1.00  0.00     0.198 A 
ATOM     79  C   UNL A   1      46.757  33.331  26.502  1.00  0.00     0.198 A 
ATOM     80  F   UNL A   1      47.819  31.600  27.573  1.00  0.00    -0.203 F 
ATOM     81  F   UNL A   1      43.297  34.326  26.362  1.00  0.00    -0.200 F 
ATOM     82  C   UNL A   1      45.618  34.014  26.138  1.00  0.00     0.200 A 
ATOM     83  F   UNL A   1      47.928  33.601  25.909  1.00  0.00    -0.200 F 
ATOM     84  F   UNL A   1      45.672  34.931  25.164  1.00  0.00    -0.200 F 
ENDBRANCH  60  74
BRANCH  61  85
ATOM     85  C   UNL A   1      37.184  31.082  30.425  1.00  0.00     0.064 A 
ATOM     86  C   UNL A   1      36.312  31.483  31.450  1.00  0.00     0.173 A 
ATOM     87  C   UNL A   1      36.859  31.515  29.123  1.00  0.00     0.173 A 
ATOM     88  F   UNL A   1      36.579  31.162  32.724  1.00  0.00    -0.203 F 
ATOM     89  C   UNL A   1      35.192  32.279  31.189  1.00  0.00     0.198 A 
ATOM     90  C   UNL A   1      35.736  32.301  28.864  1.00  0.00     0.198 A 
ATOM     91  F   UNL A   1      37.676  31.266  28.090  1.00  0.00    -0.203 F 
ATOM     92  F   UNL A   1      34.415  32.691  32.201  1.00  0.00    -0.200 F 
ATOM     93  C   UNL A   1      34.907  32.693  29.898  1.00  0.00     0.200 A 
ATOM     94  F   UNL A   1      35.498  32.728  27.615  1.00  0.00    -0.200 F 
ATOM     95  F   UNL A   1      33.867  33.500  29.656  1.00  0.00    -0.200 F 
ENDBRANCH  61  85
BRANCH  73  96
ATOM     96  C   UNL A   1      42.368  29.731  33.739  1.00  0.00     0.064 A 
ATOM     97  C   UNL A   1      41.896  28.409  33.664  1.00  0.00     0.173 A 
ATOM     98  C   UNL A   1      42.695  30.227  35.007  1.00  0.00     0.173 A 
ATOM     99  F   UNL A   1      41.656  27.828  32.480  1.00  0.00    -0.203 F 
ATOM    100  C   UNL A   1      41.720  27.638  34.812  1.00  0.00     0.198 A 
ATOM    101  C   UNL A   1      42.557  29.443  36.149  1.00  0.00     0.198 A 
ATOM    102  F   UNL A   1      43.204  31.464  35.134  1.00  0.00    -0.203 F 
ATOM    103  F   UNL A   1      41.257  26.384  34.716  1.00  0.00    -0.200 F 
ATOM    104  C   UNL A   1      42.059  28.154  36.053  1.00  0.00     0.200 A 
ATOM    105  F   UNL A   1      42.935  29.929  37.339  1.00  0.00    -0.200 F 
ATOM    106  F   UNL A   1      41.934  27.399  37.152  1.00  0.00    -0.200 F 
ENDBRANCH  73  96
ENDBRANCH  47  48
ENDBRANCH  40  42
ENDBRANCH  39  40
ENDBRANCH  38  39
ENDBRANCH  37  38
ENDBRANCH  36  37
ENDBRANCH  35  36
ENDBRANCH  34  35
ENDBRANCH  33  34
ENDBRANCH   1  33
TORSDOF 24
ENDMDL
