MODEL 1
REMARK VINA RESULT:     -11.1      0.000      0.000
REMARK SMILES CCOc1cnc(C(=O)c2[nH]c3cc(Cl)ccc3c2CC(=O)OCCOCCOCCOCCOC(=O)c2ccc(-c3c4nc(c(-c5c(F)c(F)c(F)c(F)c5F)c5ccc([nH]5)c(-c5c(F)c(F)c(F)c(F)c5F)c5nc(c(-c6c(F)c(F)c(F)c(F)c6F)c6ccc3[nH]6)C=C5)C=C4)cc2)cc1CC
REMARK SMILES IDX 27 1 26 2 25 3 24 4 23 5 21 6 22 7 20 8 19 9 10 10 11 11
REMARK SMILES IDX 12 12 18 14 13 15 17 16 14 17 16 18 15 19 8 20 9 21 7 22
REMARK SMILES IDX 4 23 5 24 102 25 6 26 101 27 3 28 2 29 1 30 103 31 104 32
REMARK SMILES IDX 28 33 29 34 30 35 31 36 32 37 33 38 34 39 35 40 36 41 37 42
REMARK SMILES IDX 38 43 39 44 100 45 40 46 99 47 41 48 42 49 43 50 93 51 44 52
REMARK SMILES IDX 98 53 92 54 94 55 45 56 97 57 91 58 90 59 46 61 78 62 58 63
REMARK SMILES IDX 77 64 59 65 62 66 76 67 95 68 60 69 61 70 75 72 96 73 63 74
REMARK SMILES IDX 47 75 48 76 56 77 49 78 50 79 54 80 57 81 51 82 52 83 55 84
REMARK SMILES IDX 53 85 79 86 80 87 88 88 81 89 82 90 86 91 89 92 83 93 84 94
REMARK SMILES IDX 87 95 85 96 64 97 65 98 73 99 66 100 67 101 71 102 74 103
REMARK SMILES IDX 68 104 69 105 72 106 70 107
REMARK H PARENT 11 13 94 60 62 71
REMARK Flexibility Score: inf
ROOT
ATOM      1  C   UNL A   1      31.349  25.885  26.007  1.00  0.00     0.188 C 
ENDROOT
BRANCH   1   2
ATOM      2  O   UNL A   1      30.515  26.176  24.905  1.00  0.00    -0.376 OA
BRANCH   2   3
ATOM      3  C   UNL A   1      31.021  25.869  23.607  1.00  0.00     0.202 C 
BRANCH   3   4
ATOM      4  C   UNL A   1      31.683  24.501  23.336  1.00  0.00     0.261 C 
BRANCH   4   5
ATOM      5  O   UNL A   1      33.140  24.493  23.326  1.00  0.00    -0.463 OA
BRANCH   5   6
ATOM      6  C   UNL A   1      33.729  23.334  22.937  1.00  0.00     0.310 C 
ATOM      7  O   UNL A   1      34.885  23.290  22.514  1.00  0.00    -0.252 OA
BRANCH   6   8
ATOM      8  C   UNL A   1      32.922  22.048  23.035  1.00  0.00     0.161 C 
BRANCH   8   9
ATOM      9  C   UNL A   1      32.977  21.135  24.241  1.00  0.00     0.000 A 
ATOM     10  C   UNL A   1      33.601  21.374  25.480  1.00  0.00     0.093 A 
ATOM     11  N   UNL A   1      33.273  20.295  26.277  1.00  0.00    -0.351 N 
ATOM     12  C   UNL A   1      32.965  19.215  25.488  1.00  0.00     0.048 A 
ATOM     13  H   UNL A   1      33.262  20.300  27.261  1.00  0.00     0.167 HD
ATOM     14  C   UNL A   1      32.734  19.715  24.209  1.00  0.00     0.004 A 
ATOM     15  C   UNL A   1      32.901  17.852  25.807  1.00  0.00     0.047 A 
ATOM     16  C   UNL A   1      32.430  18.795  23.183  1.00  0.00     0.012 A 
ATOM     17  C   UNL A   1      32.650  16.964  24.758  1.00  0.00     0.043 A 
ATOM     18  C   UNL A   1      32.418  17.421  23.464  1.00  0.00     0.021 A 
ATOM     19  Cl  UNL A   1      32.662  15.269  25.070  1.00  0.00    -0.084 Cl
BRANCH  10  20
ATOM     20  C   UNL A   1      34.426  22.514  25.891  1.00  0.00     0.227 C 
ATOM     21  O   UNL A   1      33.938  23.557  26.327  1.00  0.00    -0.285 OA
BRANCH  20  22
ATOM     22  C   UNL A   1      35.917  22.493  25.731  1.00  0.00     0.113 A 
ATOM     23  C   UNL A   1      38.637  22.212  25.863  1.00  0.00     0.140 A 
ATOM     24  C   UNL A   1      37.799  21.186  25.442  1.00  0.00     0.158 A 
ATOM     25  C   UNL A   1      38.090  23.474  26.108  1.00  0.00    -0.002 A 
ATOM     26  N   UNL A   1      36.456  21.303  25.357  1.00  0.00    -0.249 NA
ATOM     27  C   UNL A   1      36.693  23.592  26.092  1.00  0.00     0.040 A 
BRANCH  23  28
ATOM     28  O   UNL A   1      39.975  21.986  26.023  1.00  0.00    -0.492 OA
BRANCH  28  29
ATOM     29  C   UNL A   1      40.238  20.611  26.357  1.00  0.00     0.226 C 
ATOM     30  C   UNL A   1      41.126  20.514  27.589  1.00  0.00     0.049 C 
ENDBRANCH  28  29
ENDBRANCH  23  28
BRANCH  25  31
ATOM     31  C   UNL A   1      38.943  24.662  26.481  1.00  0.00     0.036 C 
ATOM     32  C   UNL A   1      38.952  24.960  27.975  1.00  0.00     0.009 C 
ENDBRANCH  25  31
ENDBRANCH  20  22
ENDBRANCH  10  20
ENDBRANCH   8   9
ENDBRANCH   6   8
ENDBRANCH   5   6
ENDBRANCH   4   5
ENDBRANCH   3   4
ENDBRANCH   2   3
ENDBRANCH   1   2
BRANCH   1  33
ATOM     33  C   UNL A   1      31.763  27.049  26.905  1.00  0.00     0.188 C 
BRANCH  33  34
ATOM     34  O   UNL A   1      32.748  27.957  26.443  1.00  0.00    -0.377 OA
BRANCH  34  35
ATOM     35  C   UNL A   1      32.521  29.355  26.523  1.00  0.00     0.188 C 
BRANCH  35  36
ATOM     36  C   UNL A   1      31.733  30.024  25.399  1.00  0.00     0.188 C 
BRANCH  36  37
ATOM     37  O   UNL A   1      31.192  31.326  25.634  1.00  0.00    -0.376 OA
BRANCH  37  38
ATOM     38  C   UNL A   1      31.268  31.898  26.937  1.00  0.00     0.202 C 
BRANCH  38  39
ATOM     39  C   UNL A   1      32.201  33.099  27.045  1.00  0.00     0.261 C 
BRANCH  39  40
ATOM     40  O   UNL A   1      33.237  32.843  28.004  1.00  0.00    -0.460 OA
BRANCH  40  41
ATOM     41  C   UNL A   1      34.321  33.642  27.896  1.00  0.00     0.338 C 
ATOM     42  O   UNL A   1      34.345  34.846  27.688  1.00  0.00    -0.246 OA
BRANCH  41  43
ATOM     43  C   UNL A   1      35.521  32.866  28.243  1.00  0.00     0.060 A 
ATOM     44  C   UNL A   1      35.369  31.494  28.474  1.00  0.00     0.016 A 
ATOM     45  C   UNL A   1      36.766  33.484  28.389  1.00  0.00     0.016 A 
ATOM     46  C   UNL A   1      36.452  30.739  28.908  1.00  0.00     0.010 A 
ATOM     47  C   UNL A   1      37.850  32.731  28.839  1.00  0.00     0.010 A 
ATOM     48  C   UNL A   1      37.678  31.369  29.142  1.00  0.00    -0.014 A 
BRANCH  48  49
ATOM     49  C   UNL A   1      38.711  30.655  29.921  1.00  0.00     0.031 A 
ATOM     50  C   UNL A   1      38.837  30.976  31.383  1.00  0.00     0.074 A 
ATOM     51  C   UNL A   1      39.487  29.726  29.343  1.00  0.00     0.049 A 
ATOM     52  N   UNL A   1      39.692  30.528  32.263  1.00  0.00    -0.248 NA
ATOM     53  C   UNL A   1      37.863  31.939  31.925  1.00  0.00     0.031 C 
ATOM     54  C   UNL A   1      39.405  29.308  27.946  1.00  0.00     0.029 A 
ATOM     55  N   UNL A   1      40.506  28.973  29.866  1.00  0.00    -0.354 N 
ATOM     56  C   UNL A   1      39.367  31.161  33.455  1.00  0.00     0.074 A 
ATOM     57  C   UNL A   1      38.260  32.048  33.183  1.00  0.00     0.031 C 
ATOM     58  C   UNL A   1      40.348  28.380  27.716  1.00  0.00     0.029 A 
ATOM     59  C   UNL A   1      41.120  28.171  28.939  1.00  0.00     0.049 A 
ATOM     60  H   UNL A   1      40.770  29.005  30.813  1.00  0.00     0.167 HD
ATOM     61  C   UNL A   1      39.942  31.006  34.671  1.00  0.00     0.037 A 
ATOM     62  C   UNL A   1      42.203  27.382  29.068  1.00  0.00     0.037 A 
ATOM     63  C   UNL A   1      41.047  30.121  34.922  1.00  0.00     0.049 A 
ATOM     64  C   UNL A   1      42.876  27.286  30.414  1.00  0.00     0.074 A 
ATOM     65  C   UNL A   1      41.702  29.872  36.113  1.00  0.00     0.029 A 
ATOM     66  N   UNL A   1      41.669  29.345  33.953  1.00  0.00    -0.354 N 
ATOM     67  N   UNL A   1      42.557  27.870  31.545  1.00  0.00    -0.248 NA
ATOM     68  C   UNL A   1      44.059  26.419  30.501  1.00  0.00     0.031 C 
ATOM     69  C   UNL A   1      42.762  28.997  35.853  1.00  0.00     0.029 A 
ATOM     70  C   UNL A   1      42.722  28.642  34.513  1.00  0.00     0.049 A 
ATOM     71  H   UNL A   1      41.400  29.301  33.006  1.00  0.00     0.167 HD
ATOM     72  C   UNL A   1      43.476  27.418  32.484  1.00  0.00     0.074 A 
ATOM     73  C   UNL A   1      44.357  26.501  31.791  1.00  0.00     0.031 C 
ATOM     74  C   UNL A   1      43.582  27.730  33.800  1.00  0.00     0.037 A 
BRANCH  61  75
ATOM     75  C   UNL A   1      39.412  31.842  35.801  1.00  0.00     0.064 A 
ATOM     76  C   UNL A   1      38.439  31.360  36.692  1.00  0.00     0.173 A 
ATOM     77  C   UNL A   1      39.894  33.144  36.001  1.00  0.00     0.173 A 
ATOM     78  F   UNL A   1      37.930  30.129  36.535  1.00  0.00    -0.203 F 
ATOM     79  C   UNL A   1      37.948  32.163  37.719  1.00  0.00     0.198 A 
ATOM     80  C   UNL A   1      39.425  33.930  37.051  1.00  0.00     0.198 A 
ATOM     81  F   UNL A   1      40.822  33.656  35.180  1.00  0.00    -0.203 F 
ATOM     82  F   UNL A   1      36.977  31.701  38.520  1.00  0.00    -0.200 F 
ATOM     83  C   UNL A   1      38.446  33.443  37.903  1.00  0.00     0.200 A 
ATOM     84  F   UNL A   1      39.918  35.164  37.233  1.00  0.00    -0.200 F 
ATOM     85  F   UNL A   1      37.976  34.211  38.894  1.00  0.00    -0.200 F 
ENDBRANCH  61  75
BRANCH  62  86
ATOM     86  C   UNL A   1      42.722  26.635  27.892  1.00  0.00     0.064 A 
ATOM     87  C   UNL A   1      42.505  25.258  27.755  1.00  0.00     0.173 A 
ATOM     88  C   UNL A   1      43.453  27.283  26.885  1.00  0.00     0.173 A 
ATOM     89  F   UNL A   1      41.831  24.588  28.700  1.00  0.00    -0.203 F 
ATOM     90  C   UNL A   1      43.015  24.554  26.664  1.00  0.00     0.198 A 
ATOM     91  C   UNL A   1      43.935  26.584  25.780  1.00  0.00     0.198 A 
ATOM     92  F   UNL A   1      43.690  28.602  26.968  1.00  0.00    -0.203 F 
ATOM     93  F   UNL A   1      42.833  23.229  26.582  1.00  0.00    -0.200 F 
ATOM     94  C   UNL A   1      43.723  25.219  25.675  1.00  0.00     0.200 A 
ATOM     95  F   UNL A   1      44.606  27.235  24.819  1.00  0.00    -0.200 F 
ATOM     96  F   UNL A   1      44.207  24.543  24.625  1.00  0.00    -0.200 F 
ENDBRANCH  62  86
BRANCH  74  97
ATOM     97  C   UNL A   1      44.660  27.040  34.587  1.00  0.00     0.064 A 
ATOM     98  C   UNL A   1      45.943  27.591  34.724  1.00  0.00     0.173 A 
ATOM     99  C   UNL A   1      44.390  25.833  35.249  1.00  0.00     0.173 A 
ATOM    100  F   UNL A   1      46.257  28.738  34.102  1.00  0.00    -0.203 F 
ATOM    101  C   UNL A   1      46.923  26.942  35.471  1.00  0.00     0.198 A 
ATOM    102  C   UNL A   1      45.361  25.207  36.025  1.00  0.00     0.198 A 
ATOM    103  F   UNL A   1      43.176  25.269  35.159  1.00  0.00    -0.203 F 
ATOM    104  F   UNL A   1      48.158  27.459  35.544  1.00  0.00    -0.200 F 
ATOM    105  C   UNL A   1      46.629  25.757  36.128  1.00  0.00     0.200 A 
ATOM    106  F   UNL A   1      45.068  24.071  36.674  1.00  0.00    -0.200 F 
ATOM    107  F   UNL A   1      47.570  25.140  36.854  1.00  0.00    -0.200 F 
ENDBRANCH  74  97
ENDBRANCH  48  49
ENDBRANCH  41  43
ENDBRANCH  40  41
ENDBRANCH  39  40
ENDBRANCH  38  39
ENDBRANCH  37  38
ENDBRANCH  36  37
ENDBRANCH  35  36
ENDBRANCH  34  35
ENDBRANCH  33  34
ENDBRANCH   1  33
TORSDOF 26
ENDMDL
MODEL 2
REMARK VINA RESULT:     -10.9      4.869     10.566
REMARK SMILES CCOc1cnc(C(=O)c2[nH]c3cc(Cl)ccc3c2CC(=O)OCCOCCOCCOCCOC(=O)c2ccc(-c3c4nc(c(-c5c(F)c(F)c(F)c(F)c5F)c5ccc([nH]5)c(-c5c(F)c(F)c(F)c(F)c5F)c5nc(c(-c6c(F)c(F)c(F)c(F)c6F)c6ccc3[nH]6)C=C5)C=C4)cc2)cc1CC
REMARK SMILES IDX 27 1 26 2 25 3 24 4 23 5 21 6 22 7 20 8 19 9 10 10 11 11
REMARK SMILES IDX 12 12 18 14 13 15 17 16 14 17 16 18 15 19 8 20 9 21 7 22
REMARK SMILES IDX 4 23 5 24 102 25 6 26 101 27 3 28 2 29 1 30 103 31 104 32
REMARK SMILES IDX 28 33 29 34 30 35 31 36 32 37 33 38 34 39 35 40 36 41 37 42
REMARK SMILES IDX 38 43 39 44 100 45 40 46 99 47 41 48 42 49 43 50 93 51 44 52
REMARK SMILES IDX 98 53 92 54 94 55 45 56 97 57 91 58 90 59 46 61 78 62 58 63
REMARK SMILES IDX 77 64 59 65 62 66 76 67 95 68 60 69 61 70 75 72 96 73 63 74
REMARK SMILES IDX 47 75 48 76 56 77 49 78 50 79 54 80 57 81 51 82 52 83 55 84
REMARK SMILES IDX 53 85 79 86 80 87 88 88 81 89 82 90 86 91 89 92 83 93 84 94
REMARK SMILES IDX 87 95 85 96 64 97 65 98 73 99 66 100 67 101 71 102 74 103
REMARK SMILES IDX 68 104 69 105 72 106 70 107
REMARK H PARENT 11 13 94 60 62 71
REMARK Flexibility Score: inf
ROOT
ATOM      1  C   UNL A   1      34.707  24.805  23.977  1.00  0.00     0.188 C 
ENDROOT
BRANCH   1   2
ATOM      2  O   UNL A   1      33.838  25.884  23.704  1.00  0.00    -0.376 OA
BRANCH   2   3
ATOM      3  C   UNL A   1      33.337  25.996  22.373  1.00  0.00     0.202 C 
BRANCH   3   4
ATOM      4  C   UNL A   1      32.518  27.236  21.954  1.00  0.00     0.261 C 
BRANCH   4   5
ATOM      5  O   UNL A   1      31.085  27.026  21.797  1.00  0.00    -0.463 OA
BRANCH   5   6
ATOM      6  C   UNL A   1      30.278  27.868  22.491  1.00  0.00     0.310 C 
ATOM      7  O   UNL A   1      29.787  28.879  21.987  1.00  0.00    -0.252 OA
BRANCH   6   8
ATOM      8  C   UNL A   1      29.973  27.538  23.945  1.00  0.00     0.161 C 
BRANCH   8   9
ATOM      9  C   UNL A   1      31.048  27.439  25.006  1.00  0.00     0.000 A 
ATOM     10  C   UNL A   1      31.308  26.366  25.878  1.00  0.00     0.093 A 
ATOM     11  N   UNL A   1      32.451  26.715  26.569  1.00  0.00    -0.351 N 
ATOM     12  C   UNL A   1      32.591  28.081  26.573  1.00  0.00     0.048 A 
ATOM     13  H   UNL A   1      33.073  26.081  26.995  1.00  0.00     0.167 HD
ATOM     14  C   UNL A   1      31.751  28.563  25.572  1.00  0.00     0.004 A 
ATOM     15  C   UNL A   1      33.369  28.908  27.393  1.00  0.00     0.047 A 
ATOM     16  C   UNL A   1      31.676  29.961  25.387  1.00  0.00     0.012 A 
ATOM     17  C   UNL A   1      33.231  30.287  27.219  1.00  0.00     0.043 A 
ATOM     18  C   UNL A   1      32.399  30.812  26.235  1.00  0.00     0.021 A 
ATOM     19  Cl  UNL A   1      34.084  31.356  28.268  1.00  0.00    -0.084 Cl
BRANCH  10  20
ATOM     20  C   UNL A   1      30.561  25.115  26.049  1.00  0.00     0.227 C 
ATOM     21  O   UNL A   1      29.464  25.075  26.607  1.00  0.00    -0.285 OA
BRANCH  20  22
ATOM     22  C   UNL A   1      31.137  23.801  25.614  1.00  0.00     0.113 A 
ATOM     23  C   UNL A   1      32.614  21.589  24.966  1.00  0.00     0.140 A 
ATOM     24  C   UNL A   1      32.214  21.866  26.268  1.00  0.00     0.158 A 
ATOM     25  C   UNL A   1      32.142  22.397  23.928  1.00  0.00    -0.002 A 
ATOM     26  N   UNL A   1      31.475  22.943  26.611  1.00  0.00    -0.249 NA
ATOM     27  C   UNL A   1      31.434  23.556  24.276  1.00  0.00     0.040 A 
BRANCH  23  28
ATOM     28  O   UNL A   1      33.448  20.538  24.709  1.00  0.00    -0.492 OA
BRANCH  28  29
ATOM     29  C   UNL A   1      32.996  19.339  25.366  1.00  0.00     0.226 C 
ATOM     30  C   UNL A   1      32.583  18.287  24.347  1.00  0.00     0.049 C 
ENDBRANCH  28  29
ENDBRANCH  23  28
BRANCH  25  31
ATOM     31  C   UNL A   1      32.457  22.112  22.479  1.00  0.00     0.036 C 
ATOM     32  C   UNL A   1      31.777  20.860  21.943  1.00  0.00     0.009 C 
ENDBRANCH  25  31
ENDBRANCH  20  22
ENDBRANCH  10  20
ENDBRANCH   8   9
ENDBRANCH   6   8
ENDBRANCH   5   6
ENDBRANCH   4   5
ENDBRANCH   3   4
ENDBRANCH   2   3
ENDBRANCH   1   2
BRANCH   1  33
ATOM     33  C   UNL A   1      35.063  24.538  25.438  1.00  0.00     0.188 C 
BRANCH  33  34
ATOM     34  O   UNL A   1      36.256  23.835  25.737  1.00  0.00    -0.377 OA
BRANCH  34  35
ATOM     35  C   UNL A   1      36.202  22.465  26.104  1.00  0.00     0.188 C 
BRANCH  35  36
ATOM     36  C   UNL A   1      36.926  21.452  25.221  1.00  0.00     0.188 C 
BRANCH  36  37
ATOM     37  O   UNL A   1      38.331  21.614  25.015  1.00  0.00    -0.376 OA
BRANCH  37  38
ATOM     38  C   UNL A   1      39.248  21.118  25.986  1.00  0.00     0.202 C 
BRANCH  38  39
ATOM     39  C   UNL A   1      39.703  19.683  25.749  1.00  0.00     0.261 C 
BRANCH  39  40
ATOM     40  O   UNL A   1      40.686  19.303  26.722  1.00  0.00    -0.460 OA
BRANCH  40  41
ATOM     41  C   UNL A   1      41.951  19.224  26.252  1.00  0.00     0.338 C 
ATOM     42  O   UNL A   1      42.459  18.310  25.621  1.00  0.00    -0.246 OA
BRANCH  41  43
ATOM     43  C   UNL A   1      42.620  20.516  26.468  1.00  0.00     0.060 A 
ATOM     44  C   UNL A   1      42.624  21.042  27.765  1.00  0.00     0.016 A 
ATOM     45  C   UNL A   1      43.188  21.224  25.406  1.00  0.00     0.016 A 
ATOM     46  C   UNL A   1      43.149  22.307  28.000  1.00  0.00     0.010 A 
ATOM     47  C   UNL A   1      43.701  22.500  25.636  1.00  0.00     0.010 A 
ATOM     48  C   UNL A   1      43.638  23.057  26.925  1.00  0.00    -0.014 A 
BRANCH  48  49
ATOM     49  C   UNL A   1      43.867  24.505  27.110  1.00  0.00     0.031 A 
ATOM     50  C   UNL A   1      45.244  25.040  26.838  1.00  0.00     0.074 A 
ATOM     51  C   UNL A   1      42.865  25.317  27.477  1.00  0.00     0.049 A 
ATOM     52  N   UNL A   1      45.707  26.253  26.976  1.00  0.00    -0.248 NA
ATOM     53  C   UNL A   1      46.235  24.068  26.345  1.00  0.00     0.031 C 
ATOM     54  C   UNL A   1      41.484  24.902  27.711  1.00  0.00     0.029 A 
ATOM     55  N   UNL A   1      42.862  26.665  27.724  1.00  0.00    -0.354 N 
ATOM     56  C   UNL A   1      47.042  26.188  26.599  1.00  0.00     0.074 A 
ATOM     57  C   UNL A   1      47.325  24.813  26.258  1.00  0.00     0.031 C 
ATOM     58  C   UNL A   1      40.766  25.975  28.085  1.00  0.00     0.029 A 
ATOM     59  C   UNL A   1      41.648  27.138  28.151  1.00  0.00     0.049 A 
ATOM     60  H   UNL A   1      43.654  27.237  27.606  1.00  0.00     0.167 HD
ATOM     61  C   UNL A   1      47.947  27.193  26.538  1.00  0.00     0.037 A 
ATOM     62  C   UNL A   1      41.305  28.370  28.573  1.00  0.00     0.037 A 
ATOM     63  C   UNL A   1      47.648  28.556  26.887  1.00  0.00     0.049 A 
ATOM     64  C   UNL A   1      42.351  29.456  28.572  1.00  0.00     0.074 A 
ATOM     65  C   UNL A   1      48.479  29.659  26.852  1.00  0.00     0.029 A 
ATOM     66  N   UNL A   1      46.414  28.996  27.348  1.00  0.00    -0.354 N 
ATOM     67  N   UNL A   1      43.607  29.397  28.197  1.00  0.00    -0.248 NA
ATOM     68  C   UNL A   1      41.930  30.779  29.051  1.00  0.00     0.031 C 
ATOM     69  C   UNL A   1      47.769  30.754  27.355  1.00  0.00     0.029 A 
ATOM     70  C   UNL A   1      46.472  30.350  27.634  1.00  0.00     0.049 A 
ATOM     71  H   UNL A   1      45.616  28.430  27.457  1.00  0.00     0.167 HD
ATOM     72  C   UNL A   1      44.117  30.679  28.363  1.00  0.00     0.074 A 
ATOM     73  C   UNL A   1      43.029  31.496  28.860  1.00  0.00     0.031 C 
ATOM     74  C   UNL A   1      45.371  31.141  28.124  1.00  0.00     0.037 A 
BRANCH  61  75
ATOM     75  C   UNL A   1      49.346  26.843  26.121  1.00  0.00     0.064 A 
ATOM     76  C   UNL A   1      49.784  26.976  24.793  1.00  0.00     0.173 A 
ATOM     77  C   UNL A   1      50.269  26.375  27.069  1.00  0.00     0.173 A 
ATOM     78  F   UNL A   1      48.938  27.401  23.843  1.00  0.00    -0.203 F 
ATOM     79  C   UNL A   1      51.081  26.624  24.427  1.00  0.00     0.198 A 
ATOM     80  C   UNL A   1      51.575  26.057  26.705  1.00  0.00     0.198 A 
ATOM     81  F   UNL A   1      49.905  26.226  28.351  1.00  0.00    -0.203 F 
ATOM     82  F   UNL A   1      51.457  26.705  23.143  1.00  0.00    -0.200 F 
ATOM     83  C   UNL A   1      51.977  26.173  25.383  1.00  0.00     0.200 A 
ATOM     84  F   UNL A   1      52.443  25.632  27.634  1.00  0.00    -0.200 F 
ATOM     85  F   UNL A   1      53.226  25.839  25.030  1.00  0.00    -0.200 F 
ENDBRANCH  61  75
BRANCH  62  86
ATOM     86  C   UNL A   1      39.920  28.634  29.042  1.00  0.00     0.064 A 
ATOM     87  C   UNL A   1      39.548  28.400  30.373  1.00  0.00     0.173 A 
ATOM     88  C   UNL A   1      38.937  29.120  28.167  1.00  0.00     0.173 A 
ATOM     89  F   UNL A   1      40.445  27.916  31.244  1.00  0.00    -0.203 F 
ATOM     90  C   UNL A   1      38.241  28.624  30.805  1.00  0.00     0.198 A 
ATOM     91  C   UNL A   1      37.640  29.374  28.608  1.00  0.00     0.198 A 
ATOM     92  F   UNL A   1      39.240  29.361  26.882  1.00  0.00    -0.203 F 
ATOM     93  F   UNL A   1      37.900  28.346  32.071  1.00  0.00    -0.200 F 
ATOM     94  C   UNL A   1      37.291  29.118  29.924  1.00  0.00     0.200 A 
ATOM     95  F   UNL A   1      36.728  29.865  27.756  1.00  0.00    -0.200 F 
ATOM     96  F   UNL A   1      36.037  29.338  30.343  1.00  0.00    -0.200 F 
ENDBRANCH  62  86
BRANCH  74  97
ATOM     97  C   UNL A   1      45.620  32.605  28.354  1.00  0.00     0.064 A 
ATOM     98  C   UNL A   1      45.399  33.561  27.351  1.00  0.00     0.173 A 
ATOM     99  C   UNL A   1      46.044  33.060  29.612  1.00  0.00     0.173 A 
ATOM    100  F   UNL A   1      45.005  33.176  26.127  1.00  0.00    -0.203 F 
ATOM    101  C   UNL A   1      45.622  34.913  27.592  1.00  0.00     0.198 A 
ATOM    102  C   UNL A   1      46.229  34.417  29.860  1.00  0.00     0.198 A 
ATOM    103  F   UNL A   1      46.260  32.189  30.609  1.00  0.00    -0.203 F 
ATOM    104  F   UNL A   1      45.456  35.803  26.603  1.00  0.00    -0.200 F 
ATOM    105  C   UNL A   1      46.028  35.341  28.847  1.00  0.00     0.200 A 
ATOM    106  F   UNL A   1      46.603  34.829  31.080  1.00  0.00    -0.200 F 
ATOM    107  F   UNL A   1      46.232  36.645  29.079  1.00  0.00    -0.200 F 
ENDBRANCH  74  97
ENDBRANCH  48  49
ENDBRANCH  41  43
ENDBRANCH  40  41
ENDBRANCH  39  40
ENDBRANCH  38  39
ENDBRANCH  37  38
ENDBRANCH  36  37
ENDBRANCH  35  36
ENDBRANCH  34  35
ENDBRANCH  33  34
ENDBRANCH   1  33
TORSDOF 26
ENDMDL
MODEL 3
REMARK VINA RESULT:     -10.6      4.858      8.915
REMARK SMILES CCOc1cnc(C(=O)c2[nH]c3cc(Cl)ccc3c2CC(=O)OCCOCCOCCOCCOC(=O)c2ccc(-c3c4nc(c(-c5c(F)c(F)c(F)c(F)c5F)c5ccc([nH]5)c(-c5c(F)c(F)c(F)c(F)c5F)c5nc(c(-c6c(F)c(F)c(F)c(F)c6F)c6ccc3[nH]6)C=C5)C=C4)cc2)cc1CC
REMARK SMILES IDX 27 1 26 2 25 3 24 4 23 5 21 6 22 7 20 8 19 9 10 10 11 11
REMARK SMILES IDX 12 12 18 14 13 15 17 16 14 17 16 18 15 19 8 20 9 21 7 22
REMARK SMILES IDX 4 23 5 24 102 25 6 26 101 27 3 28 2 29 1 30 103 31 104 32
REMARK SMILES IDX 28 33 29 34 30 35 31 36 32 37 33 38 34 39 35 40 36 41 37 42
REMARK SMILES IDX 38 43 39 44 100 45 40 46 99 47 41 48 42 49 43 50 93 51 44 52
REMARK SMILES IDX 98 53 92 54 94 55 45 56 97 57 91 58 90 59 46 61 78 62 58 63
REMARK SMILES IDX 77 64 59 65 62 66 76 67 95 68 60 69 61 70 75 72 96 73 63 74
REMARK SMILES IDX 47 75 48 76 56 77 49 78 50 79 54 80 57 81 51 82 52 83 55 84
REMARK SMILES IDX 53 85 79 86 80 87 88 88 81 89 82 90 86 91 89 92 83 93 84 94
REMARK SMILES IDX 87 95 85 96 64 97 65 98 73 99 66 100 67 101 71 102 74 103
REMARK SMILES IDX 68 104 69 105 72 106 70 107
REMARK H PARENT 11 13 94 60 62 71
REMARK Flexibility Score: inf
ROOT
ATOM      1  C   UNL A   1      34.362  25.002  23.598  1.00  0.00     0.188 C 
ENDROOT
BRANCH   1   2
ATOM      2  O   UNL A   1      33.761  26.272  23.457  1.00  0.00    -0.376 OA
BRANCH   2   3
ATOM      3  C   UNL A   1      33.189  26.584  22.188  1.00  0.00     0.202 C 
BRANCH   3   4
ATOM      4  C   UNL A   1      32.128  27.700  22.068  1.00  0.00     0.261 C 
BRANCH   4   5
ATOM      5  O   UNL A   1      30.752  27.250  21.903  1.00  0.00    -0.463 OA
BRANCH   5   6
ATOM      6  C   UNL A   1      29.862  27.703  22.820  1.00  0.00     0.310 C 
ATOM      7  O   UNL A   1      29.093  28.638  22.591  1.00  0.00    -0.252 OA
BRANCH   6   8
ATOM      8  C   UNL A   1      29.817  27.020  24.180  1.00  0.00     0.161 C 
BRANCH   8   9
ATOM      9  C   UNL A   1      30.992  27.017  25.134  1.00  0.00     0.000 A 
ATOM     10  C   UNL A   1      31.414  25.978  25.985  1.00  0.00     0.093 A 
ATOM     11  N   UNL A   1      32.587  26.421  26.562  1.00  0.00    -0.351 N 
ATOM     12  C   UNL A   1      32.622  27.794  26.543  1.00  0.00     0.048 A 
ATOM     13  H   UNL A   1      33.292  25.842  26.931  1.00  0.00     0.167 HD
ATOM     14  C   UNL A   1      31.657  28.198  25.624  1.00  0.00     0.004 A 
ATOM     15  C   UNL A   1      33.408  28.689  27.280  1.00  0.00     0.047 A 
ATOM     16  C   UNL A   1      31.458  29.583  25.437  1.00  0.00     0.012 A 
ATOM     17  C   UNL A   1      33.150  30.051  27.111  1.00  0.00     0.043 A 
ATOM     18  C   UNL A   1      32.191  30.499  26.207  1.00  0.00     0.021 A 
ATOM     19  Cl  UNL A   1      34.014  31.195  28.067  1.00  0.00    -0.084 Cl
BRANCH  10  20
ATOM     20  C   UNL A   1      30.783  24.677  26.234  1.00  0.00     0.227 C 
ATOM     21  O   UNL A   1      29.778  24.556  26.936  1.00  0.00    -0.285 OA
BRANCH  20  22
ATOM     22  C   UNL A   1      31.382  23.409  25.702  1.00  0.00     0.113 A 
ATOM     23  C   UNL A   1      32.899  21.332  24.766  1.00  0.00     0.140 A 
ATOM     24  C   UNL A   1      32.790  21.627  26.120  1.00  0.00     0.158 A 
ATOM     25  C   UNL A   1      32.109  22.037  23.854  1.00  0.00    -0.002 A 
ATOM     26  N   UNL A   1      32.039  22.639  26.607  1.00  0.00    -0.249 NA
ATOM     27  C   UNL A   1      31.379  23.133  24.337  1.00  0.00     0.040 A 
BRANCH  23  28
ATOM     28  O   UNL A   1      33.760  20.360  24.339  1.00  0.00    -0.492 OA
BRANCH  28  29
ATOM     29  C   UNL A   1      33.436  19.083  24.919  1.00  0.00     0.226 C 
ATOM     30  C   UNL A   1      34.430  18.020  24.476  1.00  0.00     0.049 C 
ENDBRANCH  28  29
ENDBRANCH  23  28
BRANCH  25  31
ATOM     31  C   UNL A   1      32.101  21.718  22.379  1.00  0.00     0.036 C 
ATOM     32  C   UNL A   1      32.798  22.769  21.525  1.00  0.00     0.009 C 
ENDBRANCH  25  31
ENDBRANCH  20  22
ENDBRANCH  10  20
ENDBRANCH   8   9
ENDBRANCH   6   8
ENDBRANCH   5   6
ENDBRANCH   4   5
ENDBRANCH   3   4
ENDBRANCH   2   3
ENDBRANCH   1   2
BRANCH   1  33
ATOM     33  C   UNL A   1      34.789  24.576  25.002  1.00  0.00     0.188 C 
BRANCH  33  34
ATOM     34  O   UNL A   1      36.170  24.423  25.283  1.00  0.00    -0.377 OA
BRANCH  34  35
ATOM     35  C   UNL A   1      36.908  23.378  24.672  1.00  0.00     0.188 C 
BRANCH  35  36
ATOM     36  C   UNL A   1      37.723  22.448  25.568  1.00  0.00     0.188 C 
BRANCH  36  37
ATOM     37  O   UNL A   1      37.338  21.074  25.647  1.00  0.00    -0.376 OA
BRANCH  37  38
ATOM     38  C   UNL A   1      37.930  20.124  24.765  1.00  0.00     0.202 C 
BRANCH  38  39
ATOM     39  C   UNL A   1      39.037  19.284  25.393  1.00  0.00     0.261 C 
BRANCH  39  40
ATOM     40  O   UNL A   1      39.893  20.106  26.198  1.00  0.00    -0.460 OA
BRANCH  40  41
ATOM     41  C   UNL A   1      41.181  19.699  26.257  1.00  0.00     0.338 C 
ATOM     42  O   UNL A   1      41.619  18.574  26.072  1.00  0.00    -0.246 OA
BRANCH  41  43
ATOM     43  C   UNL A   1      42.045  20.878  26.418  1.00  0.00     0.060 A 
ATOM     44  C   UNL A   1      42.509  21.179  27.705  1.00  0.00     0.016 A 
ATOM     45  C   UNL A   1      42.352  21.705  25.334  1.00  0.00     0.016 A 
ATOM     46  C   UNL A   1      43.239  22.339  27.926  1.00  0.00     0.010 A 
ATOM     47  C   UNL A   1      43.072  22.878  25.557  1.00  0.00     0.010 A 
ATOM     48  C   UNL A   1      43.474  23.216  26.861  1.00  0.00    -0.014 A 
BRANCH  48  49
ATOM     49  C   UNL A   1      43.933  24.589  27.155  1.00  0.00     0.031 A 
ATOM     50  C   UNL A   1      42.919  25.581  27.648  1.00  0.00     0.074 A 
ATOM     51  C   UNL A   1      45.224  24.926  27.016  1.00  0.00     0.049 A 
ATOM     52  N   UNL A   1      43.060  26.850  27.922  1.00  0.00    -0.248 NA
ATOM     53  C   UNL A   1      41.554  25.068  27.856  1.00  0.00     0.031 C 
ATOM     54  C   UNL A   1      46.291  24.021  26.596  1.00  0.00     0.029 A 
ATOM     55  N   UNL A   1      45.851  26.129  27.207  1.00  0.00    -0.354 N 
ATOM     56  C   UNL A   1      41.805  27.288  28.324  1.00  0.00     0.074 A 
ATOM     57  C   UNL A   1      40.906  26.160  28.226  1.00  0.00     0.031 C 
ATOM     58  C   UNL A   1      47.446  24.707  26.546  1.00  0.00     0.029 A 
ATOM     59  C   UNL A   1      47.186  26.103  26.893  1.00  0.00     0.049 A 
ATOM     60  H   UNL A   1      45.390  26.932  27.538  1.00  0.00     0.167 HD
ATOM     61  C   UNL A   1      41.441  28.523  28.743  1.00  0.00     0.037 A 
ATOM     62  C   UNL A   1      48.083  27.107  26.865  1.00  0.00     0.037 A 
ATOM     63  C   UNL A   1      42.350  29.634  28.828  1.00  0.00     0.049 A 
ATOM     64  C   UNL A   1      47.636  28.491  27.260  1.00  0.00     0.074 A 
ATOM     65  C   UNL A   1      42.098  30.926  29.249  1.00  0.00     0.029 A 
ATOM     66  N   UNL A   1      43.691  29.582  28.471  1.00  0.00    -0.354 N 
ATOM     67  N   UNL A   1      46.453  28.900  27.657  1.00  0.00    -0.248 NA
ATOM     68  C   UNL A   1      48.648  29.554  27.204  1.00  0.00     0.031 C 
ATOM     69  C   UNL A   1      43.269  31.673  29.085  1.00  0.00     0.029 A 
ATOM     70  C   UNL A   1      44.271  30.829  28.630  1.00  0.00     0.049 A 
ATOM     71  H   UNL A   1      44.159  28.778  28.150  1.00  0.00     0.167 HD
ATOM     72  C   UNL A   1      46.587  30.255  27.930  1.00  0.00     0.074 A 
ATOM     73  C   UNL A   1      47.970  30.596  27.665  1.00  0.00     0.031 C 
ATOM     74  C   UNL A   1      45.653  31.140  28.363  1.00  0.00     0.037 A 
BRANCH  61  75
ATOM     75  C   UNL A   1      39.997  28.739  29.094  1.00  0.00     0.064 A 
ATOM     76  C   UNL A   1      39.502  28.504  30.387  1.00  0.00     0.173 A 
ATOM     77  C   UNL A   1      39.095  29.198  28.123  1.00  0.00     0.173 A 
ATOM     78  F   UNL A   1      40.317  28.045  31.350  1.00  0.00    -0.203 F 
ATOM     79  C   UNL A   1      38.153  28.691  30.684  1.00  0.00     0.198 A 
ATOM     80  C   UNL A   1      37.755  29.418  28.433  1.00  0.00     0.198 A 
ATOM     81  F   UNL A   1      39.512  29.437  26.872  1.00  0.00    -0.203 F 
ATOM     82  F   UNL A   1      37.694  28.403  31.910  1.00  0.00    -0.200 F 
ATOM     83  C   UNL A   1      37.284  29.155  29.710  1.00  0.00     0.200 A 
ATOM     84  F   UNL A   1      36.919  29.877  27.492  1.00  0.00    -0.200 F 
ATOM     85  F   UNL A   1      35.988  29.338  29.998  1.00  0.00    -0.200 F 
ENDBRANCH  61  75
BRANCH  62  86
ATOM     86  C   UNL A   1      49.481  26.841  26.438  1.00  0.00     0.064 A 
ATOM     87  C   UNL A   1      50.450  26.409  27.354  1.00  0.00     0.173 A 
ATOM     88  C   UNL A   1      49.880  27.022  25.105  1.00  0.00     0.173 A 
ATOM     89  F   UNL A   1      50.124  26.242  28.643  1.00  0.00    -0.203 F 
ATOM     90  C   UNL A   1      51.767  26.186  26.956  1.00  0.00     0.198 A 
ATOM     91  C   UNL A   1      51.190  26.768  24.703  1.00  0.00     0.198 A 
ATOM     92  F   UNL A   1      48.992  27.435  24.187  1.00  0.00    -0.203 F 
ATOM     93  F   UNL A   1      52.684  25.819  27.862  1.00  0.00    -0.200 F 
ATOM     94  C   UNL A   1      52.134  26.358  25.630  1.00  0.00     0.200 A 
ATOM     95  F   UNL A   1      51.536  26.921  23.416  1.00  0.00    -0.200 F 
ATOM     96  F   UNL A   1      53.400  26.137  25.248  1.00  0.00    -0.200 F 
ENDBRANCH  62  86
BRANCH  74  97
ATOM     97  C   UNL A   1      46.106  32.549  28.619  1.00  0.00     0.064 A 
ATOM     98  C   UNL A   1      46.034  33.542  27.630  1.00  0.00     0.173 A 
ATOM     99  C   UNL A   1      46.577  32.921  29.888  1.00  0.00     0.173 A 
ATOM    100  F   UNL A   1      45.602  33.236  26.397  1.00  0.00    -0.203 F 
ATOM    101  C   UNL A   1      46.445  34.845  27.894  1.00  0.00     0.198 A 
ATOM    102  C   UNL A   1      46.951  34.233  30.159  1.00  0.00     0.198 A 
ATOM    103  F   UNL A   1      46.657  32.013  30.872  1.00  0.00    -0.203 F 
ATOM    104  F   UNL A   1      46.418  35.764  26.919  1.00  0.00    -0.200 F 
ATOM    105  C   UNL A   1      46.894  35.192  29.160  1.00  0.00     0.200 A 
ATOM    106  F   UNL A   1      47.367  34.570  31.388  1.00  0.00    -0.200 F 
ATOM    107  F   UNL A   1      47.279  36.450  29.414  1.00  0.00    -0.200 F 
ENDBRANCH  74  97
ENDBRANCH  48  49
ENDBRANCH  41  43
ENDBRANCH  40  41
ENDBRANCH  39  40
ENDBRANCH  38  39
ENDBRANCH  37  38
ENDBRANCH  36  37
ENDBRANCH  35  36
ENDBRANCH  34  35
ENDBRANCH  33  34
ENDBRANCH   1  33
TORSDOF 26
ENDMDL
