MODEL 1
REMARK VINA RESULT:      -9.2      0.000      0.000
REMARK SMILES CS(=O)(=O)c1ccc(C2=NN(c3ccc(C(=O)OCCOCCOCCOCCOC(=O)c4ccc(-c5c6nc(c(-c7c(F)c(F)c(F)c(F)c7F)c7ccc([nH]7)c(-c7c(F)c(F)c(F)c(F)c7F)c7nc(c(-c8c(F)c(F)c(F)c(F)c8F)c8ccc5[nH]8)C=C7)C=C6)cc4)cc3)[C@H](c3ccc(F)cc3)C2)cc1
REMARK SMILES IDX 23 1 22 2 21 3 20 4 19 5 18 6 16 7 17 8 15 9 12 10 13 11
REMARK SMILES IDX 97 12 14 13 96 14 11 15 9 16 10 17 106 18 98 19 8 20 5 21
REMARK SMILES IDX 6 22 108 23 7 24 107 25 2 26 1 27 3 28 4 29 99 30 100 31
REMARK SMILES IDX 105 32 101 33 104 34 102 35 103 36 24 37 25 38 26 39 27 40
REMARK SMILES IDX 28 41 29 42 30 43 31 44 32 45 33 46 34 47 95 48 35 49 94 50
REMARK SMILES IDX 36 51 37 52 38 53 88 54 39 55 93 56 87 57 89 58 40 59 92 60
REMARK SMILES IDX 86 61 85 62 41 64 73 65 53 66 72 67 54 68 57 69 71 70 90 71
REMARK SMILES IDX 55 72 56 73 70 75 91 76 58 77 42 78 43 79 51 80 44 81 45 82
REMARK SMILES IDX 49 83 52 84 46 85 47 86 50 87 48 88 74 89 75 90 83 91 76 92
REMARK SMILES IDX 77 93 81 94 84 95 78 96 79 97 82 98 80 99 59 100 60 101
REMARK SMILES IDX 68 102 61 103 62 104 66 105 69 106 63 107 64 108 67 109
REMARK SMILES IDX 65 110
REMARK H PARENT 89 63 57 74
REMARK Flexibility Score: inf
ROOT
ATOM      1  C   UNL A   1      41.319  29.541  33.945  1.00  0.00     0.188 C 
ENDROOT
BRANCH   1   2
ATOM      2  C   UNL A   1      41.107  28.065  33.549  1.00  0.00     0.188 C 
BRANCH   2   3
ATOM      3  O   UNL A   1      41.204  27.173  34.647  1.00  0.00    -0.376 OA
BRANCH   3   4
ATOM      4  C   UNL A   1      42.362  26.376  34.810  1.00  0.00     0.202 C 
BRANCH   4   5
ATOM      5  C   UNL A   1      43.704  26.808  34.200  1.00  0.00     0.261 C 
BRANCH   5   6
ATOM      6  O   UNL A   1      43.941  26.422  32.845  1.00  0.00    -0.460 OA
BRANCH   6   7
ATOM      7  C   UNL A   1      44.592  25.260  32.632  1.00  0.00     0.338 C 
ATOM      8  O   UNL A   1      45.272  24.650  33.438  1.00  0.00    -0.246 OA
BRANCH   7   9
ATOM      9  C   UNL A   1      44.210  24.752  31.289  1.00  0.00     0.060 A 
ATOM     10  C   UNL A   1      43.343  23.862  28.774  1.00  0.00     0.060 A 
ATOM     11  C   UNL A   1      43.578  25.223  28.998  1.00  0.00     0.029 A 
ATOM     12  C   UNL A   1      43.691  22.945  29.775  1.00  0.00     0.029 A 
ATOM     13  C   UNL A   1      44.004  25.670  30.252  1.00  0.00     0.018 A 
ATOM     14  C   UNL A   1      44.099  23.381  31.035  1.00  0.00     0.018 A 
BRANCH  10  15
ATOM     15  N   UNL A   1      42.596  23.418  27.681  1.00  0.00    -0.257 N 
ATOM     16  C   UNL A   1      40.777  22.710  26.837  1.00  0.00     0.071 C 
ATOM     17  N   UNL A   1      41.260  23.630  27.616  1.00  0.00    -0.176 NA
ATOM     18  C   UNL A   1      41.747  21.642  26.409  1.00  0.00     0.091 C 
ATOM     19  C   UNL A   1      43.059  22.231  26.940  1.00  0.00     0.144 C 
BRANCH  16  20
ATOM     20  C   UNL A   1      39.371  22.701  26.387  1.00  0.00    -0.002 A 
ATOM     21  C   UNL A   1      36.709  22.782  25.567  1.00  0.00     0.067 A 
ATOM     22  C   UNL A   1      37.289  23.918  26.136  1.00  0.00     0.021 A 
ATOM     23  C   UNL A   1      37.448  21.603  25.410  1.00  0.00     0.021 A 
ATOM     24  C   UNL A   1      38.620  23.871  26.552  1.00  0.00     0.011 A 
ATOM     25  C   UNL A   1      38.789  21.568  25.808  1.00  0.00     0.011 A 
BRANCH  21  26
ATOM     26  S   UNL A   1      34.984  22.798  25.127  1.00  0.00     0.175 S 
ATOM     27  C   UNL A   1      34.457  21.125  25.377  1.00  0.00     0.163 C 
ATOM     28  O   UNL A   1      34.893  23.079  23.707  1.00  0.00    -0.224 OA
ATOM     29  O   UNL A   1      34.308  23.637  26.098  1.00  0.00    -0.224 OA
ENDBRANCH  21  26
ENDBRANCH  16  20
BRANCH  19  30
ATOM     30  C   UNL A   1      44.139  22.624  25.933  1.00  0.00    -0.023 A 
ATOM     31  C   UNL A   1      44.317  23.928  25.446  1.00  0.00     0.009 A 
ATOM     32  C   UNL A   1      45.073  21.640  25.535  1.00  0.00     0.009 A 
ATOM     33  C   UNL A   1      45.402  24.238  24.617  1.00  0.00     0.039 A 
ATOM     34  C   UNL A   1      46.184  21.962  24.755  1.00  0.00     0.039 A 
ATOM     35  C   UNL A   1      46.337  23.260  24.300  1.00  0.00     0.123 A 
ATOM     36  F   UNL A   1      47.403  23.579  23.556  1.00  0.00    -0.207 F 
ENDBRANCH  19  30
ENDBRANCH  10  15
ENDBRANCH   7   9
ENDBRANCH   6   7
ENDBRANCH   5   6
ENDBRANCH   4   5
ENDBRANCH   3   4
ENDBRANCH   2   3
ENDBRANCH   1   2
BRANCH   1  37
ATOM     37  O   UNL A   1      40.255  30.441  33.672  1.00  0.00    -0.377 OA
BRANCH  37  38
ATOM     38  C   UNL A   1      39.380  30.838  34.726  1.00  0.00     0.188 C 
BRANCH  38  39
ATOM     39  C   UNL A   1      38.475  32.095  34.647  1.00  0.00     0.188 C 
BRANCH  39  40
ATOM     40  O   UNL A   1      37.100  31.835  34.428  1.00  0.00    -0.376 OA
BRANCH  40  41
ATOM     41  C   UNL A   1      36.670  31.557  33.109  1.00  0.00     0.202 C 
BRANCH  41  42
ATOM     42  C   UNL A   1      35.969  32.691  32.351  1.00  0.00     0.261 C 
BRANCH  42  43
ATOM     43  O   UNL A   1      36.777  33.411  31.408  1.00  0.00    -0.460 OA
BRANCH  43  44
ATOM     44  C   UNL A   1      37.503  34.447  31.876  1.00  0.00     0.338 C 
ATOM     45  O   UNL A   1      37.216  35.198  32.795  1.00  0.00    -0.246 OA
BRANCH  44  46
ATOM     46  C   UNL A   1      38.813  34.416  31.198  1.00  0.00     0.060 A 
ATOM     47  C   UNL A   1      39.970  34.177  31.951  1.00  0.00     0.016 A 
ATOM     48  C   UNL A   1      38.894  34.611  29.817  1.00  0.00     0.016 A 
ATOM     49  C   UNL A   1      41.218  34.167  31.327  1.00  0.00     0.010 A 
ATOM     50  C   UNL A   1      40.145  34.622  29.197  1.00  0.00     0.010 A 
ATOM     51  C   UNL A   1      41.315  34.433  29.955  1.00  0.00    -0.014 A 
BRANCH  51  52
ATOM     52  C   UNL A   1      42.639  34.718  29.348  1.00  0.00     0.031 A 
ATOM     53  C   UNL A   1      43.559  33.560  29.078  1.00  0.00     0.074 A 
ATOM     54  C   UNL A   1      43.013  35.969  29.028  1.00  0.00     0.049 A 
ATOM     55  N   UNL A   1      44.790  33.557  28.633  1.00  0.00    -0.248 NA
ATOM     56  C   UNL A   1      43.016  32.219  29.352  1.00  0.00     0.031 C 
ATOM     57  C   UNL A   1      42.195  37.168  29.201  1.00  0.00     0.029 A 
ATOM     58  N   UNL A   1      44.192  36.438  28.503  1.00  0.00    -0.354 N 
ATOM     59  C   UNL A   1      45.163  32.221  28.572  1.00  0.00     0.074 A 
ATOM     60  C   UNL A   1      44.049  31.443  29.065  1.00  0.00     0.031 C 
ATOM     61  C   UNL A   1      42.907  38.240  28.810  1.00  0.00     0.029 A 
ATOM     62  C   UNL A   1      44.241  37.806  28.396  1.00  0.00     0.049 A 
ATOM     63  H   UNL A   1      44.932  35.848  28.228  1.00  0.00     0.167 HD
ATOM     64  C   UNL A   1      46.327  31.689  28.128  1.00  0.00     0.037 A 
ATOM     65  C   UNL A   1      45.260  38.613  28.037  1.00  0.00     0.037 A 
ATOM     66  C   UNL A   1      47.439  32.466  27.651  1.00  0.00     0.049 A 
ATOM     67  C   UNL A   1      46.581  38.000  27.637  1.00  0.00     0.074 A 
ATOM     68  C   UNL A   1      48.668  32.024  27.192  1.00  0.00     0.029 A 
ATOM     69  N   UNL A   1      47.459  33.851  27.577  1.00  0.00    -0.354 N 
ATOM     70  N   UNL A   1      46.925  36.736  27.566  1.00  0.00    -0.248 NA
ATOM     71  C   UNL A   1      47.657  38.929  27.260  1.00  0.00     0.031 C 
ATOM     72  C   UNL A   1      49.450  33.143  26.891  1.00  0.00     0.029 A 
ATOM     73  C   UNL A   1      48.687  34.280  27.098  1.00  0.00     0.049 A 
ATOM     74  H   UNL A   1      46.712  34.442  27.828  1.00  0.00     0.167 HD
ATOM     75  C   UNL A   1      48.236  36.718  27.106  1.00  0.00     0.074 A 
ATOM     76  C   UNL A   1      48.623  38.097  26.898  1.00  0.00     0.031 C 
ATOM     77  C   UNL A   1      49.050  35.657  26.878  1.00  0.00     0.037 A 
BRANCH  64  78
ATOM     78  C   UNL A   1      46.460  30.194  28.154  1.00  0.00     0.064 A 
ATOM     79  C   UNL A   1      46.757  29.503  29.340  1.00  0.00     0.173 A 
ATOM     80  C   UNL A   1      46.252  29.439  26.990  1.00  0.00     0.173 A 
ATOM     81  F   UNL A   1      46.981  30.180  30.476  1.00  0.00    -0.203 F 
ATOM     82  C   UNL A   1      46.862  28.116  29.353  1.00  0.00     0.198 A 
ATOM     83  C   UNL A   1      46.325  28.049  27.016  1.00  0.00     0.198 A 
ATOM     84  F   UNL A   1      45.964  30.048  25.831  1.00  0.00    -0.203 F 
ATOM     85  F   UNL A   1      47.193  27.482  30.488  1.00  0.00    -0.200 F 
ATOM     86  C   UNL A   1      46.637  27.388  28.195  1.00  0.00     0.200 A 
ATOM     87  F   UNL A   1      46.093  27.347  25.898  1.00  0.00    -0.200 F 
ATOM     88  F   UNL A   1      46.726  26.052  28.212  1.00  0.00    -0.200 F 
ENDBRANCH  64  78
BRANCH  65  89
ATOM     89  C   UNL A   1      45.095  40.092  28.071  1.00  0.00     0.064 A 
ATOM     90  C   UNL A   1      44.642  40.801  26.949  1.00  0.00     0.173 A 
ATOM     91  C   UNL A   1      45.441  40.834  29.211  1.00  0.00     0.173 A 
ATOM     92  F   UNL A   1      44.324  40.143  25.824  1.00  0.00    -0.203 F 
ATOM     93  C   UNL A   1      44.575  42.194  26.955  1.00  0.00     0.198 A 
ATOM     94  C   UNL A   1      45.338  42.223  29.228  1.00  0.00     0.198 A 
ATOM     95  F   UNL A   1      45.883  40.208  30.311  1.00  0.00    -0.203 F 
ATOM     96  F   UNL A   1      44.205  42.849  25.845  1.00  0.00    -0.200 F 
ATOM     97  C   UNL A   1      44.918  42.903  28.096  1.00  0.00     0.200 A 
ATOM     98  F   UNL A   1      45.659  42.903  30.337  1.00  0.00    -0.200 F 
ATOM     99  F   UNL A   1      44.858  44.242  28.098  1.00  0.00    -0.200 F 
ENDBRANCH  65  89
BRANCH  77 100
ATOM    100  C   UNL A   1      50.418  35.936  26.322  1.00  0.00     0.064 A 
ATOM    101  C   UNL A   1      51.548  36.042  27.148  1.00  0.00     0.173 A 
ATOM    102  C   UNL A   1      50.607  36.056  24.936  1.00  0.00     0.173 A 
ATOM    103  F   UNL A   1      51.422  35.946  28.479  1.00  0.00    -0.203 F 
ATOM    104  C   UNL A   1      52.808  36.287  26.608  1.00  0.00     0.198 A 
ATOM    105  C   UNL A   1      51.874  36.265  24.399  1.00  0.00     0.198 A 
ATOM    106  F   UNL A   1      49.563  35.954  24.099  1.00  0.00    -0.203 F 
ATOM    107  F   UNL A   1      53.864  36.437  27.421  1.00  0.00    -0.200 F 
ATOM    108  C   UNL A   1      52.972  36.390  25.236  1.00  0.00     0.200 A 
ATOM    109  F   UNL A   1      52.033  36.345  23.070  1.00  0.00    -0.200 F 
ATOM    110  F   UNL A   1      54.188  36.617  24.718  1.00  0.00    -0.200 F 
ENDBRANCH  77 100
ENDBRANCH  51  52
ENDBRANCH  44  46
ENDBRANCH  43  44
ENDBRANCH  42  43
ENDBRANCH  41  42
ENDBRANCH  40  41
ENDBRANCH  39  40
ENDBRANCH  38  39
ENDBRANCH  37  38
ENDBRANCH   1  37
TORSDOF 24
ENDMDL
MODEL 2
REMARK VINA RESULT:      -8.7      5.004      8.412
REMARK SMILES CS(=O)(=O)c1ccc(C2=NN(c3ccc(C(=O)OCCOCCOCCOCCOC(=O)c4ccc(-c5c6nc(c(-c7c(F)c(F)c(F)c(F)c7F)c7ccc([nH]7)c(-c7c(F)c(F)c(F)c(F)c7F)c7nc(c(-c8c(F)c(F)c(F)c(F)c8F)c8ccc5[nH]8)C=C7)C=C6)cc4)cc3)[C@H](c3ccc(F)cc3)C2)cc1
REMARK SMILES IDX 23 1 22 2 21 3 20 4 19 5 18 6 16 7 17 8 15 9 12 10 13 11
REMARK SMILES IDX 97 12 14 13 96 14 11 15 9 16 10 17 106 18 98 19 8 20 5 21
REMARK SMILES IDX 6 22 108 23 7 24 107 25 2 26 1 27 3 28 4 29 99 30 100 31
REMARK SMILES IDX 105 32 101 33 104 34 102 35 103 36 24 37 25 38 26 39 27 40
REMARK SMILES IDX 28 41 29 42 30 43 31 44 32 45 33 46 34 47 95 48 35 49 94 50
REMARK SMILES IDX 36 51 37 52 38 53 88 54 39 55 93 56 87 57 89 58 40 59 92 60
REMARK SMILES IDX 86 61 85 62 41 64 73 65 53 66 72 67 54 68 57 69 71 70 90 71
REMARK SMILES IDX 55 72 56 73 70 75 91 76 58 77 42 78 43 79 51 80 44 81 45 82
REMARK SMILES IDX 49 83 52 84 46 85 47 86 50 87 48 88 74 89 75 90 83 91 76 92
REMARK SMILES IDX 77 93 81 94 84 95 78 96 79 97 82 98 80 99 59 100 60 101
REMARK SMILES IDX 68 102 61 103 62 104 66 105 69 106 63 107 64 108 67 109
REMARK SMILES IDX 65 110
REMARK H PARENT 89 63 57 74
REMARK Flexibility Score: inf
ROOT
ATOM      1  C   UNL A   1      38.874  30.954  30.975  1.00  0.00     0.188 C 
ENDROOT
BRANCH   1   2
ATOM      2  C   UNL A   1      38.215  29.702  30.360  1.00  0.00     0.188 C 
BRANCH   2   3
ATOM      3  O   UNL A   1      38.675  29.414  29.050  1.00  0.00    -0.376 OA
BRANCH   3   4
ATOM      4  C   UNL A   1      39.727  28.487  28.858  1.00  0.00     0.202 C 
BRANCH   4   5
ATOM      5  C   UNL A   1      39.478  26.977  28.997  1.00  0.00     0.261 C 
BRANCH   5   6
ATOM      6  O   UNL A   1      39.200  26.265  27.790  1.00  0.00    -0.460 OA
BRANCH   6   7
ATOM      7  C   UNL A   1      39.931  25.161  27.534  1.00  0.00     0.338 C 
ATOM      8  O   UNL A   1      39.549  24.006  27.597  1.00  0.00    -0.246 OA
BRANCH   7   9
ATOM      9  C   UNL A   1      41.249  25.590  26.997  1.00  0.00     0.060 A 
ATOM     10  C   UNL A   1      43.758  26.484  26.120  1.00  0.00     0.060 A 
ATOM     11  C   UNL A   1      43.665  25.574  27.179  1.00  0.00     0.029 A 
ATOM     12  C   UNL A   1      42.595  26.819  25.416  1.00  0.00     0.029 A 
ATOM     13  C   UNL A   1      42.415  25.131  27.622  1.00  0.00     0.018 A 
ATOM     14  C   UNL A   1      41.342  26.399  25.861  1.00  0.00     0.018 A 
BRANCH  10  15
ATOM     15  N   UNL A   1      44.927  27.210  25.880  1.00  0.00    -0.257 N 
ATOM     16  C   UNL A   1      46.883  27.367  25.059  1.00  0.00     0.071 C 
ATOM     17  N   UNL A   1      45.675  26.984  24.774  1.00  0.00    -0.176 NA
ATOM     18  C   UNL A   1      47.122  27.754  26.493  1.00  0.00     0.091 C 
ATOM     19  C   UNL A   1      45.686  27.733  27.030  1.00  0.00     0.144 C 
BRANCH  16  20
ATOM     20  C   UNL A   1      47.960  27.430  24.053  1.00  0.00    -0.002 A 
ATOM     21  C   UNL A   1      50.063  27.527  22.227  1.00  0.00     0.067 A 
ATOM     22  C   UNL A   1      50.328  27.235  23.567  1.00  0.00     0.021 A 
ATOM     23  C   UNL A   1      48.756  27.777  21.794  1.00  0.00     0.021 A 
ATOM     24  C   UNL A   1      49.273  27.194  24.480  1.00  0.00     0.011 A 
ATOM     25  C   UNL A   1      47.698  27.713  22.708  1.00  0.00     0.011 A 
BRANCH  21  26
ATOM     26  S   UNL A   1      51.412  27.682  21.074  1.00  0.00     0.175 S 
ATOM     27  C   UNL A   1      52.722  26.743  21.811  1.00  0.00     0.163 C 
ATOM     28  O   UNL A   1      51.822  29.073  21.059  1.00  0.00    -0.224 OA
ATOM     29  O   UNL A   1      51.003  27.011  19.855  1.00  0.00    -0.224 OA
ENDBRANCH  21  26
ENDBRANCH  16  20
BRANCH  19  30
ATOM     30  C   UNL A   1      45.072  29.046  27.516  1.00  0.00    -0.023 A 
ATOM     31  C   UNL A   1      45.052  30.227  26.759  1.00  0.00     0.009 A 
ATOM     32  C   UNL A   1      44.404  29.051  28.762  1.00  0.00     0.009 A 
ATOM     33  C   UNL A   1      44.367  31.357  27.221  1.00  0.00     0.039 A 
ATOM     34  C   UNL A   1      43.676  30.159  29.195  1.00  0.00     0.039 A 
ATOM     35  C   UNL A   1      43.666  31.306  28.420  1.00  0.00     0.123 A 
ATOM     36  F   UNL A   1      42.966  32.372  28.824  1.00  0.00    -0.207 F 
ENDBRANCH  19  30
ENDBRANCH  10  15
ENDBRANCH   7   9
ENDBRANCH   6   7
ENDBRANCH   5   6
ENDBRANCH   4   5
ENDBRANCH   3   4
ENDBRANCH   2   3
ENDBRANCH   1   2
BRANCH   1  37
ATOM     37  O   UNL A   1      39.613  30.770  32.174  1.00  0.00    -0.377 OA
BRANCH  37  38
ATOM     38  C   UNL A   1      40.622  29.764  32.233  1.00  0.00     0.188 C 
BRANCH  38  39
ATOM     39  C   UNL A   1      40.922  28.940  33.512  1.00  0.00     0.188 C 
BRANCH  39  40
ATOM     40  O   UNL A   1      41.698  27.772  33.309  1.00  0.00    -0.376 OA
BRANCH  40  41
ATOM     41  C   UNL A   1      43.098  27.911  33.165  1.00  0.00     0.202 C 
BRANCH  41  42
ATOM     42  C   UNL A   1      43.937  27.875  34.449  1.00  0.00     0.261 C 
BRANCH  42  43
ATOM     43  O   UNL A   1      45.360  27.938  34.273  1.00  0.00    -0.460 OA
BRANCH  43  44
ATOM     44  C   UNL A   1      45.968  26.857  33.743  1.00  0.00     0.338 C 
ATOM     45  O   UNL A   1      45.768  25.684  34.019  1.00  0.00    -0.246 OA
BRANCH  44  46
ATOM     46  C   UNL A   1      46.807  27.322  32.622  1.00  0.00     0.060 A 
ATOM     47  C   UNL A   1      47.924  28.127  32.889  1.00  0.00     0.016 A 
ATOM     48  C   UNL A   1      46.498  26.952  31.312  1.00  0.00     0.016 A 
ATOM     49  C   UNL A   1      48.714  28.593  31.837  1.00  0.00     0.010 A 
ATOM     50  C   UNL A   1      47.277  27.436  30.259  1.00  0.00     0.010 A 
ATOM     51  C   UNL A   1      48.368  28.285  30.514  1.00  0.00    -0.014 A 
BRANCH  51  52
ATOM     52  C   UNL A   1      49.015  29.010  29.394  1.00  0.00     0.031 A 
ATOM     53  C   UNL A   1      50.168  28.348  28.691  1.00  0.00     0.074 A 
ATOM     54  C   UNL A   1      48.583  30.219  28.994  1.00  0.00     0.049 A 
ATOM     55  N   UNL A   1      50.945  28.808  27.744  1.00  0.00    -0.248 NA
ATOM     56  C   UNL A   1      50.491  26.978  29.121  1.00  0.00     0.031 C 
ATOM     57  C   UNL A   1      47.451  30.945  29.565  1.00  0.00     0.029 A 
ATOM     58  N   UNL A   1      49.064  31.058  28.018  1.00  0.00    -0.354 N 
ATOM     59  C   UNL A   1      51.842  27.785  27.465  1.00  0.00     0.074 A 
ATOM     60  C   UNL A   1      51.545  26.698  28.371  1.00  0.00     0.031 C 
ATOM     61  C   UNL A   1      47.338  32.133  28.943  1.00  0.00     0.029 A 
ATOM     62  C   UNL A   1      48.412  32.264  27.959  1.00  0.00     0.049 A 
ATOM     63  H   UNL A   1      49.806  30.816  27.416  1.00  0.00     0.167 HD
ATOM     64  C   UNL A   1      52.817  27.750  26.526  1.00  0.00     0.037 A 
ATOM     65  C   UNL A   1      48.677  33.360  27.218  1.00  0.00     0.037 A 
ATOM     66  C   UNL A   1      53.120  28.838  25.636  1.00  0.00     0.049 A 
ATOM     67  C   UNL A   1      49.831  33.330  26.244  1.00  0.00     0.074 A 
ATOM     68  C   UNL A   1      54.097  28.909  24.658  1.00  0.00     0.029 A 
ATOM     69  N   UNL A   1      52.450  30.054  25.620  1.00  0.00    -0.354 N 
ATOM     70  N   UNL A   1      50.667  32.356  25.973  1.00  0.00    -0.248 NA
ATOM     71  C   UNL A   1      50.075  34.555  25.467  1.00  0.00     0.031 C 
ATOM     72  C   UNL A   1      54.054  30.184  24.087  1.00  0.00     0.029 A 
ATOM     73  C   UNL A   1      53.007  30.886  24.663  1.00  0.00     0.049 A 
ATOM     74  H   UNL A   1      51.693  30.289  26.204  1.00  0.00     0.167 HD
ATOM     75  C   UNL A   1      51.507  32.835  24.976  1.00  0.00     0.074 A 
ATOM     76  C   UNL A   1      51.071  34.182  24.676  1.00  0.00     0.031 C 
ATOM     77  C   UNL A   1      52.548  32.219  24.362  1.00  0.00     0.037 A 
BRANCH  64  78
ATOM     78  C   UNL A   1      53.638  26.497  26.425  1.00  0.00     0.064 A 
ATOM     79  C   UNL A   1      54.870  26.371  27.087  1.00  0.00     0.173 A 
ATOM     80  C   UNL A   1      53.173  25.396  25.691  1.00  0.00     0.173 A 
ATOM     81  F   UNL A   1      55.367  27.401  27.788  1.00  0.00    -0.203 F 
ATOM     82  C   UNL A   1      55.614  25.198  26.999  1.00  0.00     0.198 A 
ATOM     83  C   UNL A   1      53.904  24.213  25.634  1.00  0.00     0.198 A 
ATOM     84  F   UNL A   1      52.001  25.462  25.042  1.00  0.00    -0.203 F 
ATOM     85  F   UNL A   1      56.810  25.119  27.601  1.00  0.00    -0.200 F 
ATOM     86  C   UNL A   1      55.127  24.117  26.280  1.00  0.00     0.200 A 
ATOM     87  F   UNL A   1      53.425  23.164  24.951  1.00  0.00    -0.200 F 
ATOM     88  F   UNL A   1      55.839  22.984  26.206  1.00  0.00    -0.200 F 
ENDBRANCH  64  78
BRANCH  65  89
ATOM     89  C   UNL A   1      47.863  34.595  27.385  1.00  0.00     0.064 A 
ATOM     90  C   UNL A   1      48.253  35.612  28.267  1.00  0.00     0.173 A 
ATOM     91  C   UNL A   1      46.645  34.758  26.705  1.00  0.00     0.173 A 
ATOM     92  F   UNL A   1      49.394  35.495  28.963  1.00  0.00    -0.203 F 
ATOM     93  C   UNL A   1      47.443  36.726  28.488  1.00  0.00     0.198 A 
ATOM     94  C   UNL A   1      45.855  35.888  26.899  1.00  0.00     0.198 A 
ATOM     95  F   UNL A   1      46.221  33.814  25.852  1.00  0.00    -0.203 F 
ATOM     96  F   UNL A   1      47.808  37.649  29.389  1.00  0.00    -0.200 F 
ATOM     97  C   UNL A   1      46.247  36.865  27.800  1.00  0.00     0.200 A 
ATOM     98  F   UNL A   1      44.706  36.023  26.222  1.00  0.00    -0.200 F 
ATOM     99  F   UNL A   1      45.468  37.933  28.017  1.00  0.00    -0.200 F 
ENDBRANCH  65  89
BRANCH  77 100
ATOM    100  C   UNL A   1      53.253  32.968  23.267  1.00  0.00     0.064 A 
ATOM    101  C   UNL A   1      54.329  33.829  23.529  1.00  0.00     0.173 A 
ATOM    102  C   UNL A   1      52.873  32.785  21.927  1.00  0.00     0.173 A 
ATOM    103  F   UNL A   1      54.726  34.049  24.791  1.00  0.00    -0.203 F 
ATOM    104  C   UNL A   1      54.976  34.502  22.496  1.00  0.00     0.198 A 
ATOM    105  C   UNL A   1      53.546  33.431  20.895  1.00  0.00     0.198 A 
ATOM    106  F   UNL A   1      51.857  31.965  21.618  1.00  0.00    -0.203 F 
ATOM    107  F   UNL A   1      55.966  35.361  22.776  1.00  0.00    -0.200 F 
ATOM    108  C   UNL A   1      54.591  34.297  21.180  1.00  0.00     0.200 A 
ATOM    109  F   UNL A   1      53.184  33.216  19.622  1.00  0.00    -0.200 F 
ATOM    110  F   UNL A   1      55.221  34.938  20.186  1.00  0.00    -0.200 F 
ENDBRANCH  77 100
ENDBRANCH  51  52
ENDBRANCH  44  46
ENDBRANCH  43  44
ENDBRANCH  42  43
ENDBRANCH  41  42
ENDBRANCH  40  41
ENDBRANCH  39  40
ENDBRANCH  38  39
ENDBRANCH  37  38
ENDBRANCH   1  37
TORSDOF 24
ENDMDL
MODEL 3
REMARK VINA RESULT:      -8.7      8.220     13.768
REMARK SMILES CS(=O)(=O)c1ccc(C2=NN(c3ccc(C(=O)OCCOCCOCCOCCOC(=O)c4ccc(-c5c6nc(c(-c7c(F)c(F)c(F)c(F)c7F)c7ccc([nH]7)c(-c7c(F)c(F)c(F)c(F)c7F)c7nc(c(-c8c(F)c(F)c(F)c(F)c8F)c8ccc5[nH]8)C=C7)C=C6)cc4)cc3)[C@H](c3ccc(F)cc3)C2)cc1
REMARK SMILES IDX 23 1 22 2 21 3 20 4 19 5 18 6 16 7 17 8 15 9 12 10 13 11
REMARK SMILES IDX 97 12 14 13 96 14 11 15 9 16 10 17 106 18 98 19 8 20 5 21
REMARK SMILES IDX 6 22 108 23 7 24 107 25 2 26 1 27 3 28 4 29 99 30 100 31
REMARK SMILES IDX 105 32 101 33 104 34 102 35 103 36 24 37 25 38 26 39 27 40
REMARK SMILES IDX 28 41 29 42 30 43 31 44 32 45 33 46 34 47 95 48 35 49 94 50
REMARK SMILES IDX 36 51 37 52 38 53 88 54 39 55 93 56 87 57 89 58 40 59 92 60
REMARK SMILES IDX 86 61 85 62 41 64 73 65 53 66 72 67 54 68 57 69 71 70 90 71
REMARK SMILES IDX 55 72 56 73 70 75 91 76 58 77 42 78 43 79 51 80 44 81 45 82
REMARK SMILES IDX 49 83 52 84 46 85 47 86 50 87 48 88 74 89 75 90 83 91 76 92
REMARK SMILES IDX 77 93 81 94 84 95 78 96 79 97 82 98 80 99 59 100 60 101
REMARK SMILES IDX 68 102 61 103 62 104 66 105 69 106 63 107 64 108 67 109
REMARK SMILES IDX 65 110
REMARK H PARENT 89 63 57 74
REMARK Flexibility Score: inf
ROOT
ATOM      1  C   UNL A   1      55.493  26.580  35.227  1.00  0.00     0.188 C 
ENDROOT
BRANCH   1   2
ATOM      2  C   UNL A   1      55.759  25.356  34.326  1.00  0.00     0.188 C 
BRANCH   2   3
ATOM      3  O   UNL A   1      55.333  24.133  34.904  1.00  0.00    -0.376 OA
BRANCH   3   4
ATOM      4  C   UNL A   1      54.618  23.194  34.124  1.00  0.00     0.202 C 
BRANCH   4   5
ATOM      5  C   UNL A   1      53.543  22.300  34.760  1.00  0.00     0.261 C 
BRANCH   5   6
ATOM      6  O   UNL A   1      53.165  21.136  34.022  1.00  0.00    -0.460 OA
BRANCH   6   7
ATOM      7  C   UNL A   1      51.970  21.155  33.397  1.00  0.00     0.338 C 
ATOM      8  O   UNL A   1      51.780  21.117  32.194  1.00  0.00    -0.246 OA
BRANCH   7   9
ATOM      9  C   UNL A   1      50.904  21.061  34.427  1.00  0.00     0.060 A 
ATOM     10  C   UNL A   1      48.866  20.730  36.326  1.00  0.00     0.060 A 
ATOM     11  C   UNL A   1      50.089  20.067  36.481  1.00  0.00     0.029 A 
ATOM     12  C   UNL A   1      48.736  21.669  35.295  1.00  0.00     0.029 A 
ATOM     13  C   UNL A   1      51.104  20.225  35.533  1.00  0.00     0.018 A 
ATOM     14  C   UNL A   1      49.734  21.821  34.334  1.00  0.00     0.018 A 
BRANCH  10  15
ATOM     15  N   UNL A   1      47.727  20.338  37.032  1.00  0.00    -0.257 N 
ATOM     16  C   UNL A   1      46.759  19.080  38.447  1.00  0.00     0.071 C 
ATOM     17  N   UNL A   1      47.824  19.802  38.272  1.00  0.00    -0.176 NA
ATOM     18  C   UNL A   1      45.876  18.915  37.240  1.00  0.00     0.091 C 
ATOM     19  C   UNL A   1      46.537  19.908  36.276  1.00  0.00     0.144 C 
BRANCH  16  20
ATOM     20  C   UNL A   1      46.417  18.460  39.743  1.00  0.00    -0.002 A 
ATOM     21  C   UNL A   1      45.793  17.198  42.148  1.00  0.00     0.067 A 
ATOM     22  C   UNL A   1      46.198  16.432  41.053  1.00  0.00     0.021 A 
ATOM     23  C   UNL A   1      45.691  18.591  42.048  1.00  0.00     0.021 A 
ATOM     24  C   UNL A   1      46.503  17.066  39.848  1.00  0.00     0.011 A 
ATOM     25  C   UNL A   1      46.020  19.226  40.844  1.00  0.00     0.011 A 
BRANCH  21  26
ATOM     26  S   UNL A   1      45.304  16.391  43.658  1.00  0.00     0.175 S 
ATOM     27  C   UNL A   1      44.932  17.727  44.762  1.00  0.00     0.163 C 
ATOM     28  O   UNL A   1      46.465  15.698  44.183  1.00  0.00    -0.224 OA
ATOM     29  O   UNL A   1      44.073  15.679  43.376  1.00  0.00    -0.224 OA
ENDBRANCH  21  26
ENDBRANCH  16  20
BRANCH  19  30
ATOM     30  C   UNL A   1      45.731  21.124  35.822  1.00  0.00    -0.023 A 
ATOM     31  C   UNL A   1      45.015  21.182  34.617  1.00  0.00     0.009 A 
ATOM     32  C   UNL A   1      45.622  22.223  36.705  1.00  0.00     0.009 A 
ATOM     33  C   UNL A   1      44.203  22.284  34.322  1.00  0.00     0.039 A 
ATOM     34  C   UNL A   1      44.770  23.294  36.436  1.00  0.00     0.039 A 
ATOM     35  C   UNL A   1      44.068  23.315  35.243  1.00  0.00     0.123 A 
ATOM     36  F   UNL A   1      43.243  24.336  34.978  1.00  0.00    -0.207 F 
ENDBRANCH  19  30
ENDBRANCH  10  15
ENDBRANCH   7   9
ENDBRANCH   6   7
ENDBRANCH   5   6
ENDBRANCH   4   5
ENDBRANCH   3   4
ENDBRANCH   2   3
ENDBRANCH   1   2
BRANCH   1  37
ATOM     37  O   UNL A   1      54.144  26.830  35.594  1.00  0.00    -0.377 OA
BRANCH  37  38
ATOM     38  C   UNL A   1      53.809  27.002  36.969  1.00  0.00     0.188 C 
BRANCH  38  39
ATOM     39  C   UNL A   1      52.786  26.102  37.710  1.00  0.00     0.188 C 
BRANCH  39  40
ATOM     40  O   UNL A   1      51.613  26.760  38.153  1.00  0.00    -0.376 OA
BRANCH  40  41
ATOM     41  C   UNL A   1      50.364  26.308  37.666  1.00  0.00     0.202 C 
BRANCH  41  42
ATOM     42  C   UNL A   1      49.789  27.034  36.443  1.00  0.00     0.261 C 
BRANCH  42  43
ATOM     43  O   UNL A   1      48.393  27.366  36.507  1.00  0.00    -0.460 OA
BRANCH  43  44
ATOM     44  C   UNL A   1      47.520  26.478  35.991  1.00  0.00     0.338 C 
ATOM     45  O   UNL A   1      47.557  25.261  36.085  1.00  0.00    -0.246 OA
BRANCH  44  46
ATOM     46  C   UNL A   1      46.389  27.240  35.429  1.00  0.00     0.060 A 
ATOM     47  C   UNL A   1      45.078  26.843  35.727  1.00  0.00     0.016 A 
ATOM     48  C   UNL A   1      46.625  28.353  34.619  1.00  0.00     0.016 A 
ATOM     49  C   UNL A   1      43.998  27.541  35.185  1.00  0.00     0.010 A 
ATOM     50  C   UNL A   1      45.543  29.038  34.060  1.00  0.00     0.010 A 
ATOM     51  C   UNL A   1      44.226  28.614  34.314  1.00  0.00    -0.014 A 
BRANCH  51  52
ATOM     52  C   UNL A   1      43.108  29.164  33.508  1.00  0.00     0.031 A 
ATOM     53  C   UNL A   1      42.187  30.158  34.159  1.00  0.00     0.074 A 
ATOM     54  C   UNL A   1      42.921  28.805  32.226  1.00  0.00     0.049 A 
ATOM     55  N   UNL A   1      41.098  30.715  33.695  1.00  0.00    -0.248 NA
ATOM     56  C   UNL A   1      42.541  30.577  35.525  1.00  0.00     0.031 C 
ATOM     57  C   UNL A   1      43.769  27.886  31.471  1.00  0.00     0.029 A 
ATOM     58  N   UNL A   1      41.938  29.166  31.336  1.00  0.00    -0.354 N 
ATOM     59  C   UNL A   1      40.643  31.550  34.708  1.00  0.00     0.074 A 
ATOM     60  C   UNL A   1      41.545  31.394  35.827  1.00  0.00     0.031 C 
ATOM     61  C   UNL A   1      43.256  27.735  30.237  1.00  0.00     0.029 A 
ATOM     62  C   UNL A   1      42.025  28.518  30.129  1.00  0.00     0.049 A 
ATOM     63  H   UNL A   1      41.238  29.827  31.544  1.00  0.00     0.167 HD
ATOM     64  C   UNL A   1      39.577  32.385  34.699  1.00  0.00     0.037 A 
ATOM     65  C   UNL A   1      41.187  28.532  29.073  1.00  0.00     0.037 A 
ATOM     66  C   UNL A   1      38.672  32.527  33.590  1.00  0.00     0.049 A 
ATOM     67  C   UNL A   1      39.951  29.399  29.124  1.00  0.00     0.074 A 
ATOM     68  C   UNL A   1      37.553  33.335  33.485  1.00  0.00     0.029 A 
ATOM     69  N   UNL A   1      38.781  31.839  32.390  1.00  0.00    -0.354 N 
ATOM     70  N   UNL A   1      39.533  30.197  30.078  1.00  0.00    -0.248 NA
ATOM     71  C   UNL A   1      39.070  29.370  27.946  1.00  0.00     0.031 C 
ATOM     72  C   UNL A   1      36.955  33.096  32.245  1.00  0.00     0.029 A 
ATOM     73  C   UNL A   1      37.738  32.189  31.549  1.00  0.00     0.049 A 
ATOM     74  H   UNL A   1      39.494  31.195  32.170  1.00  0.00     0.167 HD
ATOM     75  C   UNL A   1      38.369  30.788  29.603  1.00  0.00     0.074 A 
ATOM     76  C   UNL A   1      38.153  30.270  28.269  1.00  0.00     0.031 C 
ATOM     77  C   UNL A   1      37.548  31.678  30.215  1.00  0.00     0.037 A 
BRANCH  64  78
ATOM     78  C   UNL A   1      39.321  33.196  35.935  1.00  0.00     0.064 A 
ATOM     79  C   UNL A   1      38.553  32.694  36.999  1.00  0.00     0.173 A 
ATOM     80  C   UNL A   1      39.880  34.475  36.078  1.00  0.00     0.173 A 
ATOM     81  F   UNL A   1      37.983  31.483  36.906  1.00  0.00    -0.203 F 
ATOM     82  C   UNL A   1      38.337  33.451  38.147  1.00  0.00     0.198 A 
ATOM     83  C   UNL A   1      39.690  35.214  37.242  1.00  0.00     0.198 A 
ATOM     84  F   UNL A   1      40.624  35.001  35.095  1.00  0.00    -0.203 F 
ATOM     85  F   UNL A   1      37.562  32.969  39.129  1.00  0.00    -0.200 F 
ATOM     86  C   UNL A   1      38.913  34.706  38.272  1.00  0.00     0.200 A 
ATOM     87  F   UNL A   1      40.259  36.421  37.367  1.00  0.00    -0.200 F 
ATOM     88  F   UNL A   1      38.714  35.428  39.383  1.00  0.00    -0.200 F 
ENDBRANCH  64  78
BRANCH  65  89
ATOM     89  C   UNL A   1      41.457  27.675  27.887  1.00  0.00     0.064 A 
ATOM     90  C   UNL A   1      40.917  26.386  27.778  1.00  0.00     0.173 A 
ATOM     91  C   UNL A   1      42.311  28.109  26.859  1.00  0.00     0.173 A 
ATOM     92  F   UNL A   1      40.117  25.911  28.745  1.00  0.00    -0.203 F 
ATOM     93  C   UNL A   1      41.245  25.553  26.709  1.00  0.00     0.198 A 
ATOM     94  C   UNL A   1      42.609  27.289  25.773  1.00  0.00     0.198 A 
ATOM     95  F   UNL A   1      42.859  29.331  26.913  1.00  0.00    -0.203 F 
ATOM     96  F   UNL A   1      40.769  24.301  26.667  1.00  0.00    -0.200 F 
ATOM     97  C   UNL A   1      42.087  26.007  25.705  1.00  0.00     0.200 A 
ATOM     98  F   UNL A   1      43.413  27.738  24.799  1.00  0.00    -0.200 F 
ATOM     99  F   UNL A   1      42.407  25.204  24.681  1.00  0.00    -0.200 F 
ENDBRANCH  65  89
BRANCH  77 100
ATOM    100  C   UNL A   1      36.374  32.196  29.431  1.00  0.00     0.064 A 
ATOM    101  C   UNL A   1      35.281  31.379  29.105  1.00  0.00     0.173 A 
ATOM    102  C   UNL A   1      36.324  33.543  29.040  1.00  0.00     0.173 A 
ATOM    103  F   UNL A   1      35.282  30.082  29.445  1.00  0.00    -0.203 F 
ATOM    104  C   UNL A   1      34.198  31.885  28.390  1.00  0.00     0.198 A 
ATOM    105  C   UNL A   1      35.224  34.053  28.357  1.00  0.00     0.198 A 
ATOM    106  F   UNL A   1      37.338  34.372  29.334  1.00  0.00    -0.203 F 
ATOM    107  F   UNL A   1      33.189  31.072  28.044  1.00  0.00    -0.200 F 
ATOM    108  C   UNL A   1      34.166  33.221  28.025  1.00  0.00     0.200 A 
ATOM    109  F   UNL A   1      35.186  35.351  28.022  1.00  0.00    -0.200 F 
ATOM    110  F   UNL A   1      33.118  33.708  27.345  1.00  0.00    -0.200 F 
ENDBRANCH  77 100
ENDBRANCH  51  52
ENDBRANCH  44  46
ENDBRANCH  43  44
ENDBRANCH  42  43
ENDBRANCH  41  42
ENDBRANCH  40  41
ENDBRANCH  39  40
ENDBRANCH  38  39
ENDBRANCH  37  38
ENDBRANCH   1  37
TORSDOF 24
ENDMDL
