MODEL 1
REMARK VINA RESULT:     -10.2      0.000      0.000
REMARK SMILES Cc1cc(N(C)[C@H](C)C(=O)OCCOCCOCCOCCOC(=O)c2ccc(-c3c4nc(c(-c5c(F)c(F)c(F)c(F)c5F)c5ccc([nH]5)c(-c5c(F)c(F)c(F)c(F)c5F)c5nc(c(-c6c(F)c(F)c(F)c(F)c6F)c6ccc3[nH]6)C=C5)C=C4)cc2)ncc1[N+](=O)[O-]
REMARK SMILES IDX 16 1 15 2 14 3 13 4 12 5 11 6 9 7 10 8 7 9 8 10 5 11 6 12
REMARK SMILES IDX 4 13 1 14 2 15 3 16 91 17 90 18 89 19 92 20 93 21 94 22
REMARK SMILES IDX 17 23 18 24 19 25 20 26 21 27 22 28 23 29 24 30 25 31 26 32
REMARK SMILES IDX 27 33 88 34 28 35 87 36 29 37 30 38 31 39 81 40 32 41 86 42
REMARK SMILES IDX 80 43 82 44 33 45 85 46 79 47 78 48 34 50 66 51 46 52 65 53
REMARK SMILES IDX 47 54 50 55 64 56 83 57 48 58 49 59 63 61 84 62 51 63 35 64
REMARK SMILES IDX 36 65 44 66 37 67 38 68 42 69 45 70 39 71 40 72 43 73 41 74
REMARK SMILES IDX 67 75 68 76 76 77 69 78 70 79 74 80 77 81 71 82 72 83 75 84
REMARK SMILES IDX 73 85 52 86 53 87 61 88 54 89 55 90 59 91 62 92 56 93 57 94
REMARK SMILES IDX 60 95 58 96
REMARK H PARENT 82 49 50 60
REMARK Flexibility Score: inf
ROOT
ATOM      1  C   UNL A   1      32.163  22.973  26.788  1.00  0.00     0.188 C 
ENDROOT
BRANCH   1   2
ATOM      2  C   UNL A   1      31.868  22.304  25.439  1.00  0.00     0.188 C 
BRANCH   2   3
ATOM      3  O   UNL A   1      31.825  23.054  24.236  1.00  0.00    -0.376 OA
BRANCH   3   4
ATOM      4  C   UNL A   1      32.175  22.500  22.980  1.00  0.00     0.202 C 
BRANCH   4   5
ATOM      5  C   UNL A   1      33.261  23.093  22.066  1.00  0.00     0.261 C 
BRANCH   5   6
ATOM      6  O   UNL A   1      33.965  24.244  22.551  1.00  0.00    -0.462 OA
BRANCH   6   7
ATOM      7  C   UNL A   1      33.387  25.437  22.260  1.00  0.00     0.328 C 
ATOM      8  O   UNL A   1      33.282  25.875  21.117  1.00  0.00    -0.250 OA
BRANCH   7   9
ATOM      9  C   UNL A   1      32.951  26.237  23.506  1.00  0.00     0.190 C 
ATOM     10  C   UNL A   1      33.781  26.247  24.794  1.00  0.00     0.044 C 
BRANCH   9  11
ATOM     11  N   UNL A   1      32.741  27.639  23.110  1.00  0.00    -0.346 N 
ATOM     12  C   UNL A   1      33.896  28.381  22.632  1.00  0.00     0.146 C 
BRANCH  11  13
ATOM     13  C   UNL A   1      31.439  28.070  23.044  1.00  0.00     0.129 A 
ATOM     14  C   UNL A   1      29.463  30.796  21.370  1.00  0.00     0.052 C 
ATOM     15  C   UNL A   1      29.715  29.611  22.254  1.00  0.00     0.032 A 
ATOM     16  C   UNL A   1      31.040  29.127  22.241  1.00  0.00     0.057 A 
ATOM     17  C   UNL A   1      28.803  28.971  23.102  1.00  0.00     0.290 A 
ATOM     18  C   UNL A   1      29.254  27.898  23.852  1.00  0.00     0.199 A 
ATOM     19  N   UNL A   1      30.531  27.463  23.838  1.00  0.00    -0.232 NA
BRANCH  17  20
ATOM     20  N   UNL A   1      27.409  29.359  23.289  1.00  0.00     0.064 N 
ATOM     21  O   UNL A   1      26.546  28.479  23.142  1.00  0.00    -0.258 OA
ATOM     22  O   UNL A   1      27.155  30.522  23.617  1.00  0.00    -0.258 OA
ENDBRANCH  17  20
ENDBRANCH  11  13
ENDBRANCH   9  11
ENDBRANCH   7   9
ENDBRANCH   6   7
ENDBRANCH   5   6
ENDBRANCH   4   5
ENDBRANCH   3   4
ENDBRANCH   2   3
ENDBRANCH   1   2
BRANCH   1  23
ATOM     23  O   UNL A   1      33.125  22.321  27.590  1.00  0.00    -0.377 OA
BRANCH  23  24
ATOM     24  C   UNL A   1      34.091  21.525  26.919  1.00  0.00     0.188 C 
BRANCH  24  25
ATOM     25  C   UNL A   1      35.362  22.217  26.384  1.00  0.00     0.188 C 
BRANCH  25  26
ATOM     26  O   UNL A   1      36.238  21.354  25.674  1.00  0.00    -0.376 OA
BRANCH  26  27
ATOM     27  C   UNL A   1      37.626  21.654  25.641  1.00  0.00     0.202 C 
BRANCH  27  28
ATOM     28  C   UNL A   1      38.610  20.508  25.344  1.00  0.00     0.261 C 
BRANCH  28  29
ATOM     29  O   UNL A   1      39.400  20.032  26.446  1.00  0.00    -0.460 OA
BRANCH  29  30
ATOM     30  C   UNL A   1      40.724  19.872  26.257  1.00  0.00     0.338 C 
ATOM     31  O   UNL A   1      41.290  18.905  25.776  1.00  0.00    -0.246 OA
BRANCH  30  32
ATOM     32  C   UNL A   1      41.380  21.166  26.545  1.00  0.00     0.060 A 
ATOM     33  C   UNL A   1      41.354  21.661  27.855  1.00  0.00     0.016 A 
ATOM     34  C   UNL A   1      42.017  21.886  25.532  1.00  0.00     0.016 A 
ATOM     35  C   UNL A   1      41.928  22.898  28.150  1.00  0.00     0.010 A 
ATOM     36  C   UNL A   1      42.569  23.138  25.822  1.00  0.00     0.010 A 
ATOM     37  C   UNL A   1      42.495  23.665  27.124  1.00  0.00    -0.014 A 
BRANCH  37  38
ATOM     38  C   UNL A   1      42.806  25.094  27.367  1.00  0.00     0.031 A 
ATOM     39  C   UNL A   1      44.166  25.603  26.971  1.00  0.00     0.074 A 
ATOM     40  C   UNL A   1      41.898  25.933  27.896  1.00  0.00     0.049 A 
ATOM     41  N   UNL A   1      44.692  26.790  27.129  1.00  0.00    -0.248 NA
ATOM     42  C   UNL A   1      45.053  24.635  26.305  1.00  0.00     0.031 C 
ATOM     43  C   UNL A   1      40.533  25.576  28.271  1.00  0.00     0.029 A 
ATOM     44  N   UNL A   1      42.000  27.265  28.217  1.00  0.00    -0.354 N 
ATOM     45  C   UNL A   1      45.969  26.709  26.589  1.00  0.00     0.074 A 
ATOM     46  C   UNL A   1      46.153  25.350  26.132  1.00  0.00     0.031 C 
ATOM     47  C   UNL A   1      39.925  26.660  28.786  1.00  0.00     0.029 A 
ATOM     48  C   UNL A   1      40.872  27.776  28.811  1.00  0.00     0.049 A 
ATOM     49  H   UNL A   1      42.805  27.802  28.040  1.00  0.00     0.167 HD
ATOM     50  C   UNL A   1      46.903  27.684  26.479  1.00  0.00     0.037 A 
ATOM     51  C   UNL A   1      40.644  28.996  29.336  1.00  0.00     0.037 A 
ATOM     52  C   UNL A   1      46.718  29.034  26.939  1.00  0.00     0.049 A 
ATOM     53  C   UNL A   1      41.734  30.039  29.284  1.00  0.00     0.074 A 
ATOM     54  C   UNL A   1      47.598  30.099  26.863  1.00  0.00     0.029 A 
ATOM     55  N   UNL A   1      45.576  29.503  27.571  1.00  0.00    -0.354 N 
ATOM     56  N   UNL A   1      42.932  29.964  28.754  1.00  0.00    -0.248 NA
ATOM     57  C   UNL A   1      41.438  31.339  29.902  1.00  0.00     0.031 C 
ATOM     58  C   UNL A   1      47.014  31.195  27.506  1.00  0.00     0.029 A 
ATOM     59  C   UNL A   1      45.742  30.834  27.919  1.00  0.00     0.049 A 
ATOM     60  H   UNL A   1      44.768  28.970  27.747  1.00  0.00     0.167 HD
ATOM     61  C   UNL A   1      43.515  31.211  28.943  1.00  0.00     0.074 A 
ATOM     62  C   UNL A   1      42.534  32.029  29.623  1.00  0.00     0.031 C 
ATOM     63  C   UNL A   1      44.752  31.640  28.587  1.00  0.00     0.037 A 
BRANCH  50  64
ATOM     64  C   UNL A   1      48.222  27.316  25.864  1.00  0.00     0.064 A 
ATOM     65  C   UNL A   1      48.447  27.411  24.481  1.00  0.00     0.173 A 
ATOM     66  C   UNL A   1      49.288  26.894  26.673  1.00  0.00     0.173 A 
ATOM     67  F   UNL A   1      47.458  27.793  23.661  1.00  0.00    -0.203 F 
ATOM     68  C   UNL A   1      49.682  27.074  23.933  1.00  0.00     0.198 A 
ATOM     69  C   UNL A   1      50.531  26.591  26.125  1.00  0.00     0.198 A 
ATOM     70  F   UNL A   1      49.126  26.787  28.001  1.00  0.00    -0.203 F 
ATOM     71  F   UNL A   1      49.859  27.125  22.605  1.00  0.00    -0.200 F 
ATOM     72  C   UNL A   1      50.724  26.673  24.754  1.00  0.00     0.200 A 
ATOM     73  F   UNL A   1      51.540  26.217  26.923  1.00  0.00    -0.200 F 
ATOM     74  F   UNL A   1      51.915  26.359  24.225  1.00  0.00    -0.200 F 
ENDBRANCH  50  64
BRANCH  51  75
ATOM     75  C   UNL A   1      39.339  29.302  29.982  1.00  0.00     0.064 A 
ATOM     76  C   UNL A   1      38.321  29.968  29.284  1.00  0.00     0.173 A 
ATOM     77  C   UNL A   1      39.096  28.974  31.325  1.00  0.00     0.173 A 
ATOM     78  F   UNL A   1      38.512  30.328  28.006  1.00  0.00    -0.203 F 
ATOM     79  C   UNL A   1      37.125  30.316  29.910  1.00  0.00     0.198 A 
ATOM     80  C   UNL A   1      37.888  29.293  31.940  1.00  0.00     0.198 A 
ATOM     81  F   UNL A   1      40.036  28.341  32.043  1.00  0.00    -0.203 F 
ATOM     82  F   UNL A   1      36.195  31.005  29.235  1.00  0.00    -0.200 F 
ATOM     83  C   UNL A   1      36.907  29.973  31.236  1.00  0.00     0.200 A 
ATOM     84  F   UNL A   1      37.676  28.947  33.217  1.00  0.00    -0.200 F 
ATOM     85  F   UNL A   1      35.757  30.308  31.837  1.00  0.00    -0.200 F 
ENDBRANCH  51  75
BRANCH  63  86
ATOM     86  C   UNL A   1      45.102  33.072  28.883  1.00  0.00     0.064 A 
ATOM     87  C   UNL A   1      44.895  34.096  27.946  1.00  0.00     0.173 A 
ATOM     88  C   UNL A   1      45.611  33.431  30.142  1.00  0.00     0.173 A 
ATOM     89  F   UNL A   1      44.423  33.807  26.725  1.00  0.00    -0.203 F 
ATOM     90  C   UNL A   1      45.214  35.418  28.247  1.00  0.00     0.198 A 
ATOM     91  C   UNL A   1      45.893  34.758  30.452  1.00  0.00     0.198 A 
ATOM     92  F   UNL A   1      45.819  32.494  31.081  1.00  0.00    -0.203 F 
ATOM     93  F   UNL A   1      45.060  36.370  27.317  1.00  0.00    -0.200 F 
ATOM     94  C   UNL A   1      45.704  35.749  29.502  1.00  0.00     0.200 A 
ATOM     95  F   UNL A   1      46.348  35.078  31.672  1.00  0.00    -0.200 F 
ATOM     96  F   UNL A   1      46.001  37.023  29.792  1.00  0.00    -0.200 F 
ENDBRANCH  63  86
ENDBRANCH  37  38
ENDBRANCH  30  32
ENDBRANCH  29  30
ENDBRANCH  28  29
ENDBRANCH  27  28
ENDBRANCH  26  27
ENDBRANCH  25  26
ENDBRANCH  24  25
ENDBRANCH  23  24
ENDBRANCH   1  23
TORSDOF 23
ENDMDL
MODEL 2
REMARK VINA RESULT:     -10.1      4.851     10.722
REMARK SMILES Cc1cc(N(C)[C@H](C)C(=O)OCCOCCOCCOCCOC(=O)c2ccc(-c3c4nc(c(-c5c(F)c(F)c(F)c(F)c5F)c5ccc([nH]5)c(-c5c(F)c(F)c(F)c(F)c5F)c5nc(c(-c6c(F)c(F)c(F)c(F)c6F)c6ccc3[nH]6)C=C5)C=C4)cc2)ncc1[N+](=O)[O-]
REMARK SMILES IDX 16 1 15 2 14 3 13 4 12 5 11 6 9 7 10 8 7 9 8 10 5 11 6 12
REMARK SMILES IDX 4 13 1 14 2 15 3 16 91 17 90 18 89 19 92 20 93 21 94 22
REMARK SMILES IDX 17 23 18 24 19 25 20 26 21 27 22 28 23 29 24 30 25 31 26 32
REMARK SMILES IDX 27 33 88 34 28 35 87 36 29 37 30 38 31 39 81 40 32 41 86 42
REMARK SMILES IDX 80 43 82 44 33 45 85 46 79 47 78 48 34 50 66 51 46 52 65 53
REMARK SMILES IDX 47 54 50 55 64 56 83 57 48 58 49 59 63 61 84 62 51 63 35 64
REMARK SMILES IDX 36 65 44 66 37 67 38 68 42 69 45 70 39 71 40 72 43 73 41 74
REMARK SMILES IDX 67 75 68 76 76 77 69 78 70 79 74 80 77 81 71 82 72 83 75 84
REMARK SMILES IDX 73 85 52 86 53 87 61 88 54 89 55 90 59 91 62 92 56 93 57 94
REMARK SMILES IDX 60 95 58 96
REMARK H PARENT 82 49 50 60
REMARK Flexibility Score: inf
ROOT
ATOM      1  C   UNL A   1      33.749  28.604  23.624  1.00  0.00     0.188 C 
ENDROOT
BRANCH   1   2
ATOM      2  C   UNL A   1      32.793  27.782  22.747  1.00  0.00     0.188 C 
BRANCH   2   3
ATOM      3  O   UNL A   1      31.874  26.865  23.317  1.00  0.00    -0.376 OA
BRANCH   3   4
ATOM      4  C   UNL A   1      32.071  25.462  23.271  1.00  0.00     0.202 C 
BRANCH   4   5
ATOM      5  C   UNL A   1      31.545  24.498  24.348  1.00  0.00     0.261 C 
BRANCH   5   6
ATOM      6  O   UNL A   1      32.366  24.302  25.506  1.00  0.00    -0.462 OA
BRANCH   6   7
ATOM      7  C   UNL A   1      32.420  23.026  25.964  1.00  0.00     0.328 C 
ATOM      8  O   UNL A   1      31.426  22.322  26.119  1.00  0.00    -0.250 OA
BRANCH   7   9
ATOM      9  C   UNL A   1      33.841  22.567  26.358  1.00  0.00     0.190 C 
ATOM     10  C   UNL A   1      34.080  21.482  27.412  1.00  0.00     0.044 C 
BRANCH   9  11
ATOM     11  N   UNL A   1      34.552  22.154  25.137  1.00  0.00    -0.346 N 
ATOM     12  C   UNL A   1      35.467  23.112  24.537  1.00  0.00     0.146 C 
BRANCH  11  13
ATOM     13  C   UNL A   1      34.436  20.835  24.774  1.00  0.00     0.129 A 
ATOM     14  C   UNL A   1      31.806  18.515  23.416  1.00  0.00     0.052 C 
ATOM     15  C   UNL A   1      33.146  18.931  23.946  1.00  0.00     0.032 A 
ATOM     16  C   UNL A   1      33.274  20.307  24.230  1.00  0.00     0.057 A 
ATOM     17  C   UNL A   1      34.247  18.111  24.220  1.00  0.00     0.290 A 
ATOM     18  C   UNL A   1      35.390  18.703  24.729  1.00  0.00     0.199 A 
ATOM     19  N   UNL A   1      35.485  20.019  25.010  1.00  0.00    -0.232 NA
BRANCH  17  20
ATOM     20  N   UNL A   1      34.285  16.663  24.041  1.00  0.00     0.064 N 
ATOM     21  O   UNL A   1      34.162  15.958  25.055  1.00  0.00    -0.258 OA
ATOM     22  O   UNL A   1      34.401  16.209  22.898  1.00  0.00    -0.258 OA
ENDBRANCH  17  20
ENDBRANCH  11  13
ENDBRANCH   9  11
ENDBRANCH   7   9
ENDBRANCH   6   7
ENDBRANCH   5   6
ENDBRANCH   4   5
ENDBRANCH   3   4
ENDBRANCH   2   3
ENDBRANCH   1   2
BRANCH   1  23
ATOM     23  O   UNL A   1      34.018  28.061  24.900  1.00  0.00    -0.377 OA
BRANCH  23  24
ATOM     24  C   UNL A   1      33.778  28.900  26.021  1.00  0.00     0.188 C 
BRANCH  24  25
ATOM     25  C   UNL A   1      32.328  29.343  26.303  1.00  0.00     0.188 C 
BRANCH  25  26
ATOM     26  O   UNL A   1      32.028  30.662  25.870  1.00  0.00    -0.376 OA
BRANCH  26  27
ATOM     27  C   UNL A   1      31.407  31.562  26.776  1.00  0.00     0.202 C 
BRANCH  27  28
ATOM     28  C   UNL A   1      31.782  33.052  26.691  1.00  0.00     0.261 C 
BRANCH  28  29
ATOM     29  O   UNL A   1      33.169  33.381  26.880  1.00  0.00    -0.460 OA
BRANCH  29  30
ATOM     30  C   UNL A   1      33.569  33.771  28.106  1.00  0.00     0.338 C 
ATOM     31  O   UNL A   1      32.979  34.512  28.874  1.00  0.00    -0.246 OA
BRANCH  30  32
ATOM     32  C   UNL A   1      34.766  32.980  28.464  1.00  0.00     0.060 A 
ATOM     33  C   UNL A   1      34.605  31.636  28.825  1.00  0.00     0.016 A 
ATOM     34  C   UNL A   1      36.037  33.557  28.445  1.00  0.00     0.016 A 
ATOM     35  C   UNL A   1      35.709  30.876  29.209  1.00  0.00     0.010 A 
ATOM     36  C   UNL A   1      37.141  32.802  28.854  1.00  0.00     0.010 A 
ATOM     37  C   UNL A   1      36.976  31.469  29.272  1.00  0.00    -0.014 A 
BRANCH  37  38
ATOM     38  C   UNL A   1      38.076  30.771  29.980  1.00  0.00     0.031 A 
ATOM     39  C   UNL A   1      38.313  31.102  31.429  1.00  0.00     0.074 A 
ATOM     40  C   UNL A   1      38.830  29.840  29.368  1.00  0.00     0.049 A 
ATOM     41  N   UNL A   1      39.240  30.669  32.244  1.00  0.00    -0.248 NA
ATOM     42  C   UNL A   1      37.372  32.056  32.039  1.00  0.00     0.031 C 
ATOM     43  C   UNL A   1      38.666  29.393  27.988  1.00  0.00     0.029 A 
ATOM     44  N   UNL A   1      39.895  29.110  29.837  1.00  0.00    -0.354 N 
ATOM     45  C   UNL A   1      38.997  31.301  33.457  1.00  0.00     0.074 A 
ATOM     46  C   UNL A   1      37.860  32.172  33.265  1.00  0.00     0.031 C 
ATOM     47  C   UNL A   1      39.608  28.472  27.714  1.00  0.00     0.029 A 
ATOM     48  C   UNL A   1      40.463  28.296  28.888  1.00  0.00     0.049 A 
ATOM     49  H   UNL A   1      40.221  29.166  30.763  1.00  0.00     0.167 HD
ATOM     50  C   UNL A   1      39.660  31.161  34.631  1.00  0.00     0.037 A 
ATOM     51  C   UNL A   1      41.563  27.519  28.957  1.00  0.00     0.037 A 
ATOM     52  C   UNL A   1      40.794  30.295  34.818  1.00  0.00     0.049 A 
ATOM     53  C   UNL A   1      42.339  27.451  30.250  1.00  0.00     0.074 A 
ATOM     54  C   UNL A   1      41.528  30.073  35.969  1.00  0.00     0.029 A 
ATOM     55  N   UNL A   1      41.365  29.516  33.823  1.00  0.00    -0.354 N 
ATOM     56  N   UNL A   1      42.094  28.033  31.400  1.00  0.00    -0.248 NA
ATOM     57  C   UNL A   1      43.548  26.613  30.254  1.00  0.00     0.031 C 
ATOM     58  C   UNL A   1      42.581  29.209  35.656  1.00  0.00     0.029 A 
ATOM     59  C   UNL A   1      42.462  28.837  34.327  1.00  0.00     0.049 A 
ATOM     60  H   UNL A   1      41.039  29.455  32.896  1.00  0.00     0.167 HD
ATOM     61  C   UNL A   1      43.091  27.606  32.268  1.00  0.00     0.074 A 
ATOM     62  C   UNL A   1      43.937  26.704  31.517  1.00  0.00     0.031 C 
ATOM     63  C   UNL A   1      43.290  27.932  33.570  1.00  0.00     0.037 A 
BRANCH  50  64
ATOM     64  C   UNL A   1      39.194  31.986  35.795  1.00  0.00     0.064 A 
ATOM     65  C   UNL A   1      39.641  33.302  35.995  1.00  0.00     0.173 A 
ATOM     66  C   UNL A   1      38.260  31.466  36.703  1.00  0.00     0.173 A 
ATOM     67  F   UNL A   1      40.546  33.842  35.166  1.00  0.00    -0.203 F 
ATOM     68  C   UNL A   1      39.188  34.054  37.077  1.00  0.00     0.198 A 
ATOM     69  C   UNL A   1      37.785  32.233  37.763  1.00  0.00     0.198 A 
ATOM     70  F   UNL A   1      37.800  30.214  36.556  1.00  0.00    -0.203 F 
ATOM     71  F   UNL A   1      39.667  35.290  37.277  1.00  0.00    -0.200 F 
ATOM     72  C   UNL A   1      38.255  33.523  37.953  1.00  0.00     0.200 A 
ATOM     73  F   UNL A   1      36.873  31.721  38.601  1.00  0.00    -0.200 F 
ATOM     74  F   UNL A   1      37.813  34.252  38.988  1.00  0.00    -0.200 F 
ENDBRANCH  50  64
BRANCH  51  75
ATOM     75  C   UNL A   1      42.019  26.757  27.763  1.00  0.00     0.064 A 
ATOM     76  C   UNL A   1      41.504  25.485  27.473  1.00  0.00     0.173 A 
ATOM     77  C   UNL A   1      43.010  27.265  26.910  1.00  0.00     0.173 A 
ATOM     78  F   UNL A   1      40.574  24.942  28.273  1.00  0.00    -0.203 F 
ATOM     79  C   UNL A   1      41.980  24.743  26.394  1.00  0.00     0.198 A 
ATOM     80  C   UNL A   1      43.462  26.536  25.812  1.00  0.00     0.198 A 
ATOM     81  F   UNL A   1      43.542  28.474  27.142  1.00  0.00    -0.203 F 
ATOM     82  F   UNL A   1      41.513  23.506  26.177  1.00  0.00    -0.200 F 
ATOM     83  C   UNL A   1      42.955  25.270  25.562  1.00  0.00     0.200 A 
ATOM     84  F   UNL A   1      44.394  27.056  25.002  1.00  0.00    -0.200 F 
ATOM     85  F   UNL A   1      43.413  24.556  24.524  1.00  0.00    -0.200 F 
ENDBRANCH  51  75
BRANCH  63  86
ATOM     86  C   UNL A   1      44.440  27.276  34.283  1.00  0.00     0.064 A 
ATOM     87  C   UNL A   1      44.279  26.094  35.021  1.00  0.00     0.173 A 
ATOM     88  C   UNL A   1      45.733  27.816  34.188  1.00  0.00     0.173 A 
ATOM     89  F   UNL A   1      43.064  25.542  35.153  1.00  0.00    -0.203 F 
ATOM     90  C   UNL A   1      45.360  25.496  35.662  1.00  0.00     0.198 A 
ATOM     91  C   UNL A   1      46.818  27.195  34.799  1.00  0.00     0.198 A 
ATOM     92  F   UNL A   1      45.947  28.940  33.486  1.00  0.00    -0.203 F 
ATOM     93  F   UNL A   1      45.172  24.398  36.406  1.00  0.00    -0.200 F 
ATOM     94  C   UNL A   1      46.631  26.041  35.543  1.00  0.00     0.200 A 
ATOM     95  F   UNL A   1      48.047  27.714  34.667  1.00  0.00    -0.200 F 
ATOM     96  F   UNL A   1      47.671  25.458  36.152  1.00  0.00    -0.200 F 
ENDBRANCH  63  86
ENDBRANCH  37  38
ENDBRANCH  30  32
ENDBRANCH  29  30
ENDBRANCH  28  29
ENDBRANCH  27  28
ENDBRANCH  26  27
ENDBRANCH  25  26
ENDBRANCH  24  25
ENDBRANCH  23  24
ENDBRANCH   1  23
TORSDOF 23
ENDMDL
MODEL 3
REMARK VINA RESULT:     -10.0      4.660     10.664
REMARK SMILES Cc1cc(N(C)[C@H](C)C(=O)OCCOCCOCCOCCOC(=O)c2ccc(-c3c4nc(c(-c5c(F)c(F)c(F)c(F)c5F)c5ccc([nH]5)c(-c5c(F)c(F)c(F)c(F)c5F)c5nc(c(-c6c(F)c(F)c(F)c(F)c6F)c6ccc3[nH]6)C=C5)C=C4)cc2)ncc1[N+](=O)[O-]
REMARK SMILES IDX 16 1 15 2 14 3 13 4 12 5 11 6 9 7 10 8 7 9 8 10 5 11 6 12
REMARK SMILES IDX 4 13 1 14 2 15 3 16 91 17 90 18 89 19 92 20 93 21 94 22
REMARK SMILES IDX 17 23 18 24 19 25 20 26 21 27 22 28 23 29 24 30 25 31 26 32
REMARK SMILES IDX 27 33 88 34 28 35 87 36 29 37 30 38 31 39 81 40 32 41 86 42
REMARK SMILES IDX 80 43 82 44 33 45 85 46 79 47 78 48 34 50 66 51 46 52 65 53
REMARK SMILES IDX 47 54 50 55 64 56 83 57 48 58 49 59 63 61 84 62 51 63 35 64
REMARK SMILES IDX 36 65 44 66 37 67 38 68 42 69 45 70 39 71 40 72 43 73 41 74
REMARK SMILES IDX 67 75 68 76 76 77 69 78 70 79 74 80 77 81 71 82 72 83 75 84
REMARK SMILES IDX 73 85 52 86 53 87 61 88 54 89 55 90 59 91 62 92 56 93 57 94
REMARK SMILES IDX 60 95 58 96
REMARK H PARENT 82 49 50 60
REMARK Flexibility Score: inf
ROOT
ATOM      1  C   UNL A   1      32.218  28.084  23.707  1.00  0.00     0.188 C 
ENDROOT
BRANCH   1   2
ATOM      2  C   UNL A   1      31.947  27.007  22.647  1.00  0.00     0.188 C 
BRANCH   2   3
ATOM      3  O   UNL A   1      32.055  25.626  22.953  1.00  0.00    -0.376 OA
BRANCH   3   4
ATOM      4  C   UNL A   1      30.953  24.860  23.410  1.00  0.00     0.202 C 
BRANCH   4   5
ATOM      5  C   UNL A   1      30.969  23.324  23.500  1.00  0.00     0.261 C 
BRANCH   5   6
ATOM      6  O   UNL A   1      31.329  22.748  24.762  1.00  0.00    -0.462 OA
BRANCH   6   7
ATOM      7  C   UNL A   1      32.567  22.193  24.809  1.00  0.00     0.328 C 
ATOM      8  O   UNL A   1      32.787  21.010  24.561  1.00  0.00    -0.250 OA
BRANCH   7   9
ATOM      9  C   UNL A   1      33.665  23.166  25.292  1.00  0.00     0.190 C 
ATOM     10  C   UNL A   1      34.201  23.137  26.726  1.00  0.00     0.044 C 
BRANCH   9  11
ATOM     11  N   UNL A   1      34.821  23.047  24.389  1.00  0.00    -0.346 N 
ATOM     12  C   UNL A   1      34.637  23.451  23.005  1.00  0.00     0.146 C 
BRANCH  11  13
ATOM     13  C   UNL A   1      36.027  22.744  24.973  1.00  0.00     0.129 A 
ATOM     14  C   UNL A   1      38.831  24.536  26.723  1.00  0.00     0.052 C 
ATOM     15  C   UNL A   1      38.087  23.381  26.122  1.00  0.00     0.032 A 
ATOM     16  C   UNL A   1      36.812  23.695  25.606  1.00  0.00     0.057 A 
ATOM     17  C   UNL A   1      38.531  22.060  25.986  1.00  0.00     0.290 A 
ATOM     18  C   UNL A   1      37.685  21.148  25.377  1.00  0.00     0.199 A 
ATOM     19  N   UNL A   1      36.476  21.474  24.873  1.00  0.00    -0.232 NA
BRANCH  17  20
ATOM     20  N   UNL A   1      39.835  21.559  26.409  1.00  0.00     0.064 N 
ATOM     21  O   UNL A   1      40.536  20.997  25.555  1.00  0.00    -0.258 OA
ATOM     22  O   UNL A   1      40.191  21.747  27.577  1.00  0.00    -0.258 OA
ENDBRANCH  17  20
ENDBRANCH  11  13
ENDBRANCH   9  11
ENDBRANCH   7   9
ENDBRANCH   6   7
ENDBRANCH   5   6
ENDBRANCH   4   5
ENDBRANCH   3   4
ENDBRANCH   2   3
ENDBRANCH   1   2
BRANCH   1  23
ATOM     23  O   UNL A   1      31.778  27.772  25.012  1.00  0.00    -0.377 OA
BRANCH  23  24
ATOM     24  C   UNL A   1      32.655  28.096  26.082  1.00  0.00     0.188 C 
BRANCH  24  25
ATOM     25  C   UNL A   1      32.285  29.284  26.994  1.00  0.00     0.188 C 
BRANCH  25  26
ATOM     26  O   UNL A   1      32.335  30.548  26.349  1.00  0.00    -0.376 OA
BRANCH  26  27
ATOM     27  C   UNL A   1      31.390  31.545  26.710  1.00  0.00     0.202 C 
BRANCH  27  28
ATOM     28  C   UNL A   1      31.880  32.998  26.841  1.00  0.00     0.261 C 
BRANCH  28  29
ATOM     29  O   UNL A   1      33.299  33.192  26.973  1.00  0.00    -0.460 OA
BRANCH  29  30
ATOM     30  C   UNL A   1      33.765  33.710  28.126  1.00  0.00     0.338 C 
ATOM     31  O   UNL A   1      33.220  34.537  28.837  1.00  0.00    -0.246 OA
BRANCH  30  32
ATOM     32  C   UNL A   1      34.976  32.951  28.506  1.00  0.00     0.060 A 
ATOM     33  C   UNL A   1      34.851  31.591  28.819  1.00  0.00     0.016 A 
ATOM     34  C   UNL A   1      36.225  33.574  28.554  1.00  0.00     0.016 A 
ATOM     35  C   UNL A   1      35.967  30.859  29.222  1.00  0.00     0.010 A 
ATOM     36  C   UNL A   1      37.339  32.846  28.983  1.00  0.00     0.010 A 
ATOM     37  C   UNL A   1      37.208  31.495  29.353  1.00  0.00    -0.014 A 
BRANCH  37  38
ATOM     38  C   UNL A   1      38.305  30.813  30.082  1.00  0.00     0.031 A 
ATOM     39  C   UNL A   1      38.498  31.135  31.539  1.00  0.00     0.074 A 
ATOM     40  C   UNL A   1      39.095  29.906  29.479  1.00  0.00     0.049 A 
ATOM     41  N   UNL A   1      39.414  30.714  32.373  1.00  0.00    -0.248 NA
ATOM     42  C   UNL A   1      37.521  32.061  32.135  1.00  0.00     0.031 C 
ATOM     43  C   UNL A   1      38.976  29.470  28.091  1.00  0.00     0.029 A 
ATOM     44  N   UNL A   1      40.164  29.195  29.967  1.00  0.00    -0.354 N 
ATOM     45  C   UNL A   1      39.127  31.328  33.586  1.00  0.00     0.074 A 
ATOM     46  C   UNL A   1      37.976  32.175  33.373  1.00  0.00     0.031 C 
ATOM     47  C   UNL A   1      39.945  28.573  27.832  1.00  0.00     0.029 A 
ATOM     48  C   UNL A   1      40.774  28.403  29.026  1.00  0.00     0.049 A 
ATOM     49  H   UNL A   1      40.465  29.248  30.903  1.00  0.00     0.167 HD
ATOM     50  C   UNL A   1      39.763  31.190  34.774  1.00  0.00     0.037 A 
ATOM     51  C   UNL A   1      41.889  27.650  29.115  1.00  0.00     0.037 A 
ATOM     52  C   UNL A   1      40.911  30.348  34.981  1.00  0.00     0.049 A 
ATOM     53  C   UNL A   1      42.634  27.586  30.426  1.00  0.00     0.074 A 
ATOM     54  C   UNL A   1      41.621  30.130  36.149  1.00  0.00     0.029 A 
ATOM     55  N   UNL A   1      41.524  29.592  33.993  1.00  0.00    -0.354 N 
ATOM     56  N   UNL A   1      42.346  28.150  31.575  1.00  0.00    -0.248 NA
ATOM     57  C   UNL A   1      43.860  26.775  30.452  1.00  0.00     0.031 C 
ATOM     58  C   UNL A   1      42.701  29.293  35.853  1.00  0.00     0.029 A 
ATOM     59  C   UNL A   1      42.624  28.932  34.518  1.00  0.00     0.049 A 
ATOM     60  H   UNL A   1      41.224  29.533  33.058  1.00  0.00     0.167 HD
ATOM     61  C   UNL A   1      43.331  27.736  32.463  1.00  0.00     0.074 A 
ATOM     62  C   UNL A   1      44.216  26.861  31.725  1.00  0.00     0.031 C 
ATOM     63  C   UNL A   1      43.490  28.053  33.773  1.00  0.00     0.037 A 
BRANCH  50  64
ATOM     64  C   UNL A   1      39.250  31.993  35.934  1.00  0.00     0.064 A 
ATOM     65  C   UNL A   1      39.652  33.320  36.151  1.00  0.00     0.173 A 
ATOM     66  C   UNL A   1      38.317  31.437  36.822  1.00  0.00     0.173 A 
ATOM     67  F   UNL A   1      40.555  33.894  35.342  1.00  0.00    -0.203 F 
ATOM     68  C   UNL A   1      39.156  34.050  37.228  1.00  0.00     0.198 A 
ATOM     69  C   UNL A   1      37.797  32.182  37.877  1.00  0.00     0.198 A 
ATOM     70  F   UNL A   1      37.898  30.173  36.659  1.00  0.00    -0.203 F 
ATOM     71  F   UNL A   1      39.592  35.300  37.445  1.00  0.00    -0.200 F 
ATOM     72  C   UNL A   1      38.224  33.485  38.084  1.00  0.00     0.200 A 
ATOM     73  F   UNL A   1      36.887  31.637  38.694  1.00  0.00    -0.200 F 
ATOM     74  F   UNL A   1      37.740  34.193  39.114  1.00  0.00    -0.200 F 
ENDBRANCH  50  64
BRANCH  51  75
ATOM     75  C   UNL A   1      42.391  26.911  27.925  1.00  0.00     0.064 A 
ATOM     76  C   UNL A   1      43.088  27.568  26.902  1.00  0.00     0.173 A 
ATOM     77  C   UNL A   1      42.145  25.538  27.764  1.00  0.00     0.173 A 
ATOM     78  F   UNL A   1      43.326  28.886  26.994  1.00  0.00    -0.203 F 
ATOM     79  C   UNL A   1      43.498  26.889  25.756  1.00  0.00     0.198 A 
ATOM     80  C   UNL A   1      42.584  24.853  26.634  1.00  0.00     0.198 A 
ATOM     81  F   UNL A   1      41.477  24.859  28.709  1.00  0.00    -0.203 F 
ATOM     82  F   UNL A   1      44.111  27.556  24.768  1.00  0.00    -0.200 F 
ATOM     83  C   UNL A   1      43.251  25.531  25.625  1.00  0.00     0.200 A 
ATOM     84  F   UNL A   1      42.355  23.538  26.518  1.00  0.00    -0.200 F 
ATOM     85  F   UNL A   1      43.645  24.879  24.523  1.00  0.00    -0.200 F 
ENDBRANCH  51  75
BRANCH  63  86
ATOM     86  C   UNL A   1      44.636  27.416  34.508  1.00  0.00     0.064 A 
ATOM     87  C   UNL A   1      44.515  26.162  35.128  1.00  0.00     0.173 A 
ATOM     88  C   UNL A   1      45.889  28.050  34.554  1.00  0.00     0.173 A 
ATOM     89  F   UNL A   1      43.339  25.519  35.124  1.00  0.00    -0.203 F 
ATOM     90  C   UNL A   1      45.594  25.584  35.791  1.00  0.00     0.198 A 
ATOM     91  C   UNL A   1      46.975  27.451  35.186  1.00  0.00     0.198 A 
ATOM     92  F   UNL A   1      46.064  29.245  33.970  1.00  0.00    -0.203 F 
ATOM     93  F   UNL A   1      45.440  24.412  36.423  1.00  0.00    -0.200 F 
ATOM     94  C   UNL A   1      46.825  26.224  35.813  1.00  0.00     0.200 A 
ATOM     95  F   UNL A   1      48.168  28.064  35.189  1.00  0.00    -0.200 F 
ATOM     96  F   UNL A   1      47.864  25.661  36.443  1.00  0.00    -0.200 F 
ENDBRANCH  63  86
ENDBRANCH  37  38
ENDBRANCH  30  32
ENDBRANCH  29  30
ENDBRANCH  28  29
ENDBRANCH  27  28
ENDBRANCH  26  27
ENDBRANCH  25  26
ENDBRANCH  24  25
ENDBRANCH  23  24
ENDBRANCH   1  23
TORSDOF 23
ENDMDL
