MODEL 1
REMARK VINA RESULT:     -10.5      0.000      0.000
REMARK SMILES Cc1nc(CNC(=O)[C@H]2CCO[C@H]2C)sc1C(=O)OCCOCCOCCOCCOC(=O)c1ccc(-c2c3nc(c(-c4c(F)c(F)c(F)c(F)c4F)c4ccc([nH]4)c(-c4c(F)c(F)c(F)c(F)c4F)c4nc(c(-c5c(F)c(F)c(F)c(F)c5F)c5ccc2[nH]5)C=C4)C=C3)cc1
REMARK SMILES IDX 24 1 23 2 22 3 21 4 20 5 19 6 17 7 18 8 16 9 1 10 2 11 3 12
REMARK SMILES IDX 4 13 15 14 5 15 6 16 7 17 8 19 9 20 10 21 13 22 11 23 12 24
REMARK SMILES IDX 14 25 25 26 26 27 27 28 28 29 29 30 30 31 31 32 32 33 33 34
REMARK SMILES IDX 34 35 35 36 96 37 36 38 95 39 37 40 38 41 39 42 89 43 40 44
REMARK SMILES IDX 94 45 88 46 90 47 41 48 93 49 87 50 86 51 42 53 74 54 54 55
REMARK SMILES IDX 73 56 55 57 58 58 72 59 91 60 56 61 57 62 71 64 92 65 59 66
REMARK SMILES IDX 43 67 44 68 52 69 45 70 46 71 50 72 53 73 47 74 48 75 51 76
REMARK SMILES IDX 49 77 75 78 76 79 84 80 77 81 78 82 82 83 85 84 79 85 80 86
REMARK SMILES IDX 83 87 81 88 60 89 61 90 69 91 62 92 63 93 67 94 70 95 64 96
REMARK SMILES IDX 65 97 68 98 66 99
REMARK H PARENT 6 18 90 52 58 63
REMARK Flexibility Score: inf
ROOT
ATOM      1  C   UNL A   1      35.380  33.499  28.132  1.00  0.00     0.188 C 
ENDROOT
BRANCH   1   2
ATOM      2  C   UNL A   1      34.564  32.216  28.365  1.00  0.00     0.188 C 
BRANCH   2   3
ATOM      3  O   UNL A   1      35.253  31.040  27.940  1.00  0.00    -0.376 OA
BRANCH   3   4
ATOM      4  C   UNL A   1      34.450  29.980  27.428  1.00  0.00     0.202 C 
BRANCH   4   5
ATOM      5  C   UNL A   1      33.144  30.374  26.719  1.00  0.00     0.261 C 
BRANCH   5   6
ATOM      6  O   UNL A   1      32.889  29.688  25.482  1.00  0.00    -0.459 OA
BRANCH   6   7
ATOM      7  C   UNL A   1      31.639  29.758  24.949  1.00  0.00     0.350 C 
ATOM      8  O   UNL A   1      30.856  30.657  25.171  1.00  0.00    -0.245 OA
BRANCH   7   9
ATOM      9  C   UNL A   1      31.487  28.687  23.978  1.00  0.00     0.135 A 
ATOM     10  C   UNL A   1      30.108  29.700  22.024  1.00  0.00     0.068 C 
ATOM     11  C   UNL A   1      30.809  28.614  22.768  1.00  0.00     0.063 A 
ATOM     12  N   UNL A   1      30.773  27.345  22.200  1.00  0.00    -0.244 NA
ATOM     13  C   UNL A   1      31.411  26.477  22.953  1.00  0.00     0.113 A 
ATOM     14  S   UNL A   1      32.158  27.146  24.348  1.00  0.00    -0.110 S 
BRANCH  13  15
ATOM     15  C   UNL A   1      31.547  25.005  22.679  1.00  0.00     0.183 C 
BRANCH  15  16
ATOM     16  N   UNL A   1      32.921  24.648  22.357  1.00  0.00    -0.349 N 
ATOM     17  C   UNL A   1      33.720  23.693  22.909  1.00  0.00     0.226 C 
ATOM     18  H   UNL A   1      33.333  25.174  21.634  1.00  0.00     0.163 HD
ATOM     19  O   UNL A   1      34.827  23.493  22.410  1.00  0.00    -0.275 OA
BRANCH  17  20
ATOM     20  C   UNL A   1      33.217  22.914  24.106  1.00  0.00     0.109 C 
ATOM     21  C   UNL A   1      33.957  21.621  24.381  1.00  0.00     0.044 C 
ATOM     22  C   UNL A   1      33.376  23.649  25.434  1.00  0.00     0.127 C 
ATOM     23  C   UNL A   1      33.579  21.348  25.820  1.00  0.00     0.161 C 
ATOM     24  O   UNL A   1      33.352  22.619  26.448  1.00  0.00    -0.378 OA
ATOM     25  C   UNL A   1      34.678  24.426  25.608  1.00  0.00     0.039 C 
ENDBRANCH  17  20
ENDBRANCH  15  16
ENDBRANCH  13  15
ENDBRANCH   7   9
ENDBRANCH   6   7
ENDBRANCH   5   6
ENDBRANCH   4   5
ENDBRANCH   3   4
ENDBRANCH   2   3
ENDBRANCH   1   2
BRANCH   1  26
ATOM     26  O   UNL A   1      34.582  34.667  28.264  1.00  0.00    -0.377 OA
BRANCH  26  27
ATOM     27  C   UNL A   1      33.377  34.534  29.017  1.00  0.00     0.188 C 
BRANCH  27  28
ATOM     28  C   UNL A   1      33.162  35.374  30.293  1.00  0.00     0.188 C 
BRANCH  28  29
ATOM     29  O   UNL A   1      34.216  35.238  31.249  1.00  0.00    -0.376 OA
BRANCH  29  30
ATOM     30  C   UNL A   1      33.829  34.850  32.565  1.00  0.00     0.202 C 
BRANCH  30  31
ATOM     31  C   UNL A   1      34.036  33.355  32.848  1.00  0.00     0.261 C 
BRANCH  31  32
ATOM     32  O   UNL A   1      35.218  32.792  32.255  1.00  0.00    -0.460 OA
BRANCH  32  33
ATOM     33  C   UNL A   1      36.192  32.387  33.097  1.00  0.00     0.338 C 
ATOM     34  O   UNL A   1      36.213  32.489  34.309  1.00  0.00    -0.246 OA
BRANCH  33  35
ATOM     35  C   UNL A   1      37.175  31.614  32.315  1.00  0.00     0.060 A 
ATOM     36  C   UNL A   1      38.137  30.862  32.999  1.00  0.00     0.016 A 
ATOM     37  C   UNL A   1      37.159  31.647  30.918  1.00  0.00     0.016 A 
ATOM     38  C   UNL A   1      39.119  30.175  32.285  1.00  0.00     0.010 A 
ATOM     39  C   UNL A   1      38.150  30.972  30.204  1.00  0.00     0.010 A 
ATOM     40  C   UNL A   1      39.155  30.265  30.887  1.00  0.00    -0.014 A 
BRANCH  40  41
ATOM     41  C   UNL A   1      40.346  29.791  30.146  1.00  0.00     0.031 A 
ATOM     42  C   UNL A   1      41.473  30.759  29.915  1.00  0.00     0.074 A 
ATOM     43  C   UNL A   1      40.428  28.532  29.686  1.00  0.00     0.049 A 
ATOM     44  N   UNL A   1      42.591  30.595  29.256  1.00  0.00    -0.248 NA
ATOM     45  C   UNL A   1      41.311  32.099  30.504  1.00  0.00     0.031 C 
ATOM     46  C   UNL A   1      39.414  27.497  29.869  1.00  0.00     0.029 A 
ATOM     47  N   UNL A   1      41.413  27.918  28.953  1.00  0.00    -0.354 N 
ATOM     48  C   UNL A   1      43.265  31.804  29.355  1.00  0.00     0.074 A 
ATOM     49  C   UNL A   1      42.419  32.705  30.108  1.00  0.00     0.031 C 
ATOM     50  C   UNL A   1      39.823  26.375  29.249  1.00  0.00     0.029 A 
ATOM     51  C   UNL A   1      41.113  26.624  28.606  1.00  0.00     0.049 A 
ATOM     52  H   UNL A   1      42.254  28.362  28.701  1.00  0.00     0.167 HD
ATOM     53  C   UNL A   1      44.485  32.132  28.870  1.00  0.00     0.037 A 
ATOM     54  C   UNL A   1      41.796  25.753  27.838  1.00  0.00     0.037 A 
ATOM     55  C   UNL A   1      45.321  31.242  28.110  1.00  0.00     0.049 A 
ATOM     56  C   UNL A   1      43.121  26.165  27.249  1.00  0.00     0.074 A 
ATOM     57  C   UNL A   1      46.578  31.476  27.583  1.00  0.00     0.029 A 
ATOM     58  N   UNL A   1      44.974  29.945  27.762  1.00  0.00    -0.354 N 
ATOM     59  N   UNL A   1      43.769  27.298  27.375  1.00  0.00    -0.248 NA
ATOM     60  C   UNL A   1      43.810  25.174  26.410  1.00  0.00     0.031 C 
ATOM     61  C   UNL A   1      46.975  30.335  26.878  1.00  0.00     0.029 A 
ATOM     62  C   UNL A   1      45.984  29.374  27.006  1.00  0.00     0.049 A 
ATOM     63  H   UNL A   1      44.134  29.498  28.014  1.00  0.00     0.167 HD
ATOM     64  C   UNL A   1      44.951  27.147  26.660  1.00  0.00     0.074 A 
ATOM     65  C   UNL A   1      44.936  25.808  26.109  1.00  0.00     0.031 C 
ATOM     66  C   UNL A   1      45.957  28.035  26.476  1.00  0.00     0.037 A 
BRANCH  53  67
ATOM     67  C   UNL A   1      44.977  33.524  29.132  1.00  0.00     0.064 A 
ATOM     68  C   UNL A   1      45.759  33.825  30.257  1.00  0.00     0.173 A 
ATOM     69  C   UNL A   1      44.680  34.563  28.238  1.00  0.00     0.173 A 
ATOM     70  F   UNL A   1      46.054  32.868  31.150  1.00  0.00    -0.203 F 
ATOM     71  C   UNL A   1      46.207  35.123  30.489  1.00  0.00     0.198 A 
ATOM     72  C   UNL A   1      45.152  35.854  28.460  1.00  0.00     0.198 A 
ATOM     73  F   UNL A   1      43.935  34.326  27.148  1.00  0.00    -0.203 F 
ATOM     74  F   UNL A   1      46.916  35.397  31.593  1.00  0.00    -0.200 F 
ATOM     75  C   UNL A   1      45.910  36.134  29.588  1.00  0.00     0.200 A 
ATOM     76  F   UNL A   1      44.869  36.829  27.585  1.00  0.00    -0.200 F 
ATOM     77  F   UNL A   1      46.345  37.381  29.811  1.00  0.00    -0.200 F 
ENDBRANCH  53  67
BRANCH  54  78
ATOM     78  C   UNL A   1      41.239  24.403  27.571  1.00  0.00     0.064 A 
ATOM     79  C   UNL A   1      41.813  23.257  28.139  1.00  0.00     0.173 A 
ATOM     80  C   UNL A   1      40.137  24.226  26.720  1.00  0.00     0.173 A 
ATOM     81  F   UNL A   1      42.885  23.373  28.937  1.00  0.00    -0.203 F 
ATOM     82  C   UNL A   1      41.318  21.986  27.853  1.00  0.00     0.198 A 
ATOM     83  C   UNL A   1      39.627  22.958  26.455  1.00  0.00     0.198 A 
ATOM     84  F   UNL A   1      39.555  25.290  26.147  1.00  0.00    -0.203 F 
ATOM     85  F   UNL A   1      41.916  20.904  28.372  1.00  0.00    -0.200 F 
ATOM     86  C   UNL A   1      40.223  21.838  27.014  1.00  0.00     0.200 A 
ATOM     87  F   UNL A   1      38.564  22.819  25.651  1.00  0.00    -0.200 F 
ATOM     88  F   UNL A   1      39.748  20.615  26.739  1.00  0.00    -0.200 F 
ENDBRANCH  54  78
BRANCH  66  89
ATOM     89  C   UNL A   1      47.144  27.581  25.677  1.00  0.00     0.064 A 
ATOM     90  C   UNL A   1      47.189  27.719  24.282  1.00  0.00     0.173 A 
ATOM     91  C   UNL A   1      48.271  27.050  26.322  1.00  0.00     0.173 A 
ATOM     92  F   UNL A   1      46.130  28.209  23.618  1.00  0.00    -0.203 F 
ATOM     93  C   UNL A   1      48.311  27.320  23.560  1.00  0.00     0.198 A 
ATOM     94  C   UNL A   1      49.402  26.678  25.601  1.00  0.00     0.198 A 
ATOM     95  F   UNL A   1      48.281  26.905  27.656  1.00  0.00    -0.203 F 
ATOM     96  F   UNL A   1      48.316  27.423  22.224  1.00  0.00    -0.200 F 
ATOM     97  C   UNL A   1      49.418  26.809  24.220  1.00  0.00     0.200 A 
ATOM     98  F   UNL A   1      50.476  26.196  26.241  1.00  0.00    -0.200 F 
ATOM     99  F   UNL A   1      50.500  26.434  23.524  1.00  0.00    -0.200 F 
ENDBRANCH  66  89
ENDBRANCH  40  41
ENDBRANCH  33  35
ENDBRANCH  32  33
ENDBRANCH  31  32
ENDBRANCH  30  31
ENDBRANCH  29  30
ENDBRANCH  28  29
ENDBRANCH  27  28
ENDBRANCH  26  27
ENDBRANCH   1  26
TORSDOF 23
ENDMDL
MODEL 2
REMARK VINA RESULT:      -9.9      0.854      7.158
REMARK SMILES Cc1nc(CNC(=O)[C@H]2CCO[C@H]2C)sc1C(=O)OCCOCCOCCOCCOC(=O)c1ccc(-c2c3nc(c(-c4c(F)c(F)c(F)c(F)c4F)c4ccc([nH]4)c(-c4c(F)c(F)c(F)c(F)c4F)c4nc(c(-c5c(F)c(F)c(F)c(F)c5F)c5ccc2[nH]5)C=C4)C=C3)cc1
REMARK SMILES IDX 24 1 23 2 22 3 21 4 20 5 19 6 17 7 18 8 16 9 1 10 2 11 3 12
REMARK SMILES IDX 4 13 15 14 5 15 6 16 7 17 8 19 9 20 10 21 13 22 11 23 12 24
REMARK SMILES IDX 14 25 25 26 26 27 27 28 28 29 29 30 30 31 31 32 32 33 33 34
REMARK SMILES IDX 34 35 35 36 96 37 36 38 95 39 37 40 38 41 39 42 89 43 40 44
REMARK SMILES IDX 94 45 88 46 90 47 41 48 93 49 87 50 86 51 42 53 74 54 54 55
REMARK SMILES IDX 73 56 55 57 58 58 72 59 91 60 56 61 57 62 71 64 92 65 59 66
REMARK SMILES IDX 43 67 44 68 52 69 45 70 46 71 50 72 53 73 47 74 48 75 51 76
REMARK SMILES IDX 49 77 75 78 76 79 84 80 77 81 78 82 82 83 85 84 79 85 80 86
REMARK SMILES IDX 83 87 81 88 60 89 61 90 69 91 62 92 63 93 67 94 70 95 64 96
REMARK SMILES IDX 65 97 68 98 66 99
REMARK H PARENT 6 18 90 52 58 63
REMARK Flexibility Score: inf
ROOT
ATOM      1  C   UNL A   1      34.876  34.124  28.060  1.00  0.00     0.188 C 
ENDROOT
BRANCH   1   2
ATOM      2  C   UNL A   1      34.115  32.787  28.066  1.00  0.00     0.188 C 
BRANCH   2   3
ATOM      3  O   UNL A   1      34.965  31.667  27.820  1.00  0.00    -0.376 OA
BRANCH   3   4
ATOM      4  C   UNL A   1      34.322  30.434  27.513  1.00  0.00     0.202 C 
BRANCH   4   5
ATOM      5  C   UNL A   1      32.951  30.514  26.822  1.00  0.00     0.261 C 
BRANCH   5   6
ATOM      6  O   UNL A   1      32.556  29.333  26.105  1.00  0.00    -0.459 OA
BRANCH   6   7
ATOM      7  C   UNL A   1      31.594  29.446  25.151  1.00  0.00     0.350 C 
ATOM      8  O   UNL A   1      30.869  30.411  25.028  1.00  0.00    -0.245 OA
BRANCH   7   9
ATOM      9  C   UNL A   1      31.703  28.314  24.244  1.00  0.00     0.135 A 
ATOM     10  C   UNL A   1      29.532  28.345  22.819  1.00  0.00     0.068 C 
ATOM     11  C   UNL A   1      30.835  27.796  23.292  1.00  0.00     0.063 A 
ATOM     12  N   UNL A   1      31.244  26.591  22.731  1.00  0.00    -0.244 NA
ATOM     13  C   UNL A   1      32.395  26.206  23.237  1.00  0.00     0.113 A 
ATOM     14  S   UNL A   1      33.092  27.305  24.359  1.00  0.00    -0.110 S 
BRANCH  13  15
ATOM     15  C   UNL A   1      33.125  24.937  22.898  1.00  0.00     0.183 C 
BRANCH  15  16
ATOM     16  N   UNL A   1      34.106  24.598  23.918  1.00  0.00    -0.349 N 
ATOM     17  C   UNL A   1      34.276  23.434  24.605  1.00  0.00     0.226 C 
ATOM     18  H   UNL A   1      34.741  25.316  24.145  1.00  0.00     0.163 HD
ATOM     19  O   UNL A   1      35.243  23.331  25.359  1.00  0.00    -0.275 OA
BRANCH  17  20
ATOM     20  C   UNL A   1      33.276  22.313  24.412  1.00  0.00     0.109 C 
ATOM     21  C   UNL A   1      33.832  20.920  24.628  1.00  0.00     0.044 C 
ATOM     22  C   UNL A   1      32.117  22.340  25.404  1.00  0.00     0.127 C 
ATOM     23  C   UNL A   1      32.570  20.114  24.840  1.00  0.00     0.161 C 
ATOM     24  O   UNL A   1      31.596  20.992  25.423  1.00  0.00    -0.378 OA
ATOM     25  C   UNL A   1      32.484  22.705  26.841  1.00  0.00     0.039 C 
ENDBRANCH  17  20
ENDBRANCH  15  16
ENDBRANCH  13  15
ENDBRANCH   7   9
ENDBRANCH   6   7
ENDBRANCH   5   6
ENDBRANCH   4   5
ENDBRANCH   3   4
ENDBRANCH   2   3
ENDBRANCH   1   2
BRANCH   1  26
ATOM     26  O   UNL A   1      34.073  35.196  28.531  1.00  0.00    -0.377 OA
BRANCH  26  27
ATOM     27  C   UNL A   1      33.199  34.905  29.622  1.00  0.00     0.188 C 
BRANCH  27  28
ATOM     28  C   UNL A   1      33.538  35.407  31.042  1.00  0.00     0.188 C 
BRANCH  28  29
ATOM     29  O   UNL A   1      34.762  34.878  31.557  1.00  0.00    -0.376 OA
BRANCH  29  30
ATOM     30  C   UNL A   1      34.756  34.495  32.930  1.00  0.00     0.202 C 
BRANCH  30  31
ATOM     31  C   UNL A   1      34.522  32.993  33.145  1.00  0.00     0.261 C 
BRANCH  31  32
ATOM     32  O   UNL A   1      35.525  32.143  32.565  1.00  0.00    -0.460 OA
BRANCH  32  33
ATOM     33  C   UNL A   1      36.651  31.946  33.283  1.00  0.00     0.338 C 
ATOM     34  O   UNL A   1      36.807  32.115  34.478  1.00  0.00    -0.246 OA
BRANCH  33  35
ATOM     35  C   UNL A   1      37.644  31.301  32.402  1.00  0.00     0.060 A 
ATOM     36  C   UNL A   1      38.727  30.633  32.986  1.00  0.00     0.016 A 
ATOM     37  C   UNL A   1      37.517  31.373  31.012  1.00  0.00     0.016 A 
ATOM     38  C   UNL A   1      39.714  30.072  32.177  1.00  0.00     0.010 A 
ATOM     39  C   UNL A   1      38.513  30.825  30.204  1.00  0.00     0.010 A 
ATOM     40  C   UNL A   1      39.633  30.206  30.784  1.00  0.00    -0.014 A 
BRANCH  40  41
ATOM     41  C   UNL A   1      40.805  29.879  29.940  1.00  0.00     0.031 A 
ATOM     42  C   UNL A   1      40.873  28.515  29.313  1.00  0.00     0.074 A 
ATOM     43  C   UNL A   1      41.790  30.770  29.735  1.00  0.00     0.049 A 
ATOM     44  N   UNL A   1      41.815  27.981  28.578  1.00  0.00    -0.248 NA
ATOM     45  C   UNL A   1      39.721  27.630  29.553  1.00  0.00     0.031 C 
ATOM     46  C   UNL A   1      41.825  32.129  30.268  1.00  0.00     0.029 A 
ATOM     47  N   UNL A   1      42.962  30.651  29.031  1.00  0.00    -0.354 N 
ATOM     48  C   UNL A   1      41.368  26.705  28.267  1.00  0.00     0.074 A 
ATOM     49  C   UNL A   1      40.088  26.529  28.917  1.00  0.00     0.031 C 
ATOM     50  C   UNL A   1      42.972  32.716  29.884  1.00  0.00     0.029 A 
ATOM     51  C   UNL A   1      43.760  31.765  29.101  1.00  0.00     0.049 A 
ATOM     52  H   UNL A   1      43.206  29.844  28.523  1.00  0.00     0.167 HD
ATOM     53  C   UNL A   1      41.967  25.765  27.498  1.00  0.00     0.037 A 
ATOM     54  C   UNL A   1      44.995  31.978  28.606  1.00  0.00     0.037 A 
ATOM     55  C   UNL A   1      43.246  25.934  26.862  1.00  0.00     0.049 A 
ATOM     56  C   UNL A   1      45.673  30.890  27.812  1.00  0.00     0.074 A 
ATOM     57  C   UNL A   1      43.933  25.046  26.055  1.00  0.00     0.029 A 
ATOM     58  N   UNL A   1      44.034  27.070  26.973  1.00  0.00    -0.354 N 
ATOM     59  N   UNL A   1      45.231  29.698  27.492  1.00  0.00    -0.248 NA
ATOM     60  C   UNL A   1      47.024  31.180  27.310  1.00  0.00     0.031 C 
ATOM     61  C   UNL A   1      45.158  25.627  25.712  1.00  0.00     0.029 A 
ATOM     62  C   UNL A   1      45.213  26.896  26.267  1.00  0.00     0.049 A 
ATOM     63  H   UNL A   1      43.792  27.879  27.478  1.00  0.00     0.167 HD
ATOM     64  C   UNL A   1      46.232  29.108  26.730  1.00  0.00     0.074 A 
ATOM     65  C   UNL A   1      47.302  30.078  26.626  1.00  0.00     0.031 C 
ATOM     66  C   UNL A   1      46.262  27.877  26.166  1.00  0.00     0.037 A 
BRANCH  53  67
ATOM     67  C   UNL A   1      41.249  24.461  27.323  1.00  0.00     0.064 A 
ATOM     68  C   UNL A   1      40.112  24.354  26.509  1.00  0.00     0.173 A 
ATOM     69  C   UNL A   1      41.716  23.302  27.960  1.00  0.00     0.173 A 
ATOM     70  F   UNL A   1      39.617  25.439  25.894  1.00  0.00    -0.203 F 
ATOM     71  C   UNL A   1      39.454  23.136  26.357  1.00  0.00     0.198 A 
ATOM     72  C   UNL A   1      41.070  22.081  27.785  1.00  0.00     0.198 A 
ATOM     73  F   UNL A   1      42.799  23.353  28.749  1.00  0.00    -0.203 F 
ATOM     74  F   UNL A   1      38.343  23.066  25.611  1.00  0.00    -0.200 F 
ATOM     75  C   UNL A   1      39.936  22.000  26.989  1.00  0.00     0.200 A 
ATOM     76  F   UNL A   1      41.542  20.982  28.391  1.00  0.00    -0.200 F 
ATOM     77  F   UNL A   1      39.304  20.828  26.839  1.00  0.00    -0.200 F 
ENDBRANCH  53  67
BRANCH  54  78
ATOM     78  C   UNL A   1      45.681  33.272  28.851  1.00  0.00     0.064 A 
ATOM     79  C   UNL A   1      45.572  34.333  27.940  1.00  0.00     0.173 A 
ATOM     80  C   UNL A   1      46.482  33.467  29.986  1.00  0.00     0.173 A 
ATOM     81  F   UNL A   1      44.840  34.184  26.826  1.00  0.00    -0.203 F 
ATOM     82  C   UNL A   1      46.251  35.531  28.146  1.00  0.00     0.198 A 
ATOM     83  C   UNL A   1      47.140  34.675  30.205  1.00  0.00     0.198 A 
ATOM     84  F   UNL A   1      46.623  32.482  30.885  1.00  0.00    -0.203 F 
ATOM     85  F   UNL A   1      46.167  36.512  27.236  1.00  0.00    -0.200 F 
ATOM     86  C   UNL A   1      47.031  35.703  29.281  1.00  0.00     0.200 A 
ATOM     87  F   UNL A   1      47.885  34.840  31.306  1.00  0.00    -0.200 F 
ATOM     88  F   UNL A   1      47.685  36.856  29.478  1.00  0.00    -0.200 F 
ENDBRANCH  54  78
BRANCH  66  89
ATOM     89  C   UNL A   1      47.474  27.516  25.355  1.00  0.00     0.064 A 
ATOM     90  C   UNL A   1      47.526  27.737  23.971  1.00  0.00     0.173 A 
ATOM     91  C   UNL A   1      48.615  26.990  25.982  1.00  0.00     0.173 A 
ATOM     92  F   UNL A   1      46.456  28.224  23.325  1.00  0.00    -0.203 F 
ATOM     93  C   UNL A   1      48.669  27.424  23.240  1.00  0.00     0.198 A 
ATOM     94  C   UNL A   1      49.765  26.705  25.252  1.00  0.00     0.198 A 
ATOM     95  F   UNL A   1      48.617  26.768  27.305  1.00  0.00    -0.203 F 
ATOM     96  F   UNL A   1      48.683  27.605  21.912  1.00  0.00    -0.200 F 
ATOM     97  C   UNL A   1      49.789  26.917  23.882  1.00  0.00     0.200 A 
ATOM     98  F   UNL A   1      50.851  26.227  25.876  1.00  0.00    -0.200 F 
ATOM     99  F   UNL A   1      50.891  26.625  23.178  1.00  0.00    -0.200 F 
ENDBRANCH  66  89
ENDBRANCH  40  41
ENDBRANCH  33  35
ENDBRANCH  32  33
ENDBRANCH  31  32
ENDBRANCH  30  31
ENDBRANCH  29  30
ENDBRANCH  28  29
ENDBRANCH  27  28
ENDBRANCH  26  27
ENDBRANCH   1  26
TORSDOF 23
ENDMDL
MODEL 3
REMARK VINA RESULT:      -9.7      1.247      1.968
REMARK SMILES Cc1nc(CNC(=O)[C@H]2CCO[C@H]2C)sc1C(=O)OCCOCCOCCOCCOC(=O)c1ccc(-c2c3nc(c(-c4c(F)c(F)c(F)c(F)c4F)c4ccc([nH]4)c(-c4c(F)c(F)c(F)c(F)c4F)c4nc(c(-c5c(F)c(F)c(F)c(F)c5F)c5ccc2[nH]5)C=C4)C=C3)cc1
REMARK SMILES IDX 24 1 23 2 22 3 21 4 20 5 19 6 17 7 18 8 16 9 1 10 2 11 3 12
REMARK SMILES IDX 4 13 15 14 5 15 6 16 7 17 8 19 9 20 10 21 13 22 11 23 12 24
REMARK SMILES IDX 14 25 25 26 26 27 27 28 28 29 29 30 30 31 31 32 32 33 33 34
REMARK SMILES IDX 34 35 35 36 96 37 36 38 95 39 37 40 38 41 39 42 89 43 40 44
REMARK SMILES IDX 94 45 88 46 90 47 41 48 93 49 87 50 86 51 42 53 74 54 54 55
REMARK SMILES IDX 73 56 55 57 58 58 72 59 91 60 56 61 57 62 71 64 92 65 59 66
REMARK SMILES IDX 43 67 44 68 52 69 45 70 46 71 50 72 53 73 47 74 48 75 51 76
REMARK SMILES IDX 49 77 75 78 76 79 84 80 77 81 78 82 82 83 85 84 79 85 80 86
REMARK SMILES IDX 83 87 81 88 60 89 61 90 69 91 62 92 63 93 67 94 70 95 64 96
REMARK SMILES IDX 65 97 68 98 66 99
REMARK H PARENT 6 18 90 52 58 63
REMARK Flexibility Score: inf
ROOT
ATOM      1  C   UNL A   1      35.175  31.133  28.102  1.00  0.00     0.188 C 
ENDROOT
BRANCH   1   2
ATOM      2  C   UNL A   1      34.338  29.948  27.590  1.00  0.00     0.188 C 
BRANCH   2   3
ATOM      3  O   UNL A   1      33.387  30.332  26.597  1.00  0.00    -0.376 OA
BRANCH   3   4
ATOM      4  C   UNL A   1      32.904  29.299  25.743  1.00  0.00     0.202 C 
BRANCH   4   5
ATOM      5  C   UNL A   1      31.657  28.531  26.213  1.00  0.00     0.261 C 
BRANCH   5   6
ATOM      6  O   UNL A   1      31.596  27.155  25.803  1.00  0.00    -0.459 OA
BRANCH   6   7
ATOM      7  C   UNL A   1      31.219  26.876  24.526  1.00  0.00     0.350 C 
ATOM      8  O   UNL A   1      30.199  27.287  24.014  1.00  0.00    -0.245 OA
BRANCH   7   9
ATOM      9  C   UNL A   1      32.301  26.160  23.869  1.00  0.00     0.135 A 
ATOM     10  C   UNL A   1      33.442  27.895  22.308  1.00  0.00     0.068 C 
ATOM     11  C   UNL A   1      33.217  26.544  22.898  1.00  0.00     0.063 A 
ATOM     12  N   UNL A   1      34.007  25.509  22.407  1.00  0.00    -0.244 NA
ATOM     13  C   UNL A   1      33.705  24.372  22.993  1.00  0.00     0.113 A 
ATOM     14  S   UNL A   1      32.510  24.489  24.222  1.00  0.00    -0.110 S 
BRANCH  13  15
ATOM     15  C   UNL A   1      34.324  23.035  22.692  1.00  0.00     0.183 C 
BRANCH  15  16
ATOM     16  N   UNL A   1      35.221  22.611  23.757  1.00  0.00    -0.349 N 
ATOM     17  C   UNL A   1      35.177  21.493  24.534  1.00  0.00     0.226 C 
ATOM     18  H   UNL A   1      35.969  23.223  23.943  1.00  0.00     0.163 HD
ATOM     19  O   UNL A   1      36.105  21.283  25.314  1.00  0.00    -0.275 OA
BRANCH  17  20
ATOM     20  C   UNL A   1      33.998  20.552  24.403  1.00  0.00     0.109 C 
ATOM     21  C   UNL A   1      34.318  19.093  24.656  1.00  0.00     0.044 C 
ATOM     22  C   UNL A   1      32.889  20.806  25.419  1.00  0.00     0.127 C 
ATOM     23  C   UNL A   1      32.945  18.518  24.924  1.00  0.00     0.161 C 
ATOM     24  O   UNL A   1      32.149  19.566  25.498  1.00  0.00    -0.378 OA
ATOM     25  C   UNL A   1      33.352  21.148  26.833  1.00  0.00     0.039 C 
ENDBRANCH  17  20
ENDBRANCH  15  16
ENDBRANCH  13  15
ENDBRANCH   7   9
ENDBRANCH   6   7
ENDBRANCH   5   6
ENDBRANCH   4   5
ENDBRANCH   3   4
ENDBRANCH   2   3
ENDBRANCH   1   2
BRANCH   1  26
ATOM     26  O   UNL A   1      34.785  32.359  27.499  1.00  0.00    -0.377 OA
BRANCH  26  27
ATOM     27  C   UNL A   1      34.564  33.460  28.380  1.00  0.00     0.188 C 
BRANCH  27  28
ATOM     28  C   UNL A   1      34.714  33.276  29.905  1.00  0.00     0.188 C 
BRANCH  28  29
ATOM     29  O   UNL A   1      34.585  34.494  30.642  1.00  0.00    -0.376 OA
BRANCH  29  30
ATOM     30  C   UNL A   1      34.020  34.387  31.946  1.00  0.00     0.202 C 
BRANCH  30  31
ATOM     31  C   UNL A   1      34.778  33.416  32.863  1.00  0.00     0.261 C 
BRANCH  31  32
ATOM     32  O   UNL A   1      36.210  33.512  32.783  1.00  0.00    -0.460 OA
BRANCH  32  33
ATOM     33  C   UNL A   1      36.924  32.667  33.556  1.00  0.00     0.338 C 
ATOM     34  O   UNL A   1      36.782  32.451  34.745  1.00  0.00    -0.246 OA
BRANCH  33  35
ATOM     35  C   UNL A   1      37.813  31.887  32.673  1.00  0.00     0.060 A 
ATOM     36  C   UNL A   1      38.735  31.009  33.254  1.00  0.00     0.016 A 
ATOM     37  C   UNL A   1      37.749  32.038  31.285  1.00  0.00     0.016 A 
ATOM     38  C   UNL A   1      39.632  30.310  32.447  1.00  0.00     0.010 A 
ATOM     39  C   UNL A   1      38.657  31.349  30.479  1.00  0.00     0.010 A 
ATOM     40  C   UNL A   1      39.625  30.512  31.061  1.00  0.00    -0.014 A 
BRANCH  40  41
ATOM     41  C   UNL A   1      40.747  30.010  30.234  1.00  0.00     0.031 A 
ATOM     42  C   UNL A   1      41.880  30.949  29.927  1.00  0.00     0.074 A 
ATOM     43  C   UNL A   1      40.761  28.752  29.764  1.00  0.00     0.049 A 
ATOM     44  N   UNL A   1      42.944  30.758  29.189  1.00  0.00    -0.248 NA
ATOM     45  C   UNL A   1      41.798  32.289  30.531  1.00  0.00     0.031 C 
ATOM     46  C   UNL A   1      39.734  27.744  30.015  1.00  0.00     0.029 A 
ATOM     47  N   UNL A   1      41.673  28.115  28.960  1.00  0.00    -0.354 N 
ATOM     48  C   UNL A   1      43.656  31.947  29.244  1.00  0.00     0.074 A 
ATOM     49  C   UNL A   1      42.891  32.866  30.059  1.00  0.00     0.031 C 
ATOM     50  C   UNL A   1      40.066  26.615  29.363  1.00  0.00     0.029 A 
ATOM     51  C   UNL A   1      41.313  26.833  28.630  1.00  0.00     0.049 A 
ATOM     52  H   UNL A   1      42.506  28.538  28.651  1.00  0.00     0.167 HD
ATOM     53  C   UNL A   1      44.847  32.245  28.674  1.00  0.00     0.037 A 
ATOM     54  C   UNL A   1      41.915  25.948  27.812  1.00  0.00     0.037 A 
ATOM     55  C   UNL A   1      45.601  31.336  27.854  1.00  0.00     0.049 A 
ATOM     56  C   UNL A   1      43.206  26.327  27.132  1.00  0.00     0.074 A 
ATOM     57  C   UNL A   1      46.823  31.539  27.239  1.00  0.00     0.029 A 
ATOM     58  N   UNL A   1      45.194  30.052  27.526  1.00  0.00    -0.354 N 
ATOM     59  N   UNL A   1      43.892  27.441  27.216  1.00  0.00    -0.248 NA
ATOM     60  C   UNL A   1      43.806  25.322  26.242  1.00  0.00     0.031 C 
ATOM     61  C   UNL A   1      47.137  30.392  26.503  1.00  0.00     0.029 A 
ATOM     62  C   UNL A   1      46.132  29.458  26.697  1.00  0.00     0.049 A 
ATOM     63  H   UNL A   1      44.363  29.626  27.836  1.00  0.00     0.167 HD
ATOM     64  C   UNL A   1      45.015  27.262  26.417  1.00  0.00     0.074 A 
ATOM     65  C   UNL A   1      44.924  25.926  25.864  1.00  0.00     0.031 C 
ATOM     66  C   UNL A   1      46.030  28.123  26.165  1.00  0.00     0.037 A 
BRANCH  53  67
ATOM     67  C   UNL A   1      45.395  33.621  28.906  1.00  0.00     0.064 A 
ATOM     68  C   UNL A   1      45.081  34.688  28.053  1.00  0.00     0.173 A 
ATOM     69  C   UNL A   1      46.228  33.878  30.005  1.00  0.00     0.173 A 
ATOM     70  F   UNL A   1      44.303  34.487  26.978  1.00  0.00    -0.203 F 
ATOM     71  C   UNL A   1      45.600  35.961  28.278  1.00  0.00     0.198 A 
ATOM     72  C   UNL A   1      46.723  35.157  30.242  1.00  0.00     0.198 A 
ATOM     73  F   UNL A   1      46.558  32.890  30.850  1.00  0.00    -0.203 F 
ATOM     74  F   UNL A   1      45.322  36.956  27.426  1.00  0.00    -0.200 F 
ATOM     75  C   UNL A   1      46.415  36.196  29.375  1.00  0.00     0.200 A 
ATOM     76  F   UNL A   1      47.505  35.384  31.307  1.00  0.00    -0.200 F 
ATOM     77  F   UNL A   1      46.910  37.421  29.594  1.00  0.00    -0.200 F 
ENDBRANCH  53  67
BRANCH  54  78
ATOM     78  C   UNL A   1      41.303  24.614  27.580  1.00  0.00     0.064 A 
ATOM     79  C   UNL A   1      41.831  23.461  28.178  1.00  0.00     0.173 A 
ATOM     80  C   UNL A   1      40.194  24.461  26.735  1.00  0.00     0.173 A 
ATOM     81  F   UNL A   1      42.908  23.554  28.972  1.00  0.00    -0.203 F 
ATOM     82  C   UNL A   1      41.285  22.205  27.925  1.00  0.00     0.198 A 
ATOM     83  C   UNL A   1      39.632  23.208  26.503  1.00  0.00     0.198 A 
ATOM     84  F   UNL A   1      39.654  25.533  26.135  1.00  0.00    -0.203 F 
ATOM     85  F   UNL A   1      41.839  21.114  28.472  1.00  0.00    -0.200 F 
ATOM     86  C   UNL A   1      40.183  22.080  27.091  1.00  0.00     0.200 A 
ATOM     87  F   UNL A   1      38.563  23.092  25.704  1.00  0.00    -0.200 F 
ATOM     88  F   UNL A   1      39.659  20.871  26.848  1.00  0.00    -0.200 F 
ENDBRANCH  54  78
BRANCH  66  89
ATOM     89  C   UNL A   1      47.144  27.642  25.281  1.00  0.00     0.064 A 
ATOM     90  C   UNL A   1      47.140  27.875  23.899  1.00  0.00     0.173 A 
ATOM     91  C   UNL A   1      48.253  26.983  25.835  1.00  0.00     0.173 A 
ATOM     92  F   UNL A   1      46.096  28.489  23.321  1.00  0.00    -0.203 F 
ATOM     93  C   UNL A   1      48.197  27.448  23.099  1.00  0.00     0.198 A 
ATOM     94  C   UNL A   1      49.321  26.582  25.036  1.00  0.00     0.198 A 
ATOM     95  F   UNL A   1      48.308  26.742  27.154  1.00  0.00    -0.203 F 
ATOM     96  F   UNL A   1      48.154  27.646  21.774  1.00  0.00    -0.200 F 
ATOM     97  C   UNL A   1      49.289  26.810  23.669  1.00  0.00     0.200 A 
ATOM     98  F   UNL A   1      50.380  25.977  25.590  1.00  0.00    -0.200 F 
ATOM     99  F   UNL A   1      50.309  26.408  22.898  1.00  0.00    -0.200 F 
ENDBRANCH  66  89
ENDBRANCH  40  41
ENDBRANCH  33  35
ENDBRANCH  32  33
ENDBRANCH  31  32
ENDBRANCH  30  31
ENDBRANCH  29  30
ENDBRANCH  28  29
ENDBRANCH  27  28
ENDBRANCH  26  27
ENDBRANCH   1  26
TORSDOF 23
ENDMDL
