MODEL 1
REMARK VINA RESULT:     -11.0      0.000      0.000
REMARK SMILES C#Cc1cc(Cl)c2c(c1)C=C(C(=O)OCCOCCOCCOCCOC(=O)c1ccc(-c3c4nc(c(-c5c(F)c(F)c(F)c(F)c5F)c5ccc([nH]5)c(-c5c(F)c(F)c(F)c(F)c5F)c5nc(c(-c6c(F)c(F)c(F)c(F)c6F)c6ccc3[nH]6)C=C5)C=C4)cc1)[C@@H](C(F)(F)F)O2
REMARK SMILES IDX 21 1 20 2 19 3 18 4 17 5 16 6 15 7 14 8 12 9 13 10 11 11
REMARK SMILES IDX 3 12 4 13 9 14 5 15 8 16 6 17 7 18 10 19 97 20 92 21 2 22
REMARK SMILES IDX 1 23 93 24 94 25 95 26 96 27 22 28 23 29 24 30 25 31 26 32
REMARK SMILES IDX 27 33 28 34 29 35 30 36 91 37 31 38 90 39 32 40 33 41 34 42
REMARK SMILES IDX 84 43 35 44 89 45 83 46 85 47 36 48 88 49 82 50 81 51 37 53
REMARK SMILES IDX 69 54 49 55 68 56 50 57 53 58 67 59 86 60 51 61 52 62 66 64
REMARK SMILES IDX 87 65 54 66 38 67 39 68 47 69 40 70 41 71 45 72 48 73 42 74
REMARK SMILES IDX 43 75 46 76 44 77 70 78 71 79 79 80 72 81 73 82 77 83 80 84
REMARK SMILES IDX 74 85 75 86 78 87 76 88 55 89 56 90 64 91 57 92 58 93 62 94
REMARK SMILES IDX 65 95 59 96 60 97 63 98 61 99
REMARK H PARENT 85 52 53 63
REMARK Flexibility Score: inf
ROOT
ATOM      1  C   UNL A   1      35.768  20.815  24.926  1.00  0.00     0.188 C 
ENDROOT
BRANCH   1   2
ATOM      2  O   UNL A   1      35.148  21.131  26.171  1.00  0.00    -0.377 OA
BRANCH   2   3
ATOM      3  C   UNL A   1      33.749  20.956  26.308  1.00  0.00     0.188 C 
BRANCH   3   4
ATOM      4  C   UNL A   1      33.112  19.898  25.382  1.00  0.00     0.188 C 
BRANCH   4   5
ATOM      5  O   UNL A   1      32.150  20.375  24.465  1.00  0.00    -0.376 OA
BRANCH   5   6
ATOM      6  C   UNL A   1      32.465  21.166  23.336  1.00  0.00     0.202 C 
BRANCH   6   7
ATOM      7  C   UNL A   1      32.402  22.701  23.256  1.00  0.00     0.261 C 
BRANCH   7   8
ATOM      8  O   UNL A   1      31.170  23.329  23.593  1.00  0.00    -0.460 OA
BRANCH   8   9
ATOM      9  C   UNL A   1      31.024  23.703  24.877  1.00  0.00     0.338 C 
ATOM     10  O   UNL A   1      31.051  22.981  25.858  1.00  0.00    -0.246 OA
BRANCH   9  11
ATOM     11  C   UNL A   1      31.007  25.180  24.922  1.00  0.00     0.087 C 
ATOM     12  C   UNL A   1      29.435  29.307  23.035  1.00  0.00     0.027 A 
ATOM     13  C   UNL A   1      30.358  30.016  23.803  1.00  0.00     0.041 A 
ATOM     14  C   UNL A   1      29.314  27.926  23.189  1.00  0.00     0.029 A 
ATOM     15  C   UNL A   1      31.141  29.343  24.744  1.00  0.00     0.084 A 
ATOM     16  C   UNL A   1      30.142  27.244  24.089  1.00  0.00     0.020 A 
ATOM     17  Cl  UNL A   1      32.279  30.260  25.665  1.00  0.00    -0.080 Cl
ATOM     18  C   UNL A   1      31.037  27.954  24.896  1.00  0.00     0.146 A 
ATOM     19  C   UNL A   1      30.139  25.794  24.109  1.00  0.00     0.027 C 
ATOM     20  O   UNL A   1      31.834  27.349  25.829  1.00  0.00    -0.474 OA
ATOM     21  C   UNL A   1      31.901  25.901  25.894  1.00  0.00     0.316 C 
BRANCH  12  22
ATOM     22  C   UNL A   1      28.651  29.984  22.046  1.00  0.00    -0.070 C 
ATOM     23  C   UNL A   1      28.009  30.579  21.230  1.00  0.00     0.010 C 
ENDBRANCH  12  22
BRANCH  21  24
ATOM     24  C   UNL A   1      33.369  25.477  25.743  1.00  0.00     0.430 C 
ATOM     25  F   UNL A   1      33.634  24.346  26.438  1.00  0.00    -0.167 F 
ATOM     26  F   UNL A   1      33.691  25.222  24.452  1.00  0.00    -0.167 F 
ATOM     27  F   UNL A   1      34.212  26.437  26.188  1.00  0.00    -0.167 F 
ENDBRANCH  21  24
ENDBRANCH   9  11
ENDBRANCH   8   9
ENDBRANCH   7   8
ENDBRANCH   6   7
ENDBRANCH   5   6
ENDBRANCH   4   5
ENDBRANCH   3   4
ENDBRANCH   2   3
ENDBRANCH   1   2
BRANCH   1  28
ATOM     28  C   UNL A   1      37.287  21.000  24.663  1.00  0.00     0.188 C 
BRANCH  28  29
ATOM     29  O   UNL A   1      38.024  21.527  25.745  1.00  0.00    -0.376 OA
BRANCH  29  30
ATOM     30  C   UNL A   1      39.356  21.128  25.987  1.00  0.00     0.202 C 
BRANCH  30  31
ATOM     31  C   UNL A   1      39.729  19.640  26.032  1.00  0.00     0.261 C 
BRANCH  31  32
ATOM     32  O   UNL A   1      40.946  19.253  25.382  1.00  0.00    -0.460 OA
BRANCH  32  33
ATOM     33  C   UNL A   1      42.042  19.112  26.160  1.00  0.00     0.338 C 
ATOM     34  O   UNL A   1      42.594  18.075  26.474  1.00  0.00    -0.246 OA
BRANCH  33  35
ATOM     35  C   UNL A   1      42.579  20.468  26.414  1.00  0.00     0.060 A 
ATOM     36  C   UNL A   1      42.608  20.957  27.728  1.00  0.00     0.016 A 
ATOM     37  C   UNL A   1      43.070  21.240  25.361  1.00  0.00     0.016 A 
ATOM     38  C   UNL A   1      43.108  22.232  27.988  1.00  0.00     0.010 A 
ATOM     39  C   UNL A   1      43.538  22.531  25.619  1.00  0.00     0.010 A 
ATOM     40  C   UNL A   1      43.529  23.044  26.928  1.00  0.00    -0.014 A 
BRANCH  40  41
ATOM     41  C   UNL A   1      43.747  24.491  27.161  1.00  0.00     0.031 A 
ATOM     42  C   UNL A   1      45.116  25.051  26.888  1.00  0.00     0.074 A 
ATOM     43  C   UNL A   1      42.752  25.300  27.566  1.00  0.00     0.049 A 
ATOM     44  N   UNL A   1      45.570  26.264  27.067  1.00  0.00    -0.248 NA
ATOM     45  C   UNL A   1      46.109  24.114  26.337  1.00  0.00     0.031 C 
ATOM     46  C   UNL A   1      41.371  24.886  27.802  1.00  0.00     0.029 A 
ATOM     47  N   UNL A   1      42.756  26.643  27.853  1.00  0.00    -0.354 N 
ATOM     48  C   UNL A   1      46.896  26.233  26.654  1.00  0.00     0.074 A 
ATOM     49  C   UNL A   1      47.188  24.877  26.251  1.00  0.00     0.031 C 
ATOM     50  C   UNL A   1      40.661  25.954  28.206  1.00  0.00     0.029 A 
ATOM     51  C   UNL A   1      41.544  27.116  28.294  1.00  0.00     0.049 A 
ATOM     52  H   UNL A   1      43.552  27.212  27.751  1.00  0.00     0.167 HD
ATOM     53  C   UNL A   1      47.783  27.253  26.601  1.00  0.00     0.037 A 
ATOM     54  C   UNL A   1      41.201  28.342  28.740  1.00  0.00     0.037 A 
ATOM     55  C   UNL A   1      47.485  28.602  26.996  1.00  0.00     0.049 A 
ATOM     56  C   UNL A   1      42.241  29.436  28.766  1.00  0.00     0.074 A 
ATOM     57  C   UNL A   1      48.318  29.707  26.976  1.00  0.00     0.029 A 
ATOM     58  N   UNL A   1      46.260  29.032  27.486  1.00  0.00    -0.354 N 
ATOM     59  N   UNL A   1      43.487  29.406  28.360  1.00  0.00    -0.248 NA
ATOM     60  C   UNL A   1      41.826  30.737  29.313  1.00  0.00     0.031 C 
ATOM     61  C   UNL A   1      47.620  30.789  27.512  1.00  0.00     0.029 A 
ATOM     62  C   UNL A   1      46.328  30.379  27.801  1.00  0.00     0.049 A 
ATOM     63  H   UNL A   1      45.464  28.464  27.595  1.00  0.00     0.167 HD
ATOM     64  C   UNL A   1      43.992  30.684  28.570  1.00  0.00     0.074 A 
ATOM     65  C   UNL A   1      42.912  31.473  29.122  1.00  0.00     0.031 C 
ATOM     66  C   UNL A   1      45.239  31.159  28.332  1.00  0.00     0.037 A 
BRANCH  53  67
ATOM     67  C   UNL A   1      49.167  26.960  26.102  1.00  0.00     0.064 A 
ATOM     68  C   UNL A   1      50.155  26.437  26.948  1.00  0.00     0.173 A 
ATOM     69  C   UNL A   1      49.477  27.108  24.742  1.00  0.00     0.173 A 
ATOM     70  F   UNL A   1      49.915  26.289  28.260  1.00  0.00    -0.203 F 
ATOM     71  C   UNL A   1      51.404  26.073  26.450  1.00  0.00     0.198 A 
ATOM     72  C   UNL A   1      50.714  26.715  24.241  1.00  0.00     0.198 A 
ATOM     73  F   UNL A   1      48.566  27.604  23.891  1.00  0.00    -0.203 F 
ATOM     74  F   UNL A   1      52.343  25.598  27.281  1.00  0.00    -0.200 F 
ATOM     75  C   UNL A   1      51.677  26.199  25.096  1.00  0.00     0.200 A 
ATOM     76  F   UNL A   1      50.969  26.819  22.930  1.00  0.00    -0.200 F 
ATOM     77  F   UNL A   1      52.868  25.819  24.612  1.00  0.00    -0.200 F 
ENDBRANCH  53  67
BRANCH  54  78
ATOM     78  C   UNL A   1      39.810  28.606  29.204  1.00  0.00     0.064 A 
ATOM     79  C   UNL A   1      38.845  29.129  28.332  1.00  0.00     0.173 A 
ATOM     80  C   UNL A   1      39.423  28.365  30.531  1.00  0.00     0.173 A 
ATOM     81  F   UNL A   1      39.171  29.405  27.061  1.00  0.00    -0.203 F 
ATOM     82  C   UNL A   1      37.554  29.417  28.772  1.00  0.00     0.198 A 
ATOM     83  C   UNL A   1      38.122  28.619  30.961  1.00  0.00     0.198 A 
ATOM     84  F   UNL A   1      40.307  27.872  31.411  1.00  0.00    -0.203 F 
ATOM     85  F   UNL A   1      36.669  29.967  27.930  1.00  0.00    -0.200 F 
ATOM     86  C   UNL A   1      37.191  29.154  30.085  1.00  0.00     0.200 A 
ATOM     87  F   UNL A   1      37.773  28.351  32.227  1.00  0.00    -0.200 F 
ATOM     88  F   UNL A   1      35.948  29.424  30.505  1.00  0.00    -0.200 F 
ENDBRANCH  54  78
BRANCH  66  89
ATOM     89  C   UNL A   1      45.514  32.607  28.631  1.00  0.00     0.064 A 
ATOM     90  C   UNL A   1      45.951  33.027  29.896  1.00  0.00     0.173 A 
ATOM     91  C   UNL A   1      45.429  33.571  27.613  1.00  0.00     0.173 A 
ATOM     92  F   UNL A   1      46.043  32.149  30.905  1.00  0.00    -0.203 F 
ATOM     93  C   UNL A   1      46.276  34.359  30.134  1.00  0.00     0.198 A 
ATOM     94  C   UNL A   1      45.791  34.895  27.846  1.00  0.00     0.198 A 
ATOM     95  F   UNL A   1      45.030  33.221  26.381  1.00  0.00    -0.203 F 
ATOM     96  F   UNL A   1      46.654  34.745  31.361  1.00  0.00    -0.200 F 
ATOM     97  C   UNL A   1      46.209  35.289  29.108  1.00  0.00     0.200 A 
ATOM     98  F   UNL A   1      45.749  35.785  26.845  1.00  0.00    -0.200 F 
ATOM     99  F   UNL A   1      46.546  36.566  29.333  1.00  0.00    -0.200 F 
ENDBRANCH  66  89
ENDBRANCH  40  41
ENDBRANCH  33  35
ENDBRANCH  32  33
ENDBRANCH  31  32
ENDBRANCH  30  31
ENDBRANCH  29  30
ENDBRANCH  28  29
ENDBRANCH   1  28
TORSDOF 22
ENDMDL
MODEL 2
REMARK VINA RESULT:     -10.8      0.501      7.043
REMARK SMILES C#Cc1cc(Cl)c2c(c1)C=C(C(=O)OCCOCCOCCOCCOC(=O)c1ccc(-c3c4nc(c(-c5c(F)c(F)c(F)c(F)c5F)c5ccc([nH]5)c(-c5c(F)c(F)c(F)c(F)c5F)c5nc(c(-c6c(F)c(F)c(F)c(F)c6F)c6ccc3[nH]6)C=C5)C=C4)cc1)[C@@H](C(F)(F)F)O2
REMARK SMILES IDX 21 1 20 2 19 3 18 4 17 5 16 6 15 7 14 8 12 9 13 10 11 11
REMARK SMILES IDX 3 12 4 13 9 14 5 15 8 16 6 17 7 18 10 19 97 20 92 21 2 22
REMARK SMILES IDX 1 23 93 24 94 25 95 26 96 27 22 28 23 29 24 30 25 31 26 32
REMARK SMILES IDX 27 33 28 34 29 35 30 36 91 37 31 38 90 39 32 40 33 41 34 42
REMARK SMILES IDX 84 43 35 44 89 45 83 46 85 47 36 48 88 49 82 50 81 51 37 53
REMARK SMILES IDX 69 54 49 55 68 56 50 57 53 58 67 59 86 60 51 61 52 62 66 64
REMARK SMILES IDX 87 65 54 66 38 67 39 68 47 69 40 70 41 71 45 72 48 73 42 74
REMARK SMILES IDX 43 75 46 76 44 77 70 78 71 79 79 80 72 81 73 82 77 83 80 84
REMARK SMILES IDX 74 85 75 86 78 87 76 88 55 89 56 90 64 91 57 92 58 93 62 94
REMARK SMILES IDX 65 95 59 96 60 97 63 98 61 99
REMARK H PARENT 85 52 53 63
REMARK Flexibility Score: inf
ROOT
ATOM      1  C   UNL A   1      35.713  20.744  24.901  1.00  0.00     0.188 C 
ENDROOT
BRANCH   1   2
ATOM      2  O   UNL A   1      35.074  21.086  26.129  1.00  0.00    -0.377 OA
BRANCH   2   3
ATOM      3  C   UNL A   1      33.712  20.747  26.316  1.00  0.00     0.188 C 
BRANCH   3   4
ATOM      4  C   UNL A   1      33.158  19.656  25.373  1.00  0.00     0.188 C 
BRANCH   4   5
ATOM      5  O   UNL A   1      32.111  20.054  24.514  1.00  0.00    -0.376 OA
BRANCH   5   6
ATOM      6  C   UNL A   1      32.300  20.842  23.356  1.00  0.00     0.202 C 
BRANCH   6   7
ATOM      7  C   UNL A   1      32.509  22.366  23.317  1.00  0.00     0.261 C 
BRANCH   7   8
ATOM      8  O   UNL A   1      31.360  23.192  23.466  1.00  0.00    -0.460 OA
BRANCH   8   9
ATOM      9  C   UNL A   1      31.032  23.536  24.726  1.00  0.00     0.338 C 
ATOM     10  O   UNL A   1      30.912  22.788  25.680  1.00  0.00    -0.246 OA
BRANCH   9  11
ATOM     11  C   UNL A   1      31.019  25.011  24.807  1.00  0.00     0.087 C 
ATOM     12  C   UNL A   1      29.450  29.187  23.030  1.00  0.00     0.027 A 
ATOM     13  C   UNL A   1      30.379  29.875  23.810  1.00  0.00     0.041 A 
ATOM     14  C   UNL A   1      29.325  27.804  23.151  1.00  0.00     0.029 A 
ATOM     15  C   UNL A   1      31.165  29.176  24.730  1.00  0.00     0.084 A 
ATOM     16  C   UNL A   1      30.157  27.097  24.030  1.00  0.00     0.020 A 
ATOM     17  Cl  UNL A   1      32.310  30.068  25.668  1.00  0.00    -0.080 Cl
ATOM     18  C   UNL A   1      31.058  27.785  24.849  1.00  0.00     0.146 A 
ATOM     19  C   UNL A   1      30.150  25.648  24.014  1.00  0.00     0.027 C 
ATOM     20  O   UNL A   1      31.858  27.155  25.762  1.00  0.00    -0.474 OA
ATOM     21  C   UNL A   1      31.921  25.705  25.792  1.00  0.00     0.316 C 
BRANCH  12  22
ATOM     22  C   UNL A   1      28.663  29.891  22.062  1.00  0.00    -0.070 C 
ATOM     23  C   UNL A   1      28.029  30.503  21.251  1.00  0.00     0.010 C 
ENDBRANCH  12  22
BRANCH  21  24
ATOM     24  C   UNL A   1      33.386  25.281  25.623  1.00  0.00     0.430 C 
ATOM     25  F   UNL A   1      33.711  25.124  24.318  1.00  0.00    -0.167 F 
ATOM     26  F   UNL A   1      34.241  26.204  26.126  1.00  0.00    -0.167 F 
ATOM     27  F   UNL A   1      33.641  24.111  26.251  1.00  0.00    -0.167 F 
ENDBRANCH  21  24
ENDBRANCH   9  11
ENDBRANCH   8   9
ENDBRANCH   7   8
ENDBRANCH   6   7
ENDBRANCH   5   6
ENDBRANCH   4   5
ENDBRANCH   3   4
ENDBRANCH   2   3
ENDBRANCH   1   2
BRANCH   1  28
ATOM     28  C   UNL A   1      37.234  20.931  24.655  1.00  0.00     0.188 C 
BRANCH  28  29
ATOM     29  O   UNL A   1      37.961  21.447  25.749  1.00  0.00    -0.376 OA
BRANCH  29  30
ATOM     30  C   UNL A   1      39.293  21.051  25.995  1.00  0.00     0.202 C 
BRANCH  30  31
ATOM     31  C   UNL A   1      39.706  19.578  25.867  1.00  0.00     0.261 C 
BRANCH  31  32
ATOM     32  O   UNL A   1      41.025  19.311  25.376  1.00  0.00    -0.460 OA
BRANCH  32  33
ATOM     33  C   UNL A   1      42.042  19.390  26.263  1.00  0.00     0.338 C 
ATOM     34  O   UNL A   1      42.751  18.483  26.654  1.00  0.00    -0.246 OA
BRANCH  33  35
ATOM     35  C   UNL A   1      42.273  20.825  26.542  1.00  0.00     0.060 A 
ATOM     36  C   UNL A   1      42.444  21.711  25.469  1.00  0.00     0.016 A 
ATOM     37  C   UNL A   1      42.299  21.292  27.857  1.00  0.00     0.016 A 
ATOM     38  C   UNL A   1      42.665  23.067  25.711  1.00  0.00     0.010 A 
ATOM     39  C   UNL A   1      42.555  22.644  28.098  1.00  0.00     0.010 A 
ATOM     40  C   UNL A   1      42.771  23.531  27.028  1.00  0.00    -0.014 A 
BRANCH  40  41
ATOM     41  C   UNL A   1      43.323  24.882  27.282  1.00  0.00     0.031 A 
ATOM     42  C   UNL A   1      42.396  25.929  27.837  1.00  0.00     0.074 A 
ATOM     43  C   UNL A   1      44.619  25.169  27.065  1.00  0.00     0.049 A 
ATOM     44  N   UNL A   1      42.624  27.191  28.090  1.00  0.00    -0.248 NA
ATOM     45  C   UNL A   1      41.026  25.491  28.153  1.00  0.00     0.031 C 
ATOM     46  C   UNL A   1      45.624  24.222  26.589  1.00  0.00     0.029 A 
ATOM     47  N   UNL A   1      45.308  26.347  27.216  1.00  0.00    -0.354 N 
ATOM     48  C   UNL A   1      41.430  27.695  28.589  1.00  0.00     0.074 A 
ATOM     49  C   UNL A   1      40.468  26.617  28.569  1.00  0.00     0.031 C 
ATOM     50  C   UNL A   1      46.803  24.860  26.479  1.00  0.00     0.029 A 
ATOM     51  C   UNL A   1      46.627  26.266  26.839  1.00  0.00     0.049 A 
ATOM     52  H   UNL A   1      44.895  27.171  27.562  1.00  0.00     0.167 HD
ATOM     53  C   UNL A   1      41.167  28.943  29.038  1.00  0.00     0.037 A 
ATOM     54  C   UNL A   1      47.571  27.227  26.773  1.00  0.00     0.037 A 
ATOM     55  C   UNL A   1      42.129  30.011  29.062  1.00  0.00     0.049 A 
ATOM     56  C   UNL A   1      47.220  28.637  27.184  1.00  0.00     0.074 A 
ATOM     57  C   UNL A   1      41.958  31.311  29.503  1.00  0.00     0.029 A 
ATOM     58  N   UNL A   1      43.441  29.904  28.625  1.00  0.00    -0.354 N 
ATOM     59  N   UNL A   1      46.095  29.104  27.670  1.00  0.00    -0.248 NA
ATOM     60  C   UNL A   1      48.272  29.655  27.040  1.00  0.00     0.031 C 
ATOM     61  C   UNL A   1      43.145  32.008  29.274  1.00  0.00     0.029 A 
ATOM     62  C   UNL A   1      44.080  31.126  28.757  1.00  0.00     0.049 A 
ATOM     63  H   UNL A   1      43.856  29.084  28.273  1.00  0.00     0.167 HD
ATOM     64  C   UNL A   1      46.313  30.454  27.918  1.00  0.00     0.074 A 
ATOM     65  C   UNL A   1      47.685  30.729  27.548  1.00  0.00     0.031 C 
ATOM     66  C   UNL A   1      45.453  31.383  28.404  1.00  0.00     0.037 A 
BRANCH  53  67
ATOM     67  C   UNL A   1      39.784  29.237  29.540  1.00  0.00     0.064 A 
ATOM     68  C   UNL A   1      38.735  29.545  28.662  1.00  0.00     0.173 A 
ATOM     69  C   UNL A   1      39.484  29.109  30.905  1.00  0.00     0.173 A 
ATOM     70  F   UNL A   1      38.973  29.694  27.351  1.00  0.00    -0.203 F 
ATOM     71  C   UNL A   1      37.435  29.715  29.133  1.00  0.00     0.198 A 
ATOM     72  C   UNL A   1      38.179  29.248  31.368  1.00  0.00     0.198 A 
ATOM     73  F   UNL A   1      40.451  28.814  31.786  1.00  0.00    -0.203 F 
ATOM     74  F   UNL A   1      36.452  30.033  28.279  1.00  0.00    -0.200 F 
ATOM     75  C   UNL A   1      37.156  29.551  30.481  1.00  0.00     0.200 A 
ATOM     76  F   UNL A   1      37.907  29.071  32.668  1.00  0.00    -0.200 F 
ATOM     77  F   UNL A   1      35.899  29.683  30.928  1.00  0.00    -0.200 F 
ENDBRANCH  53  67
BRANCH  54  78
ATOM     78  C   UNL A   1      48.942  26.896  26.293  1.00  0.00     0.064 A 
ATOM     79  C   UNL A   1      49.289  27.046  24.943  1.00  0.00     0.173 A 
ATOM     80  C   UNL A   1      49.924  26.404  27.165  1.00  0.00     0.173 A 
ATOM     81  F   UNL A   1      48.379  27.486  24.062  1.00  0.00    -0.203 F 
ATOM     82  C   UNL A   1      50.558  26.700  24.481  1.00  0.00     0.198 A 
ATOM     83  C   UNL A   1      51.204  26.092  26.710  1.00  0.00     0.198 A 
ATOM     84  F   UNL A   1      49.645  26.234  28.466  1.00  0.00    -0.203 F 
ATOM     85  F   UNL A   1      50.845  26.801  23.177  1.00  0.00    -0.200 F 
ATOM     86  C   UNL A   1      51.517  26.230  25.367  1.00  0.00     0.200 A 
ATOM     87  F   UNL A   1      52.130  25.651  27.571  1.00  0.00    -0.200 F 
ATOM     88  F   UNL A   1      52.738  25.904  24.923  1.00  0.00    -0.200 F 
ENDBRANCH  54  78
BRANCH  66  89
ATOM     89  C   UNL A   1      45.962  32.784  28.601  1.00  0.00     0.064 A 
ATOM     90  C   UNL A   1      46.652  33.159  29.763  1.00  0.00     0.173 A 
ATOM     91  C   UNL A   1      45.838  33.736  27.575  1.00  0.00     0.173 A 
ATOM     92  F   UNL A   1      46.792  32.291  30.776  1.00  0.00    -0.203 F 
ATOM     93  C   UNL A   1      47.186  34.438  29.896  1.00  0.00     0.198 A 
ATOM     94  C   UNL A   1      46.406  35.001  27.697  1.00  0.00     0.198 A 
ATOM     95  F   UNL A   1      45.199  33.425  26.437  1.00  0.00    -0.203 F 
ATOM     96  F   UNL A   1      47.808  34.787  31.031  1.00  0.00    -0.200 F 
ATOM     97  C   UNL A   1      47.073  35.353  28.860  1.00  0.00     0.200 A 
ATOM     98  F   UNL A   1      46.317  35.874  26.684  1.00  0.00    -0.200 F 
ATOM     99  F   UNL A   1      47.609  36.576  28.981  1.00  0.00    -0.200 F 
ENDBRANCH  66  89
ENDBRANCH  40  41
ENDBRANCH  33  35
ENDBRANCH  32  33
ENDBRANCH  31  32
ENDBRANCH  30  31
ENDBRANCH  29  30
ENDBRANCH  28  29
ENDBRANCH   1  28
TORSDOF 22
ENDMDL
MODEL 3
REMARK VINA RESULT:     -10.7      3.627      8.941
REMARK SMILES C#Cc1cc(Cl)c2c(c1)C=C(C(=O)OCCOCCOCCOCCOC(=O)c1ccc(-c3c4nc(c(-c5c(F)c(F)c(F)c(F)c5F)c5ccc([nH]5)c(-c5c(F)c(F)c(F)c(F)c5F)c5nc(c(-c6c(F)c(F)c(F)c(F)c6F)c6ccc3[nH]6)C=C5)C=C4)cc1)[C@@H](C(F)(F)F)O2
REMARK SMILES IDX 21 1 20 2 19 3 18 4 17 5 16 6 15 7 14 8 12 9 13 10 11 11
REMARK SMILES IDX 3 12 4 13 9 14 5 15 8 16 6 17 7 18 10 19 97 20 92 21 2 22
REMARK SMILES IDX 1 23 93 24 94 25 95 26 96 27 22 28 23 29 24 30 25 31 26 32
REMARK SMILES IDX 27 33 28 34 29 35 30 36 91 37 31 38 90 39 32 40 33 41 34 42
REMARK SMILES IDX 84 43 35 44 89 45 83 46 85 47 36 48 88 49 82 50 81 51 37 53
REMARK SMILES IDX 69 54 49 55 68 56 50 57 53 58 67 59 86 60 51 61 52 62 66 64
REMARK SMILES IDX 87 65 54 66 38 67 39 68 47 69 40 70 41 71 45 72 48 73 42 74
REMARK SMILES IDX 43 75 46 76 44 77 70 78 71 79 79 80 72 81 73 82 77 83 80 84
REMARK SMILES IDX 74 85 75 86 78 87 76 88 55 89 56 90 64 91 57 92 58 93 62 94
REMARK SMILES IDX 65 95 59 96 60 97 63 98 61 99
REMARK H PARENT 85 52 53 63
REMARK Flexibility Score: inf
ROOT
ATOM      1  C   UNL A   1      32.904  35.624  30.223  1.00  0.00     0.188 C 
ENDROOT
BRANCH   1   2
ATOM      2  O   UNL A   1      33.034  35.447  28.813  1.00  0.00    -0.377 OA
BRANCH   2   3
ATOM      3  C   UNL A   1      33.251  34.146  28.298  1.00  0.00     0.188 C 
BRANCH   3   4
ATOM      4  C   UNL A   1      34.728  33.716  28.168  1.00  0.00     0.188 C 
BRANCH   4   5
ATOM      5  O   UNL A   1      35.021  32.387  28.544  1.00  0.00    -0.376 OA
BRANCH   5   6
ATOM      6  C   UNL A   1      34.876  31.276  27.681  1.00  0.00     0.202 C 
BRANCH   6   7
ATOM      7  C   UNL A   1      33.574  30.506  27.401  1.00  0.00     0.261 C 
BRANCH   7   8
ATOM      8  O   UNL A   1      33.669  29.100  27.204  1.00  0.00    -0.460 OA
BRANCH   8   9
ATOM      9  C   UNL A   1      32.505  28.437  27.073  1.00  0.00     0.338 C 
ATOM     10  O   UNL A   1      31.463  28.663  27.663  1.00  0.00    -0.246 OA
BRANCH   9  11
ATOM     11  C   UNL A   1      32.644  27.489  25.948  1.00  0.00     0.087 C 
ATOM     12  C   UNL A   1      35.015  23.806  23.978  1.00  0.00     0.027 A 
ATOM     13  C   UNL A   1      34.352  24.019  22.770  1.00  0.00     0.041 A 
ATOM     14  C   UNL A   1      34.688  24.572  25.097  1.00  0.00     0.029 A 
ATOM     15  C   UNL A   1      33.343  24.982  22.692  1.00  0.00     0.084 A 
ATOM     16  C   UNL A   1      33.719  25.579  25.001  1.00  0.00     0.020 A 
ATOM     17  Cl  UNL A   1      32.556  25.218  21.171  1.00  0.00    -0.080 Cl
ATOM     18  C   UNL A   1      33.017  25.766  23.806  1.00  0.00     0.146 A 
ATOM     19  C   UNL A   1      33.518  26.489  26.112  1.00  0.00     0.027 C 
ATOM     20  O   UNL A   1      32.025  26.697  23.668  1.00  0.00    -0.474 OA
ATOM     21  C   UNL A   1      31.780  27.658  24.728  1.00  0.00     0.316 C 
BRANCH  12  22
ATOM     22  C   UNL A   1      36.072  22.844  24.059  1.00  0.00    -0.070 C 
ATOM     23  C   UNL A   1      36.962  22.043  24.093  1.00  0.00     0.010 C 
ENDBRANCH  12  22
BRANCH  21  24
ATOM     24  C   UNL A   1      31.893  29.070  24.138  1.00  0.00     0.430 C 
ATOM     25  F   UNL A   1      31.533  29.094  22.833  1.00  0.00    -0.167 F 
ATOM     26  F   UNL A   1      31.088  29.951  24.778  1.00  0.00    -0.167 F 
ATOM     27  F   UNL A   1      33.157  29.544  24.221  1.00  0.00    -0.167 F 
ENDBRANCH  21  24
ENDBRANCH   9  11
ENDBRANCH   8   9
ENDBRANCH   7   8
ENDBRANCH   6   7
ENDBRANCH   5   6
ENDBRANCH   4   5
ENDBRANCH   3   4
ENDBRANCH   2   3
ENDBRANCH   1   2
BRANCH   1  28
ATOM     28  C   UNL A   1      34.007  35.215  31.235  1.00  0.00     0.188 C 
BRANCH  28  29
ATOM     29  O   UNL A   1      33.589  34.339  32.259  1.00  0.00    -0.376 OA
BRANCH  29  30
ATOM     30  C   UNL A   1      34.261  33.122  32.501  1.00  0.00     0.202 C 
BRANCH  30  31
ATOM     31  C   UNL A   1      35.493  33.078  33.415  1.00  0.00     0.261 C 
BRANCH  31  32
ATOM     32  O   UNL A   1      36.367  31.952  33.278  1.00  0.00    -0.460 OA
BRANCH  32  33
ATOM     33  C   UNL A   1      37.430  31.891  34.110  1.00  0.00     0.338 C 
ATOM     34  O   UNL A   1      37.418  31.932  35.325  1.00  0.00    -0.246 OA
BRANCH  33  35
ATOM     35  C   UNL A   1      38.616  31.569  33.286  1.00  0.00     0.060 A 
ATOM     36  C   UNL A   1      38.673  32.025  31.961  1.00  0.00     0.016 A 
ATOM     37  C   UNL A   1      39.675  30.839  33.829  1.00  0.00     0.016 A 
ATOM     38  C   UNL A   1      39.781  31.732  31.168  1.00  0.00     0.010 A 
ATOM     39  C   UNL A   1      40.769  30.516  33.022  1.00  0.00     0.010 A 
ATOM     40  C   UNL A   1      40.812  30.933  31.680  1.00  0.00    -0.014 A 
BRANCH  40  41
ATOM     41  C   UNL A   1      41.813  30.355  30.753  1.00  0.00     0.031 A 
ATOM     42  C   UNL A   1      43.079  31.130  30.510  1.00  0.00     0.074 A 
ATOM     43  C   UNL A   1      41.629  29.157  30.170  1.00  0.00     0.049 A 
ATOM     44  N   UNL A   1      44.076  30.866  29.706  1.00  0.00    -0.248 NA
ATOM     45  C   UNL A   1      43.244  32.374  31.282  1.00  0.00     0.031 C 
ATOM     46  C   UNL A   1      40.475  28.287  30.377  1.00  0.00     0.029 A 
ATOM     47  N   UNL A   1      42.416  28.469  29.280  1.00  0.00    -0.354 N 
ATOM     48  C   UNL A   1      44.979  31.907  29.874  1.00  0.00     0.074 A 
ATOM     49  C   UNL A   1      44.401  32.828  30.825  1.00  0.00     0.031 C 
ATOM     50  C   UNL A   1      40.625  27.181  29.626  1.00  0.00     0.029 A 
ATOM     51  C   UNL A   1      41.865  27.283  28.859  1.00  0.00     0.049 A 
ATOM     52  H   UNL A   1      43.293  28.795  28.973  1.00  0.00     0.167 HD
ATOM     53  C   UNL A   1      46.191  32.069  29.296  1.00  0.00     0.037 A 
ATOM     54  C   UNL A   1      42.306  26.398  27.941  1.00  0.00     0.037 A 
ATOM     55  C   UNL A   1      46.765  31.146  28.355  1.00  0.00     0.049 A 
ATOM     56  C   UNL A   1      43.615  26.658  27.235  1.00  0.00     0.074 A 
ATOM     57  C   UNL A   1      47.991  31.222  27.717  1.00  0.00     0.029 A 
ATOM     58  N   UNL A   1      46.155  29.981  27.915  1.00  0.00    -0.354 N 
ATOM     59  N   UNL A   1      44.472  27.634  27.409  1.00  0.00    -0.248 NA
ATOM     60  C   UNL A   1      44.020  25.689  26.204  1.00  0.00     0.031 C 
ATOM     61  C   UNL A   1      48.094  30.138  26.843  1.00  0.00     0.029 A 
ATOM     62  C   UNL A   1      46.966  29.347  26.989  1.00  0.00     0.049 A 
ATOM     63  H   UNL A   1      45.276  29.655  28.215  1.00  0.00     0.167 HD
ATOM     64  C   UNL A   1      45.526  27.381  26.538  1.00  0.00     0.074 A 
ATOM     65  C   UNL A   1      45.212  26.148  25.850  1.00  0.00     0.031 C 
ATOM     66  C   UNL A   1      46.651  28.108  26.325  1.00  0.00     0.037 A 
BRANCH  53  67
ATOM     67  C   UNL A   1      46.988  33.289  29.653  1.00  0.00     0.064 A 
ATOM     68  C   UNL A   1      47.946  33.265  30.676  1.00  0.00     0.173 A 
ATOM     69  C   UNL A   1      46.862  34.464  28.898  1.00  0.00     0.173 A 
ATOM     70  F   UNL A   1      48.095  32.171  31.438  1.00  0.00    -0.203 F 
ATOM     71  C   UNL A   1      48.750  34.374  30.930  1.00  0.00     0.198 A 
ATOM     72  C   UNL A   1      47.688  35.559  29.132  1.00  0.00     0.198 A 
ATOM     73  F   UNL A   1      45.959  34.538  27.907  1.00  0.00    -0.203 F 
ATOM     74  F   UNL A   1      49.643  34.337  31.928  1.00  0.00    -0.200 F 
ATOM     75  C   UNL A   1      48.630  35.513  30.148  1.00  0.00     0.200 A 
ATOM     76  F   UNL A   1      47.583  36.653  28.364  1.00  0.00    -0.200 F 
ATOM     77  F   UNL A   1      49.426  36.568  30.372  1.00  0.00    -0.200 F 
ENDBRANCH  53  67
BRANCH  54  78
ATOM     78  C   UNL A   1      41.502  25.184  27.627  1.00  0.00     0.064 A 
ATOM     79  C   UNL A   1      40.377  25.259  26.794  1.00  0.00     0.173 A 
ATOM     80  C   UNL A   1      41.826  23.931  28.169  1.00  0.00     0.173 A 
ATOM     81  F   UNL A   1      40.006  26.437  26.273  1.00  0.00    -0.203 F 
ATOM     82  C   UNL A   1      39.598  24.133  26.530  1.00  0.00     0.198 A 
ATOM     83  C   UNL A   1      41.069  22.799  27.876  1.00  0.00     0.198 A 
ATOM     84  F   UNL A   1      42.888  23.803  28.978  1.00  0.00    -0.203 F 
ATOM     85  F   UNL A   1      38.497  24.245  25.775  1.00  0.00    -0.200 F 
ATOM     86  C   UNL A   1      39.949  22.902  27.065  1.00  0.00     0.200 A 
ATOM     87  F   UNL A   1      41.419  21.610  28.384  1.00  0.00    -0.200 F 
ATOM     88  F   UNL A   1      39.204  21.820  26.805  1.00  0.00    -0.200 F 
ENDBRANCH  54  78
BRANCH  66  89
ATOM     89  C   UNL A   1      47.653  27.587  25.332  1.00  0.00     0.064 A 
ATOM     90  C   UNL A   1      47.524  27.835  23.958  1.00  0.00     0.173 A 
ATOM     91  C   UNL A   1      48.803  26.911  25.771  1.00  0.00     0.173 A 
ATOM     92  F   UNL A   1      46.442  28.470  23.484  1.00  0.00    -0.203 F 
ATOM     93  C   UNL A   1      48.502  27.413  23.060  1.00  0.00     0.198 A 
ATOM     94  C   UNL A   1      49.795  26.524  24.876  1.00  0.00     0.198 A 
ATOM     95  F   UNL A   1      48.982  26.659  27.077  1.00  0.00    -0.203 F 
ATOM     96  F   UNL A   1      48.339  27.628  21.748  1.00  0.00    -0.200 F 
ATOM     97  C   UNL A   1      49.641  26.770  23.520  1.00  0.00     0.200 A 
ATOM     98  F   UNL A   1      50.906  25.925  25.326  1.00  0.00    -0.200 F 
ATOM     99  F   UNL A   1      50.591  26.387  22.657  1.00  0.00    -0.200 F 
ENDBRANCH  66  89
ENDBRANCH  40  41
ENDBRANCH  33  35
ENDBRANCH  32  33
ENDBRANCH  31  32
ENDBRANCH  30  31
ENDBRANCH  29  30
ENDBRANCH  28  29
ENDBRANCH   1  28
TORSDOF 22
ENDMDL
