MODEL 1
REMARK VINA RESULT:     -10.0      0.000      0.000
REMARK SMILES Cc1ccc(/[NH+]=C2/S[C@@H](CC(=O)Nc3ccc(C(=O)OCCOCCOCCOCCOC(=O)c4ccc(-c5c6nc(c(-c7c(F)c(F)c(F)c(F)c7F)c7ccc([nH]7)c(-c7c(F)c(F)c(F)c(F)c7F)c7nc(c(-c8c(F)c(F)c(F)c(F)c8F)c8ccc5[nH]8)C=C7)C=C6)cc4)cc3)C(=O)N2C)cc1
REMARK SMILES IDX 25 1 24 2 23 3 22 4 21 5 20 6 18 7 19 8 17 9 14 10 15 11
REMARK SMILES IDX 99 12 16 13 98 14 13 15 11 16 12 17 10 19 9 20 6 21 7 22
REMARK SMILES IDX 8 24 102 25 100 26 103 27 101 28 5 29 1 30 2 31 3 32 105 33
REMARK SMILES IDX 4 34 104 35 26 36 27 37 28 38 29 39 30 40 31 41 32 42 33 43
REMARK SMILES IDX 34 44 35 45 36 46 97 47 37 48 96 49 38 50 39 51 40 52 90 53
REMARK SMILES IDX 41 54 95 55 89 56 91 57 42 58 94 59 88 60 87 61 43 63 75 64
REMARK SMILES IDX 55 65 74 66 56 67 59 68 73 69 92 70 57 71 58 72 72 74 93 75
REMARK SMILES IDX 60 76 44 77 45 78 53 79 46 80 47 81 51 82 54 83 48 84 49 85
REMARK SMILES IDX 52 86 50 87 76 88 77 89 85 90 78 91 79 92 83 93 86 94 80 95
REMARK SMILES IDX 81 96 84 97 82 98 61 99 62 100 70 101 63 102 64 103 68 104
REMARK SMILES IDX 71 105 65 106 66 107 69 108 67 109
REMARK H PARENT 13 18 6 23 91 62 59 73
REMARK Flexibility Score: inf
ROOT
ATOM      1  C   UNL A   1      37.654  29.085  29.942  1.00  0.00     0.188 C 
ENDROOT
BRANCH   1   2
ATOM      2  C   UNL A   1      38.910  28.605  29.218  1.00  0.00     0.188 C 
BRANCH   2   3
ATOM      3  O   UNL A   1      38.694  27.682  28.147  1.00  0.00    -0.376 OA
BRANCH   3   4
ATOM      4  C   UNL A   1      39.628  26.612  28.114  1.00  0.00     0.202 C 
BRANCH   4   5
ATOM      5  C   UNL A   1      39.645  25.693  26.899  1.00  0.00     0.261 C 
BRANCH   5   6
ATOM      6  O   UNL A   1      38.584  24.757  26.916  1.00  0.00    -0.460 OA
BRANCH   6   7
ATOM      7  C   UNL A   1      38.888  23.533  26.467  1.00  0.00     0.338 C 
ATOM      8  O   UNL A   1      39.873  22.856  26.742  1.00  0.00    -0.246 OA
BRANCH   7   9
ATOM      9  C   UNL A   1      37.671  23.042  25.806  1.00  0.00     0.060 A 
ATOM     10  C   UNL A   1      35.274  21.969  24.841  1.00  0.00     0.041 A 
ATOM     11  C   UNL A   1      35.386  23.336  25.082  1.00  0.00     0.027 A 
ATOM     12  C   UNL A   1      36.344  21.133  25.202  1.00  0.00     0.027 A 
ATOM     13  C   UNL A   1      36.587  23.881  25.534  1.00  0.00     0.018 A 
ATOM     14  C   UNL A   1      37.542  21.664  25.668  1.00  0.00     0.018 A 
BRANCH  10  15
ATOM     15  N   UNL A   1      34.185  21.328  24.230  1.00  0.00    -0.326 N 
ATOM     16  C   UNL A   1      32.842  21.300  24.443  1.00  0.00     0.226 C 
ATOM     17  O   UNL A   1      32.150  20.664  23.639  1.00  0.00    -0.275 OA
ATOM     18  H   UNL A   1      34.458  20.768  23.468  1.00  0.00     0.169 HD
BRANCH  16  19
ATOM     19  C   UNL A   1      32.162  22.002  25.592  1.00  0.00     0.128 C 
BRANCH  19  20
ATOM     20  C   UNL A   1      31.042  22.915  25.099  1.00  0.00     0.183 C 
ATOM     21  N   UNL A   1      30.571  26.089  23.062  1.00  0.00    -0.235 N 
ATOM     22  C   UNL A   1      30.798  25.277  24.033  1.00  0.00     0.319 C 
ATOM     23  H   UNL A   1      30.871  25.739  22.191  1.00  0.00     0.313 HD
ATOM     24  S   UNL A   1      31.481  23.723  23.538  1.00  0.00    -0.022 SA
ATOM     25  N   UNL A   1      30.675  25.289  25.392  1.00  0.00    -0.193 N 
ATOM     26  C   UNL A   1      30.678  24.055  26.027  1.00  0.00     0.324 C 
ATOM     27  C   UNL A   1      30.645  26.433  26.272  1.00  0.00     0.301 C 
ATOM     28  O   UNL A   1      30.371  23.896  27.205  1.00  0.00    -0.245 OA
BRANCH  21  29
ATOM     29  C   UNL A   1      29.993  27.356  22.965  1.00  0.00     0.125 A 
ATOM     30  C   UNL A   1      28.724  31.504  22.721  1.00  0.00     0.044 C 
ATOM     31  C   UNL A   1      29.104  30.049  22.667  1.00  0.00    -0.051 A 
ATOM     32  C   UNL A   1      30.376  29.674  22.234  1.00  0.00     0.008 A 
ATOM     33  C   UNL A   1      28.236  29.043  23.123  1.00  0.00     0.008 A 
ATOM     34  C   UNL A   1      30.806  28.349  22.391  1.00  0.00     0.052 A 
ATOM     35  C   UNL A   1      28.674  27.705  23.257  1.00  0.00     0.052 A 
ENDBRANCH  21  29
ENDBRANCH  19  20
ENDBRANCH  16  19
ENDBRANCH  10  15
ENDBRANCH   7   9
ENDBRANCH   6   7
ENDBRANCH   5   6
ENDBRANCH   4   5
ENDBRANCH   3   4
ENDBRANCH   2   3
ENDBRANCH   1   2
BRANCH   1  36
ATOM     36  O   UNL A   1      37.239  30.406  29.589  1.00  0.00    -0.377 OA
BRANCH  36  37
ATOM     37  C   UNL A   1      38.267  31.375  29.537  1.00  0.00     0.188 C 
BRANCH  37  38
ATOM     38  C   UNL A   1      38.385  32.294  30.711  1.00  0.00     0.188 C 
BRANCH  38  39
ATOM     39  O   UNL A   1      37.397  31.869  31.641  1.00  0.00    -0.376 OA
BRANCH  39  40
ATOM     40  C   UNL A   1      37.923  31.401  32.871  1.00  0.00     0.202 C 
BRANCH  40  41
ATOM     41  C   UNL A   1      39.371  31.853  33.100  1.00  0.00     0.261 C 
BRANCH  41  42
ATOM     42  O   UNL A   1      40.264  30.798  32.672  1.00  0.00    -0.460 OA
BRANCH  42  43
ATOM     43  C   UNL A   1      40.495  29.799  33.571  1.00  0.00     0.338 C 
ATOM     44  O   UNL A   1      40.134  29.807  34.735  1.00  0.00    -0.246 OA
BRANCH  43  45
ATOM     45  C   UNL A   1      41.501  28.837  33.017  1.00  0.00     0.060 A 
ATOM     46  C   UNL A   1      42.864  28.946  33.339  1.00  0.00     0.016 A 
ATOM     47  C   UNL A   1      41.136  28.047  31.939  1.00  0.00     0.016 A 
ATOM     48  C   UNL A   1      43.849  28.446  32.458  1.00  0.00     0.010 A 
ATOM     49  C   UNL A   1      42.109  27.653  31.041  1.00  0.00     0.010 A 
ATOM     50  C   UNL A   1      43.474  27.911  31.233  1.00  0.00    -0.014 A 
BRANCH  50  51
ATOM     51  C   UNL A   1      44.345  27.649  30.054  1.00  0.00     0.031 A 
ATOM     52  C   UNL A   1      44.669  26.233  29.732  1.00  0.00     0.074 A 
ATOM     53  C   UNL A   1      44.475  28.612  29.098  1.00  0.00     0.049 A 
ATOM     54  N   UNL A   1      45.281  25.842  28.672  1.00  0.00    -0.248 NA
ATOM     55  C   UNL A   1      44.272  25.103  30.566  1.00  0.00     0.031 C 
ATOM     56  C   UNL A   1      44.750  28.554  27.646  1.00  0.00     0.029 A 
ATOM     57  N   UNL A   1      44.405  29.986  29.288  1.00  0.00    -0.354 N 
ATOM     58  C   UNL A   1      45.012  24.497  28.475  1.00  0.00     0.074 A 
ATOM     59  C   UNL A   1      44.491  24.066  29.747  1.00  0.00     0.031 C 
ATOM     60  C   UNL A   1      45.099  29.769  27.179  1.00  0.00     0.029 A 
ATOM     61  C   UNL A   1      45.287  30.566  28.357  1.00  0.00     0.049 A 
ATOM     62  H   UNL A   1      43.848  30.461  29.947  1.00  0.00     0.167 HD
ATOM     63  C   UNL A   1      45.121  23.994  27.199  1.00  0.00     0.037 A 
ATOM     64  C   UNL A   1      46.428  31.111  28.849  1.00  0.00     0.037 A 
ATOM     65  C   UNL A   1      45.711  25.010  26.283  1.00  0.00     0.049 A 
ATOM     66  C   UNL A   1      47.564  30.246  28.300  1.00  0.00     0.074 A 
ATOM     67  C   UNL A   1      45.417  25.532  25.034  1.00  0.00     0.029 A 
ATOM     68  N   UNL A   1      46.753  25.809  26.762  1.00  0.00    -0.354 N 
ATOM     69  N   UNL A   1      47.415  28.985  27.936  1.00  0.00    -0.248 NA
ATOM     70  C   UNL A   1      48.852  30.768  27.864  1.00  0.00     0.031 C 
ATOM     71  C   UNL A   1      46.256  26.673  24.808  1.00  0.00     0.029 A 
ATOM     72  C   UNL A   1      47.092  26.828  25.905  1.00  0.00     0.049 A 
ATOM     73  H   UNL A   1      47.200  25.657  27.625  1.00  0.00     0.167 HD
ATOM     74  C   UNL A   1      48.387  28.634  27.031  1.00  0.00     0.074 A 
ATOM     75  C   UNL A   1      49.347  29.725  27.165  1.00  0.00     0.031 C 
ATOM     76  C   UNL A   1      48.322  27.570  26.154  1.00  0.00     0.037 A 
BRANCH  63  77
ATOM     77  C   UNL A   1      44.537  22.659  26.685  1.00  0.00     0.064 A 
ATOM     78  C   UNL A   1      45.230  21.885  25.717  1.00  0.00     0.173 A 
ATOM     79  C   UNL A   1      43.284  22.107  27.038  1.00  0.00     0.173 A 
ATOM     80  F   UNL A   1      46.461  22.217  25.308  1.00  0.00    -0.203 F 
ATOM     81  C   UNL A   1      44.703  20.720  25.134  1.00  0.00     0.198 A 
ATOM     82  C   UNL A   1      42.782  20.910  26.498  1.00  0.00     0.198 A 
ATOM     83  F   UNL A   1      42.460  22.700  27.901  1.00  0.00    -0.203 F 
ATOM     84  F   UNL A   1      45.398  20.076  24.186  1.00  0.00    -0.200 F 
ATOM     85  C   UNL A   1      43.482  20.224  25.533  1.00  0.00     0.200 A 
ATOM     86  F   UNL A   1      41.601  20.437  26.923  1.00  0.00    -0.200 F 
ATOM     87  F   UNL A   1      42.990  19.096  25.002  1.00  0.00    -0.200 F 
ENDBRANCH  63  77
BRANCH  64  88
ATOM     88  C   UNL A   1      46.024  31.813  30.140  1.00  0.00     0.064 A 
ATOM     89  C   UNL A   1      46.531  31.176  31.321  1.00  0.00     0.173 A 
ATOM     90  C   UNL A   1      45.713  33.159  30.317  1.00  0.00     0.173 A 
ATOM     91  F   UNL A   1      46.982  29.922  31.220  1.00  0.00    -0.203 F 
ATOM     92  C   UNL A   1      46.849  31.826  32.511  1.00  0.00     0.198 A 
ATOM     93  C   UNL A   1      45.989  33.815  31.548  1.00  0.00     0.198 A 
ATOM     94  F   UNL A   1      45.303  33.900  29.281  1.00  0.00    -0.203 F 
ATOM     95  F   UNL A   1      47.496  31.166  33.486  1.00  0.00    -0.200 F 
ATOM     96  C   UNL A   1      46.600  33.164  32.616  1.00  0.00     0.200 A 
ATOM     97  F   UNL A   1      45.802  35.140  31.648  1.00  0.00    -0.200 F 
ATOM     98  F   UNL A   1      47.017  33.836  33.699  1.00  0.00    -0.200 F 
ENDBRANCH  64  88
BRANCH  76  99
ATOM     99  C   UNL A   1      49.542  26.967  25.505  1.00  0.00     0.064 A 
ATOM    100  C   UNL A   1      49.981  27.274  24.224  1.00  0.00     0.173 A 
ATOM    101  C   UNL A   1      50.368  26.080  26.247  1.00  0.00     0.173 A 
ATOM    102  F   UNL A   1      49.164  27.861  23.338  1.00  0.00    -0.203 F 
ATOM    103  C   UNL A   1      51.281  26.965  23.824  1.00  0.00     0.198 A 
ATOM    104  C   UNL A   1      51.634  25.716  25.822  1.00  0.00     0.198 A 
ATOM    105  F   UNL A   1      50.001  25.556  27.423  1.00  0.00    -0.203 F 
ATOM    106  F   UNL A   1      51.732  27.420  22.648  1.00  0.00    -0.200 F 
ATOM    107  C   UNL A   1      52.118  26.222  24.641  1.00  0.00     0.200 A 
ATOM    108  F   UNL A   1      52.386  24.918  26.592  1.00  0.00    -0.200 F 
ATOM    109  F   UNL A   1      53.387  25.986  24.285  1.00  0.00    -0.200 F 
ENDBRANCH  76  99
ENDBRANCH  50  51
ENDBRANCH  43  45
ENDBRANCH  42  43
ENDBRANCH  41  42
ENDBRANCH  40  41
ENDBRANCH  39  40
ENDBRANCH  38  39
ENDBRANCH  37  38
ENDBRANCH  36  37
ENDBRANCH   1  36
TORSDOF 24
ENDMDL
MODEL 2
REMARK VINA RESULT:      -9.9      4.035     10.719
REMARK SMILES Cc1ccc(/[NH+]=C2/S[C@@H](CC(=O)Nc3ccc(C(=O)OCCOCCOCCOCCOC(=O)c4ccc(-c5c6nc(c(-c7c(F)c(F)c(F)c(F)c7F)c7ccc([nH]7)c(-c7c(F)c(F)c(F)c(F)c7F)c7nc(c(-c8c(F)c(F)c(F)c(F)c8F)c8ccc5[nH]8)C=C7)C=C6)cc4)cc3)C(=O)N2C)cc1
REMARK SMILES IDX 25 1 24 2 23 3 22 4 21 5 20 6 18 7 19 8 17 9 14 10 15 11
REMARK SMILES IDX 99 12 16 13 98 14 13 15 11 16 12 17 10 19 9 20 6 21 7 22
REMARK SMILES IDX 8 24 102 25 100 26 103 27 101 28 5 29 1 30 2 31 3 32 105 33
REMARK SMILES IDX 4 34 104 35 26 36 27 37 28 38 29 39 30 40 31 41 32 42 33 43
REMARK SMILES IDX 34 44 35 45 36 46 97 47 37 48 96 49 38 50 39 51 40 52 90 53
REMARK SMILES IDX 41 54 95 55 89 56 91 57 42 58 94 59 88 60 87 61 43 63 75 64
REMARK SMILES IDX 55 65 74 66 56 67 59 68 73 69 92 70 57 71 58 72 72 74 93 75
REMARK SMILES IDX 60 76 44 77 45 78 53 79 46 80 47 81 51 82 54 83 48 84 49 85
REMARK SMILES IDX 52 86 50 87 76 88 77 89 85 90 78 91 79 92 83 93 86 94 80 95
REMARK SMILES IDX 81 96 84 97 82 98 61 99 62 100 70 101 63 102 64 103 68 104
REMARK SMILES IDX 71 105 65 106 66 107 69 108 67 109
REMARK H PARENT 13 18 6 23 91 62 59 73
REMARK Flexibility Score: inf
ROOT
ATOM      1  C   UNL A   1      31.936  25.958  24.521  1.00  0.00     0.188 C 
ENDROOT
BRANCH   1   2
ATOM      2  C   UNL A   1      31.642  25.800  23.031  1.00  0.00     0.188 C 
BRANCH   2   3
ATOM      3  O   UNL A   1      31.538  24.454  22.559  1.00  0.00    -0.376 OA
BRANCH   3   4
ATOM      4  C   UNL A   1      32.766  23.739  22.585  1.00  0.00     0.202 C 
BRANCH   4   5
ATOM      5  C   UNL A   1      32.834  22.428  23.358  1.00  0.00     0.261 C 
BRANCH   5   6
ATOM      6  O   UNL A   1      34.127  22.172  23.873  1.00  0.00    -0.460 OA
BRANCH   6   7
ATOM      7  C   UNL A   1      34.325  22.543  25.144  1.00  0.00     0.338 C 
ATOM      8  O   UNL A   1      33.476  22.790  25.993  1.00  0.00    -0.246 OA
BRANCH   7   9
ATOM      9  C   UNL A   1      35.753  22.316  25.403  1.00  0.00     0.060 A 
ATOM     10  C   UNL A   1      38.507  21.845  25.565  1.00  0.00     0.041 A 
ATOM     11  C   UNL A   1      38.000  23.130  25.753  1.00  0.00     0.027 A 
ATOM     12  C   UNL A   1      37.623  20.824  25.180  1.00  0.00     0.027 A 
ATOM     13  C   UNL A   1      36.627  23.364  25.703  1.00  0.00     0.018 A 
ATOM     14  C   UNL A   1      36.252  21.050  25.113  1.00  0.00     0.018 A 
BRANCH  10  15
ATOM     15  N   UNL A   1      39.840  21.452  25.757  1.00  0.00    -0.326 N 
ATOM     16  C   UNL A   1      40.795  21.712  26.690  1.00  0.00     0.226 C 
ATOM     17  O   UNL A   1      41.874  21.116  26.583  1.00  0.00    -0.275 OA
ATOM     18  H   UNL A   1      40.158  20.844  25.051  1.00  0.00     0.169 HD
BRANCH  16  19
ATOM     19  C   UNL A   1      40.605  22.672  27.837  1.00  0.00     0.128 C 
BRANCH  19  20
ATOM     20  C   UNL A   1      41.647  23.788  27.806  1.00  0.00     0.183 C 
ATOM     21  N   UNL A   1      44.014  25.477  25.357  1.00  0.00    -0.235 N 
ATOM     22  C   UNL A   1      43.509  24.651  26.204  1.00  0.00     0.319 C 
ATOM     23  H   UNL A   1      43.336  25.889  24.774  1.00  0.00     0.313 HD
ATOM     24  S   UNL A   1      41.744  24.561  26.169  1.00  0.00    -0.022 SA
ATOM     25  N   UNL A   1      43.975  23.776  27.143  1.00  0.00    -0.193 N 
ATOM     26  C   UNL A   1      43.068  23.358  28.106  1.00  0.00     0.324 C 
ATOM     27  C   UNL A   1      45.271  23.143  27.204  1.00  0.00     0.301 C 
ATOM     28  O   UNL A   1      43.388  22.746  29.121  1.00  0.00    -0.245 OA
BRANCH  21  29
ATOM     29  C   UNL A   1      45.309  25.919  25.080  1.00  0.00     0.125 A 
ATOM     30  C   UNL A   1      49.517  26.847  24.520  1.00  0.00     0.044 C 
ATOM     31  C   UNL A   1      48.049  26.515  24.563  1.00  0.00    -0.051 A 
ATOM     32  C   UNL A   1      47.636  25.194  24.740  1.00  0.00     0.008 A 
ATOM     33  C   UNL A   1      47.065  27.517  24.512  1.00  0.00     0.008 A 
ATOM     34  C   UNL A   1      46.287  24.912  25.000  1.00  0.00     0.052 A 
ATOM     35  C   UNL A   1      45.704  27.217  24.755  1.00  0.00     0.052 A 
ENDBRANCH  21  29
ENDBRANCH  19  20
ENDBRANCH  16  19
ENDBRANCH  10  15
ENDBRANCH   7   9
ENDBRANCH   6   7
ENDBRANCH   5   6
ENDBRANCH   4   5
ENDBRANCH   3   4
ENDBRANCH   2   3
ENDBRANCH   1   2
BRANCH   1  36
ATOM     36  O   UNL A   1      31.466  27.185  25.086  1.00  0.00    -0.377 OA
BRANCH  36  37
ATOM     37  C   UNL A   1      30.936  28.117  24.165  1.00  0.00     0.188 C 
BRANCH  37  38
ATOM     38  C   UNL A   1      31.002  29.560  24.556  1.00  0.00     0.188 C 
BRANCH  38  39
ATOM     39  O   UNL A   1      32.142  29.686  25.396  1.00  0.00    -0.376 OA
BRANCH  39  40
ATOM     40  C   UNL A   1      31.901  30.396  26.598  1.00  0.00     0.202 C 
BRANCH  40  41
ATOM     41  C   UNL A   1      32.590  31.766  26.620  1.00  0.00     0.261 C 
BRANCH  41  42
ATOM     42  O   UNL A   1      33.412  31.859  27.807  1.00  0.00    -0.460 OA
BRANCH  42  43
ATOM     43  C   UNL A   1      34.259  32.925  27.874  1.00  0.00     0.338 C 
ATOM     44  O   UNL A   1      33.955  34.078  27.621  1.00  0.00    -0.246 OA
BRANCH  43  45
ATOM     45  C   UNL A   1      35.672  32.446  28.010  1.00  0.00     0.060 A 
ATOM     46  C   UNL A   1      35.970  31.075  28.080  1.00  0.00     0.016 A 
ATOM     47  C   UNL A   1      36.644  33.356  28.392  1.00  0.00     0.016 A 
ATOM     48  C   UNL A   1      37.143  30.630  28.729  1.00  0.00     0.010 A 
ATOM     49  C   UNL A   1      37.735  32.905  29.110  1.00  0.00     0.010 A 
ATOM     50  C   UNL A   1      37.970  31.546  29.366  1.00  0.00    -0.014 A 
BRANCH  50  51
ATOM     51  C   UNL A   1      39.038  31.261  30.365  1.00  0.00     0.031 A 
ATOM     52  C   UNL A   1      40.117  30.314  29.974  1.00  0.00     0.074 A 
ATOM     53  C   UNL A   1      39.237  32.135  31.391  1.00  0.00     0.049 A 
ATOM     54  N   UNL A   1      41.176  30.081  30.665  1.00  0.00    -0.248 NA
ATOM     55  C   UNL A   1      40.126  29.572  28.718  1.00  0.00     0.031 C 
ATOM     56  C   UNL A   1      40.431  32.493  32.187  1.00  0.00     0.029 A 
ATOM     57  N   UNL A   1      38.278  32.935  31.999  1.00  0.00    -0.354 N 
ATOM     58  C   UNL A   1      42.138  29.535  29.830  1.00  0.00     0.074 A 
ATOM     59  C   UNL A   1      41.387  29.125  28.671  1.00  0.00     0.031 C 
ATOM     60  C   UNL A   1      40.077  33.172  33.296  1.00  0.00     0.029 A 
ATOM     61  C   UNL A   1      38.649  33.050  33.352  1.00  0.00     0.049 A 
ATOM     62  H   UNL A   1      37.491  33.340  31.568  1.00  0.00     0.167 HD
ATOM     63  C   UNL A   1      43.459  29.670  30.190  1.00  0.00     0.037 A 
ATOM     64  C   UNL A   1      37.881  32.394  34.258  1.00  0.00     0.037 A 
ATOM     65  C   UNL A   1      43.575  30.243  31.561  1.00  0.00     0.049 A 
ATOM     66  C   UNL A   1      38.782  31.309  34.850  1.00  0.00     0.074 A 
ATOM     67  C   UNL A   1      44.289  31.262  32.170  1.00  0.00     0.029 A 
ATOM     68  N   UNL A   1      42.672  29.813  32.538  1.00  0.00    -0.354 N 
ATOM     69  N   UNL A   1      39.826  30.799  34.219  1.00  0.00    -0.248 NA
ATOM     70  C   UNL A   1      38.771  30.910  36.250  1.00  0.00     0.031 C 
ATOM     71  C   UNL A   1      43.762  31.461  33.488  1.00  0.00     0.029 A 
ATOM     72  C   UNL A   1      42.749  30.538  33.702  1.00  0.00     0.049 A 
ATOM     73  H   UNL A   1      42.045  29.066  32.404  1.00  0.00     0.167 HD
ATOM     74  C   UNL A   1      40.720  30.280  35.125  1.00  0.00     0.074 A 
ATOM     75  C   UNL A   1      39.927  30.221  36.348  1.00  0.00     0.031 C 
ATOM     76  C   UNL A   1      42.057  30.036  34.883  1.00  0.00     0.037 A 
BRANCH  63  77
ATOM     77  C   UNL A   1      44.686  29.475  29.271  1.00  0.00     0.064 A 
ATOM     78  C   UNL A   1      45.763  28.638  29.661  1.00  0.00     0.173 A 
ATOM     79  C   UNL A   1      44.909  30.120  28.032  1.00  0.00     0.173 A 
ATOM     80  F   UNL A   1      45.704  27.896  30.774  1.00  0.00    -0.203 F 
ATOM     81  C   UNL A   1      46.949  28.503  28.919  1.00  0.00     0.198 A 
ATOM     82  C   UNL A   1      46.071  29.941  27.261  1.00  0.00     0.198 A 
ATOM     83  F   UNL A   1      44.037  30.979  27.507  1.00  0.00    -0.203 F 
ATOM     84  F   UNL A   1      47.944  27.735  29.385  1.00  0.00    -0.200 F 
ATOM     85  C   UNL A   1      47.100  29.146  27.711  1.00  0.00     0.200 A 
ATOM     86  F   UNL A   1      46.180  30.560  26.076  1.00  0.00    -0.200 F 
ATOM     87  F   UNL A   1      48.216  28.997  26.985  1.00  0.00    -0.200 F 
ENDBRANCH  63  77
BRANCH  64  88
ATOM     88  C   UNL A   1      36.443  32.577  33.786  1.00  0.00     0.064 A 
ATOM     89  C   UNL A   1      35.878  33.843  34.150  1.00  0.00     0.173 A 
ATOM     90  C   UNL A   1      35.822  31.976  32.695  1.00  0.00     0.173 A 
ATOM     91  F   UNL A   1      36.487  34.559  35.100  1.00  0.00    -0.203 F 
ATOM     92  C   UNL A   1      34.907  34.528  33.425  1.00  0.00     0.198 A 
ATOM     93  C   UNL A   1      34.793  32.650  31.981  1.00  0.00     0.198 A 
ATOM     94  F   UNL A   1      36.292  30.828  32.195  1.00  0.00    -0.203 F 
ATOM     95  F   UNL A   1      34.588  35.792  33.750  1.00  0.00    -0.200 F 
ATOM     96  C   UNL A   1      34.378  33.936  32.313  1.00  0.00     0.200 A 
ATOM     97  F   UNL A   1      34.304  32.107  30.855  1.00  0.00    -0.200 F 
ATOM     98  F   UNL A   1      33.540  34.627  31.526  1.00  0.00    -0.200 F 
ENDBRANCH  64  88
BRANCH  76  99
ATOM     99  C   UNL A   1      42.882  29.092  35.720  1.00  0.00     0.064 A 
ATOM    100  C   UNL A   1      42.833  27.708  35.621  1.00  0.00     0.173 A 
ATOM    101  C   UNL A   1      43.842  29.613  36.629  1.00  0.00     0.173 A 
ATOM    102  F   UNL A   1      41.799  27.097  35.024  1.00  0.00    -0.203 F 
ATOM    103  C   UNL A   1      43.851  26.919  36.153  1.00  0.00     0.198 A 
ATOM    104  C   UNL A   1      44.815  28.822  37.214  1.00  0.00     0.198 A 
ATOM    105  F   UNL A   1      43.899  30.908  36.965  1.00  0.00    -0.203 F 
ATOM    106  F   UNL A   1      43.866  25.604  35.898  1.00  0.00    -0.200 F 
ATOM    107  C   UNL A   1      44.863  27.483  36.914  1.00  0.00     0.200 A 
ATOM    108  F   UNL A   1      45.726  29.382  38.022  1.00  0.00    -0.200 F 
ATOM    109  F   UNL A   1      45.877  26.735  37.366  1.00  0.00    -0.200 F 
ENDBRANCH  76  99
ENDBRANCH  50  51
ENDBRANCH  43  45
ENDBRANCH  42  43
ENDBRANCH  41  42
ENDBRANCH  40  41
ENDBRANCH  39  40
ENDBRANCH  38  39
ENDBRANCH  37  38
ENDBRANCH  36  37
ENDBRANCH   1  36
TORSDOF 24
ENDMDL
MODEL 3
REMARK VINA RESULT:      -9.9      3.897      9.996
REMARK SMILES Cc1ccc(/[NH+]=C2/S[C@@H](CC(=O)Nc3ccc(C(=O)OCCOCCOCCOCCOC(=O)c4ccc(-c5c6nc(c(-c7c(F)c(F)c(F)c(F)c7F)c7ccc([nH]7)c(-c7c(F)c(F)c(F)c(F)c7F)c7nc(c(-c8c(F)c(F)c(F)c(F)c8F)c8ccc5[nH]8)C=C7)C=C6)cc4)cc3)C(=O)N2C)cc1
REMARK SMILES IDX 25 1 24 2 23 3 22 4 21 5 20 6 18 7 19 8 17 9 14 10 15 11
REMARK SMILES IDX 99 12 16 13 98 14 13 15 11 16 12 17 10 19 9 20 6 21 7 22
REMARK SMILES IDX 8 24 102 25 100 26 103 27 101 28 5 29 1 30 2 31 3 32 105 33
REMARK SMILES IDX 4 34 104 35 26 36 27 37 28 38 29 39 30 40 31 41 32 42 33 43
REMARK SMILES IDX 34 44 35 45 36 46 97 47 37 48 96 49 38 50 39 51 40 52 90 53
REMARK SMILES IDX 41 54 95 55 89 56 91 57 42 58 94 59 88 60 87 61 43 63 75 64
REMARK SMILES IDX 55 65 74 66 56 67 59 68 73 69 92 70 57 71 58 72 72 74 93 75
REMARK SMILES IDX 60 76 44 77 45 78 53 79 46 80 47 81 51 82 54 83 48 84 49 85
REMARK SMILES IDX 52 86 50 87 76 88 77 89 85 90 78 91 79 92 83 93 86 94 80 95
REMARK SMILES IDX 81 96 84 97 82 98 61 99 62 100 70 101 63 102 64 103 68 104
REMARK SMILES IDX 71 105 65 106 66 107 69 108 67 109
REMARK H PARENT 13 18 6 23 91 62 59 73
REMARK Flexibility Score: inf
ROOT
ATOM      1  C   UNL A   1      40.411  21.510  27.119  1.00  0.00     0.188 C 
ENDROOT
BRANCH   1   2
ATOM      2  C   UNL A   1      39.203  22.213  26.506  1.00  0.00     0.188 C 
BRANCH   2   3
ATOM      3  O   UNL A   1      38.750  21.690  25.255  1.00  0.00    -0.376 OA
BRANCH   3   4
ATOM      4  C   UNL A   1      37.502  21.014  25.332  1.00  0.00     0.202 C 
BRANCH   4   5
ATOM      5  C   UNL A   1      36.229  21.838  25.472  1.00  0.00     0.261 C 
BRANCH   5   6
ATOM      6  O   UNL A   1      35.507  21.927  24.259  1.00  0.00    -0.460 OA
BRANCH   6   7
ATOM      7  C   UNL A   1      34.243  21.490  24.306  1.00  0.00     0.338 C 
ATOM      8  O   UNL A   1      33.828  20.451  24.808  1.00  0.00    -0.246 OA
BRANCH   7   9
ATOM      9  C   UNL A   1      33.416  22.632  23.895  1.00  0.00     0.060 A 
ATOM     10  C   UNL A   1      31.852  24.679  22.803  1.00  0.00     0.041 A 
ATOM     11  C   UNL A   1      31.268  23.697  23.601  1.00  0.00     0.027 A 
ATOM     12  C   UNL A   1      33.209  24.553  22.466  1.00  0.00     0.027 A 
ATOM     13  C   UNL A   1      32.047  22.692  24.172  1.00  0.00     0.018 A 
ATOM     14  C   UNL A   1      33.993  23.545  23.019  1.00  0.00     0.018 A 
BRANCH  10  15
ATOM     15  N   UNL A   1      31.212  25.829  22.315  1.00  0.00    -0.326 N 
ATOM     16  C   UNL A   1      30.874  27.038  22.837  1.00  0.00     0.226 C 
ATOM     17  O   UNL A   1      30.367  27.868  22.074  1.00  0.00    -0.275 OA
ATOM     18  H   UNL A   1      30.945  25.738  21.371  1.00  0.00     0.169 HD
BRANCH  16  19
ATOM     19  C   UNL A   1      31.093  27.415  24.281  1.00  0.00     0.128 C 
BRANCH  19  20
ATOM     20  C   UNL A   1      32.262  28.385  24.431  1.00  0.00     0.183 C 
ATOM     21  N   UNL A   1      35.165  29.088  26.782  1.00  0.00    -0.235 N 
ATOM     22  C   UNL A   1      33.993  29.063  26.254  1.00  0.00     0.319 C 
ATOM     23  H   UNL A   1      35.676  28.262  26.619  1.00  0.00     0.313 HD
ATOM     24  S   UNL A   1      33.657  27.616  25.294  1.00  0.00    -0.022 SA
ATOM     25  N   UNL A   1      32.886  29.862  26.244  1.00  0.00    -0.193 N 
ATOM     26  C   UNL A   1      31.968  29.639  25.228  1.00  0.00     0.324 C 
ATOM     27  C   UNL A   1      32.493  30.849  27.222  1.00  0.00     0.301 C 
ATOM     28  O   UNL A   1      31.042  30.402  24.969  1.00  0.00    -0.245 OA
BRANCH  21  29
ATOM     29  C   UNL A   1      35.875  30.024  27.536  1.00  0.00     0.125 A 
ATOM     30  C   UNL A   1      38.329  32.492  30.137  1.00  0.00     0.044 C 
ATOM     31  C   UNL A   1      37.548  31.705  29.119  1.00  0.00    -0.051 A 
ATOM     32  C   UNL A   1      37.989  30.441  28.724  1.00  0.00     0.008 A 
ATOM     33  C   UNL A   1      36.327  32.172  28.605  1.00  0.00     0.008 A 
ATOM     34  C   UNL A   1      37.156  29.620  27.951  1.00  0.00     0.052 A 
ATOM     35  C   UNL A   1      35.504  31.342  27.809  1.00  0.00     0.052 A 
ENDBRANCH  21  29
ENDBRANCH  19  20
ENDBRANCH  16  19
ENDBRANCH  10  15
ENDBRANCH   7   9
ENDBRANCH   6   7
ENDBRANCH   5   6
ENDBRANCH   4   5
ENDBRANCH   3   4
ENDBRANCH   2   3
ENDBRANCH   1   2
BRANCH   1  36
ATOM     36  O   UNL A   1      41.073  20.600  26.237  1.00  0.00    -0.377 OA
BRANCH  36  37
ATOM     37  C   UNL A   1      42.453  20.835  26.041  1.00  0.00     0.188 C 
BRANCH  37  38
ATOM     38  C   UNL A   1      42.882  22.264  25.927  1.00  0.00     0.188 C 
BRANCH  38  39
ATOM     39  O   UNL A   1      43.262  22.452  24.570  1.00  0.00    -0.376 OA
BRANCH  39  40
ATOM     40  C   UNL A   1      44.514  23.093  24.402  1.00  0.00     0.202 C 
BRANCH  40  41
ATOM     41  C   UNL A   1      45.677  22.263  24.960  1.00  0.00     0.261 C 
BRANCH  41  42
ATOM     42  O   UNL A   1      46.675  23.160  25.502  1.00  0.00    -0.460 OA
BRANCH  42  43
ATOM     43  C   UNL A   1      47.040  24.207  24.709  1.00  0.00     0.338 C 
ATOM     44  O   UNL A   1      47.188  24.154  23.501  1.00  0.00    -0.246 OA
BRANCH  43  45
ATOM     45  C   UNL A   1      47.520  25.345  25.558  1.00  0.00     0.060 A 
ATOM     46  C   UNL A   1      47.333  25.342  26.950  1.00  0.00     0.016 A 
ATOM     47  C   UNL A   1      47.852  26.538  24.937  1.00  0.00     0.016 A 
ATOM     48  C   UNL A   1      47.267  26.558  27.666  1.00  0.00     0.010 A 
ATOM     49  C   UNL A   1      47.686  27.721  25.631  1.00  0.00     0.010 A 
ATOM     50  C   UNL A   1      47.312  27.766  26.982  1.00  0.00    -0.014 A 
BRANCH  50  51
ATOM     51  C   UNL A   1      46.929  29.111  27.493  1.00  0.00     0.031 A 
ATOM     52  C   UNL A   1      47.971  29.909  28.195  1.00  0.00     0.074 A 
ATOM     53  C   UNL A   1      45.831  29.731  26.975  1.00  0.00     0.049 A 
ATOM     54  N   UNL A   1      47.837  31.134  28.560  1.00  0.00    -0.248 NA
ATOM     55  C   UNL A   1      49.306  29.404  28.501  1.00  0.00     0.031 C 
ATOM     56  C   UNL A   1      45.469  31.154  26.805  1.00  0.00     0.029 A 
ATOM     57  N   UNL A   1      44.691  29.117  26.474  1.00  0.00    -0.354 N 
ATOM     58  C   UNL A   1      49.096  31.680  28.750  1.00  0.00     0.074 A 
ATOM     59  C   UNL A   1      49.957  30.528  28.825  1.00  0.00     0.031 C 
ATOM     60  C   UNL A   1      44.155  31.282  26.535  1.00  0.00     0.029 A 
ATOM     61  C   UNL A   1      43.613  29.974  26.765  1.00  0.00     0.049 A 
ATOM     62  H   UNL A   1      44.645  28.251  26.007  1.00  0.00     0.167 HD
ATOM     63  C   UNL A   1      49.232  33.046  28.646  1.00  0.00     0.037 A 
ATOM     64  C   UNL A   1      42.743  29.564  27.723  1.00  0.00     0.037 A 
ATOM     65  C   UNL A   1      47.898  33.699  28.526  1.00  0.00     0.049 A 
ATOM     66  C   UNL A   1      42.906  30.557  28.874  1.00  0.00     0.074 A 
ATOM     67  C   UNL A   1      47.311  34.647  27.704  1.00  0.00     0.029 A 
ATOM     68  N   UNL A   1      46.846  33.204  29.301  1.00  0.00    -0.354 N 
ATOM     69  N   UNL A   1      44.006  31.257  29.089  1.00  0.00    -0.248 NA
ATOM     70  C   UNL A   1      41.806  31.047  29.693  1.00  0.00     0.031 C 
ATOM     71  C   UNL A   1      45.901  34.665  27.966  1.00  0.00     0.029 A 
ATOM     72  C   UNL A   1      45.629  33.753  28.976  1.00  0.00     0.049 A 
ATOM     73  H   UNL A   1      46.964  32.530  30.009  1.00  0.00     0.167 HD
ATOM     74  C   UNL A   1      43.714  32.393  29.805  1.00  0.00     0.074 A 
ATOM     75  C   UNL A   1      42.369  32.114  30.298  1.00  0.00     0.031 C 
ATOM     76  C   UNL A   1      44.500  33.526  29.869  1.00  0.00     0.037 A 
BRANCH  63  77
ATOM     77  C   UNL A   1      50.553  33.825  28.458  1.00  0.00     0.064 A 
ATOM     78  C   UNL A   1      51.429  34.048  29.552  1.00  0.00     0.173 A 
ATOM     79  C   UNL A   1      50.997  34.437  27.263  1.00  0.00     0.173 A 
ATOM     80  F   UNL A   1      51.208  33.492  30.750  1.00  0.00    -0.203 F 
ATOM     81  C   UNL A   1      52.590  34.837  29.469  1.00  0.00     0.198 A 
ATOM     82  C   UNL A   1      52.187  35.178  27.165  1.00  0.00     0.198 A 
ATOM     83  F   UNL A   1      50.298  34.381  26.130  1.00  0.00    -0.203 F 
ATOM     84  F   UNL A   1      53.335  35.045  30.563  1.00  0.00    -0.200 F 
ATOM     85  C   UNL A   1      52.976  35.394  28.271  1.00  0.00     0.200 A 
ATOM     86  F   UNL A   1      52.553  35.689  25.979  1.00  0.00    -0.200 F 
ATOM     87  F   UNL A   1      54.098  36.122  28.179  1.00  0.00    -0.200 F 
ENDBRANCH  63  77
BRANCH  64  88
ATOM     88  C   UNL A   1      42.561  28.067  27.499  1.00  0.00     0.064 A 
ATOM     89  C   UNL A   1      43.172  27.258  28.512  1.00  0.00     0.173 A 
ATOM     90  C   UNL A   1      41.532  27.428  26.813  1.00  0.00     0.173 A 
ATOM     91  F   UNL A   1      44.079  27.824  29.314  1.00  0.00    -0.203 F 
ATOM     92  C   UNL A   1      42.720  26.006  28.922  1.00  0.00     0.198 A 
ATOM     93  C   UNL A   1      41.100  26.128  27.194  1.00  0.00     0.198 A 
ATOM     94  F   UNL A   1      40.820  28.087  25.892  1.00  0.00    -0.203 F 
ATOM     95  F   UNL A   1      43.250  25.421  30.009  1.00  0.00    -0.200 F 
ATOM     96  C   UNL A   1      41.657  25.447  28.274  1.00  0.00     0.200 A 
ATOM     97  F   UNL A   1      40.021  25.589  26.605  1.00  0.00    -0.200 F 
ATOM     98  F   UNL A   1      41.121  24.306  28.732  1.00  0.00    -0.200 F 
ENDBRANCH  64  88
BRANCH  76  99
ATOM     99  C   UNL A   1      44.375  34.548  30.970  1.00  0.00     0.064 A 
ATOM    100  C   UNL A   1      44.850  34.370  32.263  1.00  0.00     0.173 A 
ATOM    101  C   UNL A   1      43.811  35.821  30.688  1.00  0.00     0.173 A 
ATOM    102  F   UNL A   1      45.140  33.146  32.727  1.00  0.00    -0.203 F 
ATOM    103  C   UNL A   1      45.022  35.460  33.115  1.00  0.00     0.198 A 
ATOM    104  C   UNL A   1      43.920  36.890  31.559  1.00  0.00     0.198 A 
ATOM    105  F   UNL A   1      43.161  36.093  29.549  1.00  0.00    -0.203 F 
ATOM    106  F   UNL A   1      45.636  35.284  34.292  1.00  0.00    -0.200 F 
ATOM    107  C   UNL A   1      44.594  36.725  32.745  1.00  0.00     0.200 A 
ATOM    108  F   UNL A   1      43.412  38.081  31.214  1.00  0.00    -0.200 F 
ATOM    109  F   UNL A   1      44.822  37.782  33.534  1.00  0.00    -0.200 F 
ENDBRANCH  76  99
ENDBRANCH  50  51
ENDBRANCH  43  45
ENDBRANCH  42  43
ENDBRANCH  41  42
ENDBRANCH  40  41
ENDBRANCH  39  40
ENDBRANCH  38  39
ENDBRANCH  37  38
ENDBRANCH  36  37
ENDBRANCH   1  36
TORSDOF 24
ENDMDL
