MODEL 1
REMARK VINA RESULT:     -10.4      0.000      0.000
REMARK SMILES CCSc1cccc(-c2ccc([C@@H](C)C(=O)OCCOCCOCCOCCOC(=O)c3ccc(-c4c5nc(c(-c6c(F)c(F)c(F)c(F)c6F)c6ccc([nH]6)c(-c6c(F)c(F)c(F)c(F)c6F)c6nc(c(-c7c(F)c(F)c(F)c(F)c7F)c7ccc4[nH]7)C=C6)C=C5)cc3)cc2)c1
REMARK SMILES IDX 22 1 21 2 20 3 19 4 18 5 17 6 15 7 16 8 13 9 14 10 12 11
REMARK SMILES IDX 9 12 10 13 96 14 11 15 95 16 8 17 4 18 5 19 97 20 6 21 7 22
REMARK SMILES IDX 3 23 2 24 1 25 23 26 24 27 25 28 26 29 27 30 28 31 29 32
REMARK SMILES IDX 30 33 31 34 32 35 33 36 94 37 34 38 93 39 35 40 36 41 37 42
REMARK SMILES IDX 87 43 38 44 92 45 86 46 88 47 39 48 91 49 85 50 84 51 40 53
REMARK SMILES IDX 72 54 52 55 71 56 53 57 56 58 70 59 89 60 54 61 55 62 69 64
REMARK SMILES IDX 90 65 57 66 41 67 42 68 50 69 43 70 44 71 48 72 51 73 45 74
REMARK SMILES IDX 46 75 49 76 47 77 73 78 74 79 82 80 75 81 76 82 80 83 83 84
REMARK SMILES IDX 77 85 78 86 81 87 79 88 58 89 59 90 67 91 60 92 61 93 65 94
REMARK SMILES IDX 68 95 62 96 63 97 66 98 64 99
REMARK H PARENT 88 52 56 63
REMARK Flexibility Score: inf
ROOT
ATOM      1  C   UNL A   1      33.125  26.983  25.977  1.00  0.00     0.188 C 
ENDROOT
BRANCH   1   2
ATOM      2  C   UNL A   1      33.576  26.086  24.817  1.00  0.00     0.188 C 
BRANCH   2   3
ATOM      3  O   UNL A   1      34.748  25.293  24.925  1.00  0.00    -0.376 OA
BRANCH   3   4
ATOM      4  C   UNL A   1      34.808  24.201  25.831  1.00  0.00     0.202 C 
BRANCH   4   5
ATOM      5  C   UNL A   1      35.302  22.806  25.398  1.00  0.00     0.261 C 
BRANCH   5   6
ATOM      6  O   UNL A   1      34.424  21.688  25.640  1.00  0.00    -0.463 OA
BRANCH   6   7
ATOM      7  C   UNL A   1      33.231  21.973  26.213  1.00  0.00     0.313 C 
ATOM      8  O   UNL A   1      33.106  22.234  27.409  1.00  0.00    -0.252 OA
BRANCH   7   9
ATOM      9  C   UNL A   1      32.011  21.924  25.294  1.00  0.00     0.126 C 
ATOM     10  C   UNL A   1      32.364  21.065  24.083  1.00  0.00     0.025 C 
BRANCH   9  11
ATOM     11  C   UNL A   1      31.277  23.198  24.871  1.00  0.00    -0.034 A 
ATOM     12  C   UNL A   1      29.858  25.602  24.203  1.00  0.00    -0.018 A 
ATOM     13  C   UNL A   1      30.415  24.768  23.215  1.00  0.00     0.009 A 
ATOM     14  C   UNL A   1      30.042  25.224  25.537  1.00  0.00     0.009 A 
ATOM     15  C   UNL A   1      31.106  23.585  23.538  1.00  0.00     0.005 A 
ATOM     16  C   UNL A   1      30.724  24.038  25.864  1.00  0.00     0.005 A 
BRANCH  12  17
ATOM     17  C   UNL A   1      29.014  26.759  23.834  1.00  0.00    -0.017 A 
ATOM     18  C   UNL A   1      28.672  29.014  22.907  1.00  0.00     0.008 A 
ATOM     19  C   UNL A   1      27.305  28.902  23.170  1.00  0.00     0.015 A 
ATOM     20  C   UNL A   1      29.518  27.935  23.243  1.00  0.00     0.023 A 
ATOM     21  C   UNL A   1      26.789  27.755  23.765  1.00  0.00     0.002 A 
ATOM     22  C   UNL A   1      27.634  26.698  24.091  1.00  0.00     0.009 A 
BRANCH  18  23
ATOM     23  S   UNL A   1      29.359  30.430  22.051  1.00  0.00    -0.126 SA
BRANCH  23  24
ATOM     24  C   UNL A   1      27.956  31.614  21.941  1.00  0.00     0.071 C 
ATOM     25  C   UNL A   1      27.999  32.505  20.706  1.00  0.00     0.016 C 
ENDBRANCH  23  24
ENDBRANCH  18  23
ENDBRANCH  12  17
ENDBRANCH   9  11
ENDBRANCH   7   9
ENDBRANCH   6   7
ENDBRANCH   5   6
ENDBRANCH   4   5
ENDBRANCH   3   4
ENDBRANCH   2   3
ENDBRANCH   1   2
BRANCH   1  26
ATOM     26  O   UNL A   1      34.090  27.916  26.418  1.00  0.00    -0.377 OA
BRANCH  26  27
ATOM     27  C   UNL A   1      33.954  29.248  25.950  1.00  0.00     0.188 C 
BRANCH  27  28
ATOM     28  C   UNL A   1      32.527  29.793  25.764  1.00  0.00     0.188 C 
BRANCH  28  29
ATOM     29  O   UNL A   1      32.097  30.654  26.810  1.00  0.00    -0.376 OA
BRANCH  29  30
ATOM     30  C   UNL A   1      33.078  31.329  27.586  1.00  0.00     0.202 C 
BRANCH  30  31
ATOM     31  C   UNL A   1      33.290  32.835  27.353  1.00  0.00     0.261 C 
BRANCH  31  32
ATOM     32  O   UNL A   1      32.446  33.741  28.083  1.00  0.00    -0.460 OA
BRANCH  32  33
ATOM     33  C   UNL A   1      32.999  34.812  28.685  1.00  0.00     0.338 C 
ATOM     34  O   UNL A   1      32.537  35.938  28.760  1.00  0.00    -0.246 OA
BRANCH  33  35
ATOM     35  C   UNL A   1      34.182  34.335  29.436  1.00  0.00     0.060 A 
ATOM     36  C   UNL A   1      35.464  34.626  28.948  1.00  0.00     0.016 A 
ATOM     37  C   UNL A   1      34.031  33.637  30.635  1.00  0.00     0.016 A 
ATOM     38  C   UNL A   1      36.597  34.216  29.655  1.00  0.00     0.010 A 
ATOM     39  C   UNL A   1      35.165  33.200  31.327  1.00  0.00     0.010 A 
ATOM     40  C   UNL A   1      36.455  33.472  30.834  1.00  0.00    -0.014 A 
BRANCH  40  41
ATOM     41  C   UNL A   1      37.638  32.849  31.477  1.00  0.00     0.031 A 
ATOM     42  C   UNL A   1      38.299  31.684  30.796  1.00  0.00     0.074 A 
ATOM     43  C   UNL A   1      38.110  33.295  32.656  1.00  0.00     0.049 A 
ATOM     44  N   UNL A   1      39.263  30.908  31.219  1.00  0.00    -0.248 NA
ATOM     45  C   UNL A   1      37.800  31.350  29.453  1.00  0.00     0.031 C 
ATOM     46  C   UNL A   1      37.594  34.446  33.391  1.00  0.00     0.029 A 
ATOM     47  N   UNL A   1      39.123  32.813  33.449  1.00  0.00    -0.354 N 
ATOM     48  C   UNL A   1      39.476  29.986  30.202  1.00  0.00     0.074 A 
ATOM     49  C   UNL A   1      38.530  30.287  29.151  1.00  0.00     0.031 C 
ATOM     50  C   UNL A   1      38.276  34.567  34.545  1.00  0.00     0.029 A 
ATOM     51  C   UNL A   1      39.244  33.476  34.647  1.00  0.00     0.049 A 
ATOM     52  H   UNL A   1      39.705  32.065  33.186  1.00  0.00     0.167 HD
ATOM     53  C   UNL A   1      40.384  28.982  30.152  1.00  0.00     0.037 A 
ATOM     54  C   UNL A   1      40.019  33.205  35.717  1.00  0.00     0.037 A 
ATOM     55  C   UNL A   1      41.320  28.682  31.202  1.00  0.00     0.049 A 
ATOM     56  C   UNL A   1      40.950  32.017  35.678  1.00  0.00     0.074 A 
ATOM     57  C   UNL A   1      42.297  27.702  31.233  1.00  0.00     0.029 A 
ATOM     58  N   UNL A   1      41.386  29.352  32.416  1.00  0.00    -0.354 N 
ATOM     59  N   UNL A   1      41.171  31.168  34.703  1.00  0.00    -0.248 NA
ATOM     60  C   UNL A   1      41.735  31.746  36.891  1.00  0.00     0.031 C 
ATOM     61  C   UNL A   1      42.906  27.733  32.491  1.00  0.00     0.029 A 
ATOM     62  C   UNL A   1      42.357  28.776  33.219  1.00  0.00     0.049 A 
ATOM     63  H   UNL A   1      40.827  30.122  32.668  1.00  0.00     0.167 HD
ATOM     64  C   UNL A   1      42.132  30.282  35.175  1.00  0.00     0.074 A 
ATOM     65  C   UNL A   1      42.468  30.707  36.517  1.00  0.00     0.031 C 
ATOM     66  C   UNL A   1      42.685  29.211  34.554  1.00  0.00     0.037 A 
BRANCH  53  67
ATOM     67  C   UNL A   1      40.382  28.103  28.934  1.00  0.00     0.064 A 
ATOM     68  C   UNL A   1      41.138  28.415  27.794  1.00  0.00     0.173 A 
ATOM     69  C   UNL A   1      39.650  26.906  28.928  1.00  0.00     0.173 A 
ATOM     70  F   UNL A   1      41.846  29.553  27.744  1.00  0.00    -0.203 F 
ATOM     71  C   UNL A   1      41.139  27.574  26.684  1.00  0.00     0.198 A 
ATOM     72  C   UNL A   1      39.679  26.053  27.829  1.00  0.00     0.198 A 
ATOM     73  F   UNL A   1      38.915  26.557  29.994  1.00  0.00    -0.203 F 
ATOM     74  F   UNL A   1      41.831  27.915  25.588  1.00  0.00    -0.200 F 
ATOM     75  C   UNL A   1      40.418  26.391  26.705  1.00  0.00     0.200 A 
ATOM     76  F   UNL A   1      38.993  24.901  27.858  1.00  0.00    -0.200 F 
ATOM     77  F   UNL A   1      40.430  25.577  25.640  1.00  0.00    -0.200 F 
ENDBRANCH  53  67
BRANCH  54  78
ATOM     78  C   UNL A   1      39.925  34.047  36.941  1.00  0.00     0.064 A 
ATOM     79  C   UNL A   1      39.016  33.742  37.964  1.00  0.00     0.173 A 
ATOM     80  C   UNL A   1      40.717  35.195  37.098  1.00  0.00     0.173 A 
ATOM     81  F   UNL A   1      38.214  32.673  37.849  1.00  0.00    -0.203 F 
ATOM     82  C   UNL A   1      38.886  34.563  39.082  1.00  0.00     0.198 A 
ATOM     83  C   UNL A   1      40.611  35.997  38.233  1.00  0.00     0.198 A 
ATOM     84  F   UNL A   1      41.598  35.539  36.147  1.00  0.00    -0.203 F 
ATOM     85  F   UNL A   1      37.968  34.279  40.017  1.00  0.00    -0.200 F 
ATOM     86  C   UNL A   1      39.688  35.686  39.219  1.00  0.00     0.200 A 
ATOM     87  F   UNL A   1      41.396  37.074  38.365  1.00  0.00    -0.200 F 
ATOM     88  F   UNL A   1      39.564  36.474  40.296  1.00  0.00    -0.200 F 
ENDBRANCH  54  78
BRANCH  66  89
ATOM     89  C   UNL A   1      43.730  28.431  35.303  1.00  0.00     0.064 A 
ATOM     90  C   UNL A   1      43.392  27.332  36.107  1.00  0.00     0.173 A 
ATOM     91  C   UNL A   1      45.090  28.747  35.164  1.00  0.00     0.173 A 
ATOM     92  F   UNL A   1      42.106  26.996  36.285  1.00  0.00    -0.203 F 
ATOM     93  C   UNL A   1      44.376  26.593  36.760  1.00  0.00     0.198 A 
ATOM     94  C   UNL A   1      46.073  27.985  35.791  1.00  0.00     0.198 A 
ATOM     95  F   UNL A   1      45.470  29.783  34.400  1.00  0.00    -0.203 F 
ATOM     96  F   UNL A   1      44.027  25.574  37.558  1.00  0.00    -0.200 F 
ATOM     97  C   UNL A   1      45.715  26.913  36.593  1.00  0.00     0.200 A 
ATOM     98  F   UNL A   1      47.367  28.286  35.613  1.00  0.00    -0.200 F 
ATOM     99  F   UNL A   1      46.661  26.190  37.208  1.00  0.00    -0.200 F 
ENDBRANCH  66  89
ENDBRANCH  40  41
ENDBRANCH  33  35
ENDBRANCH  32  33
ENDBRANCH  31  32
ENDBRANCH  30  31
ENDBRANCH  29  30
ENDBRANCH  28  29
ENDBRANCH  27  28
ENDBRANCH  26  27
ENDBRANCH   1  26
TORSDOF 24
ENDMDL
MODEL 2
REMARK VINA RESULT:     -10.2      4.899      9.335
REMARK SMILES CCSc1cccc(-c2ccc([C@@H](C)C(=O)OCCOCCOCCOCCOC(=O)c3ccc(-c4c5nc(c(-c6c(F)c(F)c(F)c(F)c6F)c6ccc([nH]6)c(-c6c(F)c(F)c(F)c(F)c6F)c6nc(c(-c7c(F)c(F)c(F)c(F)c7F)c7ccc4[nH]7)C=C6)C=C5)cc3)cc2)c1
REMARK SMILES IDX 22 1 21 2 20 3 19 4 18 5 17 6 15 7 16 8 13 9 14 10 12 11
REMARK SMILES IDX 9 12 10 13 96 14 11 15 95 16 8 17 4 18 5 19 97 20 6 21 7 22
REMARK SMILES IDX 3 23 2 24 1 25 23 26 24 27 25 28 26 29 27 30 28 31 29 32
REMARK SMILES IDX 30 33 31 34 32 35 33 36 94 37 34 38 93 39 35 40 36 41 37 42
REMARK SMILES IDX 87 43 38 44 92 45 86 46 88 47 39 48 91 49 85 50 84 51 40 53
REMARK SMILES IDX 72 54 52 55 71 56 53 57 56 58 70 59 89 60 54 61 55 62 69 64
REMARK SMILES IDX 90 65 57 66 41 67 42 68 50 69 43 70 44 71 48 72 51 73 45 74
REMARK SMILES IDX 46 75 49 76 47 77 73 78 74 79 82 80 75 81 76 82 80 83 83 84
REMARK SMILES IDX 77 85 78 86 81 87 79 88 58 89 59 90 67 91 60 92 61 93 65 94
REMARK SMILES IDX 68 95 62 96 63 97 66 98 64 99
REMARK H PARENT 88 52 56 63
REMARK Flexibility Score: inf
ROOT
ATOM      1  C   UNL A   1      34.988  24.446  25.160  1.00  0.00     0.188 C 
ENDROOT
BRANCH   1   2
ATOM      2  C   UNL A   1      34.026  25.504  25.716  1.00  0.00     0.188 C 
BRANCH   2   3
ATOM      3  O   UNL A   1      34.303  26.889  25.566  1.00  0.00    -0.376 OA
BRANCH   3   4
ATOM      4  C   UNL A   1      33.689  27.647  24.535  1.00  0.00     0.202 C 
BRANCH   4   5
ATOM      5  C   UNL A   1      32.726  28.812  24.841  1.00  0.00     0.261 C 
BRANCH   5   6
ATOM      6  O   UNL A   1      31.315  28.562  24.685  1.00  0.00    -0.463 OA
BRANCH   6   7
ATOM      7  C   UNL A   1      30.851  28.501  23.415  1.00  0.00     0.313 C 
ATOM      8  O   UNL A   1      31.004  29.412  22.601  1.00  0.00    -0.252 OA
BRANCH   7   9
ATOM      9  C   UNL A   1      30.082  27.237  23.035  1.00  0.00     0.126 C 
ATOM     10  C   UNL A   1      28.637  27.405  23.494  1.00  0.00     0.025 C 
BRANCH   9  11
ATOM     11  C   UNL A   1      30.613  25.844  23.383  1.00  0.00    -0.034 A 
ATOM     12  C   UNL A   1      31.560  23.247  24.157  1.00  0.00    -0.018 A 
ATOM     13  C   UNL A   1      31.935  23.843  22.938  1.00  0.00     0.009 A 
ATOM     14  C   UNL A   1      30.681  23.964  24.975  1.00  0.00     0.009 A 
ATOM     15  C   UNL A   1      31.478  25.119  22.557  1.00  0.00     0.005 A 
ATOM     16  C   UNL A   1      30.229  25.244  24.603  1.00  0.00     0.005 A 
BRANCH  12  17
ATOM     17  C   UNL A   1      32.166  21.972  24.599  1.00  0.00    -0.017 A 
ATOM     18  C   UNL A   1      32.689  19.583  24.321  1.00  0.00     0.008 A 
ATOM     19  C   UNL A   1      33.365  19.601  25.542  1.00  0.00     0.015 A 
ATOM     20  C   UNL A   1      32.093  20.775  23.857  1.00  0.00     0.023 A 
ATOM     21  C   UNL A   1      33.438  20.769  26.296  1.00  0.00     0.002 A 
ATOM     22  C   UNL A   1      32.845  21.938  25.827  1.00  0.00     0.009 A 
BRANCH  18  23
ATOM     23  S   UNL A   1      32.661  18.128  23.275  1.00  0.00    -0.126 SA
BRANCH  23  24
ATOM     24  C   UNL A   1      34.264  17.296  23.619  1.00  0.00     0.071 C 
ATOM     25  C   UNL A   1      34.168  16.175  24.646  1.00  0.00     0.016 C 
ENDBRANCH  23  24
ENDBRANCH  18  23
ENDBRANCH  12  17
ENDBRANCH   9  11
ENDBRANCH   7   9
ENDBRANCH   6   7
ENDBRANCH   5   6
ENDBRANCH   4   5
ENDBRANCH   3   4
ENDBRANCH   2   3
ENDBRANCH   1   2
BRANCH   1  26
ATOM     26  O   UNL A   1      36.268  24.432  25.758  1.00  0.00    -0.377 OA
BRANCH  26  27
ATOM     27  C   UNL A   1      36.858  23.162  25.978  1.00  0.00     0.188 C 
BRANCH  27  28
ATOM     28  C   UNL A   1      36.615  22.072  24.919  1.00  0.00     0.188 C 
BRANCH  28  29
ATOM     29  O   UNL A   1      37.773  21.315  24.594  1.00  0.00    -0.376 OA
BRANCH  29  30
ATOM     30  C   UNL A   1      37.855  19.966  25.034  1.00  0.00     0.202 C 
BRANCH  30  31
ATOM     31  C   UNL A   1      39.196  19.454  25.587  1.00  0.00     0.261 C 
BRANCH  31  32
ATOM     32  O   UNL A   1      39.664  20.028  26.818  1.00  0.00    -0.460 OA
BRANCH  32  33
ATOM     33  C   UNL A   1      40.990  20.179  27.010  1.00  0.00     0.338 C 
ATOM     34  O   UNL A   1      41.860  19.338  26.854  1.00  0.00    -0.246 OA
BRANCH  33  35
ATOM     35  C   UNL A   1      41.241  21.620  27.240  1.00  0.00     0.060 A 
ATOM     36  C   UNL A   1      40.622  22.563  26.407  1.00  0.00     0.016 A 
ATOM     37  C   UNL A   1      42.051  22.042  28.295  1.00  0.00     0.016 A 
ATOM     38  C   UNL A   1      40.816  23.929  26.623  1.00  0.00     0.010 A 
ATOM     39  C   UNL A   1      42.270  23.410  28.492  1.00  0.00     0.010 A 
ATOM     40  C   UNL A   1      41.667  24.361  27.649  1.00  0.00    -0.014 A 
BRANCH  40  41
ATOM     41  C   UNL A   1      42.050  25.791  27.756  1.00  0.00     0.031 A 
ATOM     42  C   UNL A   1      43.384  26.221  27.215  1.00  0.00     0.074 A 
ATOM     43  C   UNL A   1      41.239  26.691  28.340  1.00  0.00     0.049 A 
ATOM     44  N   UNL A   1      43.984  27.381  27.300  1.00  0.00    -0.248 NA
ATOM     45  C   UNL A   1      44.146  25.201  26.479  1.00  0.00     0.031 C 
ATOM     46  C   UNL A   1      39.901  26.413  28.856  1.00  0.00     0.029 A 
ATOM     47  N   UNL A   1      41.437  28.024  28.613  1.00  0.00    -0.354 N 
ATOM     48  C   UNL A   1      45.197  27.226  26.641  1.00  0.00     0.074 A 
ATOM     49  C   UNL A   1      45.257  25.857  26.180  1.00  0.00     0.031 C 
ATOM     50  C   UNL A   1      39.406  27.535  29.410  1.00  0.00     0.029 A 
ATOM     51  C   UNL A   1      40.410  28.596  29.326  1.00  0.00     0.049 A 
ATOM     52  H   UNL A   1      42.237  28.520  28.327  1.00  0.00     0.167 HD
ATOM     53  C   UNL A   1      46.169  28.146  26.439  1.00  0.00     0.037 A 
ATOM     54  C   UNL A   1      40.313  29.821  29.881  1.00  0.00     0.037 A 
ATOM     55  C   UNL A   1      46.108  29.506  26.905  1.00  0.00     0.049 A 
ATOM     56  C   UNL A   1      41.456  30.796  29.730  1.00  0.00     0.074 A 
ATOM     57  C   UNL A   1      47.031  30.521  26.727  1.00  0.00     0.029 A 
ATOM     58  N   UNL A   1      45.070  30.037  27.657  1.00  0.00    -0.354 N 
ATOM     59  N   UNL A   1      42.586  30.656  29.080  1.00  0.00    -0.248 NA
ATOM     60  C   UNL A   1      41.312  32.099  30.397  1.00  0.00     0.031 C 
ATOM     61  C   UNL A   1      46.586  31.645  27.429  1.00  0.00     0.029 A 
ATOM     62  C   UNL A   1      45.352  31.353  27.987  1.00  0.00     0.049 A 
ATOM     63  H   UNL A   1      44.253  29.552  27.916  1.00  0.00     0.167 HD
ATOM     64  C   UNL A   1      43.273  31.854  29.239  1.00  0.00     0.074 A 
ATOM     65  C   UNL A   1      42.424  32.719  30.030  1.00  0.00     0.031 C 
ATOM     66  C   UNL A   1      44.497  32.206  28.774  1.00  0.00     0.037 A 
BRANCH  53  67
ATOM     67  C   UNL A   1      47.407  27.702  25.713  1.00  0.00     0.064 A 
ATOM     68  C   UNL A   1      48.525  27.199  26.394  1.00  0.00     0.173 A 
ATOM     69  C   UNL A   1      47.454  27.739  24.311  1.00  0.00     0.173 A 
ATOM     70  F   UNL A   1      48.536  27.154  27.735  1.00  0.00    -0.203 F 
ATOM     71  C   UNL A   1      49.654  26.772  25.699  1.00  0.00     0.198 A 
ATOM     72  C   UNL A   1      48.572  27.281  23.619  1.00  0.00     0.198 A 
ATOM     73  F   UNL A   1      46.410  28.206  23.610  1.00  0.00    -0.203 F 
ATOM     74  F   UNL A   1      50.729  26.338  26.372  1.00  0.00    -0.200 F 
ATOM     75  C   UNL A   1      49.673  26.805  24.313  1.00  0.00     0.200 A 
ATOM     76  F   UNL A   1      48.582  27.300  22.279  1.00  0.00    -0.200 F 
ATOM     77  F   UNL A   1      50.756  26.383  23.646  1.00  0.00    -0.200 F 
ENDBRANCH  53  67
BRANCH  54  78
ATOM     78  C   UNL A   1      39.108  30.191  30.671  1.00  0.00     0.064 A 
ATOM     79  C   UNL A   1      38.007  30.813  30.068  1.00  0.00     0.173 A 
ATOM     80  C   UNL A   1      39.046  29.964  32.056  1.00  0.00     0.173 A 
ATOM     81  F   UNL A   1      38.028  31.082  28.754  1.00  0.00    -0.203 F 
ATOM     82  C   UNL A   1      36.902  31.213  30.817  1.00  0.00     0.198 A 
ATOM     83  C   UNL A   1      37.927  30.333  32.799  1.00  0.00     0.198 A 
ATOM     84  F   UNL A   1      40.075  29.379  32.688  1.00  0.00    -0.203 F 
ATOM     85  F   UNL A   1      35.889  31.858  30.223  1.00  0.00    -0.200 F 
ATOM     86  C   UNL A   1      36.860  30.967  32.182  1.00  0.00     0.200 A 
ATOM     87  F   UNL A   1      37.888  30.083  34.114  1.00  0.00    -0.200 F 
ATOM     88  F   UNL A   1      35.797  31.351  32.902  1.00  0.00    -0.200 F 
ENDBRANCH  54  78
BRANCH  66  89
ATOM     89  C   UNL A   1      44.991  33.592  29.083  1.00  0.00     0.064 A 
ATOM     90  C   UNL A   1      45.810  33.851  30.193  1.00  0.00     0.173 A 
ATOM     91  C   UNL A   1      44.694  34.662  28.225  1.00  0.00     0.173 A 
ATOM     92  F   UNL A   1      46.112  32.867  31.052  1.00  0.00    -0.203 F 
ATOM     93  C   UNL A   1      46.295  35.133  30.441  1.00  0.00     0.198 A 
ATOM     94  C   UNL A   1      45.208  35.934  28.458  1.00  0.00     0.198 A 
ATOM     95  F   UNL A   1      43.922  34.469  27.144  1.00  0.00    -0.203 F 
ATOM     96  F   UNL A   1      47.040  35.366  31.531  1.00  0.00    -0.200 F 
ATOM     97  C   UNL A   1      46.003  36.171  29.568  1.00  0.00     0.200 A 
ATOM     98  F   UNL A   1      44.940  36.932  27.602  1.00  0.00    -0.200 F 
ATOM     99  F   UNL A   1      46.484  37.399  29.800  1.00  0.00    -0.200 F 
ENDBRANCH  66  89
ENDBRANCH  40  41
ENDBRANCH  33  35
ENDBRANCH  32  33
ENDBRANCH  31  32
ENDBRANCH  30  31
ENDBRANCH  29  30
ENDBRANCH  28  29
ENDBRANCH  27  28
ENDBRANCH  26  27
ENDBRANCH   1  26
TORSDOF 24
ENDMDL
MODEL 3
REMARK VINA RESULT:     -10.1      5.079     10.836
REMARK SMILES CCSc1cccc(-c2ccc([C@@H](C)C(=O)OCCOCCOCCOCCOC(=O)c3ccc(-c4c5nc(c(-c6c(F)c(F)c(F)c(F)c6F)c6ccc([nH]6)c(-c6c(F)c(F)c(F)c(F)c6F)c6nc(c(-c7c(F)c(F)c(F)c(F)c7F)c7ccc4[nH]7)C=C6)C=C5)cc3)cc2)c1
REMARK SMILES IDX 22 1 21 2 20 3 19 4 18 5 17 6 15 7 16 8 13 9 14 10 12 11
REMARK SMILES IDX 9 12 10 13 96 14 11 15 95 16 8 17 4 18 5 19 97 20 6 21 7 22
REMARK SMILES IDX 3 23 2 24 1 25 23 26 24 27 25 28 26 29 27 30 28 31 29 32
REMARK SMILES IDX 30 33 31 34 32 35 33 36 94 37 34 38 93 39 35 40 36 41 37 42
REMARK SMILES IDX 87 43 38 44 92 45 86 46 88 47 39 48 91 49 85 50 84 51 40 53
REMARK SMILES IDX 72 54 52 55 71 56 53 57 56 58 70 59 89 60 54 61 55 62 69 64
REMARK SMILES IDX 90 65 57 66 41 67 42 68 50 69 43 70 44 71 48 72 51 73 45 74
REMARK SMILES IDX 46 75 49 76 47 77 73 78 74 79 82 80 75 81 76 82 80 83 83 84
REMARK SMILES IDX 77 85 78 86 81 87 79 88 58 89 59 90 67 91 60 92 61 93 65 94
REMARK SMILES IDX 68 95 62 96 63 97 66 98 64 99
REMARK H PARENT 88 52 56 63
REMARK Flexibility Score: inf
ROOT
ATOM      1  C   UNL A   1      34.847  24.659  25.350  1.00  0.00     0.188 C 
ENDROOT
BRANCH   1   2
ATOM      2  C   UNL A   1      34.332  26.026  24.881  1.00  0.00     0.188 C 
BRANCH   2   3
ATOM      3  O   UNL A   1      33.339  26.721  25.622  1.00  0.00    -0.376 OA
BRANCH   3   4
ATOM      4  C   UNL A   1      33.068  28.092  25.370  1.00  0.00     0.202 C 
BRANCH   4   5
ATOM      5  C   UNL A   1      31.687  28.716  25.650  1.00  0.00     0.261 C 
BRANCH   5   6
ATOM      6  O   UNL A   1      30.930  29.185  24.516  1.00  0.00    -0.463 OA
BRANCH   6   7
ATOM      7  C   UNL A   1      31.256  28.655  23.315  1.00  0.00     0.313 C 
ATOM      8  O   UNL A   1      32.144  29.114  22.596  1.00  0.00    -0.252 OA
BRANCH   7   9
ATOM      9  C   UNL A   1      30.430  27.451  22.861  1.00  0.00     0.126 C 
ATOM     10  C   UNL A   1      28.979  27.692  23.267  1.00  0.00     0.025 C 
BRANCH   9  11
ATOM     11  C   UNL A   1      30.863  26.019  23.182  1.00  0.00    -0.034 A 
ATOM     12  C   UNL A   1      31.624  23.348  23.904  1.00  0.00    -0.018 A 
ATOM     13  C   UNL A   1      32.073  23.953  22.715  1.00  0.00     0.009 A 
ATOM     14  C   UNL A   1      30.766  24.095  24.718  1.00  0.00     0.009 A 
ATOM     15  C   UNL A   1      31.707  25.265  22.360  1.00  0.00     0.005 A 
ATOM     16  C   UNL A   1      30.406  25.410  24.372  1.00  0.00     0.005 A 
BRANCH  12  17
ATOM     17  C   UNL A   1      32.136  22.025  24.326  1.00  0.00    -0.017 A 
ATOM     18  C   UNL A   1      32.594  19.634  23.957  1.00  0.00     0.008 A 
ATOM     19  C   UNL A   1      33.149  19.556  25.236  1.00  0.00     0.015 A 
ATOM     20  C   UNL A   1      32.090  20.875  23.511  1.00  0.00     0.023 A 
ATOM     21  C   UNL A   1      33.193  20.677  26.060  1.00  0.00     0.002 A 
ATOM     22  C   UNL A   1      32.692  21.894  25.608  1.00  0.00     0.009 A 
BRANCH  18  23
ATOM     23  S   UNL A   1      32.611  18.242  22.829  1.00  0.00    -0.126 SA
BRANCH  23  24
ATOM     24  C   UNL A   1      32.963  16.795  23.907  1.00  0.00     0.071 C 
ATOM     25  C   UNL A   1      34.402  16.302  23.824  1.00  0.00     0.016 C 
ENDBRANCH  23  24
ENDBRANCH  18  23
ENDBRANCH  12  17
ENDBRANCH   9  11
ENDBRANCH   7   9
ENDBRANCH   6   7
ENDBRANCH   5   6
ENDBRANCH   4   5
ENDBRANCH   3   4
ENDBRANCH   2   3
ENDBRANCH   1   2
BRANCH   1  26
ATOM     26  O   UNL A   1      35.290  23.803  24.317  1.00  0.00    -0.377 OA
BRANCH  26  27
ATOM     27  C   UNL A   1      36.574  23.224  24.472  1.00  0.00     0.188 C 
BRANCH  27  28
ATOM     28  C   UNL A   1      36.819  22.360  25.723  1.00  0.00     0.188 C 
BRANCH  28  29
ATOM     29  O   UNL A   1      36.579  20.974  25.521  1.00  0.00    -0.376 OA
BRANCH  29  30
ATOM     30  C   UNL A   1      37.463  20.241  24.683  1.00  0.00     0.202 C 
BRANCH  30  31
ATOM     31  C   UNL A   1      38.603  19.442  25.339  1.00  0.00     0.261 C 
BRANCH  31  32
ATOM     32  O   UNL A   1      39.342  20.088  26.389  1.00  0.00    -0.460 OA
BRANCH  32  33
ATOM     33  C   UNL A   1      40.689  20.064  26.355  1.00  0.00     0.338 C 
ATOM     34  O   UNL A   1      41.402  19.179  25.912  1.00  0.00    -0.246 OA
BRANCH  33  35
ATOM     35  C   UNL A   1      41.164  21.408  26.757  1.00  0.00     0.060 A 
ATOM     36  C   UNL A   1      40.829  22.516  25.966  1.00  0.00     0.016 A 
ATOM     37  C   UNL A   1      41.903  21.581  27.928  1.00  0.00     0.016 A 
ATOM     38  C   UNL A   1      41.237  23.798  26.341  1.00  0.00     0.010 A 
ATOM     39  C   UNL A   1      42.338  22.861  28.286  1.00  0.00     0.010 A 
ATOM     40  C   UNL A   1      42.021  23.976  27.488  1.00  0.00    -0.014 A 
BRANCH  40  41
ATOM     41  C   UNL A   1      42.638  25.293  27.780  1.00  0.00     0.031 A 
ATOM     42  C   UNL A   1      41.788  26.363  28.407  1.00  0.00     0.074 A 
ATOM     43  C   UNL A   1      43.924  25.547  27.479  1.00  0.00     0.049 A 
ATOM     44  N   UNL A   1      42.068  27.618  28.644  1.00  0.00    -0.248 NA
ATOM     45  C   UNL A   1      40.436  25.957  28.822  1.00  0.00     0.031 C 
ATOM     46  C   UNL A   1      44.867  24.582  26.919  1.00  0.00     0.029 A 
ATOM     47  N   UNL A   1      44.652  26.708  27.587  1.00  0.00    -0.354 N 
ATOM     48  C   UNL A   1      40.924  28.155  29.222  1.00  0.00     0.074 A 
ATOM     49  C   UNL A   1      39.942  27.096  29.282  1.00  0.00     0.031 C 
ATOM     50  C   UNL A   1      46.044  25.198  26.705  1.00  0.00     0.029 A 
ATOM     51  C   UNL A   1      45.922  26.608  27.072  1.00  0.00     0.049 A 
ATOM     52  H   UNL A   1      44.298  27.531  27.993  1.00  0.00     0.167 HD
ATOM     53  C   UNL A   1      40.718  29.419  29.664  1.00  0.00     0.037 A 
ATOM     54  C   UNL A   1      46.862  27.558  26.882  1.00  0.00     0.037 A 
ATOM     55  C   UNL A   1      41.696  30.472  29.597  1.00  0.00     0.049 A 
ATOM     56  C   UNL A   1      46.569  28.982  27.289  1.00  0.00     0.074 A 
ATOM     57  C   UNL A   1      41.591  31.777  30.043  1.00  0.00     0.029 A 
ATOM     58  N   UNL A   1      42.958  30.342  29.034  1.00  0.00    -0.354 N 
ATOM     59  N   UNL A   1      45.500  29.479  27.863  1.00  0.00    -0.248 NA
ATOM     60  C   UNL A   1      47.614  29.980  27.014  1.00  0.00     0.031 C 
ATOM     61  C   UNL A   1      42.760  32.456  29.687  1.00  0.00     0.029 A 
ATOM     62  C   UNL A   1      43.622  31.557  29.081  1.00  0.00     0.049 A 
ATOM     63  H   UNL A   1      43.327  29.511  28.657  1.00  0.00     0.167 HD
ATOM     64  C   UNL A   1      45.752  30.834  28.039  1.00  0.00     0.074 A 
ATOM     65  C   UNL A   1      47.083  31.081  27.529  1.00  0.00     0.031 C 
ATOM     66  C   UNL A   1      44.951  31.790  28.572  1.00  0.00     0.037 A 
BRANCH  53  67
ATOM     67  C   UNL A   1      39.364  29.747  30.225  1.00  0.00     0.064 A 
ATOM     68  C   UNL A   1      39.084  29.641  31.595  1.00  0.00     0.173 A 
ATOM     69  C   UNL A   1      38.346  30.220  29.381  1.00  0.00     0.173 A 
ATOM     70  F   UNL A   1      40.018  29.182  32.442  1.00  0.00    -0.203 F 
ATOM     71  C   UNL A   1      37.828  29.972  32.096  1.00  0.00     0.198 A 
ATOM     72  C   UNL A   1      37.102  30.580  29.891  1.00  0.00     0.198 A 
ATOM     73  F   UNL A   1      38.563  30.346  28.064  1.00  0.00    -0.203 F 
ATOM     74  F   UNL A   1      37.567  29.818  33.402  1.00  0.00    -0.200 F 
ATOM     75  C   UNL A   1      36.841  30.449  31.247  1.00  0.00     0.200 A 
ATOM     76  F   UNL A   1      36.155  31.056  29.070  1.00  0.00    -0.200 F 
ATOM     77  F   UNL A   1      35.636  30.778  31.733  1.00  0.00    -0.200 F 
ENDBRANCH  53  67
BRANCH  54  78
ATOM     78  C   UNL A   1      48.158  27.210  26.239  1.00  0.00     0.064 A 
ATOM     79  C   UNL A   1      48.304  27.226  24.845  1.00  0.00     0.173 A 
ATOM     80  C   UNL A   1      49.268  26.817  27.003  1.00  0.00     0.173 A 
ATOM     81  F   UNL A   1      47.265  27.564  24.067  1.00  0.00    -0.203 F 
ATOM     82  C   UNL A   1      49.499  26.844  24.240  1.00  0.00     0.198 A 
ATOM     83  C   UNL A   1      50.474  26.468  26.399  1.00  0.00     0.198 A 
ATOM     84  F   UNL A   1      49.182  26.775  28.341  1.00  0.00    -0.203 F 
ATOM     85  F   UNL A   1      49.592  26.814  22.903  1.00  0.00    -0.200 F 
ATOM     86  C   UNL A   1      50.586  26.471  25.018  1.00  0.00     0.200 A 
ATOM     87  F   UNL A   1      51.523  26.119  27.155  1.00  0.00    -0.200 F 
ATOM     88  F   UNL A   1      51.736  26.105  24.435  1.00  0.00    -0.200 F 
ENDBRANCH  54  78
BRANCH  66  89
ATOM     89  C   UNL A   1      45.493  33.189  28.658  1.00  0.00     0.064 A 
ATOM     90  C   UNL A   1      45.227  34.144  27.665  1.00  0.00     0.173 A 
ATOM     91  C   UNL A   1      46.237  33.598  29.776  1.00  0.00     0.173 A 
ATOM     92  F   UNL A   1      44.534  33.802  26.569  1.00  0.00    -0.203 F 
ATOM     93  C   UNL A   1      45.701  35.449  27.781  1.00  0.00     0.198 A 
ATOM     94  C   UNL A   1      46.680  34.911  29.904  1.00  0.00     0.198 A 
ATOM     95  F   UNL A   1      46.514  32.727  30.759  1.00  0.00    -0.203 F 
ATOM     96  F   UNL A   1      45.470  36.333  26.799  1.00  0.00    -0.200 F 
ATOM     97  C   UNL A   1      46.417  35.834  28.904  1.00  0.00     0.200 A 
ATOM     98  F   UNL A   1      47.356  35.285  31.000  1.00  0.00    -0.200 F 
ATOM     99  F   UNL A   1      46.858  37.094  29.021  1.00  0.00    -0.200 F 
ENDBRANCH  66  89
ENDBRANCH  40  41
ENDBRANCH  33  35
ENDBRANCH  32  33
ENDBRANCH  31  32
ENDBRANCH  30  31
ENDBRANCH  29  30
ENDBRANCH  28  29
ENDBRANCH  27  28
ENDBRANCH  26  27
ENDBRANCH   1  26
TORSDOF 24
ENDMDL
