MODEL 1
REMARK VINA RESULT:     -10.8      0.000      0.000
REMARK SMILES Cc1coc2c(C)c3oc(=O)c(CC(=O)NCC(=O)N[C@H](C(=O)OCCOCCOCCOCCOC(=O)c4ccc(-c5c6nc(c(-c7c(F)c(F)c(F)c(F)c7F)c7ccc([nH]7)c(-c7c(F)c(F)c(F)c(F)c7F)c7nc(c(-c8c(F)c(F)c(F)c(F)c8F)c8ccc5[nH]8)C=C7)C=C6)cc4)C(C)C)c(C)c3cc12
REMARK SMILES IDX 28 1 27 2 26 3 25 4 24 5 22 6 23 7 21 8 20 9 18 10 19 11
REMARK SMILES IDX 17 13 16 14 14 15 15 16 13 18 12 19 1 20 2 21 3 22 109 23
REMARK SMILES IDX 4 24 5 25 108 26 6 27 107 28 7 29 8 30 105 31 9 32 106 33
REMARK SMILES IDX 10 34 11 35 102 36 103 37 104 38 29 39 30 40 31 41 32 42
REMARK SMILES IDX 33 43 34 44 35 45 36 46 37 47 38 48 39 49 40 50 101 51 41 52
REMARK SMILES IDX 100 53 42 54 43 55 44 56 94 57 45 58 99 59 93 60 95 61 46 62
REMARK SMILES IDX 98 63 92 64 91 65 47 67 79 68 59 69 78 70 60 71 63 72 77 73
REMARK SMILES IDX 96 74 61 75 62 76 76 78 97 79 64 80 48 81 49 82 57 83 50 84
REMARK SMILES IDX 51 85 55 86 58 87 52 88 53 89 56 90 54 91 80 92 81 93 89 94
REMARK SMILES IDX 82 95 83 96 87 97 90 98 84 99 85 100 88 101 86 102 65 103
REMARK SMILES IDX 66 104 74 105 67 106 68 107 72 108 75 109 69 110 70 111
REMARK SMILES IDX 73 112 71 113
REMARK H PARENT 20 12 16 17 95 66 63 77
REMARK Flexibility Score: inf
ROOT
ATOM      1  C   UNL A   1      37.189  22.539  26.080  1.00  0.00     0.188 C 
ENDROOT
BRANCH   1   2
ATOM      2  O   UNL A   1      36.037  22.690  25.292  1.00  0.00    -0.376 OA
BRANCH   2   3
ATOM      3  C   UNL A   1      35.535  23.985  25.087  1.00  0.00     0.202 C 
BRANCH   3   4
ATOM      4  C   UNL A   1      35.020  24.469  23.716  1.00  0.00     0.261 C 
BRANCH   4   5
ATOM      5  O   UNL A   1      33.911  25.390  23.641  1.00  0.00    -0.462 OA
BRANCH   5   6
ATOM      6  C   UNL A   1      33.248  25.445  22.448  1.00  0.00     0.328 C 
ATOM      7  O   UNL A   1      33.274  24.537  21.623  1.00  0.00    -0.250 OA
BRANCH   6   8
ATOM      8  C   UNL A   1      32.513  26.806  22.234  1.00  0.00     0.194 C 
BRANCH   8   9
ATOM      9  N   UNL A   1      31.124  26.523  22.576  1.00  0.00    -0.341 N 
ATOM     10  C   UNL A   1      30.531  26.421  23.809  1.00  0.00     0.240 C 
ATOM     11  O   UNL A   1      29.308  26.221  23.758  1.00  0.00    -0.273 OA
ATOM     12  H   UNL A   1      30.523  26.383  21.808  1.00  0.00     0.164 HD
BRANCH  10  13
ATOM     13  C   UNL A   1      31.220  26.730  25.249  1.00  0.00     0.216 C 
BRANCH  13  14
ATOM     14  N   UNL A   1      31.427  25.749  26.370  1.00  0.00    -0.347 N 
ATOM     15  C   UNL A   1      31.358  24.409  26.664  1.00  0.00     0.225 C 
ATOM     16  O   UNL A   1      31.764  24.138  27.808  1.00  0.00    -0.275 OA
ATOM     17  H   UNL A   1      31.711  26.239  27.176  1.00  0.00     0.164 HD
BRANCH  15  18
ATOM     18  C   UNL A   1      30.869  23.182  25.788  1.00  0.00     0.143 C 
BRANCH  18  19
ATOM     19  C   UNL A   1      31.847  22.231  25.012  1.00  0.00     0.051 A 
ATOM     20  C   UNL A   1      35.676  16.073  25.635  1.00  0.00     0.048 C 
ATOM     21  C   UNL A   1      34.829  16.613  24.547  1.00  0.00    -0.005 A 
ATOM     22  C   UNL A   1      34.490  15.890  23.418  1.00  0.00     0.199 A 
ATOM     23  C   UNL A   1      34.190  17.901  24.400  1.00  0.00     0.024 A 
ATOM     24  O   UNL A   1      33.692  16.610  22.605  1.00  0.00    -0.464 OA
ATOM     25  C   UNL A   1      33.511  17.826  23.189  1.00  0.00     0.140 A 
ATOM     26  C   UNL A   1      34.063  19.116  25.146  1.00  0.00     0.024 A 
ATOM     27  C   UNL A   1      32.732  18.844  22.644  1.00  0.00     0.036 A 
ATOM     28  C   UNL A   1      33.290  20.213  24.651  1.00  0.00     0.022 A 
ATOM     29  C   UNL A   1      31.978  18.640  21.368  1.00  0.00     0.052 C 
ATOM     30  C   UNL A   1      32.688  20.037  23.401  1.00  0.00     0.145 A 
ATOM     31  C   UNL A   1      32.865  21.428  25.470  1.00  0.00    -0.029 A 
ATOM     32  O   UNL A   1      31.930  21.085  22.842  1.00  0.00    -0.422 OA
ATOM     33  C   UNL A   1      33.373  21.455  26.892  1.00  0.00     0.046 C 
ATOM     34  C   UNL A   1      31.519  22.188  23.560  1.00  0.00     0.340 A 
ATOM     35  O   UNL A   1      30.874  23.078  23.017  1.00  0.00    -0.246 OA
ENDBRANCH  18  19
ENDBRANCH  15  18
ENDBRANCH  13  14
ENDBRANCH  10  13
ENDBRANCH   8   9
BRANCH   8  36
ATOM     36  C   UNL A   1      32.914  28.020  23.051  1.00  0.00     0.017 C 
ATOM     37  C   UNL A   1      34.320  28.433  22.859  1.00  0.00     0.010 C 
ATOM     38  C   UNL A   1      31.958  29.204  23.131  1.00  0.00     0.010 C 
ENDBRANCH   8  36
ENDBRANCH   6   8
ENDBRANCH   5   6
ENDBRANCH   4   5
ENDBRANCH   3   4
ENDBRANCH   2   3
ENDBRANCH   1   2
BRANCH   1  39
ATOM     39  C   UNL A   1      38.271  21.634  25.431  1.00  0.00     0.188 C 
BRANCH  39  40
ATOM     40  O   UNL A   1      39.663  21.831  25.607  1.00  0.00    -0.377 OA
BRANCH  40  41
ATOM     41  C   UNL A   1      40.214  21.820  26.909  1.00  0.00     0.188 C 
BRANCH  41  42
ATOM     42  C   UNL A   1      40.596  20.478  27.579  1.00  0.00     0.188 C 
BRANCH  42  43
ATOM     43  O   UNL A   1      41.971  20.124  27.477  1.00  0.00    -0.376 OA
BRANCH  43  44
ATOM     44  C   UNL A   1      42.379  19.071  26.628  1.00  0.00     0.202 C 
BRANCH  44  45
ATOM     45  C   UNL A   1      43.248  19.474  25.444  1.00  0.00     0.261 C 
BRANCH  45  46
ATOM     46  O   UNL A   1      43.934  20.698  25.632  1.00  0.00    -0.460 OA
BRANCH  46  47
ATOM     47  C   UNL A   1      44.808  21.001  24.672  1.00  0.00     0.338 C 
ATOM     48  O   UNL A   1      45.440  20.214  23.952  1.00  0.00    -0.246 OA
BRANCH  47  49
ATOM     49  C   UNL A   1      44.994  22.439  24.644  1.00  0.00     0.060 A 
ATOM     50  C   UNL A   1      46.131  22.947  25.277  1.00  0.00     0.016 A 
ATOM     51  C   UNL A   1      43.856  23.209  24.381  1.00  0.00     0.016 A 
ATOM     52  C   UNL A   1      46.008  24.148  25.926  1.00  0.00     0.010 A 
ATOM     53  C   UNL A   1      43.712  24.371  25.077  1.00  0.00     0.010 A 
ATOM     54  C   UNL A   1      44.752  24.760  25.917  1.00  0.00    -0.014 A 
BRANCH  54  55
ATOM     55  C   UNL A   1      44.516  25.856  26.821  1.00  0.00     0.031 A 
ATOM     56  C   UNL A   1      45.483  26.952  26.633  1.00  0.00     0.074 A 
ATOM     57  C   UNL A   1      43.426  25.857  27.612  1.00  0.00     0.049 A 
ATOM     58  N   UNL A   1      46.385  27.357  27.462  1.00  0.00    -0.248 NA
ATOM     59  C   UNL A   1      45.598  27.532  25.283  1.00  0.00     0.031 C 
ATOM     60  C   UNL A   1      42.308  24.907  27.620  1.00  0.00     0.029 A 
ATOM     61  N   UNL A   1      43.034  26.792  28.515  1.00  0.00    -0.354 N 
ATOM     62  C   UNL A   1      47.034  28.393  26.803  1.00  0.00     0.074 A 
ATOM     63  C   UNL A   1      46.683  28.292  25.414  1.00  0.00     0.031 C 
ATOM     64  C   UNL A   1      41.273  25.438  28.312  1.00  0.00     0.029 A 
ATOM     65  C   UNL A   1      41.696  26.699  28.890  1.00  0.00     0.049 A 
ATOM     66  H   UNL A   1      43.643  27.476  28.874  1.00  0.00     0.167 HD
ATOM     67  C   UNL A   1      47.546  29.443  27.494  1.00  0.00     0.037 A 
ATOM     68  C   UNL A   1      41.003  27.673  29.534  1.00  0.00     0.037 A 
ATOM     69  C   UNL A   1      47.727  29.119  28.883  1.00  0.00     0.049 A 
ATOM     70  C   UNL A   1      42.009  28.589  30.141  1.00  0.00     0.074 A 
ATOM     71  C   UNL A   1      48.488  28.190  29.565  1.00  0.00     0.029 A 
ATOM     72  N   UNL A   1      46.759  29.537  29.763  1.00  0.00    -0.354 N 
ATOM     73  N   UNL A   1      42.804  28.247  31.117  1.00  0.00    -0.248 NA
ATOM     74  C   UNL A   1      42.451  29.723  29.342  1.00  0.00     0.031 C 
ATOM     75  C   UNL A   1      47.674  27.769  30.656  1.00  0.00     0.029 A 
ATOM     76  C   UNL A   1      46.488  28.504  30.623  1.00  0.00     0.049 A 
ATOM     77  H   UNL A   1      46.334  30.425  29.775  1.00  0.00     0.167 HD
ATOM     78  C   UNL A   1      44.023  28.835  30.804  1.00  0.00     0.074 A 
ATOM     79  C   UNL A   1      43.725  29.789  29.740  1.00  0.00     0.031 C 
ATOM     80  C   UNL A   1      45.195  28.279  31.227  1.00  0.00     0.037 A 
BRANCH  67  81
ATOM     81  C   UNL A   1      47.500  30.855  26.979  1.00  0.00     0.064 A 
ATOM     82  C   UNL A   1      48.673  31.626  26.986  1.00  0.00     0.173 A 
ATOM     83  C   UNL A   1      46.301  31.563  26.731  1.00  0.00     0.173 A 
ATOM     84  F   UNL A   1      49.857  31.059  27.261  1.00  0.00    -0.203 F 
ATOM     85  C   UNL A   1      48.642  33.009  26.794  1.00  0.00     0.198 A 
ATOM     86  C   UNL A   1      46.281  32.930  26.473  1.00  0.00     0.198 A 
ATOM     87  F   UNL A   1      45.096  30.993  26.842  1.00  0.00    -0.203 F 
ATOM     88  F   UNL A   1      49.768  33.721  26.923  1.00  0.00    -0.200 F 
ATOM     89  C   UNL A   1      47.448  33.658  26.532  1.00  0.00     0.200 A 
ATOM     90  F   UNL A   1      45.108  33.540  26.249  1.00  0.00    -0.200 F 
ATOM     91  F   UNL A   1      47.411  34.989  26.391  1.00  0.00    -0.200 F 
ENDBRANCH  67  81
BRANCH  68  92
ATOM     92  C   UNL A   1      39.590  28.085  29.332  1.00  0.00     0.064 A 
ATOM     93  C   UNL A   1      38.706  28.170  30.421  1.00  0.00     0.173 A 
ATOM     94  C   UNL A   1      39.155  28.684  28.132  1.00  0.00     0.173 A 
ATOM     95  F   UNL A   1      39.057  27.662  31.612  1.00  0.00    -0.203 F 
ATOM     96  C   UNL A   1      37.485  28.846  30.329  1.00  0.00     0.198 A 
ATOM     97  C   UNL A   1      37.933  29.351  28.039  1.00  0.00     0.198 A 
ATOM     98  F   UNL A   1      39.949  28.723  27.053  1.00  0.00    -0.203 F 
ATOM     99  F   UNL A   1      36.704  28.968  31.412  1.00  0.00    -0.200 F 
ATOM    100  C   UNL A   1      37.106  29.448  29.142  1.00  0.00     0.200 A 
ATOM    101  F   UNL A   1      37.595  29.959  26.892  1.00  0.00    -0.200 F 
ATOM    102  F   UNL A   1      35.969  30.154  29.070  1.00  0.00    -0.200 F 
ENDBRANCH  68  92
BRANCH  80 103
ATOM    103  C   UNL A   1      45.117  27.178  32.250  1.00  0.00     0.064 A 
ATOM    104  C   UNL A   1      44.964  25.817  31.929  1.00  0.00     0.173 A 
ATOM    105  C   UNL A   1      45.378  27.499  33.588  1.00  0.00     0.173 A 
ATOM    106  F   UNL A   1      44.806  25.422  30.660  1.00  0.00    -0.203 F 
ATOM    107  C   UNL A   1      45.040  24.830  32.912  1.00  0.00     0.198 A 
ATOM    108  C   UNL A   1      45.490  26.510  34.560  1.00  0.00     0.198 A 
ATOM    109  F   UNL A   1      45.584  28.777  33.941  1.00  0.00    -0.203 F 
ATOM    110  F   UNL A   1      44.888  23.538  32.582  1.00  0.00    -0.200 F 
ATOM    111  C   UNL A   1      45.315  25.178  34.225  1.00  0.00     0.200 A 
ATOM    112  F   UNL A   1      45.807  26.847  35.817  1.00  0.00    -0.200 F 
ATOM    113  F   UNL A   1      45.441  24.226  35.160  1.00  0.00    -0.200 F 
ENDBRANCH  80 103
ENDBRANCH  54  55
ENDBRANCH  47  49
ENDBRANCH  46  47
ENDBRANCH  45  46
ENDBRANCH  44  45
ENDBRANCH  43  44
ENDBRANCH  42  43
ENDBRANCH  41  42
ENDBRANCH  40  41
ENDBRANCH  39  40
ENDBRANCH   1  39
TORSDOF 26
ENDMDL
MODEL 2
REMARK VINA RESULT:     -10.7      3.255      6.433
REMARK SMILES Cc1coc2c(C)c3oc(=O)c(CC(=O)NCC(=O)N[C@H](C(=O)OCCOCCOCCOCCOC(=O)c4ccc(-c5c6nc(c(-c7c(F)c(F)c(F)c(F)c7F)c7ccc([nH]7)c(-c7c(F)c(F)c(F)c(F)c7F)c7nc(c(-c8c(F)c(F)c(F)c(F)c8F)c8ccc5[nH]8)C=C7)C=C6)cc4)C(C)C)c(C)c3cc12
REMARK SMILES IDX 28 1 27 2 26 3 25 4 24 5 22 6 23 7 21 8 20 9 18 10 19 11
REMARK SMILES IDX 17 13 16 14 14 15 15 16 13 18 12 19 1 20 2 21 3 22 109 23
REMARK SMILES IDX 4 24 5 25 108 26 6 27 107 28 7 29 8 30 105 31 9 32 106 33
REMARK SMILES IDX 10 34 11 35 102 36 103 37 104 38 29 39 30 40 31 41 32 42
REMARK SMILES IDX 33 43 34 44 35 45 36 46 37 47 38 48 39 49 40 50 101 51 41 52
REMARK SMILES IDX 100 53 42 54 43 55 44 56 94 57 45 58 99 59 93 60 95 61 46 62
REMARK SMILES IDX 98 63 92 64 91 65 47 67 79 68 59 69 78 70 60 71 63 72 77 73
REMARK SMILES IDX 96 74 61 75 62 76 76 78 97 79 64 80 48 81 49 82 57 83 50 84
REMARK SMILES IDX 51 85 55 86 58 87 52 88 53 89 56 90 54 91 80 92 81 93 89 94
REMARK SMILES IDX 82 95 83 96 87 97 90 98 84 99 85 100 88 101 86 102 65 103
REMARK SMILES IDX 66 104 74 105 67 106 68 107 72 108 75 109 69 110 70 111
REMARK SMILES IDX 73 112 71 113
REMARK H PARENT 20 12 16 17 95 66 63 77
REMARK Flexibility Score: inf
ROOT
ATOM      1  C   UNL A   1      39.252  23.186  26.662  1.00  0.00     0.188 C 
ENDROOT
BRANCH   1   2
ATOM      2  O   UNL A   1      38.001  22.913  26.086  1.00  0.00    -0.376 OA
BRANCH   2   3
ATOM      3  C   UNL A   1      37.905  21.851  25.172  1.00  0.00     0.202 C 
BRANCH   3   4
ATOM      4  C   UNL A   1      36.628  20.999  25.019  1.00  0.00     0.261 C 
BRANCH   4   5
ATOM      5  O   UNL A   1      35.425  21.587  24.479  1.00  0.00    -0.462 OA
BRANCH   5   6
ATOM      6  C   UNL A   1      34.402  21.791  25.360  1.00  0.00     0.328 C 
ATOM      7  O   UNL A   1      34.424  22.663  26.224  1.00  0.00    -0.250 OA
BRANCH   6   8
ATOM      8  C   UNL A   1      33.243  20.760  25.182  1.00  0.00     0.194 C 
BRANCH   8   9
ATOM      9  N   UNL A   1      32.094  21.572  24.796  1.00  0.00    -0.341 N 
ATOM     10  C   UNL A   1      31.964  22.465  23.762  1.00  0.00     0.240 C 
ATOM     11  O   UNL A   1      30.829  22.957  23.671  1.00  0.00    -0.273 OA
ATOM     12  H   UNL A   1      31.295  21.465  25.362  1.00  0.00     0.164 HD
BRANCH  10  13
ATOM     13  C   UNL A   1      33.046  22.756  22.585  1.00  0.00     0.216 C 
BRANCH  13  14
ATOM     14  N   UNL A   1      33.182  24.025  21.790  1.00  0.00    -0.347 N 
ATOM     15  C   UNL A   1      32.663  25.292  21.673  1.00  0.00     0.225 C 
ATOM     16  O   UNL A   1      33.271  25.995  20.847  1.00  0.00    -0.275 OA
ATOM     17  H   UNL A   1      33.891  23.907  21.117  1.00  0.00     0.164 HD
BRANCH  15  18
ATOM     18  C   UNL A   1      31.451  25.985  22.422  1.00  0.00     0.143 C 
BRANCH  18  19
ATOM     19  C   UNL A   1      31.601  26.751  23.784  1.00  0.00     0.051 A 
ATOM     20  C   UNL A   1      36.509  29.633  28.318  1.00  0.00     0.048 C 
ATOM     21  C   UNL A   1      35.205  30.126  27.820  1.00  0.00    -0.005 A 
ATOM     22  C   UNL A   1      34.735  31.403  28.058  1.00  0.00     0.199 A 
ATOM     23  C   UNL A   1      34.192  29.471  27.024  1.00  0.00     0.024 A 
ATOM     24  O   UNL A   1      33.537  31.594  27.469  1.00  0.00    -0.464 OA
ATOM     25  C   UNL A   1      33.202  30.431  26.849  1.00  0.00     0.140 A 
ATOM     26  C   UNL A   1      33.989  28.200  26.396  1.00  0.00     0.024 A 
ATOM     27  C   UNL A   1      32.027  30.246  26.122  1.00  0.00     0.036 A 
ATOM     28  C   UNL A   1      32.806  27.927  25.641  1.00  0.00     0.022 A 
ATOM     29  C   UNL A   1      31.056  31.367  25.927  1.00  0.00     0.052 C 
ATOM     30  C   UNL A   1      31.860  28.955  25.570  1.00  0.00     0.145 A 
ATOM     31  C   UNL A   1      32.612  26.730  24.715  1.00  0.00    -0.029 A 
ATOM     32  O   UNL A   1      30.660  28.747  24.861  1.00  0.00    -0.422 OA
ATOM     33  C   UNL A   1      33.766  25.758  24.671  1.00  0.00     0.046 C 
ATOM     34  C   UNL A   1      30.461  27.684  24.006  1.00  0.00     0.340 A 
ATOM     35  O   UNL A   1      29.390  27.544  23.427  1.00  0.00    -0.246 OA
ENDBRANCH  18  19
ENDBRANCH  15  18
ENDBRANCH  13  14
ENDBRANCH  10  13
ENDBRANCH   8   9
BRANCH   8  36
ATOM     36  C   UNL A   1      33.358  19.664  24.140  1.00  0.00     0.017 C 
ATOM     37  C   UNL A   1      34.024  18.439  24.632  1.00  0.00     0.010 C 
ATOM     38  C   UNL A   1      32.161  19.364  23.246  1.00  0.00     0.010 C 
ENDBRANCH   8  36
ENDBRANCH   6   8
ENDBRANCH   5   6
ENDBRANCH   4   5
ENDBRANCH   3   4
ENDBRANCH   2   3
ENDBRANCH   1   2
BRANCH   1  39
ATOM     39  C   UNL A   1      40.088  21.913  26.961  1.00  0.00     0.188 C 
BRANCH  39  40
ATOM     40  O   UNL A   1      41.505  21.897  26.983  1.00  0.00    -0.377 OA
BRANCH  40  41
ATOM     41  C   UNL A   1      42.226  21.871  25.768  1.00  0.00     0.188 C 
BRANCH  41  42
ATOM     42  C   UNL A   1      43.705  21.413  25.752  1.00  0.00     0.188 C 
BRANCH  42  43
ATOM     43  O   UNL A   1      44.363  21.548  24.497  1.00  0.00    -0.376 OA
BRANCH  43  44
ATOM     44  C   UNL A   1      44.578  22.825  23.934  1.00  0.00     0.202 C 
BRANCH  44  45
ATOM     45  C   UNL A   1      44.979  23.922  24.912  1.00  0.00     0.261 C 
BRANCH  45  46
ATOM     46  O   UNL A   1      44.307  25.149  24.698  1.00  0.00    -0.460 OA
BRANCH  46  47
ATOM     47  C   UNL A   1      43.728  25.665  25.783  1.00  0.00     0.338 C 
ATOM     48  O   UNL A   1      43.129  25.055  26.680  1.00  0.00    -0.246 OA
BRANCH  47  49
ATOM     49  C   UNL A   1      43.823  27.111  25.721  1.00  0.00     0.060 A 
ATOM     50  C   UNL A   1      44.942  27.703  26.313  1.00  0.00     0.016 A 
ATOM     51  C   UNL A   1      42.633  27.803  25.474  1.00  0.00     0.016 A 
ATOM     52  C   UNL A   1      44.761  28.907  26.941  1.00  0.00     0.010 A 
ATOM     53  C   UNL A   1      42.435  28.969  26.150  1.00  0.00     0.010 A 
ATOM     54  C   UNL A   1      43.470  29.440  26.954  1.00  0.00    -0.014 A 
BRANCH  54  55
ATOM     55  C   UNL A   1      43.189  30.538  27.842  1.00  0.00     0.031 A 
ATOM     56  C   UNL A   1      43.951  31.749  27.489  1.00  0.00     0.074 A 
ATOM     57  C   UNL A   1      42.219  30.428  28.770  1.00  0.00     0.049 A 
ATOM     58  N   UNL A   1      44.879  32.324  28.177  1.00  0.00    -0.248 NA
ATOM     59  C   UNL A   1      43.807  32.266  26.116  1.00  0.00     0.031 C 
ATOM     60  C   UNL A   1      41.264  29.330  28.958  1.00  0.00     0.029 A 
ATOM     61  N   UNL A   1      41.808  31.344  29.683  1.00  0.00    -0.354 N 
ATOM     62  C   UNL A   1      45.279  33.404  27.401  1.00  0.00     0.074 A 
ATOM     63  C   UNL A   1      44.775  33.179  26.075  1.00  0.00     0.031 C 
ATOM     64  C   UNL A   1      40.257  29.744  29.762  1.00  0.00     0.029 A 
ATOM     65  C   UNL A   1      40.558  31.082  30.234  1.00  0.00     0.049 A 
ATOM     66  H   UNL A   1      42.349  32.127  29.934  1.00  0.00     0.167 HD
ATOM     67  C   UNL A   1      45.713  34.552  27.981  1.00  0.00     0.037 A 
ATOM     68  C   UNL A   1      39.813  31.980  30.929  1.00  0.00     0.037 A 
ATOM     69  C   UNL A   1      46.113  34.334  29.344  1.00  0.00     0.049 A 
ATOM     70  C   UNL A   1      40.740  33.062  31.365  1.00  0.00     0.074 A 
ATOM     71  C   UNL A   1      47.082  33.561  29.952  1.00  0.00     0.029 A 
ATOM     72  N   UNL A   1      45.212  34.657  30.329  1.00  0.00    -0.354 N 
ATOM     73  N   UNL A   1      41.694  32.892  32.239  1.00  0.00    -0.248 NA
ATOM     74  C   UNL A   1      40.905  34.202  30.475  1.00  0.00     0.031 C 
ATOM     75  C   UNL A   1      46.484  33.088  31.156  1.00  0.00     0.029 A 
ATOM     76  C   UNL A   1      45.207  33.644  31.253  1.00  0.00     0.049 A 
ATOM     77  H   UNL A   1      44.664  35.475  30.366  1.00  0.00     0.167 HD
ATOM     78  C   UNL A   1      42.763  33.629  31.746  1.00  0.00     0.074 A 
ATOM     79  C   UNL A   1      42.195  34.472  30.698  1.00  0.00     0.031 C 
ATOM     80  C   UNL A   1      44.048  33.270  32.031  1.00  0.00     0.037 A 
BRANCH  67  81
ATOM     81  C   UNL A   1      45.393  35.913  27.427  1.00  0.00     0.064 A 
ATOM     82  C   UNL A   1      46.441  36.805  27.153  1.00  0.00     0.173 A 
ATOM     83  C   UNL A   1      44.093  36.469  27.407  1.00  0.00     0.173 A 
ATOM     84  F   UNL A   1      47.716  36.390  27.195  1.00  0.00    -0.203 F 
ATOM     85  C   UNL A   1      46.206  38.161  26.911  1.00  0.00     0.198 A 
ATOM     86  C   UNL A   1      43.856  37.806  27.100  1.00  0.00     0.198 A 
ATOM     87  F   UNL A   1      43.012  35.781  27.794  1.00  0.00    -0.203 F 
ATOM     88  F   UNL A   1      47.241  38.998  26.769  1.00  0.00    -0.200 F 
ATOM     89  C   UNL A   1      44.914  38.658  26.880  1.00  0.00     0.200 A 
ATOM     90  F   UNL A   1      42.598  38.269  27.102  1.00  0.00    -0.200 F 
ATOM     91  F   UNL A   1      44.691  39.965  26.693  1.00  0.00    -0.200 F 
ENDBRANCH  67  81
BRANCH  68  92
ATOM     92  C   UNL A   1      38.341  32.175  30.901  1.00  0.00     0.064 A 
ATOM     93  C   UNL A   1      37.550  31.811  32.004  1.00  0.00     0.173 A 
ATOM     94  C   UNL A   1      37.717  32.984  29.930  1.00  0.00     0.173 A 
ATOM     95  F   UNL A   1      38.075  31.076  32.995  1.00  0.00    -0.203 F 
ATOM     96  C   UNL A   1      36.233  32.261  32.147  1.00  0.00     0.198 A 
ATOM     97  C   UNL A   1      36.400  33.426  30.070  1.00  0.00     0.198 A 
ATOM     98  F   UNL A   1      38.401  33.448  28.875  1.00  0.00    -0.203 F 
ATOM     99  F   UNL A   1      35.536  31.951  33.251  1.00  0.00    -0.200 F 
ATOM    100  C   UNL A   1      35.664  33.079  31.187  1.00  0.00     0.200 A 
ATOM    101  F   UNL A   1      35.874  34.246  29.149  1.00  0.00    -0.200 F 
ATOM    102  F   UNL A   1      34.427  33.567  31.355  1.00  0.00    -0.200 F 
ENDBRANCH  68  92
BRANCH  80 103
ATOM    103  C   UNL A   1      44.263  32.226  33.093  1.00  0.00     0.064 A 
ATOM    104  C   UNL A   1      44.284  32.501  34.473  1.00  0.00     0.173 A 
ATOM    105  C   UNL A   1      44.277  30.881  32.704  1.00  0.00     0.173 A 
ATOM    106  F   UNL A   1      44.180  33.756  34.926  1.00  0.00    -0.203 F 
ATOM    107  C   UNL A   1      44.347  31.473  35.414  1.00  0.00     0.198 A 
ATOM    108  C   UNL A   1      44.301  29.856  33.645  1.00  0.00     0.198 A 
ATOM    109  F   UNL A   1      44.206  30.559  31.403  1.00  0.00    -0.203 F 
ATOM    110  F   UNL A   1      44.369  31.760  36.724  1.00  0.00    -0.200 F 
ATOM    111  C   UNL A   1      44.343  30.151  34.998  1.00  0.00     0.200 A 
ATOM    112  F   UNL A   1      44.246  28.580  33.241  1.00  0.00    -0.200 F 
ATOM    113  F   UNL A   1      44.349  29.162  35.903  1.00  0.00    -0.200 F 
ENDBRANCH  80 103
ENDBRANCH  54  55
ENDBRANCH  47  49
ENDBRANCH  46  47
ENDBRANCH  45  46
ENDBRANCH  44  45
ENDBRANCH  43  44
ENDBRANCH  42  43
ENDBRANCH  41  42
ENDBRANCH  40  41
ENDBRANCH  39  40
ENDBRANCH   1  39
TORSDOF 26
ENDMDL
MODEL 3
REMARK VINA RESULT:      -9.8      3.085      8.067
REMARK SMILES Cc1coc2c(C)c3oc(=O)c(CC(=O)NCC(=O)N[C@H](C(=O)OCCOCCOCCOCCOC(=O)c4ccc(-c5c6nc(c(-c7c(F)c(F)c(F)c(F)c7F)c7ccc([nH]7)c(-c7c(F)c(F)c(F)c(F)c7F)c7nc(c(-c8c(F)c(F)c(F)c(F)c8F)c8ccc5[nH]8)C=C7)C=C6)cc4)C(C)C)c(C)c3cc12
REMARK SMILES IDX 28 1 27 2 26 3 25 4 24 5 22 6 23 7 21 8 20 9 18 10 19 11
REMARK SMILES IDX 17 13 16 14 14 15 15 16 13 18 12 19 1 20 2 21 3 22 109 23
REMARK SMILES IDX 4 24 5 25 108 26 6 27 107 28 7 29 8 30 105 31 9 32 106 33
REMARK SMILES IDX 10 34 11 35 102 36 103 37 104 38 29 39 30 40 31 41 32 42
REMARK SMILES IDX 33 43 34 44 35 45 36 46 37 47 38 48 39 49 40 50 101 51 41 52
REMARK SMILES IDX 100 53 42 54 43 55 44 56 94 57 45 58 99 59 93 60 95 61 46 62
REMARK SMILES IDX 98 63 92 64 91 65 47 67 79 68 59 69 78 70 60 71 63 72 77 73
REMARK SMILES IDX 96 74 61 75 62 76 76 78 97 79 64 80 48 81 49 82 57 83 50 84
REMARK SMILES IDX 51 85 55 86 58 87 52 88 53 89 56 90 54 91 80 92 81 93 89 94
REMARK SMILES IDX 82 95 83 96 87 97 90 98 84 99 85 100 88 101 86 102 65 103
REMARK SMILES IDX 66 104 74 105 67 106 68 107 72 108 75 109 69 110 70 111
REMARK SMILES IDX 73 112 71 113
REMARK H PARENT 20 12 16 17 95 66 63 77
REMARK Flexibility Score: inf
ROOT
ATOM      1  C   UNL A   1      32.524  23.237  27.576  1.00  0.00     0.188 C 
ENDROOT
BRANCH   1   2
ATOM      2  O   UNL A   1      31.180  22.845  27.683  1.00  0.00    -0.376 OA
BRANCH   2   3
ATOM      3  C   UNL A   1      30.319  23.119  26.608  1.00  0.00     0.202 C 
BRANCH   3   4
ATOM      4  C   UNL A   1      30.752  23.961  25.391  1.00  0.00     0.261 C 
BRANCH   4   5
ATOM      5  O   UNL A   1      31.570  23.374  24.356  1.00  0.00    -0.462 OA
BRANCH   5   6
ATOM      6  C   UNL A   1      31.805  24.148  23.257  1.00  0.00     0.328 C 
ATOM      7  O   UNL A   1      30.984  24.940  22.804  1.00  0.00    -0.250 OA
BRANCH   6   8
ATOM      8  C   UNL A   1      33.202  23.868  22.615  1.00  0.00     0.194 C 
BRANCH   8   9
ATOM      9  N   UNL A   1      33.525  25.100  21.905  1.00  0.00    -0.341 N 
ATOM     10  C   UNL A   1      33.659  26.378  22.387  1.00  0.00     0.240 C 
ATOM     11  O   UNL A   1      33.996  27.202  21.524  1.00  0.00    -0.273 OA
ATOM     12  H   UNL A   1      33.667  25.000  20.935  1.00  0.00     0.164 HD
BRANCH  10  13
ATOM     13  C   UNL A   1      33.621  26.838  23.945  1.00  0.00     0.216 C 
BRANCH  13  14
ATOM     14  N   UNL A   1      32.393  27.163  24.751  1.00  0.00    -0.347 N 
ATOM     15  C   UNL A   1      31.695  28.219  25.284  1.00  0.00     0.225 C 
ATOM     16  O   UNL A   1      30.620  27.879  25.809  1.00  0.00    -0.275 OA
ATOM     17  H   UNL A   1      31.927  26.325  24.977  1.00  0.00     0.164 HD
BRANCH  15  18
ATOM     18  C   UNL A   1      32.029  29.768  25.317  1.00  0.00     0.143 C 
BRANCH  18  19
ATOM     19  C   UNL A   1      32.725  30.475  26.534  1.00  0.00     0.051 A 
ATOM     20  C   UNL A   1      39.147  31.364  29.840  1.00  0.00     0.048 C 
ATOM     21  C   UNL A   1      38.062  32.313  29.500  1.00  0.00    -0.005 A 
ATOM     22  C   UNL A   1      38.177  33.682  29.652  1.00  0.00     0.199 A 
ATOM     23  C   UNL A   1      36.741  32.082  28.963  1.00  0.00     0.024 A 
ATOM     24  O   UNL A   1      37.055  34.309  29.244  1.00  0.00    -0.464 OA
ATOM     25  C   UNL A   1      36.183  33.348  28.832  1.00  0.00     0.140 A 
ATOM     26  C   UNL A   1      35.946  30.970  28.535  1.00  0.00     0.024 A 
ATOM     27  C   UNL A   1      34.911  33.615  28.330  1.00  0.00     0.036 A 
ATOM     28  C   UNL A   1      34.626  31.158  28.018  1.00  0.00     0.022 A 
ATOM     29  C   UNL A   1      34.428  35.020  28.157  1.00  0.00     0.052 C 
ATOM     30  C   UNL A   1      34.156  32.474  27.974  1.00  0.00     0.145 A 
ATOM     31  C   UNL A   1      33.810  30.096  27.288  1.00  0.00    -0.029 A 
ATOM     32  O   UNL A   1      32.855  32.731  27.496  1.00  0.00    -0.422 OA
ATOM     33  C   UNL A   1      34.469  28.741  27.179  1.00  0.00     0.046 C 
ATOM     34  C   UNL A   1      32.099  31.796  26.820  1.00  0.00     0.340 A 
ATOM     35  O   UNL A   1      30.966  32.070  26.441  1.00  0.00    -0.246 OA
ENDBRANCH  18  19
ENDBRANCH  15  18
ENDBRANCH  13  14
ENDBRANCH  10  13
ENDBRANCH   8   9
BRANCH   8  36
ATOM     36  C   UNL A   1      34.394  23.562  23.501  1.00  0.00     0.017 C 
ATOM     37  C   UNL A   1      35.639  23.285  22.754  1.00  0.00     0.010 C 
ATOM     38  C   UNL A   1      34.630  24.414  24.743  1.00  0.00     0.010 C 
ENDBRANCH   8  36
ENDBRANCH   6   8
ENDBRANCH   5   6
ENDBRANCH   4   5
ENDBRANCH   3   4
ENDBRANCH   2   3
ENDBRANCH   1   2
BRANCH   1  39
ATOM     39  C   UNL A   1      33.527  22.063  27.731  1.00  0.00     0.188 C 
BRANCH  39  40
ATOM     40  O   UNL A   1      33.456  20.869  26.971  1.00  0.00    -0.377 OA
BRANCH  40  41
ATOM     41  C   UNL A   1      33.762  20.896  25.592  1.00  0.00     0.188 C 
BRANCH  41  42
ATOM     42  C   UNL A   1      34.729  19.847  24.989  1.00  0.00     0.188 C 
BRANCH  42  43
ATOM     43  O   UNL A   1      36.099  20.232  24.969  1.00  0.00    -0.376 OA
BRANCH  43  44
ATOM     44  C   UNL A   1      36.533  21.375  25.677  1.00  0.00     0.202 C 
BRANCH  44  45
ATOM     45  C   UNL A   1      37.962  21.822  25.399  1.00  0.00     0.261 C 
BRANCH  45  46
ATOM     46  O   UNL A   1      38.383  22.913  26.198  1.00  0.00    -0.460 OA
BRANCH  46  47
ATOM     47  C   UNL A   1      39.635  22.824  26.648  1.00  0.00     0.338 C 
ATOM     48  O   UNL A   1      40.238  21.801  27.003  1.00  0.00    -0.246 OA
BRANCH  47  49
ATOM     49  C   UNL A   1      40.190  24.160  26.756  1.00  0.00     0.060 A 
ATOM     50  C   UNL A   1      41.393  24.406  26.091  1.00  0.00     0.016 A 
ATOM     51  C   UNL A   1      39.732  24.939  27.823  1.00  0.00     0.016 A 
ATOM     52  C   UNL A   1      42.289  25.247  26.699  1.00  0.00     0.010 A 
ATOM     53  C   UNL A   1      40.643  25.727  28.460  1.00  0.00     0.010 A 
ATOM     54  C   UNL A   1      41.935  25.779  27.941  1.00  0.00    -0.014 A 
BRANCH  54  55
ATOM     55  C   UNL A   1      42.954  26.419  28.730  1.00  0.00     0.031 A 
ATOM     56  C   UNL A   1      42.863  27.889  28.670  1.00  0.00     0.074 A 
ATOM     57  C   UNL A   1      43.763  25.684  29.516  1.00  0.00     0.049 A 
ATOM     58  N   UNL A   1      43.712  28.710  28.150  1.00  0.00    -0.248 NA
ATOM     59  C   UNL A   1      41.580  28.506  29.053  1.00  0.00     0.031 C 
ATOM     60  C   UNL A   1      43.693  24.246  29.799  1.00  0.00     0.029 A 
ATOM     61  N   UNL A   1      44.768  26.102  30.328  1.00  0.00    -0.354 N 
ATOM     62  C   UNL A   1      43.153  29.967  28.341  1.00  0.00     0.074 A 
ATOM     63  C   UNL A   1      41.768  29.766  28.667  1.00  0.00     0.031 C 
ATOM     64  C   UNL A   1      44.459  23.963  30.878  1.00  0.00     0.029 A 
ATOM     65  C   UNL A   1      45.159  25.168  31.283  1.00  0.00     0.049 A 
ATOM     66  H   UNL A   1      45.185  26.989  30.247  1.00  0.00     0.167 HD
ATOM     67  C   UNL A   1      43.940  31.055  28.535  1.00  0.00     0.037 A 
ATOM     68  C   UNL A   1      45.916  25.446  32.374  1.00  0.00     0.037 A 
ATOM     69  C   UNL A   1      45.283  30.820  28.079  1.00  0.00     0.049 A 
ATOM     70  C   UNL A   1      46.596  26.745  32.108  1.00  0.00     0.074 A 
ATOM     71  C   UNL A   1      45.846  30.525  26.853  1.00  0.00     0.029 A 
ATOM     72  N   UNL A   1      46.223  30.479  29.021  1.00  0.00    -0.354 N 
ATOM     73  N   UNL A   1      47.513  26.909  31.195  1.00  0.00    -0.248 NA
ATOM     74  C   UNL A   1      45.913  27.958  32.531  1.00  0.00     0.031 C 
ATOM     75  C   UNL A   1      46.904  29.613  27.137  1.00  0.00     0.029 A 
ATOM     76  C   UNL A   1      46.973  29.446  28.521  1.00  0.00     0.049 A 
ATOM     77  H   UNL A   1      46.337  30.902  29.903  1.00  0.00     0.167 HD
ATOM     78  C   UNL A   1      47.239  28.149  30.634  1.00  0.00     0.074 A 
ATOM     79  C   UNL A   1      46.289  28.779  31.546  1.00  0.00     0.031 C 
ATOM     80  C   UNL A   1      47.577  28.420  29.340  1.00  0.00     0.037 A 
BRANCH  67  81
ATOM     81  C   UNL A   1      43.579  32.160  29.489  1.00  0.00     0.064 A 
ATOM     82  C   UNL A   1      43.316  31.846  30.832  1.00  0.00     0.173 A 
ATOM     83  C   UNL A   1      43.220  33.465  29.082  1.00  0.00     0.173 A 
ATOM     84  F   UNL A   1      43.572  30.618  31.307  1.00  0.00    -0.203 F 
ATOM     85  C   UNL A   1      42.707  32.763  31.693  1.00  0.00     0.198 A 
ATOM     86  C   UNL A   1      42.675  34.398  29.959  1.00  0.00     0.198 A 
ATOM     87  F   UNL A   1      43.270  33.857  27.804  1.00  0.00    -0.203 F 
ATOM     88  F   UNL A   1      42.370  32.384  32.932  1.00  0.00    -0.200 F 
ATOM     89  C   UNL A   1      42.393  34.039  31.257  1.00  0.00     0.200 A 
ATOM     90  F   UNL A   1      42.355  35.619  29.506  1.00  0.00    -0.200 F 
ATOM     91  F   UNL A   1      41.769  34.902  32.069  1.00  0.00    -0.200 F 
ENDBRANCH  67  81
BRANCH  68  92
ATOM     92  C   UNL A   1      45.788  24.897  33.749  1.00  0.00     0.064 A 
ATOM     93  C   UNL A   1      44.547  24.898  34.407  1.00  0.00     0.173 A 
ATOM     94  C   UNL A   1      46.797  24.099  34.327  1.00  0.00     0.173 A 
ATOM     95  F   UNL A   1      43.519  25.597  33.904  1.00  0.00    -0.203 F 
ATOM     96  C   UNL A   1      44.316  24.119  35.547  1.00  0.00     0.198 A 
ATOM     97  C   UNL A   1      46.568  23.329  35.468  1.00  0.00     0.198 A 
ATOM     98  F   UNL A   1      47.996  23.969  33.741  1.00  0.00    -0.203 F 
ATOM     99  F   UNL A   1      43.096  24.091  36.102  1.00  0.00    -0.200 F 
ATOM    100  C   UNL A   1      45.323  23.325  36.068  1.00  0.00     0.200 A 
ATOM    101  F   UNL A   1      47.542  22.538  35.941  1.00  0.00    -0.200 F 
ATOM    102  F   UNL A   1      45.084  22.526  37.118  1.00  0.00    -0.200 F 
ENDBRANCH  68  92
BRANCH  80 103
ATOM    103  C   UNL A   1      48.478  27.444  28.634  1.00  0.00     0.064 A 
ATOM    104  C   UNL A   1      48.016  26.366  27.858  1.00  0.00     0.173 A 
ATOM    105  C   UNL A   1      49.852  27.715  28.606  1.00  0.00     0.173 A 
ATOM    106  F   UNL A   1      46.707  26.101  27.759  1.00  0.00    -0.203 F 
ATOM    107  C   UNL A   1      48.896  25.581  27.114  1.00  0.00     0.198 A 
ATOM    108  C   UNL A   1      50.724  26.953  27.833  1.00  0.00     0.198 A 
ATOM    109  F   UNL A   1      50.342  28.763  29.286  1.00  0.00    -0.203 F 
ATOM    110  F   UNL A   1      48.431  24.556  26.383  1.00  0.00    -0.200 F 
ATOM    111  C   UNL A   1      50.248  25.884  27.093  1.00  0.00     0.200 A 
ATOM    112  F   UNL A   1      52.021  27.281  27.776  1.00  0.00    -0.200 F 
ATOM    113  F   UNL A   1      51.087  25.163  26.336  1.00  0.00    -0.200 F 
ENDBRANCH  80 103
ENDBRANCH  54  55
ENDBRANCH  47  49
ENDBRANCH  46  47
ENDBRANCH  45  46
ENDBRANCH  44  45
ENDBRANCH  43  44
ENDBRANCH  42  43
ENDBRANCH  41  42
ENDBRANCH  40  41
ENDBRANCH  39  40
ENDBRANCH   1  39
TORSDOF 26
ENDMDL
