MODEL 1
REMARK VINA RESULT:      -9.9      0.000      0.000
REMARK SMILES O=C(OCCOCCOCCOCCOC(=O)[C@@H]1CCCC[C@@H]1Sc1ccncc1)c1ccc(-c2c3nc(c(-c4c(F)c(F)c(F)c(F)c4F)c4ccc([nH]4)c(-c4c(F)c(F)c(F)c(F)c4F)c4nc(c(-c5c(F)c(F)c(F)c(F)c5F)c5ccc2[nH]5)C=C4)C=C3)cc1
REMARK SMILES IDX 9 1 8 2 7 3 6 4 5 5 4 6 3 7 2 8 1 9 31 10 32 11 93 12 33 13
REMARK SMILES IDX 92 14 34 15 35 16 36 17 86 18 37 19 91 20 85 21 87 22 38 23
REMARK SMILES IDX 90 24 84 25 83 26 39 28 71 29 51 30 70 31 52 32 55 33 69 34
REMARK SMILES IDX 88 35 53 36 54 37 68 39 89 40 56 41 40 42 41 43 49 44 42 45
REMARK SMILES IDX 43 46 47 47 50 48 44 49 45 50 48 51 46 52 72 53 73 54 81 55
REMARK SMILES IDX 74 56 75 57 79 58 82 59 76 60 77 61 80 62 78 63 57 64 58 65
REMARK SMILES IDX 66 66 59 67 60 68 64 69 67 70 61 71 62 72 65 73 63 74 10 75
REMARK SMILES IDX 11 76 12 77 13 78 14 79 15 80 16 81 17 82 18 83 19 84 23 85
REMARK SMILES IDX 20 86 22 87 21 88 24 89 25 90 26 91 30 92 27 93 29 94 28 95
REMARK H PARENT 87 27 55 38
REMARK Flexibility Score: inf
ROOT
ATOM      1  O   UNL A   1      35.230  31.781  28.673  1.00  0.00    -0.377 OA
ENDROOT
BRANCH   1   2
ATOM      2  C   UNL A   1      34.508  32.816  29.325  1.00  0.00     0.188 C 
BRANCH   2   3
ATOM      3  C   UNL A   1      33.948  33.884  28.389  1.00  0.00     0.188 C 
BRANCH   3   4
ATOM      4  O   UNL A   1      34.738  35.075  28.428  1.00  0.00    -0.376 OA
BRANCH   4   5
ATOM      5  C   UNL A   1      34.025  36.288  28.674  1.00  0.00     0.202 C 
BRANCH   5   6
ATOM      6  C   UNL A   1      32.662  36.083  29.333  1.00  0.00     0.261 C 
BRANCH   6   7
ATOM      7  O   UNL A   1      32.671  36.406  30.729  1.00  0.00    -0.460 OA
BRANCH   7   8
ATOM      8  C   UNL A   1      32.736  35.561  31.787  1.00  0.00     0.338 C 
ATOM      9  O   UNL A   1      31.674  35.222  32.312  1.00  0.00    -0.246 OA
BRANCH   8  10
ATOM     10  C   UNL A   1      34.003  35.006  32.375  1.00  0.00     0.060 A 
ATOM     11  C   UNL A   1      35.265  35.602  32.341  1.00  0.00     0.016 A 
ATOM     12  C   UNL A   1      33.884  33.781  33.060  1.00  0.00     0.016 A 
ATOM     13  C   UNL A   1      36.377  35.001  32.912  1.00  0.00     0.010 A 
ATOM     14  C   UNL A   1      34.998  33.156  33.630  1.00  0.00     0.010 A 
ATOM     15  C   UNL A   1      36.254  33.758  33.517  1.00  0.00    -0.014 A 
BRANCH  15  16
ATOM     16  C   UNL A   1      37.501  33.017  33.764  1.00  0.00     0.031 A 
ATOM     17  C   UNL A   1      38.157  33.221  35.096  1.00  0.00     0.074 A 
ATOM     18  C   UNL A   1      37.898  32.061  32.910  1.00  0.00     0.049 A 
ATOM     19  N   UNL A   1      39.266  32.721  35.566  1.00  0.00    -0.248 NA
ATOM     20  C   UNL A   1      37.445  34.097  36.046  1.00  0.00     0.031 C 
ATOM     21  C   UNL A   1      37.199  31.687  31.678  1.00  0.00     0.029 A 
ATOM     22  N   UNL A   1      38.963  31.205  32.966  1.00  0.00    -0.354 N 
ATOM     23  C   UNL A   1      39.393  33.237  36.849  1.00  0.00     0.074 A 
ATOM     24  C   UNL A   1      38.259  34.096  37.088  1.00  0.00     0.031 C 
ATOM     25  C   UNL A   1      37.856  30.669  31.097  1.00  0.00     0.029 A 
ATOM     26  C   UNL A   1      39.052  30.372  31.878  1.00  0.00     0.049 A 
ATOM     27  H   UNL A   1      39.603  31.188  33.714  1.00  0.00     0.167 HD
ATOM     28  C   UNL A   1      40.381  33.006  37.741  1.00  0.00     0.037 A 
ATOM     29  C   UNL A   1      40.027  29.506  31.547  1.00  0.00     0.037 A 
ATOM     30  C   UNL A   1      41.497  32.149  37.458  1.00  0.00     0.049 A 
ATOM     31  C   UNL A   1      41.191  29.375  32.497  1.00  0.00     0.074 A 
ATOM     32  C   UNL A   1      42.622  31.904  38.218  1.00  0.00     0.029 A 
ATOM     33  N   UNL A   1      41.615  31.389  36.299  1.00  0.00    -0.354 N 
ATOM     34  N   UNL A   1      41.372  29.940  33.669  1.00  0.00    -0.248 NA
ATOM     35  C   UNL A   1      42.293  28.504  32.076  1.00  0.00     0.031 C 
ATOM     36  C   UNL A   1      43.444  31.029  37.498  1.00  0.00     0.029 A 
ATOM     37  C   UNL A   1      42.802  30.684  36.316  1.00  0.00     0.049 A 
ATOM     38  H   UNL A   1      40.951  31.359  35.573  1.00  0.00     0.167 HD
ATOM     39  C   UNL A   1      42.592  29.476  34.137  1.00  0.00     0.074 A 
ATOM     40  C   UNL A   1      43.097  28.565  33.128  1.00  0.00     0.031 C 
ATOM     41  C   UNL A   1      43.248  29.775  35.288  1.00  0.00     0.037 A 
BRANCH  28  42
ATOM     42  C   UNL A   1      40.317  33.754  39.040  1.00  0.00     0.064 A 
ATOM     43  C   UNL A   1      39.540  33.307  40.121  1.00  0.00     0.173 A 
ATOM     44  C   UNL A   1      41.000  34.971  39.187  1.00  0.00     0.173 A 
ATOM     45  F   UNL A   1      38.835  32.169  40.020  1.00  0.00    -0.203 F 
ATOM     46  C   UNL A   1      39.425  34.065  41.284  1.00  0.00     0.198 A 
ATOM     47  C   UNL A   1      40.906  35.712  40.362  1.00  0.00     0.198 A 
ATOM     48  F   UNL A   1      41.746  35.453  38.180  1.00  0.00    -0.203 F 
ATOM     49  F   UNL A   1      38.623  33.651  42.276  1.00  0.00    -0.200 F 
ATOM     50  C   UNL A   1      40.111  35.263  41.405  1.00  0.00     0.200 A 
ATOM     51  F   UNL A   1      41.570  36.870  40.476  1.00  0.00    -0.200 F 
ATOM     52  F   UNL A   1      39.991  35.997  42.521  1.00  0.00    -0.200 F 
ENDBRANCH  28  42
BRANCH  29  53
ATOM     53  C   UNL A   1      39.984  28.769  30.254  1.00  0.00     0.064 A 
ATOM     54  C   UNL A   1      39.398  27.500  30.151  1.00  0.00     0.173 A 
ATOM     55  C   UNL A   1      40.572  29.304  29.096  1.00  0.00     0.173 A 
ATOM     56  F   UNL A   1      38.842  26.929  31.229  1.00  0.00    -0.203 F 
ATOM     57  C   UNL A   1      39.425  26.786  28.951  1.00  0.00     0.198 A 
ATOM     58  C   UNL A   1      40.567  28.607  27.889  1.00  0.00     0.198 A 
ATOM     59  F   UNL A   1      41.155  30.512  29.133  1.00  0.00    -0.203 F 
ATOM     60  F   UNL A   1      38.912  25.549  28.899  1.00  0.00    -0.200 F 
ATOM     61  C   UNL A   1      40.006  27.342  27.821  1.00  0.00     0.200 A 
ATOM     62  F   UNL A   1      41.116  29.156  26.798  1.00  0.00    -0.200 F 
ATOM     63  F   UNL A   1      40.035  26.654  26.671  1.00  0.00    -0.200 F 
ENDBRANCH  29  53
BRANCH  41  64
ATOM     64  C   UNL A   1      44.549  29.071  35.523  1.00  0.00     0.064 A 
ATOM     65  C   UNL A   1      44.609  27.838  36.188  1.00  0.00     0.173 A 
ATOM     66  C   UNL A   1      45.743  29.618  35.030  1.00  0.00     0.173 A 
ATOM     67  F   UNL A   1      43.494  27.285  36.689  1.00  0.00    -0.203 F 
ATOM     68  C   UNL A   1      45.826  27.191  36.376  1.00  0.00     0.198 A 
ATOM     69  C   UNL A   1      46.952  28.950  35.188  1.00  0.00     0.198 A 
ATOM     70  F   UNL A   1      45.731  30.791  34.378  1.00  0.00    -0.203 F 
ATOM     71  F   UNL A   1      45.870  26.040  37.060  1.00  0.00    -0.200 F 
ATOM     72  C   UNL A   1      46.993  27.743  35.868  1.00  0.00     0.200 A 
ATOM     73  F   UNL A   1      48.076  29.475  34.680  1.00  0.00    -0.200 F 
ATOM     74  F   UNL A   1      48.163  27.111  36.041  1.00  0.00    -0.200 F 
ENDBRANCH  41  64
ENDBRANCH  15  16
ENDBRANCH   8  10
ENDBRANCH   7   8
ENDBRANCH   6   7
ENDBRANCH   5   6
ENDBRANCH   4   5
ENDBRANCH   3   4
ENDBRANCH   2   3
ENDBRANCH   1   2
BRANCH   1  75
ATOM     75  C   UNL A   1      34.552  31.104  27.625  1.00  0.00     0.188 C 
BRANCH  75  76
ATOM     76  C   UNL A   1      34.567  29.552  27.599  1.00  0.00     0.188 C 
BRANCH  76  77
ATOM     77  O   UNL A   1      33.603  28.963  26.741  1.00  0.00    -0.376 OA
BRANCH  77  78
ATOM     78  C   UNL A   1      32.249  29.160  27.134  1.00  0.00     0.202 C 
BRANCH  78  79
ATOM     79  C   UNL A   1      31.465  27.875  27.444  1.00  0.00     0.261 C 
BRANCH  79  80
ATOM     80  O   UNL A   1      31.885  26.688  26.731  1.00  0.00    -0.463 OA
BRANCH  80  81
ATOM     81  C   UNL A   1      31.028  26.075  25.869  1.00  0.00     0.310 C 
ATOM     82  O   UNL A   1      29.840  25.895  26.101  1.00  0.00    -0.252 OA
BRANCH  81  83
ATOM     83  C   UNL A   1      31.757  25.744  24.557  1.00  0.00     0.112 C 
ATOM     84  C   UNL A   1      33.274  26.042  24.542  1.00  0.00     0.016 C 
ATOM     85  C   UNL A   1      31.060  26.381  23.351  1.00  0.00     0.066 C 
ATOM     86  C   UNL A   1      33.930  25.544  23.253  1.00  0.00     0.001 C 
ATOM     87  C   UNL A   1      31.695  25.805  22.070  1.00  0.00     0.016 C 
ATOM     88  C   UNL A   1      33.211  26.019  21.994  1.00  0.00     0.001 C 
BRANCH  85  89
ATOM     89  S   UNL A   1      31.280  28.214  23.358  1.00  0.00    -0.122 SA
BRANCH  89  90
ATOM     90  C   UNL A   1      29.629  28.848  23.353  1.00  0.00     0.011 A 
ATOM     91  C   UNL A   1      28.486  28.071  23.212  1.00  0.00     0.035 A 
ATOM     92  C   UNL A   1      29.502  30.234  23.427  1.00  0.00     0.035 A 
ATOM     93  C   UNL A   1      27.263  28.714  23.149  1.00  0.00     0.112 A 
ATOM     94  C   UNL A   1      28.238  30.784  23.347  1.00  0.00     0.112 A 
ATOM     95  N   UNL A   1      27.114  30.053  23.210  1.00  0.00    -0.265 NA
ENDBRANCH  89  90
ENDBRANCH  85  89
ENDBRANCH  81  83
ENDBRANCH  80  81
ENDBRANCH  79  80
ENDBRANCH  78  79
ENDBRANCH  77  78
ENDBRANCH  76  77
ENDBRANCH  75  76
ENDBRANCH   1  75
TORSDOF 22
ENDMDL
MODEL 2
REMARK VINA RESULT:      -9.8      5.798     11.163
REMARK SMILES O=C(OCCOCCOCCOCCOC(=O)[C@@H]1CCCC[C@@H]1Sc1ccncc1)c1ccc(-c2c3nc(c(-c4c(F)c(F)c(F)c(F)c4F)c4ccc([nH]4)c(-c4c(F)c(F)c(F)c(F)c4F)c4nc(c(-c5c(F)c(F)c(F)c(F)c5F)c5ccc2[nH]5)C=C4)C=C3)cc1
REMARK SMILES IDX 9 1 8 2 7 3 6 4 5 5 4 6 3 7 2 8 1 9 31 10 32 11 93 12 33 13
REMARK SMILES IDX 92 14 34 15 35 16 36 17 86 18 37 19 91 20 85 21 87 22 38 23
REMARK SMILES IDX 90 24 84 25 83 26 39 28 71 29 51 30 70 31 52 32 55 33 69 34
REMARK SMILES IDX 88 35 53 36 54 37 68 39 89 40 56 41 40 42 41 43 49 44 42 45
REMARK SMILES IDX 43 46 47 47 50 48 44 49 45 50 48 51 46 52 72 53 73 54 81 55
REMARK SMILES IDX 74 56 75 57 79 58 82 59 76 60 77 61 80 62 78 63 57 64 58 65
REMARK SMILES IDX 66 66 59 67 60 68 64 69 67 70 61 71 62 72 65 73 63 74 10 75
REMARK SMILES IDX 11 76 12 77 13 78 14 79 15 80 16 81 17 82 18 83 19 84 23 85
REMARK SMILES IDX 20 86 22 87 21 88 24 89 25 90 26 91 30 92 27 93 29 94 28 95
REMARK H PARENT 87 27 55 38
REMARK Flexibility Score: inf
ROOT
ATOM      1  O   UNL A   1      34.803  23.020  26.756  1.00  0.00    -0.377 OA
ENDROOT
BRANCH   1   2
ATOM      2  C   UNL A   1      36.092  22.833  26.190  1.00  0.00     0.188 C 
BRANCH   2   3
ATOM      3  C   UNL A   1      36.354  21.425  25.663  1.00  0.00     0.188 C 
BRANCH   3   4
ATOM      4  O   UNL A   1      37.666  21.315  25.105  1.00  0.00    -0.376 OA
BRANCH   4   5
ATOM      5  C   UNL A   1      38.081  19.996  24.743  1.00  0.00     0.202 C 
BRANCH   5   6
ATOM      6  C   UNL A   1      39.022  19.343  25.753  1.00  0.00     0.261 C 
BRANCH   6   7
ATOM      7  O   UNL A   1      40.309  19.971  25.793  1.00  0.00    -0.460 OA
BRANCH   7   8
ATOM      8  C   UNL A   1      40.988  20.430  26.873  1.00  0.00     0.338 C 
ATOM      9  O   UNL A   1      41.555  19.600  27.585  1.00  0.00    -0.246 OA
BRANCH   8  10
ATOM     10  C   UNL A   1      41.102  21.874  27.275  1.00  0.00     0.060 A 
ATOM     11  C   UNL A   1      40.446  22.955  26.682  1.00  0.00     0.016 A 
ATOM     12  C   UNL A   1      41.923  22.147  28.386  1.00  0.00     0.016 A 
ATOM     13  C   UNL A   1      40.625  24.257  27.126  1.00  0.00     0.010 A 
ATOM     14  C   UNL A   1      42.124  23.454  28.838  1.00  0.00     0.010 A 
ATOM     15  C   UNL A   1      41.497  24.513  28.176  1.00  0.00    -0.014 A 
BRANCH  15  16
ATOM     16  C   UNL A   1      41.925  25.909  28.353  1.00  0.00     0.031 A 
ATOM     17  C   UNL A   1      43.247  26.292  27.761  1.00  0.00     0.074 A 
ATOM     18  C   UNL A   1      41.069  26.821  28.841  1.00  0.00     0.049 A 
ATOM     19  N   UNL A   1      43.875  27.435  27.790  1.00  0.00    -0.248 NA
ATOM     20  C   UNL A   1      43.952  25.240  27.004  1.00  0.00     0.031 C 
ATOM     21  C   UNL A   1      39.695  26.544  29.269  1.00  0.00     0.029 A 
ATOM     22  N   UNL A   1      41.213  28.168  29.024  1.00  0.00    -0.354 N 
ATOM     23  C   UNL A   1      45.051  27.231  27.079  1.00  0.00     0.074 A 
ATOM     24  C   UNL A   1      45.061  25.859  26.637  1.00  0.00     0.031 C 
ATOM     25  C   UNL A   1      39.122  27.693  29.661  1.00  0.00     0.029 A 
ATOM     26  C   UNL A   1      40.107  28.766  29.577  1.00  0.00     0.049 A 
ATOM     27  H   UNL A   1      42.030  28.661  28.783  1.00  0.00     0.167 HD
ATOM     28  C   UNL A   1      46.033  28.125  26.827  1.00  0.00     0.037 A 
ATOM     29  C   UNL A   1      39.949  30.032  30.003  1.00  0.00     0.037 A 
ATOM     30  C   UNL A   1      45.985  29.481  27.295  1.00  0.00     0.049 A 
ATOM     31  C   UNL A   1      41.116  30.972  29.838  1.00  0.00     0.074 A 
ATOM     32  C   UNL A   1      46.947  30.467  27.209  1.00  0.00     0.029 A 
ATOM     33  N   UNL A   1      44.888  30.038  27.945  1.00  0.00    -0.354 N 
ATOM     34  N   UNL A   1      42.275  30.759  29.258  1.00  0.00    -0.248 NA
ATOM     35  C   UNL A   1      40.964  32.319  30.397  1.00  0.00     0.031 C 
ATOM     36  C   UNL A   1      46.450  31.608  27.848  1.00  0.00     0.029 A 
ATOM     37  C   UNL A   1      45.155  31.352  28.279  1.00  0.00     0.049 A 
ATOM     38  H   UNL A   1      44.047  29.566  28.138  1.00  0.00     0.167 HD
ATOM     39  C   UNL A   1      42.982  31.948  29.361  1.00  0.00     0.074 A 
ATOM     40  C   UNL A   1      42.108  32.885  30.041  1.00  0.00     0.031 C 
ATOM     41  C   UNL A   1      44.239  32.246  28.943  1.00  0.00     0.037 A 
BRANCH  28  42
ATOM     42  C   UNL A   1      47.242  27.623  26.094  1.00  0.00     0.064 A 
ATOM     43  C   UNL A   1      47.349  27.695  24.696  1.00  0.00     0.173 A 
ATOM     44  C   UNL A   1      48.287  27.007  26.799  1.00  0.00     0.173 A 
ATOM     45  F   UNL A   1      46.361  28.240  23.970  1.00  0.00    -0.203 F 
ATOM     46  C   UNL A   1      48.441  27.142  24.031  1.00  0.00     0.198 A 
ATOM     47  C   UNL A   1      49.391  26.480  26.133  1.00  0.00     0.198 A 
ATOM     48  F   UNL A   1      48.229  26.898  28.135  1.00  0.00    -0.203 F 
ATOM     49  F   UNL A   1      48.489  27.162  22.691  1.00  0.00    -0.200 F 
ATOM     50  C   UNL A   1      49.462  26.539  24.750  1.00  0.00     0.200 A 
ATOM     51  F   UNL A   1      50.376  25.898  26.830  1.00  0.00    -0.200 F 
ATOM     52  F   UNL A   1      50.507  25.997  24.108  1.00  0.00    -0.200 F 
ENDBRANCH  28  42
BRANCH  29  53
ATOM     53  C   UNL A   1      38.691  30.455  30.680  1.00  0.00     0.064 A 
ATOM     54  C   UNL A   1      37.588  30.924  29.954  1.00  0.00     0.173 A 
ATOM     55  C   UNL A   1      38.582  30.440  32.081  1.00  0.00     0.173 A 
ATOM     56  F   UNL A   1      37.642  30.982  28.616  1.00  0.00    -0.203 F 
ATOM     57  C   UNL A   1      36.440  31.385  30.600  1.00  0.00     0.198 A 
ATOM     58  C   UNL A   1      37.422  30.866  32.725  1.00  0.00     0.198 A 
ATOM     59  F   UNL A   1      39.607  30.008  32.831  1.00  0.00    -0.203 F 
ATOM     60  F   UNL A   1      35.425  31.886  29.882  1.00  0.00    -0.200 F 
ATOM     61  C   UNL A   1      36.357  31.352  31.984  1.00  0.00     0.200 A 
ATOM     62  F   UNL A   1      37.344  30.817  34.061  1.00  0.00    -0.200 F 
ATOM     63  F   UNL A   1      35.256  31.799  32.604  1.00  0.00    -0.200 F 
ENDBRANCH  29  53
BRANCH  41  64
ATOM     64  C   UNL A   1      44.709  33.650  29.172  1.00  0.00     0.064 A 
ATOM     65  C   UNL A   1      44.488  34.663  28.227  1.00  0.00     0.173 A 
ATOM     66  C   UNL A   1      45.342  33.991  30.375  1.00  0.00     0.173 A 
ATOM     67  F   UNL A   1      43.898  34.379  27.056  1.00  0.00    -0.203 F 
ATOM     68  C   UNL A   1      44.912  35.965  28.471  1.00  0.00     0.198 A 
ATOM     69  C   UNL A   1      45.733  35.301  30.629  1.00  0.00     0.198 A 
ATOM     70  F   UNL A   1      45.565  33.056  31.312  1.00  0.00    -0.203 F 
ATOM     71  F   UNL A   1      44.740  36.908  27.534  1.00  0.00    -0.200 F 
ATOM     72  C   UNL A   1      45.525  36.284  29.673  1.00  0.00     0.200 A 
ATOM     73  F   UNL A   1      46.308  35.612  31.799  1.00  0.00    -0.200 F 
ATOM     74  F   UNL A   1      45.923  37.542  29.909  1.00  0.00    -0.200 F 
ENDBRANCH  41  64
ENDBRANCH  15  16
ENDBRANCH   8  10
ENDBRANCH   7   8
ENDBRANCH   6   7
ENDBRANCH   5   6
ENDBRANCH   4   5
ENDBRANCH   3   4
ENDBRANCH   2   3
ENDBRANCH   1   2
BRANCH   1  75
ATOM     75  C   UNL A   1      33.829  23.625  25.919  1.00  0.00     0.188 C 
BRANCH  75  76
ATOM     76  C   UNL A   1      32.424  22.976  25.808  1.00  0.00     0.188 C 
BRANCH  76  77
ATOM     77  O   UNL A   1      32.135  22.396  24.545  1.00  0.00    -0.376 OA
BRANCH  77  78
ATOM     78  C   UNL A   1      33.247  22.300  23.661  1.00  0.00     0.202 C 
BRANCH  78  79
ATOM     79  C   UNL A   1      33.108  23.089  22.349  1.00  0.00     0.261 C 
BRANCH  79  80
ATOM     80  O   UNL A   1      33.844  24.333  22.276  1.00  0.00    -0.463 OA
BRANCH  80  81
ATOM     81  C   UNL A   1      33.202  25.482  21.928  1.00  0.00     0.310 C 
ATOM     82  O   UNL A   1      33.429  26.105  20.898  1.00  0.00    -0.252 OA
BRANCH  81  83
ATOM     83  C   UNL A   1      32.111  25.804  22.962  1.00  0.00     0.112 C 
ATOM     84  C   UNL A   1      30.870  26.544  22.415  1.00  0.00     0.016 C 
ATOM     85  C   UNL A   1      32.689  26.527  24.182  1.00  0.00     0.066 C 
ATOM     86  C   UNL A   1      29.785  26.684  23.485  1.00  0.00     0.001 C 
ATOM     87  C   UNL A   1      31.596  26.588  25.267  1.00  0.00     0.016 C 
ATOM     88  C   UNL A   1      30.307  27.271  24.792  1.00  0.00     0.001 C 
BRANCH  85  89
ATOM     89  S   UNL A   1      33.198  28.247  23.745  1.00  0.00    -0.122 SA
BRANCH  89  90
ATOM     90  C   UNL A   1      33.280  29.083  25.301  1.00  0.00     0.011 A 
ATOM     91  C   UNL A   1      32.414  30.093  25.700  1.00  0.00     0.035 A 
ATOM     92  C   UNL A   1      34.340  28.731  26.135  1.00  0.00     0.035 A 
ATOM     93  C   UNL A   1      32.646  30.710  26.915  1.00  0.00     0.112 A 
ATOM     94  C   UNL A   1      34.494  29.410  27.327  1.00  0.00     0.112 A 
ATOM     95  N   UNL A   1      33.668  30.394  27.737  1.00  0.00    -0.265 NA
ENDBRANCH  89  90
ENDBRANCH  85  89
ENDBRANCH  81  83
ENDBRANCH  80  81
ENDBRANCH  79  80
ENDBRANCH  78  79
ENDBRANCH  77  78
ENDBRANCH  76  77
ENDBRANCH  75  76
ENDBRANCH   1  75
TORSDOF 22
ENDMDL
MODEL 3
REMARK VINA RESULT:      -9.7      5.612      9.641
REMARK SMILES O=C(OCCOCCOCCOCCOC(=O)[C@@H]1CCCC[C@@H]1Sc1ccncc1)c1ccc(-c2c3nc(c(-c4c(F)c(F)c(F)c(F)c4F)c4ccc([nH]4)c(-c4c(F)c(F)c(F)c(F)c4F)c4nc(c(-c5c(F)c(F)c(F)c(F)c5F)c5ccc2[nH]5)C=C4)C=C3)cc1
REMARK SMILES IDX 9 1 8 2 7 3 6 4 5 5 4 6 3 7 2 8 1 9 31 10 32 11 93 12 33 13
REMARK SMILES IDX 92 14 34 15 35 16 36 17 86 18 37 19 91 20 85 21 87 22 38 23
REMARK SMILES IDX 90 24 84 25 83 26 39 28 71 29 51 30 70 31 52 32 55 33 69 34
REMARK SMILES IDX 88 35 53 36 54 37 68 39 89 40 56 41 40 42 41 43 49 44 42 45
REMARK SMILES IDX 43 46 47 47 50 48 44 49 45 50 48 51 46 52 72 53 73 54 81 55
REMARK SMILES IDX 74 56 75 57 79 58 82 59 76 60 77 61 80 62 78 63 57 64 58 65
REMARK SMILES IDX 66 66 59 67 60 68 64 69 67 70 61 71 62 72 65 73 63 74 10 75
REMARK SMILES IDX 11 76 12 77 13 78 14 79 15 80 16 81 17 82 18 83 19 84 23 85
REMARK SMILES IDX 20 86 22 87 21 88 24 89 25 90 26 91 30 92 27 93 29 94 28 95
REMARK H PARENT 87 27 55 38
REMARK Flexibility Score: inf
ROOT
ATOM      1  O   UNL A   1      32.762  22.482  27.305  1.00  0.00    -0.377 OA
ENDROOT
BRANCH   1   2
ATOM      2  C   UNL A   1      34.149  22.423  27.607  1.00  0.00     0.188 C 
BRANCH   2   3
ATOM      3  C   UNL A   1      35.007  21.781  26.521  1.00  0.00     0.188 C 
BRANCH   3   4
ATOM      4  O   UNL A   1      35.869  22.741  25.904  1.00  0.00    -0.376 OA
BRANCH   4   5
ATOM      5  C   UNL A   1      36.792  22.224  24.944  1.00  0.00     0.202 C 
BRANCH   5   6
ATOM      6  C   UNL A   1      37.386  20.869  25.322  1.00  0.00     0.261 C 
BRANCH   6   7
ATOM      7  O   UNL A   1      38.819  20.882  25.347  1.00  0.00    -0.460 OA
BRANCH   7   8
ATOM      8  C   UNL A   1      39.639  21.182  26.383  1.00  0.00     0.338 C 
ATOM      9  O   UNL A   1      40.074  20.246  27.055  1.00  0.00    -0.246 OA
BRANCH   8  10
ATOM     10  C   UNL A   1      40.059  22.569  26.783  1.00  0.00     0.060 A 
ATOM     11  C   UNL A   1      39.558  23.768  26.271  1.00  0.00     0.016 A 
ATOM     12  C   UNL A   1      41.025  22.656  27.804  1.00  0.00     0.016 A 
ATOM     13  C   UNL A   1      40.019  25.002  26.705  1.00  0.00     0.010 A 
ATOM     14  C   UNL A   1      41.509  23.891  28.244  1.00  0.00     0.010 A 
ATOM     15  C   UNL A   1      41.026  25.065  27.659  1.00  0.00    -0.014 A 
BRANCH  15  16
ATOM     16  C   UNL A   1      41.720  26.353  27.802  1.00  0.00     0.031 A 
ATOM     17  C   UNL A   1      41.039  27.401  28.628  1.00  0.00     0.074 A 
ATOM     18  C   UNL A   1      42.987  26.488  27.378  1.00  0.00     0.049 A 
ATOM     19  N   UNL A   1      41.408  28.624  28.896  1.00  0.00    -0.248 NA
ATOM     20  C   UNL A   1      39.769  27.005  29.267  1.00  0.00     0.031 C 
ATOM     21  C   UNL A   1      43.773  25.440  26.724  1.00  0.00     0.029 A 
ATOM     22  N   UNL A   1      43.847  27.547  27.468  1.00  0.00    -0.354 N 
ATOM     23  C   UNL A   1      40.410  29.143  29.711  1.00  0.00     0.074 A 
ATOM     24  C   UNL A   1      39.414  28.116  29.890  1.00  0.00     0.031 C 
ATOM     25  C   UNL A   1      45.006  25.911  26.475  1.00  0.00     0.029 A 
ATOM     26  C   UNL A   1      45.069  27.309  26.889  1.00  0.00     0.049 A 
ATOM     27  H   UNL A   1      43.612  28.398  27.905  1.00  0.00     0.167 HD
ATOM     28  C   UNL A   1      40.343  30.378  30.254  1.00  0.00     0.037 A 
ATOM     29  C   UNL A   1      46.094  28.157  26.686  1.00  0.00     0.037 A 
ATOM     30  C   UNL A   1      41.355  31.374  30.043  1.00  0.00     0.049 A 
ATOM     31  C   UNL A   1      45.932  29.573  27.179  1.00  0.00     0.074 A 
ATOM     32  C   UNL A   1      41.373  32.696  30.439  1.00  0.00     0.029 A 
ATOM     33  N   UNL A   1      42.545  31.137  29.363  1.00  0.00    -0.354 N 
ATOM     34  N   UNL A   1      44.944  30.104  27.862  1.00  0.00    -0.248 NA
ATOM     35  C   UNL A   1      47.014  30.511  26.862  1.00  0.00     0.031 C 
ATOM     36  C   UNL A   1      42.555  33.271  29.960  1.00  0.00     0.029 A 
ATOM     37  C   UNL A   1      43.300  32.292  29.316  1.00  0.00     0.049 A 
ATOM     38  H   UNL A   1      42.810  30.273  28.973  1.00  0.00     0.167 HD
ATOM     39  C   UNL A   1      45.293  31.429  28.077  1.00  0.00     0.074 A 
ATOM     40  C   UNL A   1      46.597  31.613  27.469  1.00  0.00     0.031 C 
ATOM     41  C   UNL A   1      44.604  32.413  28.710  1.00  0.00     0.037 A 
BRANCH  28  42
ATOM     42  C   UNL A   1      39.110  30.713  31.040  1.00  0.00     0.064 A 
ATOM     43  C   UNL A   1      37.955  31.230  30.432  1.00  0.00     0.173 A 
ATOM     44  C   UNL A   1      39.104  30.568  32.436  1.00  0.00     0.173 A 
ATOM     45  F   UNL A   1      37.921  31.425  29.104  1.00  0.00    -0.203 F 
ATOM     46  C   UNL A   1      36.855  31.618  31.194  1.00  0.00     0.198 A 
ATOM     47  C   UNL A   1      37.992  30.930  33.192  1.00  0.00     0.198 A 
ATOM     48  F   UNL A   1      40.186  30.093  33.071  1.00  0.00    -0.203 F 
ATOM     49  F   UNL A   1      35.790  32.172  30.597  1.00  0.00    -0.200 F 
ATOM     50  C   UNL A   1      36.872  31.464  32.572  1.00  0.00     0.200 A 
ATOM     51  F   UNL A   1      38.011  30.780  34.523  1.00  0.00    -0.200 F 
ATOM     52  F   UNL A   1      35.818  31.848  33.304  1.00  0.00    -0.200 F 
ENDBRANCH  28  42
BRANCH  29  53
ATOM     53  C   UNL A   1      47.304  27.722  25.933  1.00  0.00     0.064 A 
ATOM     54  C   UNL A   1      48.478  27.334  26.593  1.00  0.00     0.173 A 
ATOM     55  C   UNL A   1      47.324  27.729  24.529  1.00  0.00     0.173 A 
ATOM     56  F   UNL A   1      48.525  27.329  27.933  1.00  0.00    -0.203 F 
ATOM     57  C   UNL A   1      49.629  26.996  25.879  1.00  0.00     0.198 A 
ATOM     58  C   UNL A   1      48.463  27.357  23.817  1.00  0.00     0.198 A 
ATOM     59  F   UNL A   1      46.233  28.098  23.841  1.00  0.00    -0.203 F 
ATOM     60  F   UNL A   1      50.756  26.689  26.537  1.00  0.00    -0.200 F 
ATOM     61  C   UNL A   1      49.619  27.004  24.493  1.00  0.00     0.200 A 
ATOM     62  F   UNL A   1      48.441  27.352  22.477  1.00  0.00    -0.200 F 
ATOM     63  F   UNL A   1      50.726  26.684  23.809  1.00  0.00    -0.200 F 
ENDBRANCH  29  53
BRANCH  41  64
ATOM     64  C   UNL A   1      45.276  33.748  28.810  1.00  0.00     0.064 A 
ATOM     65  C   UNL A   1      45.075  34.748  27.848  1.00  0.00     0.173 A 
ATOM     66  C   UNL A   1      46.092  34.043  29.913  1.00  0.00     0.173 A 
ATOM     67  F   UNL A   1      44.314  34.505  26.770  1.00  0.00    -0.203 F 
ATOM     68  C   UNL A   1      45.692  35.988  27.973  1.00  0.00     0.198 A 
ATOM     69  C   UNL A   1      46.677  35.296  30.052  1.00  0.00     0.198 A 
ATOM     70  F   UNL A   1      46.304  33.119  30.863  1.00  0.00    -0.203 F 
ATOM     71  F   UNL A   1      45.530  36.913  27.016  1.00  0.00    -0.200 F 
ATOM     72  C   UNL A   1      46.484  36.264  29.078  1.00  0.00     0.200 A 
ATOM     73  F   UNL A   1      47.427  35.567  31.129  1.00  0.00    -0.200 F 
ATOM     74  F   UNL A   1      47.068  37.464  29.201  1.00  0.00    -0.200 F 
ENDBRANCH  41  64
ENDBRANCH  15  16
ENDBRANCH   8  10
ENDBRANCH   7   8
ENDBRANCH   6   7
ENDBRANCH   5   6
ENDBRANCH   4   5
ENDBRANCH   3   4
ENDBRANCH   2   3
ENDBRANCH   1   2
BRANCH   1  75
ATOM     75  C   UNL A   1      32.424  22.706  25.944  1.00  0.00     0.188 C 
BRANCH  75  76
ATOM     76  C   UNL A   1      31.747  21.564  25.140  1.00  0.00     0.188 C 
BRANCH  76  77
ATOM     77  O   UNL A   1      32.270  21.365  23.836  1.00  0.00    -0.376 OA
BRANCH  77  78
ATOM     78  C   UNL A   1      33.370  22.203  23.496  1.00  0.00     0.202 C 
BRANCH  78  79
ATOM     79  C   UNL A   1      33.141  23.123  22.287  1.00  0.00     0.261 C 
BRANCH  79  80
ATOM     80  O   UNL A   1      33.986  24.296  22.213  1.00  0.00    -0.463 OA
BRANCH  80  81
ATOM     81  C   UNL A   1      33.429  25.538  22.252  1.00  0.00     0.310 C 
ATOM     82  O   UNL A   1      33.714  26.438  21.474  1.00  0.00    -0.252 OA
BRANCH  81  83
ATOM     83  C   UNL A   1      32.344  25.588  23.341  1.00  0.00     0.112 C 
ATOM     84  C   UNL A   1      30.918  25.923  22.848  1.00  0.00     0.016 C 
ATOM     85  C   UNL A   1      32.754  26.501  24.500  1.00  0.00     0.066 C 
ATOM     86  C   UNL A   1      29.893  25.804  23.977  1.00  0.00     0.001 C 
ATOM     87  C   UNL A   1      31.743  26.303  25.647  1.00  0.00     0.016 C 
ATOM     88  C   UNL A   1      30.292  26.574  25.231  1.00  0.00     0.001 C 
BRANCH  85  89
ATOM     89  S   UNL A   1      32.733  28.272  23.980  1.00  0.00    -0.122 SA
BRANCH  89  90
ATOM     90  C   UNL A   1      33.084  29.164  25.466  1.00  0.00     0.011 A 
ATOM     91  C   UNL A   1      32.312  30.209  25.960  1.00  0.00     0.035 A 
ATOM     92  C   UNL A   1      34.261  28.820  26.129  1.00  0.00     0.035 A 
ATOM     93  C   UNL A   1      32.751  30.866  27.095  1.00  0.00     0.112 A 
ATOM     94  C   UNL A   1      34.621  29.540  27.250  1.00  0.00     0.112 A 
ATOM     95  N   UNL A   1      33.889  30.557  27.749  1.00  0.00    -0.265 NA
ENDBRANCH  89  90
ENDBRANCH  85  89
ENDBRANCH  81  83
ENDBRANCH  80  81
ENDBRANCH  79  80
ENDBRANCH  78  79
ENDBRANCH  77  78
ENDBRANCH  76  77
ENDBRANCH  75  76
ENDBRANCH   1  75
TORSDOF 22
ENDMDL
