MODEL 1
REMARK VINA RESULT:     -11.5      0.000      0.000
REMARK SMILES O=C(OCCOCCOCCOCCOC(=O)c1ccc2nc(-c3c[nH]nc3-c3ccc(F)cc3F)[nH]c2c1)c1ccc(-c2c3nc(c(-c4c(F)c(F)c(F)c(F)c4F)c4ccc([nH]4)c(-c4c(F)c(F)c(F)c(F)c4F)c4nc(c(-c5c(F)c(F)c(F)c(F)c5F)c5ccc2[nH]5)C=C4)C=C3)cc1
REMARK SMILES IDX 9 1 8 2 7 3 6 4 5 5 4 6 3 7 2 8 1 9 40 10 41 11 102 12 42 13
REMARK SMILES IDX 101 14 43 15 44 16 45 17 95 18 46 19 100 20 94 21 96 22
REMARK SMILES IDX 47 23 99 24 93 25 92 26 48 28 80 29 60 30 79 31 61 32 64 33
REMARK SMILES IDX 78 34 97 35 62 36 63 37 77 39 98 40 65 41 49 42 50 43 58 44
REMARK SMILES IDX 51 45 52 46 56 47 59 48 53 49 54 50 57 51 55 52 81 53 82 54
REMARK SMILES IDX 90 55 83 56 84 57 88 58 91 59 85 60 86 61 89 62 87 63 66 64
REMARK SMILES IDX 67 65 75 66 68 67 69 68 73 69 76 70 70 71 71 72 74 73 72 74
REMARK SMILES IDX 10 75 11 76 12 77 13 78 14 79 15 80 16 81 17 82 18 83 19 84
REMARK SMILES IDX 39 85 20 86 38 87 21 88 37 89 22 90 23 91 24 93 25 94 28 95
REMARK SMILES IDX 26 96 27 97 29 99 30 100 35 101 31 102 34 103 36 104 32 105
REMARK SMILES IDX 33 106
REMARK H PARENT 96 27 64 38 37 92 26 98
REMARK Flexibility Score: inf
ROOT
ATOM      1  O   UNL A   1      39.692  21.996  26.501  1.00  0.00    -0.377 OA
ENDROOT
BRANCH   1   2
ATOM      2  C   UNL A   1      40.981  21.490  26.166  1.00  0.00     0.188 C 
BRANCH   2   3
ATOM      3  C   UNL A   1      41.868  21.198  27.375  1.00  0.00     0.188 C 
BRANCH   3   4
ATOM      4  O   UNL A   1      42.286  19.827  27.348  1.00  0.00    -0.376 OA
BRANCH   4   5
ATOM      5  C   UNL A   1      42.185  19.192  26.076  1.00  0.00     0.202 C 
BRANCH   5   6
ATOM      6  C   UNL A   1      43.307  18.191  25.800  1.00  0.00     0.261 C 
BRANCH   6   7
ATOM      7  O   UNL A   1      43.943  18.439  24.538  1.00  0.00    -0.460 OA
BRANCH   7   8
ATOM      8  C   UNL A   1      44.953  19.299  24.266  1.00  0.00     0.338 C 
ATOM      9  O   UNL A   1      45.924  18.866  23.644  1.00  0.00    -0.246 OA
BRANCH   8  10
ATOM     10  C   UNL A   1      44.974  20.750  24.652  1.00  0.00     0.060 A 
ATOM     11  C   UNL A   1      44.561  21.825  23.858  1.00  0.00     0.016 A 
ATOM     12  C   UNL A   1      45.390  21.038  25.966  1.00  0.00     0.016 A 
ATOM     13  C   UNL A   1      44.602  23.136  24.323  1.00  0.00     0.010 A 
ATOM     14  C   UNL A   1      45.414  22.348  26.452  1.00  0.00     0.010 A 
ATOM     15  C   UNL A   1      45.036  23.403  25.618  1.00  0.00    -0.014 A 
BRANCH  15  16
ATOM     16  C   UNL A   1      45.203  24.805  26.033  1.00  0.00     0.031 A 
ATOM     17  C   UNL A   1      46.515  25.470  25.763  1.00  0.00     0.074 A 
ATOM     18  C   UNL A   1      44.158  25.489  26.528  1.00  0.00     0.049 A 
ATOM     19  N   UNL A   1      46.922  26.668  26.081  1.00  0.00    -0.248 NA
ATOM     20  C   UNL A   1      47.499  24.677  25.007  1.00  0.00     0.031 C 
ATOM     21  C   UNL A   1      42.803  24.958  26.680  1.00  0.00     0.029 A 
ATOM     22  N   UNL A   1      44.065  26.782  26.965  1.00  0.00    -0.354 N 
ATOM     23  C   UNL A   1      48.210  26.770  25.577  1.00  0.00     0.074 A 
ATOM     24  C   UNL A   1      48.523  25.512  24.936  1.00  0.00     0.031 C 
ATOM     25  C   UNL A   1      42.007  25.928  27.157  1.00  0.00     0.029 A 
ATOM     26  C   UNL A   1      42.809  27.121  27.405  1.00  0.00     0.049 A 
ATOM     27  H   UNL A   1      44.824  27.410  26.963  1.00  0.00     0.167 HD
ATOM     28  C   UNL A   1      49.054  27.824  25.657  1.00  0.00     0.037 A 
ATOM     29  C   UNL A   1      42.377  28.265  27.969  1.00  0.00     0.037 A 
ATOM     30  C   UNL A   1      48.725  29.045  26.340  1.00  0.00     0.049 A 
ATOM     31  C   UNL A   1      43.372  29.377  28.169  1.00  0.00     0.074 A 
ATOM     32  C   UNL A   1      49.530  30.133  26.615  1.00  0.00     0.029 A 
ATOM     33  N   UNL A   1      47.469  29.330  26.862  1.00  0.00    -0.354 N 
ATOM     34  N   UNL A   1      44.631  29.434  27.801  1.00  0.00    -0.248 NA
ATOM     35  C   UNL A   1      42.897  30.572  28.878  1.00  0.00     0.031 C 
ATOM     36  C   UNL A   1      48.769  31.061  27.337  1.00  0.00     0.029 A 
ATOM     37  C   UNL A   1      47.476  30.575  27.464  1.00  0.00     0.049 A 
ATOM     38  H   UNL A   1      46.687  28.732  26.811  1.00  0.00     0.167 HD
ATOM     39  C   UNL A   1      45.097  30.673  28.215  1.00  0.00     0.074 A 
ATOM     40  C   UNL A   1      43.980  31.340  28.856  1.00  0.00     0.031 C 
ATOM     41  C   UNL A   1      46.336  31.209  28.082  1.00  0.00     0.037 A 
BRANCH  28  42
ATOM     42  C   UNL A   1      50.419  27.641  25.061  1.00  0.00     0.064 A 
ATOM     43  C   UNL A   1      51.505  27.283  25.875  1.00  0.00     0.173 A 
ATOM     44  C   UNL A   1      50.643  27.753  23.681  1.00  0.00     0.173 A 
ATOM     45  F   UNL A   1      51.342  27.152  27.199  1.00  0.00    -0.203 F 
ATOM     46  C   UNL A   1      52.760  27.033  25.327  1.00  0.00     0.198 A 
ATOM     47  C   UNL A   1      51.894  27.475  23.133  1.00  0.00     0.198 A 
ATOM     48  F   UNL A   1      49.631  28.059  22.854  1.00  0.00    -0.203 F 
ATOM     49  F   UNL A   1      53.780  26.685  26.124  1.00  0.00    -0.200 F 
ATOM     50  C   UNL A   1      52.951  27.117  23.957  1.00  0.00     0.200 A 
ATOM     51  F   UNL A   1      52.067  27.519  21.804  1.00  0.00    -0.200 F 
ATOM     52  F   UNL A   1      54.148  26.832  23.426  1.00  0.00    -0.200 F 
ENDBRANCH  28  42
BRANCH  29  53
ATOM     53  C   UNL A   1      40.957  28.390  28.386  1.00  0.00     0.064 A 
ATOM     54  C   UNL A   1      39.991  28.947  27.533  1.00  0.00     0.173 A 
ATOM     55  C   UNL A   1      40.545  28.005  29.669  1.00  0.00     0.173 A 
ATOM     56  F   UNL A   1      40.331  29.328  26.293  1.00  0.00    -0.203 F 
ATOM     57  C   UNL A   1      38.678  29.146  27.958  1.00  0.00     0.198 A 
ATOM     58  C   UNL A   1      39.224  28.181  30.085  1.00  0.00     0.198 A 
ATOM     59  F   UNL A   1      41.422  27.447  30.515  1.00  0.00    -0.203 F 
ATOM     60  F   UNL A   1      37.790  29.721  27.136  1.00  0.00    -0.200 F 
ATOM     61  C   UNL A   1      38.296  28.762  29.233  1.00  0.00     0.200 A 
ATOM     62  F   UNL A   1      38.852  27.789  31.311  1.00  0.00    -0.200 F 
ATOM     63  F   UNL A   1      37.034  28.952  29.642  1.00  0.00    -0.200 F 
ENDBRANCH  29  53
BRANCH  41  64
ATOM     64  C   UNL A   1      46.537  32.600  28.602  1.00  0.00     0.064 A 
ATOM     65  C   UNL A   1      46.364  33.700  27.749  1.00  0.00     0.173 A 
ATOM     66  C   UNL A   1      46.976  32.839  29.911  1.00  0.00     0.173 A 
ATOM     67  F   UNL A   1      45.955  33.517  26.484  1.00  0.00    -0.203 F 
ATOM     68  C   UNL A   1      46.638  34.992  28.186  1.00  0.00     0.198 A 
ATOM     69  C   UNL A   1      47.223  34.135  30.353  1.00  0.00     0.198 A 
ATOM     70  F   UNL A   1      47.145  31.817  30.764  1.00  0.00    -0.203 F 
ATOM     71  F   UNL A   1      46.497  36.026  27.346  1.00  0.00    -0.200 F 
ATOM     72  C   UNL A   1      47.062  35.209  29.488  1.00  0.00     0.200 A 
ATOM     73  F   UNL A   1      47.613  34.347  31.617  1.00  0.00    -0.200 F 
ATOM     74  F   UNL A   1      47.317  36.455  29.911  1.00  0.00    -0.200 F 
ENDBRANCH  41  64
ENDBRANCH  15  16
ENDBRANCH   8  10
ENDBRANCH   7   8
ENDBRANCH   6   7
ENDBRANCH   5   6
ENDBRANCH   4   5
ENDBRANCH   3   4
ENDBRANCH   2   3
ENDBRANCH   1   2
BRANCH   1  75
ATOM     75  C   UNL A   1      38.593  21.513  25.736  1.00  0.00     0.188 C 
BRANCH  75  76
ATOM     76  C   UNL A   1      37.533  22.529  25.265  1.00  0.00     0.188 C 
BRANCH  76  77
ATOM     77  O   UNL A   1      36.207  22.245  25.690  1.00  0.00    -0.376 OA
BRANCH  77  78
ATOM     78  C   UNL A   1      35.336  21.740  24.682  1.00  0.00     0.202 C 
BRANCH  78  79
ATOM     79  C   UNL A   1      34.748  20.360  24.996  1.00  0.00     0.261 C 
BRANCH  79  80
ATOM     80  O   UNL A   1      33.318  20.319  25.143  1.00  0.00    -0.460 OA
BRANCH  80  81
ATOM     81  C   UNL A   1      32.538  20.758  24.128  1.00  0.00     0.338 C 
ATOM     82  O   UNL A   1      32.151  20.127  23.162  1.00  0.00    -0.246 OA
BRANCH  81  83
ATOM     83  C   UNL A   1      32.017  22.079  24.551  1.00  0.00     0.062 A 
ATOM     84  C   UNL A   1      31.376  22.211  25.790  1.00  0.00     0.018 A 
ATOM     85  C   UNL A   1      32.016  23.119  23.601  1.00  0.00     0.044 A 
ATOM     86  C   UNL A   1      30.715  23.399  26.121  1.00  0.00     0.031 A 
ATOM     87  C   UNL A   1      31.263  24.250  23.927  1.00  0.00     0.067 A 
ATOM     88  C   UNL A   1      30.654  24.424  25.166  1.00  0.00     0.089 A 
ATOM     89  N   UNL A   1      30.907  25.374  23.220  1.00  0.00    -0.338 N 
ATOM     90  N   UNL A   1      30.074  25.659  25.252  1.00  0.00    -0.228 NA
ATOM     91  C   UNL A   1      30.235  26.213  24.071  1.00  0.00     0.142 A 
ATOM     92  H   UNL A   1      31.102  25.546  22.270  1.00  0.00     0.168 HD
BRANCH  91  93
ATOM     93  C   UNL A   1      29.944  27.631  23.785  1.00  0.00     0.063 A 
ATOM     94  C   UNL A   1      28.991  28.144  22.943  1.00  0.00     0.117 A 
ATOM     95  C   UNL A   1      30.639  28.746  24.318  1.00  0.00     0.106 A 
ATOM     96  N   UNL A   1      29.096  29.501  23.077  1.00  0.00    -0.284 N 
ATOM     97  N   UNL A   1      30.131  29.892  23.841  1.00  0.00    -0.175 NA
ATOM     98  H   UNL A   1      28.472  30.133  22.653  1.00  0.00     0.189 HD
BRANCH  95  99
ATOM     99  C   UNL A   1      31.843  28.694  25.132  1.00  0.00     0.039 A 
ATOM    100  C   UNL A   1      31.768  29.074  26.484  1.00  0.00     0.016 A 
ATOM    101  C   UNL A   1      33.082  28.358  24.584  1.00  0.00     0.135 A 
ATOM    102  C   UNL A   1      32.924  29.137  27.260  1.00  0.00     0.040 A 
ATOM    103  C   UNL A   1      34.238  28.412  25.359  1.00  0.00     0.079 A 
ATOM    104  F   UNL A   1      33.192  28.010  23.294  1.00  0.00    -0.206 F 
ATOM    105  C   UNL A   1      34.147  28.808  26.688  1.00  0.00     0.126 A 
ATOM    106  F   UNL A   1      35.257  28.881  27.433  1.00  0.00    -0.207 F 
ENDBRANCH  95  99
ENDBRANCH  91  93
ENDBRANCH  81  83
ENDBRANCH  80  81
ENDBRANCH  79  80
ENDBRANCH  78  79
ENDBRANCH  77  78
ENDBRANCH  76  77
ENDBRANCH  75  76
ENDBRANCH   1  75
TORSDOF 22
ENDMDL
MODEL 2
REMARK VINA RESULT:     -11.3      0.702      6.891
REMARK SMILES O=C(OCCOCCOCCOCCOC(=O)c1ccc2nc(-c3c[nH]nc3-c3ccc(F)cc3F)[nH]c2c1)c1ccc(-c2c3nc(c(-c4c(F)c(F)c(F)c(F)c4F)c4ccc([nH]4)c(-c4c(F)c(F)c(F)c(F)c4F)c4nc(c(-c5c(F)c(F)c(F)c(F)c5F)c5ccc2[nH]5)C=C4)C=C3)cc1
REMARK SMILES IDX 9 1 8 2 7 3 6 4 5 5 4 6 3 7 2 8 1 9 40 10 41 11 102 12 42 13
REMARK SMILES IDX 101 14 43 15 44 16 45 17 95 18 46 19 100 20 94 21 96 22
REMARK SMILES IDX 47 23 99 24 93 25 92 26 48 28 80 29 60 30 79 31 61 32 64 33
REMARK SMILES IDX 78 34 97 35 62 36 63 37 77 39 98 40 65 41 49 42 50 43 58 44
REMARK SMILES IDX 51 45 52 46 56 47 59 48 53 49 54 50 57 51 55 52 81 53 82 54
REMARK SMILES IDX 90 55 83 56 84 57 88 58 91 59 85 60 86 61 89 62 87 63 66 64
REMARK SMILES IDX 67 65 75 66 68 67 69 68 73 69 76 70 70 71 71 72 74 73 72 74
REMARK SMILES IDX 10 75 11 76 12 77 13 78 14 79 15 80 16 81 17 82 18 83 19 84
REMARK SMILES IDX 39 85 20 86 38 87 21 88 37 89 22 90 23 91 24 93 25 94 28 95
REMARK SMILES IDX 26 96 27 97 29 99 30 100 35 101 31 102 34 103 36 104 32 105
REMARK SMILES IDX 33 106
REMARK H PARENT 96 27 64 38 37 92 26 98
REMARK Flexibility Score: inf
ROOT
ATOM      1  O   UNL A   1      40.344  23.167  26.342  1.00  0.00    -0.377 OA
ENDROOT
BRANCH   1   2
ATOM      2  C   UNL A   1      41.058  21.937  26.242  1.00  0.00     0.188 C 
BRANCH   2   3
ATOM      3  C   UNL A   1      41.381  21.293  27.589  1.00  0.00     0.188 C 
BRANCH   3   4
ATOM      4  O   UNL A   1      41.465  19.870  27.437  1.00  0.00    -0.376 OA
BRANCH   4   5
ATOM      5  C   UNL A   1      41.653  19.418  26.098  1.00  0.00     0.202 C 
BRANCH   5   6
ATOM      6  C   UNL A   1      42.964  18.661  25.884  1.00  0.00     0.261 C 
BRANCH   6   7
ATOM      7  O   UNL A   1      43.541  18.945  24.602  1.00  0.00    -0.460 OA
BRANCH   7   8
ATOM      8  C   UNL A   1      44.624  19.709  24.323  1.00  0.00     0.338 C 
ATOM      9  O   UNL A   1      45.536  19.195  23.674  1.00  0.00    -0.246 OA
BRANCH   8  10
ATOM     10  C   UNL A   1      44.793  21.144  24.731  1.00  0.00     0.060 A 
ATOM     11  C   UNL A   1      44.600  22.265  23.919  1.00  0.00     0.016 A 
ATOM     12  C   UNL A   1      45.112  21.371  26.084  1.00  0.00     0.016 A 
ATOM     13  C   UNL A   1      44.763  23.558  24.406  1.00  0.00     0.010 A 
ATOM     14  C   UNL A   1      45.257  22.665  26.591  1.00  0.00     0.010 A 
ATOM     15  C   UNL A   1      45.100  23.763  25.741  1.00  0.00    -0.014 A 
BRANCH  15  16
ATOM     16  C   UNL A   1      45.405  25.131  26.192  1.00  0.00     0.031 A 
ATOM     17  C   UNL A   1      44.305  25.931  26.813  1.00  0.00     0.074 A 
ATOM     18  C   UNL A   1      46.668  25.587  26.149  1.00  0.00     0.049 A 
ATOM     19  N   UNL A   1      44.311  27.166  27.234  1.00  0.00    -0.248 NA
ATOM     20  C   UNL A   1      43.025  25.229  27.010  1.00  0.00     0.031 C 
ATOM     21  C   UNL A   1      47.825  24.813  25.698  1.00  0.00     0.029 A 
ATOM     22  N   UNL A   1      47.192  26.796  26.515  1.00  0.00    -0.354 N 
ATOM     23  C   UNL A   1      43.036  27.395  27.732  1.00  0.00     0.074 A 
ATOM     24  C   UNL A   1      42.280  26.175  27.559  1.00  0.00     0.031 C 
ATOM     25  C   UNL A   1      48.930  25.563  25.835  1.00  0.00     0.029 A 
ATOM     26  C   UNL A   1      48.548  26.886  26.319  1.00  0.00     0.049 A 
ATOM     27  H   UNL A   1      46.650  27.531  26.884  1.00  0.00     0.167 HD
ATOM     28  C   UNL A   1      42.547  28.533  28.275  1.00  0.00     0.037 A 
ATOM     29  C   UNL A   1      49.372  27.937  26.490  1.00  0.00     0.037 A 
ATOM     30  C   UNL A   1      43.316  29.742  28.393  1.00  0.00     0.049 A 
ATOM     31  C   UNL A   1      48.778  29.234  26.970  1.00  0.00     0.074 A 
ATOM     32  C   UNL A   1      42.907  30.998  28.795  1.00  0.00     0.029 A 
ATOM     33  N   UNL A   1      44.671  29.833  28.099  1.00  0.00    -0.354 N 
ATOM     34  N   UNL A   1      47.542  29.492  27.330  1.00  0.00    -0.248 NA
ATOM     35  C   UNL A   1      49.681  30.389  27.049  1.00  0.00     0.031 C 
ATOM     36  C   UNL A   1      44.008  31.859  28.707  1.00  0.00     0.029 A 
ATOM     37  C   UNL A   1      45.115  31.127  28.304  1.00  0.00     0.049 A 
ATOM     38  H   UNL A   1      45.234  29.086  27.790  1.00  0.00     0.167 HD
ATOM     39  C   UNL A   1      47.518  30.830  27.694  1.00  0.00     0.074 A 
ATOM     40  C   UNL A   1      48.869  31.328  27.520  1.00  0.00     0.031 C 
ATOM     41  C   UNL A   1      46.475  31.580  28.130  1.00  0.00     0.037 A 
BRANCH  28  42
ATOM     42  C   UNL A   1      41.106  28.516  28.690  1.00  0.00     0.064 A 
ATOM     43  C   UNL A   1      40.749  28.151  29.997  1.00  0.00     0.173 A 
ATOM     44  C   UNL A   1      40.083  28.924  27.821  1.00  0.00     0.173 A 
ATOM     45  F   UNL A   1      41.690  27.764  30.871  1.00  0.00    -0.203 F 
ATOM     46  C   UNL A   1      39.424  28.206  30.421  1.00  0.00     0.198 A 
ATOM     47  C   UNL A   1      38.761  29.004  28.257  1.00  0.00     0.198 A 
ATOM     48  F   UNL A   1      40.374  29.316  26.571  1.00  0.00    -0.203 F 
ATOM     49  F   UNL A   1      39.109  27.859  31.677  1.00  0.00    -0.200 F 
ATOM     50  C   UNL A   1      38.433  28.643  29.556  1.00  0.00     0.200 A 
ATOM     51  F   UNL A   1      37.811  29.464  27.431  1.00  0.00    -0.200 F 
ATOM     52  F   UNL A   1      37.165  28.738  29.979  1.00  0.00    -0.200 F 
ENDBRANCH  28  42
BRANCH  29  53
ATOM     53  C   UNL A   1      50.820  27.795  26.189  1.00  0.00     0.064 A 
ATOM     54  C   UNL A   1      51.313  27.944  24.883  1.00  0.00     0.173 A 
ATOM     55  C   UNL A   1      51.735  27.453  27.193  1.00  0.00     0.173 A 
ATOM     56  F   UNL A   1      50.481  28.275  23.886  1.00  0.00    -0.203 F 
ATOM     57  C   UNL A   1      52.657  27.721  24.588  1.00  0.00     0.198 A 
ATOM     58  C   UNL A   1      53.086  27.256  26.901  1.00  0.00     0.198 A 
ATOM     59  F   UNL A   1      51.321  27.321  28.462  1.00  0.00    -0.203 F 
ATOM     60  F   UNL A   1      53.089  27.827  23.324  1.00  0.00    -0.200 F 
ATOM     61  C   UNL A   1      53.543  27.378  25.597  1.00  0.00     0.200 A 
ATOM     62  F   UNL A   1      53.943  26.945  27.883  1.00  0.00    -0.200 F 
ATOM     63  F   UNL A   1      54.835  27.166  25.314  1.00  0.00    -0.200 F 
ENDBRANCH  29  53
BRANCH  41  64
ATOM     64  C   UNL A   1      46.762  33.006  28.488  1.00  0.00     0.064 A 
ATOM     65  C   UNL A   1      47.103  33.344  29.806  1.00  0.00     0.173 A 
ATOM     66  C   UNL A   1      46.622  34.041  27.554  1.00  0.00     0.173 A 
ATOM     67  F   UNL A   1      47.239  32.386  30.736  1.00  0.00    -0.203 F 
ATOM     68  C   UNL A   1      47.281  34.672  30.180  1.00  0.00     0.198 A 
ATOM     69  C   UNL A   1      46.827  35.366  27.925  1.00  0.00     0.198 A 
ATOM     70  F   UNL A   1      46.307  33.763  26.279  1.00  0.00    -0.203 F 
ATOM     71  F   UNL A   1      47.576  34.975  31.450  1.00  0.00    -0.200 F 
ATOM     72  C   UNL A   1      47.147  35.681  29.238  1.00  0.00     0.200 A 
ATOM     73  F   UNL A   1      46.718  36.340  27.011  1.00  0.00    -0.200 F 
ATOM     74  F   UNL A   1      47.328  36.960  29.597  1.00  0.00    -0.200 F 
ENDBRANCH  41  64
ENDBRANCH  15  16
ENDBRANCH   8  10
ENDBRANCH   7   8
ENDBRANCH   6   7
ENDBRANCH   5   6
ENDBRANCH   4   5
ENDBRANCH   3   4
ENDBRANCH   2   3
ENDBRANCH   1   2
BRANCH   1  75
ATOM     75  C   UNL A   1      38.934  23.081  26.507  1.00  0.00     0.188 C 
BRANCH  75  76
ATOM     76  C   UNL A   1      38.176  21.990  25.724  1.00  0.00     0.188 C 
BRANCH  76  77
ATOM     77  O   UNL A   1      36.760  22.052  25.835  1.00  0.00    -0.376 OA
BRANCH  77  78
ATOM     78  C   UNL A   1      36.035  21.593  24.698  1.00  0.00     0.202 C 
BRANCH  78  79
ATOM     79  C   UNL A   1      35.072  20.439  24.993  1.00  0.00     0.261 C 
BRANCH  79  80
ATOM     80  O   UNL A   1      33.899  20.793  25.745  1.00  0.00    -0.460 OA
BRANCH  80  81
ATOM     81  C   UNL A   1      32.693  20.778  25.132  1.00  0.00     0.338 C 
ATOM     82  O   UNL A   1      32.106  19.816  24.672  1.00  0.00    -0.246 OA
BRANCH  81  83
ATOM     83  C   UNL A   1      32.095  22.113  25.366  1.00  0.00     0.062 A 
ATOM     84  C   UNL A   1      31.240  22.312  26.458  1.00  0.00     0.018 A 
ATOM     85  C   UNL A   1      32.257  23.090  24.364  1.00  0.00     0.044 A 
ATOM     86  C   UNL A   1      30.522  23.506  26.586  1.00  0.00     0.031 A 
ATOM     87  C   UNL A   1      31.450  24.225  24.474  1.00  0.00     0.067 A 
ATOM     88  C   UNL A   1      30.626  24.466  25.570  1.00  0.00     0.089 A 
ATOM     89  N   UNL A   1      31.219  25.294  23.641  1.00  0.00    -0.338 N 
ATOM     90  N   UNL A   1      30.031  25.693  25.468  1.00  0.00    -0.228 NA
ATOM     91  C   UNL A   1      30.398  26.173  24.300  1.00  0.00     0.142 A 
ATOM     92  H   UNL A   1      31.580  25.409  22.732  1.00  0.00     0.168 HD
BRANCH  91  93
ATOM     93  C   UNL A   1      30.154  27.564  23.873  1.00  0.00     0.063 A 
ATOM     94  C   UNL A   1      29.298  28.009  22.898  1.00  0.00     0.117 A 
ATOM     95  C   UNL A   1      30.801  28.717  24.385  1.00  0.00     0.106 A 
ATOM     96  N   UNL A   1      29.403  29.372  22.934  1.00  0.00    -0.284 N 
ATOM     97  N   UNL A   1      30.357  29.822  23.768  1.00  0.00    -0.175 NA
ATOM     98  H   UNL A   1      28.833  29.969  22.398  1.00  0.00     0.189 HD
BRANCH  95  99
ATOM     99  C   UNL A   1      31.913  28.728  25.321  1.00  0.00     0.039 A 
ATOM    100  C   UNL A   1      31.674  29.089  26.660  1.00  0.00     0.016 A 
ATOM    101  C   UNL A   1      33.222  28.473  24.906  1.00  0.00     0.135 A 
ATOM    102  C   UNL A   1      32.735  29.211  27.554  1.00  0.00     0.040 A 
ATOM    103  C   UNL A   1      34.284  28.588  25.799  1.00  0.00     0.079 A 
ATOM    104  F   UNL A   1      33.488  28.146  23.634  1.00  0.00    -0.206 F 
ATOM    105  C   UNL A   1      34.030  28.963  27.113  1.00  0.00     0.126 A 
ATOM    106  F   UNL A   1      35.049  29.094  27.972  1.00  0.00    -0.207 F 
ENDBRANCH  95  99
ENDBRANCH  91  93
ENDBRANCH  81  83
ENDBRANCH  80  81
ENDBRANCH  79  80
ENDBRANCH  78  79
ENDBRANCH  77  78
ENDBRANCH  76  77
ENDBRANCH  75  76
ENDBRANCH   1  75
TORSDOF 22
ENDMDL
MODEL 3
REMARK VINA RESULT:     -10.2      7.113     12.074
REMARK SMILES O=C(OCCOCCOCCOCCOC(=O)c1ccc2nc(-c3c[nH]nc3-c3ccc(F)cc3F)[nH]c2c1)c1ccc(-c2c3nc(c(-c4c(F)c(F)c(F)c(F)c4F)c4ccc([nH]4)c(-c4c(F)c(F)c(F)c(F)c4F)c4nc(c(-c5c(F)c(F)c(F)c(F)c5F)c5ccc2[nH]5)C=C4)C=C3)cc1
REMARK SMILES IDX 9 1 8 2 7 3 6 4 5 5 4 6 3 7 2 8 1 9 40 10 41 11 102 12 42 13
REMARK SMILES IDX 101 14 43 15 44 16 45 17 95 18 46 19 100 20 94 21 96 22
REMARK SMILES IDX 47 23 99 24 93 25 92 26 48 28 80 29 60 30 79 31 61 32 64 33
REMARK SMILES IDX 78 34 97 35 62 36 63 37 77 39 98 40 65 41 49 42 50 43 58 44
REMARK SMILES IDX 51 45 52 46 56 47 59 48 53 49 54 50 57 51 55 52 81 53 82 54
REMARK SMILES IDX 90 55 83 56 84 57 88 58 91 59 85 60 86 61 89 62 87 63 66 64
REMARK SMILES IDX 67 65 75 66 68 67 69 68 73 69 76 70 70 71 71 72 74 73 72 74
REMARK SMILES IDX 10 75 11 76 12 77 13 78 14 79 15 80 16 81 17 82 18 83 19 84
REMARK SMILES IDX 39 85 20 86 38 87 21 88 37 89 22 90 23 91 24 93 25 94 28 95
REMARK SMILES IDX 26 96 27 97 29 99 30 100 35 101 31 102 34 103 36 104 32 105
REMARK SMILES IDX 33 106
REMARK H PARENT 96 27 64 38 37 92 26 98
REMARK Flexibility Score: inf
ROOT
ATOM      1  O   UNL A   1      35.954  33.444  35.840  1.00  0.00    -0.377 OA
ENDROOT
BRANCH   1   2
ATOM      2  C   UNL A   1      36.999  33.476  36.809  1.00  0.00     0.188 C 
BRANCH   2   3
ATOM      3  C   UNL A   1      37.591  32.105  37.132  1.00  0.00     0.188 C 
BRANCH   3   4
ATOM      4  O   UNL A   1      38.608  32.241  38.132  1.00  0.00    -0.376 OA
BRANCH   4   5
ATOM      5  C   UNL A   1      38.406  33.309  39.055  1.00  0.00     0.202 C 
BRANCH   5   6
ATOM      6  C   UNL A   1      39.698  33.822  39.691  1.00  0.00     0.261 C 
BRANCH   6   7
ATOM      7  O   UNL A   1      39.992  35.168  39.289  1.00  0.00    -0.460 OA
BRANCH   7   8
ATOM      8  C   UNL A   1      40.113  35.658  38.032  1.00  0.00     0.338 C 
ATOM      9  O   UNL A   1      39.780  36.828  37.839  1.00  0.00    -0.246 OA
BRANCH   8  10
ATOM     10  C   UNL A   1      40.637  34.888  36.855  1.00  0.00     0.060 A 
ATOM     11  C   UNL A   1      39.903  34.484  35.736  1.00  0.00     0.016 A 
ATOM     12  C   UNL A   1      42.017  34.608  36.861  1.00  0.00     0.016 A 
ATOM     13  C   UNL A   1      40.495  33.789  34.685  1.00  0.00     0.010 A 
ATOM     14  C   UNL A   1      42.627  33.930  35.802  1.00  0.00     0.010 A 
ATOM     15  C   UNL A   1      41.857  33.503  34.718  1.00  0.00    -0.014 A 
BRANCH  15  16
ATOM     16  C   UNL A   1      42.425  32.646  33.665  1.00  0.00     0.031 A 
ATOM     17  C   UNL A   1      42.776  33.275  32.355  1.00  0.00     0.074 A 
ATOM     18  C   UNL A   1      42.725  31.363  33.931  1.00  0.00     0.049 A 
ATOM     19  N   UNL A   1      43.232  32.725  31.263  1.00  0.00    -0.248 NA
ATOM     20  C   UNL A   1      42.610  34.736  32.273  1.00  0.00     0.031 C 
ATOM     21  C   UNL A   1      42.556  30.714  35.231  1.00  0.00     0.029 A 
ATOM     22  N   UNL A   1      43.262  30.389  33.134  1.00  0.00    -0.354 N 
ATOM     23  C   UNL A   1      43.396  33.766  30.361  1.00  0.00     0.074 A 
ATOM     24  C   UNL A   1      42.986  34.982  31.029  1.00  0.00     0.031 C 
ATOM     25  C   UNL A   1      43.001  29.450  35.147  1.00  0.00     0.029 A 
ATOM     26  C   UNL A   1      43.423  29.186  33.775  1.00  0.00     0.049 A 
ATOM     27  H   UNL A   1      43.508  30.536  32.192  1.00  0.00     0.167 HD
ATOM     28  C   UNL A   1      43.841  33.701  29.086  1.00  0.00     0.037 A 
ATOM     29  C   UNL A   1      43.841  28.002  33.287  1.00  0.00     0.037 A 
ATOM     30  C   UNL A   1      44.200  32.468  28.441  1.00  0.00     0.049 A 
ATOM     31  C   UNL A   1      44.204  27.925  31.829  1.00  0.00     0.074 A 
ATOM     32  C   UNL A   1      44.533  32.241  27.120  1.00  0.00     0.029 A 
ATOM     33  N   UNL A   1      44.267  31.241  29.090  1.00  0.00    -0.354 N 
ATOM     34  N   UNL A   1      44.245  28.887  30.937  1.00  0.00    -0.248 NA
ATOM     35  C   UNL A   1      44.558  26.601  31.303  1.00  0.00     0.031 C 
ATOM     36  C   UNL A   1      44.765  30.869  26.963  1.00  0.00     0.029 A 
ATOM     37  C   UNL A   1      44.630  30.250  28.197  1.00  0.00     0.049 A 
ATOM     38  H   UNL A   1      44.082  31.097  30.048  1.00  0.00     0.167 HD
ATOM     39  C   UNL A   1      44.644  28.294  29.748  1.00  0.00     0.074 A 
ATOM     40  C   UNL A   1      44.842  26.886  30.038  1.00  0.00     0.031 C 
ATOM     41  C   UNL A   1      44.828  28.859  28.529  1.00  0.00     0.037 A 
BRANCH  28  42
ATOM     42  C   UNL A   1      43.872  34.988  28.316  1.00  0.00     0.064 A 
ATOM     43  C   UNL A   1      42.678  35.576  27.872  1.00  0.00     0.173 A 
ATOM     44  C   UNL A   1      45.070  35.676  28.075  1.00  0.00     0.173 A 
ATOM     45  F   UNL A   1      41.503  34.965  28.087  1.00  0.00    -0.203 F 
ATOM     46  C   UNL A   1      42.682  36.809  27.225  1.00  0.00     0.198 A 
ATOM     47  C   UNL A   1      45.069  36.922  27.451  1.00  0.00     0.198 A 
ATOM     48  F   UNL A   1      46.237  35.174  28.509  1.00  0.00    -0.203 F 
ATOM     49  F   UNL A   1      41.528  37.354  26.817  1.00  0.00    -0.200 F 
ATOM     50  C   UNL A   1      43.875  37.487  27.026  1.00  0.00     0.200 A 
ATOM     51  F   UNL A   1      46.218  37.594  27.295  1.00  0.00    -0.200 F 
ATOM     52  F   UNL A   1      43.873  38.693  26.444  1.00  0.00    -0.200 F 
ENDBRANCH  28  42
BRANCH  29  53
ATOM     53  C   UNL A   1      43.916  26.821  34.185  1.00  0.00     0.064 A 
ATOM     54  C   UNL A   1      45.149  26.301  34.608  1.00  0.00     0.173 A 
ATOM     55  C   UNL A   1      42.755  26.152  34.595  1.00  0.00     0.173 A 
ATOM     56  F   UNL A   1      46.291  26.905  34.247  1.00  0.00    -0.203 F 
ATOM     57  C   UNL A   1      45.221  25.140  35.376  1.00  0.00     0.198 A 
ATOM     58  C   UNL A   1      42.826  25.004  35.385  1.00  0.00     0.198 A 
ATOM     59  F   UNL A   1      41.550  26.619  34.238  1.00  0.00    -0.203 F 
ATOM     60  F   UNL A   1      46.414  24.644  35.726  1.00  0.00    -0.200 F 
ATOM     61  C   UNL A   1      44.059  24.492  35.764  1.00  0.00     0.200 A 
ATOM     62  F   UNL A   1      41.701  24.392  35.778  1.00  0.00    -0.200 F 
ATOM     63  F   UNL A   1      44.127  23.377  36.504  1.00  0.00    -0.200 F 
ENDBRANCH  29  53
BRANCH  41  64
ATOM     64  C   UNL A   1      45.305  27.963  27.426  1.00  0.00     0.064 A 
ATOM     65  C   UNL A   1      44.380  27.236  26.663  1.00  0.00     0.173 A 
ATOM     66  C   UNL A   1      46.670  27.765  27.179  1.00  0.00     0.173 A 
ATOM     67  F   UNL A   1      43.064  27.387  26.872  1.00  0.00    -0.203 F 
ATOM     68  C   UNL A   1      44.807  26.329  25.698  1.00  0.00     0.198 A 
ATOM     69  C   UNL A   1      47.093  26.877  26.195  1.00  0.00     0.198 A 
ATOM     70  F   UNL A   1      47.590  28.448  27.878  1.00  0.00    -0.203 F 
ATOM     71  F   UNL A   1      43.908  25.621  25.003  1.00  0.00    -0.200 F 
ATOM     72  C   UNL A   1      46.162  26.154  25.462  1.00  0.00     0.200 A 
ATOM     73  F   UNL A   1      48.401  26.723  25.952  1.00  0.00    -0.200 F 
ATOM     74  F   UNL A   1      46.572  25.286  24.526  1.00  0.00    -0.200 F 
ENDBRANCH  41  64
ENDBRANCH  15  16
ENDBRANCH   8  10
ENDBRANCH   7   8
ENDBRANCH   6   7
ENDBRANCH   5   6
ENDBRANCH   4   5
ENDBRANCH   3   4
ENDBRANCH   2   3
ENDBRANCH   1   2
BRANCH   1  75
ATOM     75  C   UNL A   1      36.029  34.391  34.781  1.00  0.00     0.188 C 
BRANCH  75  76
ATOM     76  C   UNL A   1      34.744  34.694  33.985  1.00  0.00     0.188 C 
BRANCH  76  77
ATOM     77  O   UNL A   1      34.427  36.075  33.870  1.00  0.00    -0.376 OA
BRANCH  77  78
ATOM     78  C   UNL A   1      34.340  36.575  32.539  1.00  0.00     0.202 C 
BRANCH  78  79
ATOM     79  C   UNL A   1      32.978  36.351  31.873  1.00  0.00     0.261 C 
BRANCH  79  80
ATOM     80  O   UNL A   1      32.791  35.057  31.274  1.00  0.00    -0.460 OA
BRANCH  80  81
ATOM     81  C   UNL A   1      33.262  34.833  30.026  1.00  0.00     0.338 C 
ATOM     82  O   UNL A   1      32.798  35.232  28.974  1.00  0.00    -0.246 OA
BRANCH  81  83
ATOM     83  C   UNL A   1      34.607  34.234  30.195  1.00  0.00     0.062 A 
ATOM     84  C   UNL A   1      35.594  34.455  29.225  1.00  0.00     0.018 A 
ATOM     85  C   UNL A   1      34.783  33.300  31.234  1.00  0.00     0.044 A 
ATOM     86  C   UNL A   1      36.801  33.748  29.271  1.00  0.00     0.031 A 
ATOM     87  C   UNL A   1      35.958  32.544  31.188  1.00  0.00     0.067 A 
ATOM     88  C   UNL A   1      36.972  32.773  30.264  1.00  0.00     0.089 A 
ATOM     89  N   UNL A   1      36.407  31.467  31.916  1.00  0.00    -0.338 N 
ATOM     90  N   UNL A   1      38.046  31.962  30.511  1.00  0.00    -0.228 NA
ATOM     91  C   UNL A   1      37.684  31.183  31.505  1.00  0.00     0.142 A 
ATOM     92  H   UNL A   1      35.900  30.984  32.609  1.00  0.00     0.168 HD
BRANCH  91  93
ATOM     93  C   UNL A   1      38.614  30.297  32.232  1.00  0.00     0.063 A 
ATOM     94  C   UNL A   1      38.857  30.253  33.580  1.00  0.00     0.117 A 
ATOM     95  C   UNL A   1      39.468  29.328  31.646  1.00  0.00     0.106 A 
ATOM     96  N   UNL A   1      39.751  29.230  33.743  1.00  0.00    -0.284 N 
ATOM     97  N   UNL A   1      40.193  28.706  32.587  1.00  0.00    -0.175 NA
ATOM     98  H   UNL A   1      40.044  28.909  34.626  1.00  0.00     0.189 HD
BRANCH  95  99
ATOM     99  C   UNL A   1      39.682  29.127  30.222  1.00  0.00     0.039 A 
ATOM    100  C   UNL A   1      40.943  29.425  29.674  1.00  0.00     0.016 A 
ATOM    101  C   UNL A   1      38.647  28.727  29.375  1.00  0.00     0.135 A 
ATOM    102  C   UNL A   1      41.147  29.344  28.298  1.00  0.00     0.040 A 
ATOM    103  C   UNL A   1      38.849  28.638  28.001  1.00  0.00     0.079 A 
ATOM    104  F   UNL A   1      37.428  28.453  29.862  1.00  0.00    -0.206 F 
ATOM    105  C   UNL A   1      40.097  28.955  27.475  1.00  0.00     0.126 A 
ATOM    106  F   UNL A   1      40.292  28.889  26.153  1.00  0.00    -0.207 F 
ENDBRANCH  95  99
ENDBRANCH  91  93
ENDBRANCH  81  83
ENDBRANCH  80  81
ENDBRANCH  79  80
ENDBRANCH  78  79
ENDBRANCH  77  78
ENDBRANCH  76  77
ENDBRANCH  75  76
ENDBRANCH   1  75
TORSDOF 22
ENDMDL
