MODEL 1
REMARK VINA RESULT:     -10.0      0.000      0.000
REMARK SMILES O=C(OCCOCCOCCOCCOC(=O)c1cnccc1C(=O)N1CCC(Cc2ccccc2)CC1)c1ccc(-c2c3nc(c(-c4c(F)c(F)c(F)c(F)c4F)c4ccc([nH]4)c(-c4c(F)c(F)c(F)c(F)c4F)c4nc(c(-c5c(F)c(F)c(F)c(F)c5F)c5ccc2[nH]5)C=C4)C=C3)cc1
REMARK SMILES IDX 10 1 9 2 8 3 7 4 6 5 5 6 4 7 3 8 2 9 1 10 39 11 40 12 101 13
REMARK SMILES IDX 41 14 100 15 42 16 43 17 44 18 94 19 45 20 99 21 93 22 95 23
REMARK SMILES IDX 46 24 98 25 92 26 91 27 47 29 79 30 59 31 78 32 60 33 63 34
REMARK SMILES IDX 77 35 96 36 61 37 62 38 76 40 97 41 64 42 48 43 49 44 57 45
REMARK SMILES IDX 50 46 51 47 55 48 58 49 52 50 53 51 56 52 54 53 80 54 81 55
REMARK SMILES IDX 89 56 82 57 83 58 87 59 90 60 84 61 85 62 88 63 86 64 65 65
REMARK SMILES IDX 66 66 74 67 67 68 68 69 72 70 75 71 69 72 70 73 73 74 71 75
REMARK SMILES IDX 11 76 12 77 13 78 14 79 15 80 16 81 17 82 18 83 19 84 23 85
REMARK SMILES IDX 20 86 22 87 21 88 24 89 25 90 26 91 27 92 38 93 28 94 37 95
REMARK SMILES IDX 29 96 30 97 31 98 32 99 36 100 33 101 35 102 34 103
REMARK H PARENT 95 28 63 39
REMARK Flexibility Score: inf
ROOT
ATOM      1  C   UNL A   1      36.147  22.768  23.745  1.00  0.00     0.188 C 
ENDROOT
BRANCH   1   2
ATOM      2  O   UNL A   1      37.143  22.922  24.747  1.00  0.00    -0.377 OA
BRANCH   2   3
ATOM      3  C   UNL A   1      37.769  21.748  25.258  1.00  0.00     0.188 C 
BRANCH   3   4
ATOM      4  C   UNL A   1      38.915  21.947  26.253  1.00  0.00     0.188 C 
BRANCH   4   5
ATOM      5  O   UNL A   1      40.181  21.699  25.644  1.00  0.00    -0.376 OA
BRANCH   5   6
ATOM      6  C   UNL A   1      41.309  22.189  26.365  1.00  0.00     0.202 C 
BRANCH   6   7
ATOM      7  C   UNL A   1      41.039  23.517  27.069  1.00  0.00     0.261 C 
BRANCH   7   8
ATOM      8  O   UNL A   1      40.752  24.566  26.133  1.00  0.00    -0.460 OA
BRANCH   8   9
ATOM      9  C   UNL A   1      41.251  25.827  26.114  1.00  0.00     0.338 C 
ATOM     10  O   UNL A   1      41.519  26.328  25.023  1.00  0.00    -0.246 OA
BRANCH   9  11
ATOM     11  C   UNL A   1      41.472  26.674  27.333  1.00  0.00     0.060 A 
ATOM     12  C   UNL A   1      41.090  26.347  28.635  1.00  0.00     0.016 A 
ATOM     13  C   UNL A   1      42.180  27.876  27.148  1.00  0.00     0.016 A 
ATOM     14  C   UNL A   1      41.331  27.199  29.704  1.00  0.00     0.010 A 
ATOM     15  C   UNL A   1      42.445  28.737  28.220  1.00  0.00     0.010 A 
ATOM     16  C   UNL A   1      41.986  28.408  29.499  1.00  0.00    -0.014 A 
BRANCH  16  17
ATOM     17  C   UNL A   1      41.976  29.373  30.612  1.00  0.00     0.031 A 
ATOM     18  C   UNL A   1      40.770  30.252  30.756  1.00  0.00     0.074 A 
ATOM     19  C   UNL A   1      42.920  29.308  31.567  1.00  0.00     0.049 A 
ATOM     20  N   UNL A   1      40.504  31.160  31.656  1.00  0.00    -0.248 NA
ATOM     21  C   UNL A   1      39.698  30.059  29.762  1.00  0.00     0.031 C 
ATOM     22  C   UNL A   1      44.045  28.370  31.578  1.00  0.00     0.029 A 
ATOM     23  N   UNL A   1      43.061  30.012  32.733  1.00  0.00    -0.354 N 
ATOM     24  C   UNL A   1      39.247  31.650  31.330  1.00  0.00     0.074 A 
ATOM     25  C   UNL A   1      38.802  30.952  30.146  1.00  0.00     0.031 C 
ATOM     26  C   UNL A   1      44.752  28.548  32.706  1.00  0.00     0.029 A 
ATOM     27  C   UNL A   1      44.165  29.648  33.464  1.00  0.00     0.049 A 
ATOM     28  H   UNL A   1      42.431  30.712  33.021  1.00  0.00     0.167 HD
ATOM     29  C   UNL A   1      38.532  32.602  31.970  1.00  0.00     0.037 A 
ATOM     30  C   UNL A   1      44.654  30.179  34.601  1.00  0.00     0.037 A 
ATOM     31  C   UNL A   1      39.005  33.289  33.138  1.00  0.00     0.049 A 
ATOM     32  C   UNL A   1      43.895  31.323  35.225  1.00  0.00     0.074 A 
ATOM     33  C   UNL A   1      38.436  34.349  33.815  1.00  0.00     0.029 A 
ATOM     34  N   UNL A   1      40.180  32.964  33.806  1.00  0.00    -0.354 N 
ATOM     35  N   UNL A   1      42.752  31.856  34.860  1.00  0.00    -0.248 NA
ATOM     36  C   UNL A   1      44.498  31.950  36.408  1.00  0.00     0.031 C 
ATOM     37  C   UNL A   1      39.286  34.689  34.874  1.00  0.00     0.029 A 
ATOM     38  C   UNL A   1      40.359  33.810  34.884  1.00  0.00     0.049 A 
ATOM     39  H   UNL A   1      40.793  32.237  33.549  1.00  0.00     0.167 HD
ATOM     40  C   UNL A   1      42.493  32.871  35.769  1.00  0.00     0.074 A 
ATOM     41  C   UNL A   1      43.584  32.856  36.725  1.00  0.00     0.031 C 
ATOM     42  C   UNL A   1      41.462  33.751  35.810  1.00  0.00     0.037 A 
BRANCH  29  43
ATOM     43  C   UNL A   1      37.213  32.984  31.368  1.00  0.00     0.064 A 
ATOM     44  C   UNL A   1      37.128  33.712  30.172  1.00  0.00     0.173 A 
ATOM     45  C   UNL A   1      36.017  32.651  32.021  1.00  0.00     0.173 A 
ATOM     46  F   UNL A   1      38.243  34.086  29.528  1.00  0.00    -0.203 F 
ATOM     47  C   UNL A   1      35.894  34.112  29.664  1.00  0.00     0.198 A 
ATOM     48  C   UNL A   1      34.784  33.033  31.498  1.00  0.00     0.198 A 
ATOM     49  F   UNL A   1      36.045  31.968  33.176  1.00  0.00    -0.203 F 
ATOM     50  F   UNL A   1      35.838  34.854  28.549  1.00  0.00    -0.200 F 
ATOM     51  C   UNL A   1      34.723  33.769  30.325  1.00  0.00     0.200 A 
ATOM     52  F   UNL A   1      33.655  32.702  32.140  1.00  0.00    -0.200 F 
ATOM     53  F   UNL A   1      33.537  34.162  29.840  1.00  0.00    -0.200 F 
ENDBRANCH  29  43
BRANCH  30  54
ATOM     54  C   UNL A   1      45.941  29.697  35.175  1.00  0.00     0.064 A 
ATOM     55  C   UNL A   1      45.978  28.745  36.204  1.00  0.00     0.173 A 
ATOM     56  C   UNL A   1      47.169  30.218  34.734  1.00  0.00     0.173 A 
ATOM     57  F   UNL A   1      44.835  28.230  36.682  1.00  0.00    -0.203 F 
ATOM     58  C   UNL A   1      47.185  28.357  36.786  1.00  0.00     0.198 A 
ATOM     59  C   UNL A   1      48.376  29.802  35.291  1.00  0.00     0.198 A 
ATOM     60  F   UNL A   1      47.197  31.135  33.756  1.00  0.00    -0.203 F 
ATOM     61  F   UNL A   1      47.185  27.490  37.809  1.00  0.00    -0.200 F 
ATOM     62  C   UNL A   1      48.383  28.881  36.326  1.00  0.00     0.200 A 
ATOM     63  F   UNL A   1      49.531  30.303  34.830  1.00  0.00    -0.200 F 
ATOM     64  F   UNL A   1      49.542  28.510  36.887  1.00  0.00    -0.200 F 
ENDBRANCH  30  54
BRANCH  42  65
ATOM     65  C   UNL A   1      41.467  34.743  36.933  1.00  0.00     0.064 A 
ATOM     66  C   UNL A   1      42.230  35.916  36.867  1.00  0.00     0.173 A 
ATOM     67  C   UNL A   1      40.675  34.530  38.070  1.00  0.00     0.173 A 
ATOM     68  F   UNL A   1      43.016  36.153  35.804  1.00  0.00    -0.203 F 
ATOM     69  C   UNL A   1      42.223  36.831  37.916  1.00  0.00     0.198 A 
ATOM     70  C   UNL A   1      40.646  35.461  39.102  1.00  0.00     0.198 A 
ATOM     71  F   UNL A   1      39.921  33.425  38.173  1.00  0.00    -0.203 F 
ATOM     72  F   UNL A   1      43.000  37.921  37.855  1.00  0.00    -0.200 F 
ATOM     73  C   UNL A   1      41.426  36.606  39.027  1.00  0.00     0.200 A 
ATOM     74  F   UNL A   1      39.864  35.250  40.170  1.00  0.00    -0.200 F 
ATOM     75  F   UNL A   1      41.417  37.489  40.035  1.00  0.00    -0.200 F 
ENDBRANCH  42  65
ENDBRANCH  16  17
ENDBRANCH   9  11
ENDBRANCH   8   9
ENDBRANCH   7   8
ENDBRANCH   6   7
ENDBRANCH   5   6
ENDBRANCH   4   5
ENDBRANCH   3   4
ENDBRANCH   2   3
ENDBRANCH   1   2
BRANCH   1  76
ATOM     76  C   UNL A   1      35.092  23.877  23.511  1.00  0.00     0.188 C 
BRANCH  76  77
ATOM     77  O   UNL A   1      34.274  23.740  22.354  1.00  0.00    -0.376 OA
BRANCH  77  78
ATOM     78  C   UNL A   1      32.899  24.039  22.566  1.00  0.00     0.202 C 
BRANCH  78  79
ATOM     79  C   UNL A   1      32.627  25.533  22.710  1.00  0.00     0.261 C 
BRANCH  79  80
ATOM     80  O   UNL A   1      31.326  25.862  23.228  1.00  0.00    -0.460 OA
BRANCH  80  81
ATOM     81  C   UNL A   1      30.967  27.156  23.304  1.00  0.00     0.340 C 
ATOM     82  O   UNL A   1      30.293  27.781  22.500  1.00  0.00    -0.246 OA
BRANCH  81  83
ATOM     83  C   UNL A   1      31.437  27.710  24.574  1.00  0.00     0.091 A 
ATOM     84  C   UNL A   1      31.883  29.029  24.503  1.00  0.00     0.127 A 
ATOM     85  C   UNL A   1      31.323  27.111  25.828  1.00  0.00     0.057 A 
ATOM     86  N   UNL A   1      32.136  29.809  25.579  1.00  0.00    -0.264 NA
ATOM     87  C   UNL A   1      31.583  27.917  26.955  1.00  0.00     0.035 A 
ATOM     88  C   UNL A   1      31.955  29.240  26.786  1.00  0.00     0.112 A 
BRANCH  85  89
ATOM     89  C   UNL A   1      30.745  25.766  26.126  1.00  0.00     0.254 C 
ATOM     90  O   UNL A   1      29.531  25.754  26.356  1.00  0.00    -0.269 OA
ATOM     91  N   UNL A   1      31.472  24.566  26.104  1.00  0.00    -0.339 N 
ATOM     92  C   UNL A   1      30.705  23.422  25.606  1.00  0.00     0.120 C 
ATOM     93  C   UNL A   1      32.923  24.421  26.258  1.00  0.00     0.120 C 
ATOM     94  C   UNL A   1      31.225  22.054  26.014  1.00  0.00     0.025 C 
ATOM     95  C   UNL A   1      33.391  23.029  26.665  1.00  0.00     0.025 C 
ATOM     96  C   UNL A   1      32.734  21.953  25.785  1.00  0.00    -0.003 C 
BRANCH  96  97
ATOM     97  C   UNL A   1      33.321  20.570  26.109  1.00  0.00     0.039 C 
BRANCH  97  98
ATOM     98  C   UNL A   1      33.052  19.510  25.068  1.00  0.00    -0.048 A 
ATOM     99  C   UNL A   1      32.772  19.896  23.749  1.00  0.00     0.004 A 
ATOM    100  C   UNL A   1      33.097  18.146  25.380  1.00  0.00     0.004 A 
ATOM    101  C   UNL A   1      32.529  18.939  22.764  1.00  0.00     0.000 A 
ATOM    102  C   UNL A   1      32.852  17.188  24.392  1.00  0.00     0.000 A 
ATOM    103  C   UNL A   1      32.566  17.585  23.087  1.00  0.00     0.000 A 
ENDBRANCH  97  98
ENDBRANCH  96  97
ENDBRANCH  85  89
ENDBRANCH  81  83
ENDBRANCH  80  81
ENDBRANCH  79  80
ENDBRANCH  78  79
ENDBRANCH  77  78
ENDBRANCH  76  77
ENDBRANCH   1  76
TORSDOF 23
ENDMDL
MODEL 2
REMARK VINA RESULT:     -10.0      2.497      8.431
REMARK SMILES O=C(OCCOCCOCCOCCOC(=O)c1cnccc1C(=O)N1CCC(Cc2ccccc2)CC1)c1ccc(-c2c3nc(c(-c4c(F)c(F)c(F)c(F)c4F)c4ccc([nH]4)c(-c4c(F)c(F)c(F)c(F)c4F)c4nc(c(-c5c(F)c(F)c(F)c(F)c5F)c5ccc2[nH]5)C=C4)C=C3)cc1
REMARK SMILES IDX 10 1 9 2 8 3 7 4 6 5 5 6 4 7 3 8 2 9 1 10 39 11 40 12 101 13
REMARK SMILES IDX 41 14 100 15 42 16 43 17 44 18 94 19 45 20 99 21 93 22 95 23
REMARK SMILES IDX 46 24 98 25 92 26 91 27 47 29 79 30 59 31 78 32 60 33 63 34
REMARK SMILES IDX 77 35 96 36 61 37 62 38 76 40 97 41 64 42 48 43 49 44 57 45
REMARK SMILES IDX 50 46 51 47 55 48 58 49 52 50 53 51 56 52 54 53 80 54 81 55
REMARK SMILES IDX 89 56 82 57 83 58 87 59 90 60 84 61 85 62 88 63 86 64 65 65
REMARK SMILES IDX 66 66 74 67 67 68 68 69 72 70 75 71 69 72 70 73 73 74 71 75
REMARK SMILES IDX 11 76 12 77 13 78 14 79 15 80 16 81 17 82 18 83 19 84 23 85
REMARK SMILES IDX 20 86 22 87 21 88 24 89 25 90 26 91 27 92 38 93 28 94 37 95
REMARK SMILES IDX 29 96 30 97 31 98 32 99 36 100 33 101 35 102 34 103
REMARK H PARENT 95 28 63 39
REMARK Flexibility Score: inf
ROOT
ATOM      1  C   UNL A   1      38.813  20.088  25.743  1.00  0.00     0.188 C 
ENDROOT
BRANCH   1   2
ATOM      2  O   UNL A   1      40.088  19.463  25.702  1.00  0.00    -0.377 OA
BRANCH   2   3
ATOM      3  C   UNL A   1      41.130  20.005  26.510  1.00  0.00     0.188 C 
BRANCH   3   4
ATOM      4  C   UNL A   1      42.555  19.530  26.219  1.00  0.00     0.188 C 
BRANCH   4   5
ATOM      5  O   UNL A   1      43.418  20.625  25.920  1.00  0.00    -0.376 OA
BRANCH   5   6
ATOM      6  C   UNL A   1      42.764  21.818  25.494  1.00  0.00     0.202 C 
BRANCH   6   7
ATOM      7  C   UNL A   1      43.339  23.079  26.135  1.00  0.00     0.261 C 
BRANCH   7   8
ATOM      8  O   UNL A   1      44.535  22.799  26.878  1.00  0.00    -0.460 OA
BRANCH   8   9
ATOM      9  C   UNL A   1      45.322  23.673  27.552  1.00  0.00     0.338 C 
ATOM     10  O   UNL A   1      46.504  23.762  27.223  1.00  0.00    -0.246 OA
BRANCH   9  11
ATOM     11  C   UNL A   1      44.846  24.571  28.656  1.00  0.00     0.060 A 
ATOM     12  C   UNL A   1      43.882  24.248  29.614  1.00  0.00     0.016 A 
ATOM     13  C   UNL A   1      45.473  25.826  28.766  1.00  0.00     0.016 A 
ATOM     14  C   UNL A   1      43.498  25.148  30.598  1.00  0.00     0.010 A 
ATOM     15  C   UNL A   1      45.108  26.737  29.765  1.00  0.00     0.010 A 
ATOM     16  C   UNL A   1      44.090  26.405  30.664  1.00  0.00    -0.014 A 
BRANCH  16  17
ATOM     17  C   UNL A   1      43.460  27.396  31.553  1.00  0.00     0.031 A 
ATOM     18  C   UNL A   1      44.171  27.732  32.830  1.00  0.00     0.074 A 
ATOM     19  C   UNL A   1      42.404  28.109  31.125  1.00  0.00     0.049 A 
ATOM     20  N   UNL A   1      43.844  28.580  33.767  1.00  0.00    -0.248 NA
ATOM     21  C   UNL A   1      45.448  27.034  33.070  1.00  0.00     0.031 C 
ATOM     22  C   UNL A   1      41.749  27.947  29.825  1.00  0.00     0.029 A 
ATOM     23  N   UNL A   1      41.725  29.141  31.715  1.00  0.00    -0.354 N 
ATOM     24  C   UNL A   1      44.864  28.509  34.706  1.00  0.00     0.074 A 
ATOM     25  C   UNL A   1      45.817  27.529  34.239  1.00  0.00     0.031 C 
ATOM     26  C   UNL A   1      40.771  28.860  29.711  1.00  0.00     0.029 A 
ATOM     27  C   UNL A   1      40.693  29.628  30.950  1.00  0.00     0.049 A 
ATOM     28  H   UNL A   1      41.953  29.500  32.603  1.00  0.00     0.167 HD
ATOM     29  C   UNL A   1      44.986  29.205  35.858  1.00  0.00     0.037 A 
ATOM     30  C   UNL A   1      39.775  30.568  31.246  1.00  0.00     0.037 A 
ATOM     31  C   UNL A   1      44.016  30.165  36.304  1.00  0.00     0.049 A 
ATOM     32  C   UNL A   1      39.868  31.241  32.593  1.00  0.00     0.074 A 
ATOM     33  C   UNL A   1      43.958  30.853  37.499  1.00  0.00     0.029 A 
ATOM     34  N   UNL A   1      42.923  30.571  35.548  1.00  0.00    -0.354 N 
ATOM     35  N   UNL A   1      40.779  31.101  33.527  1.00  0.00    -0.248 NA
ATOM     36  C   UNL A   1      38.801  32.190  32.933  1.00  0.00     0.031 C 
ATOM     37  C   UNL A   1      42.807  31.651  37.480  1.00  0.00     0.029 A 
ATOM     38  C   UNL A   1      42.177  31.496  36.255  1.00  0.00     0.049 A 
ATOM     39  H   UNL A   1      42.711  30.248  34.641  1.00  0.00     0.167 HD
ATOM     40  C   UNL A   1      40.404  31.948  34.560  1.00  0.00     0.074 A 
ATOM     41  C   UNL A   1      39.199  32.623  34.121  1.00  0.00     0.031 C 
ATOM     42  C   UNL A   1      40.985  32.144  35.770  1.00  0.00     0.037 A 
BRANCH  29  43
ATOM     43  C   UNL A   1      46.170  28.891  36.722  1.00  0.00     0.064 A 
ATOM     44  C   UNL A   1      47.423  29.486  36.506  1.00  0.00     0.173 A 
ATOM     45  C   UNL A   1      46.060  27.950  37.756  1.00  0.00     0.173 A 
ATOM     46  F   UNL A   1      47.589  30.366  35.507  1.00  0.00    -0.203 F 
ATOM     47  C   UNL A   1      48.526  29.132  37.280  1.00  0.00     0.198 A 
ATOM     48  C   UNL A   1      47.159  27.616  38.542  1.00  0.00     0.198 A 
ATOM     49  F   UNL A   1      44.888  27.342  37.994  1.00  0.00    -0.203 F 
ATOM     50  F   UNL A   1      49.725  29.671  37.020  1.00  0.00    -0.200 F 
ATOM     51  C   UNL A   1      48.393  28.201  38.299  1.00  0.00     0.200 A 
ATOM     52  F   UNL A   1      47.028  26.714  39.525  1.00  0.00    -0.200 F 
ATOM     53  F   UNL A   1      49.456  27.855  39.037  1.00  0.00    -0.200 F 
ENDBRANCH  29  43
BRANCH  30  54
ATOM     54  C   UNL A   1      38.664  30.872  30.302  1.00  0.00     0.064 A 
ATOM     55  C   UNL A   1      38.593  32.093  29.618  1.00  0.00     0.173 A 
ATOM     56  C   UNL A   1      37.618  29.957  30.099  1.00  0.00     0.173 A 
ATOM     57  F   UNL A   1      39.552  33.016  29.791  1.00  0.00    -0.203 F 
ATOM     58  C   UNL A   1      37.509  32.398  28.794  1.00  0.00     0.198 A 
ATOM     59  C   UNL A   1      36.554  30.247  29.248  1.00  0.00     0.198 A 
ATOM     60  F   UNL A   1      37.628  28.773  30.729  1.00  0.00    -0.203 F 
ATOM     61  F   UNL A   1      37.438  33.598  28.200  1.00  0.00    -0.200 F 
ATOM     62  C   UNL A   1      36.494  31.473  28.605  1.00  0.00     0.200 A 
ATOM     63  F   UNL A   1      35.585  29.342  29.058  1.00  0.00    -0.200 F 
ATOM     64  F   UNL A   1      35.451  31.767  27.816  1.00  0.00    -0.200 F 
ENDBRANCH  30  54
BRANCH  42  65
ATOM     65  C   UNL A   1      40.328  33.138  36.678  1.00  0.00     0.064 A 
ATOM     66  C   UNL A   1      39.256  32.776  37.505  1.00  0.00     0.173 A 
ATOM     67  C   UNL A   1      40.801  34.456  36.745  1.00  0.00     0.173 A 
ATOM     68  F   UNL A   1      38.761  31.528  37.463  1.00  0.00    -0.203 F 
ATOM     69  C   UNL A   1      38.659  33.709  38.347  1.00  0.00     0.198 A 
ATOM     70  C   UNL A   1      40.222  35.378  37.610  1.00  0.00     0.198 A 
ATOM     71  F   UNL A   1      41.831  34.846  35.978  1.00  0.00    -0.203 F 
ATOM     72  F   UNL A   1      37.601  33.355  39.090  1.00  0.00    -0.200 F 
ATOM     73  C   UNL A   1      39.146  35.006  38.403  1.00  0.00     0.200 A 
ATOM     74  F   UNL A   1      40.702  36.627  37.674  1.00  0.00    -0.200 F 
ATOM     75  F   UNL A   1      38.572  35.902  39.217  1.00  0.00    -0.200 F 
ENDBRANCH  42  65
ENDBRANCH  16  17
ENDBRANCH   9  11
ENDBRANCH   8   9
ENDBRANCH   7   8
ENDBRANCH   6   7
ENDBRANCH   5   6
ENDBRANCH   4   5
ENDBRANCH   3   4
ENDBRANCH   2   3
ENDBRANCH   1   2
BRANCH   1  76
ATOM     76  C   UNL A   1      38.677  21.610  25.494  1.00  0.00     0.188 C 
BRANCH  76  77
ATOM     77  O   UNL A   1      37.366  22.093  25.219  1.00  0.00    -0.376 OA
BRANCH  77  78
ATOM     78  C   UNL A   1      37.009  23.269  25.938  1.00  0.00     0.202 C 
BRANCH  78  79
ATOM     79  C   UNL A   1      36.085  24.192  25.151  1.00  0.00     0.261 C 
BRANCH  79  80
ATOM     80  O   UNL A   1      35.648  23.670  23.884  1.00  0.00    -0.460 OA
BRANCH  80  81
ATOM     81  C   UNL A   1      34.485  24.107  23.369  1.00  0.00     0.340 C 
ATOM     82  O   UNL A   1      34.337  24.936  22.484  1.00  0.00    -0.246 OA
BRANCH  81  83
ATOM     83  C   UNL A   1      33.381  23.363  23.975  1.00  0.00     0.091 A 
ATOM     84  C   UNL A   1      33.543  21.979  23.973  1.00  0.00     0.127 A 
ATOM     85  C   UNL A   1      32.306  23.907  24.678  1.00  0.00     0.057 A 
ATOM     86  N   UNL A   1      32.775  21.118  24.680  1.00  0.00    -0.264 NA
ATOM     87  C   UNL A   1      31.502  23.018  25.418  1.00  0.00     0.035 A 
ATOM     88  C   UNL A   1      31.783  21.662  25.409  1.00  0.00     0.112 A 
BRANCH  85  89
ATOM     89  C   UNL A   1      32.035  25.358  24.911  1.00  0.00     0.254 C 
ATOM     90  O   UNL A   1      32.914  25.964  25.534  1.00  0.00    -0.269 OA
ATOM     91  N   UNL A   1      30.908  26.043  24.433  1.00  0.00    -0.339 N 
ATOM     92  C   UNL A   1      31.185  27.423  24.031  1.00  0.00     0.120 C 
ATOM     93  C   UNL A   1      29.620  25.450  24.058  1.00  0.00     0.120 C 
ATOM     94  C   UNL A   1      29.982  28.350  23.990  1.00  0.00     0.025 C 
ATOM     95  C   UNL A   1      28.448  26.424  24.030  1.00  0.00     0.025 C 
ATOM     96  C   UNL A   1      28.814  27.697  23.249  1.00  0.00    -0.003 C 
BRANCH  96  97
ATOM     97  C   UNL A   1      27.583  28.606  23.105  1.00  0.00     0.039 C 
BRANCH  97  98
ATOM     98  C   UNL A   1      27.890  30.023  22.685  1.00  0.00    -0.048 A 
ATOM     99  C   UNL A   1      28.206  30.291  21.345  1.00  0.00     0.004 A 
ATOM    100  C   UNL A   1      27.844  31.085  23.597  1.00  0.00     0.004 A 
ATOM    101  C   UNL A   1      28.484  31.592  20.927  1.00  0.00     0.000 A 
ATOM    102  C   UNL A   1      28.124  32.388  23.176  1.00  0.00     0.000 A 
ATOM    103  C   UNL A   1      28.447  32.640  21.843  1.00  0.00     0.000 A 
ENDBRANCH  97  98
ENDBRANCH  96  97
ENDBRANCH  85  89
ENDBRANCH  81  83
ENDBRANCH  80  81
ENDBRANCH  79  80
ENDBRANCH  78  79
ENDBRANCH  77  78
ENDBRANCH  76  77
ENDBRANCH   1  76
TORSDOF 23
ENDMDL
MODEL 3
REMARK VINA RESULT:      -9.9      2.223      4.862
REMARK SMILES O=C(OCCOCCOCCOCCOC(=O)c1cnccc1C(=O)N1CCC(Cc2ccccc2)CC1)c1ccc(-c2c3nc(c(-c4c(F)c(F)c(F)c(F)c4F)c4ccc([nH]4)c(-c4c(F)c(F)c(F)c(F)c4F)c4nc(c(-c5c(F)c(F)c(F)c(F)c5F)c5ccc2[nH]5)C=C4)C=C3)cc1
REMARK SMILES IDX 10 1 9 2 8 3 7 4 6 5 5 6 4 7 3 8 2 9 1 10 39 11 40 12 101 13
REMARK SMILES IDX 41 14 100 15 42 16 43 17 44 18 94 19 45 20 99 21 93 22 95 23
REMARK SMILES IDX 46 24 98 25 92 26 91 27 47 29 79 30 59 31 78 32 60 33 63 34
REMARK SMILES IDX 77 35 96 36 61 37 62 38 76 40 97 41 64 42 48 43 49 44 57 45
REMARK SMILES IDX 50 46 51 47 55 48 58 49 52 50 53 51 56 52 54 53 80 54 81 55
REMARK SMILES IDX 89 56 82 57 83 58 87 59 90 60 84 61 85 62 88 63 86 64 65 65
REMARK SMILES IDX 66 66 74 67 67 68 68 69 72 70 75 71 69 72 70 73 73 74 71 75
REMARK SMILES IDX 11 76 12 77 13 78 14 79 15 80 16 81 17 82 18 83 19 84 23 85
REMARK SMILES IDX 20 86 22 87 21 88 24 89 25 90 26 91 27 92 38 93 28 94 37 95
REMARK SMILES IDX 29 96 30 97 31 98 32 99 36 100 33 101 35 102 34 103
REMARK H PARENT 95 28 63 39
REMARK Flexibility Score: inf
ROOT
ATOM      1  C   UNL A   1      40.017  20.853  26.504  1.00  0.00     0.188 C 
ENDROOT
BRANCH   1   2
ATOM      2  O   UNL A   1      41.352  20.767  26.027  1.00  0.00    -0.377 OA
BRANCH   2   3
ATOM      3  C   UNL A   1      42.186  21.916  26.147  1.00  0.00     0.188 C 
BRANCH   3   4
ATOM      4  C   UNL A   1      42.035  22.754  27.418  1.00  0.00     0.188 C 
BRANCH   4   5
ATOM      5  O   UNL A   1      41.718  24.111  27.113  1.00  0.00    -0.376 OA
BRANCH   5   6
ATOM      6  C   UNL A   1      41.923  24.493  25.755  1.00  0.00     0.202 C 
BRANCH   6   7
ATOM      7  C   UNL A   1      43.055  25.502  25.580  1.00  0.00     0.261 C 
BRANCH   7   8
ATOM      8  O   UNL A   1      44.337  24.913  25.846  1.00  0.00    -0.460 OA
BRANCH   8   9
ATOM      9  C   UNL A   1      45.059  24.969  26.993  1.00  0.00     0.338 C 
ATOM     10  O   UNL A   1      46.094  24.307  27.059  1.00  0.00    -0.246 OA
BRANCH   9  11
ATOM     11  C   UNL A   1      44.704  25.811  28.183  1.00  0.00     0.060 A 
ATOM     12  C   UNL A   1      43.994  25.381  29.306  1.00  0.00     0.016 A 
ATOM     13  C   UNL A   1      45.182  27.135  28.187  1.00  0.00     0.016 A 
ATOM     14  C   UNL A   1      43.704  26.235  30.360  1.00  0.00     0.010 A 
ATOM     15  C   UNL A   1      44.911  28.002  29.252  1.00  0.00     0.010 A 
ATOM     16  C   UNL A   1      44.139  27.556  30.328  1.00  0.00    -0.014 A 
BRANCH  16  17
ATOM     17  C   UNL A   1      43.581  28.470  31.339  1.00  0.00     0.031 A 
ATOM     18  C   UNL A   1      42.269  29.127  31.030  1.00  0.00     0.074 A 
ATOM     19  C   UNL A   1      44.132  28.537  32.564  1.00  0.00     0.049 A 
ATOM     20  N   UNL A   1      41.558  29.948  31.755  1.00  0.00    -0.248 NA
ATOM     21  C   UNL A   1      41.657  28.786  29.733  1.00  0.00     0.031 C 
ATOM     22  C   UNL A   1      45.326  27.803  32.991  1.00  0.00     0.029 A 
ATOM     23  N   UNL A   1      43.739  29.217  33.685  1.00  0.00    -0.354 N 
ATOM     24  C   UNL A   1      40.428  30.227  30.999  1.00  0.00     0.074 A 
ATOM     25  C   UNL A   1      40.545  29.502  29.756  1.00  0.00     0.031 C 
ATOM     26  C   UNL A   1      45.558  28.063  34.288  1.00  0.00     0.029 A 
ATOM     27  C   UNL A   1      44.567  29.024  34.763  1.00  0.00     0.049 A 
ATOM     28  H   UNL A   1      42.939  29.791  33.715  1.00  0.00     0.167 HD
ATOM     29  C   UNL A   1      39.384  31.024  31.323  1.00  0.00     0.037 A 
ATOM     30  C   UNL A   1      44.534  29.594  35.983  1.00  0.00     0.037 A 
ATOM     31  C   UNL A   1      39.300  31.744  32.563  1.00  0.00     0.049 A 
ATOM     32  C   UNL A   1      43.424  30.573  36.271  1.00  0.00     0.074 A 
ATOM     33  C   UNL A   1      38.360  32.671  32.969  1.00  0.00     0.029 A 
ATOM     34  N   UNL A   1      40.208  31.603  33.605  1.00  0.00    -0.354 N 
ATOM     35  N   UNL A   1      42.406  30.915  35.517  1.00  0.00    -0.248 NA
ATOM     36  C   UNL A   1      43.465  31.255  37.570  1.00  0.00     0.031 C 
ATOM     37  C   UNL A   1      38.721  33.117  34.246  1.00  0.00     0.029 A 
ATOM     38  C   UNL A   1      39.857  32.433  34.653  1.00  0.00     0.049 A 
ATOM     39  H   UNL A   1      40.987  30.999  33.598  1.00  0.00     0.167 HD
ATOM     40  C   UNL A   1      41.680  31.843  36.250  1.00  0.00     0.074 A 
ATOM     41  C   UNL A   1      42.358  31.982  37.523  1.00  0.00     0.031 C 
ATOM     42  C   UNL A   1      40.564  32.533  35.904  1.00  0.00     0.037 A 
BRANCH  29  43
ATOM     43  C   UNL A   1      38.311  31.195  30.292  1.00  0.00     0.064 A 
ATOM     44  C   UNL A   1      38.190  32.371  29.537  1.00  0.00     0.173 A 
ATOM     45  C   UNL A   1      37.363  30.181  30.085  1.00  0.00     0.173 A 
ATOM     46  F   UNL A   1      39.049  33.384  29.722  1.00  0.00    -0.203 F 
ATOM     47  C   UNL A   1      37.146  32.535  28.628  1.00  0.00     0.198 A 
ATOM     48  C   UNL A   1      36.334  30.340  29.160  1.00  0.00     0.198 A 
ATOM     49  F   UNL A   1      37.426  29.044  30.792  1.00  0.00    -0.203 F 
ATOM     50  F   UNL A   1      37.018  33.688  27.958  1.00  0.00    -0.200 F 
ATOM     51  C   UNL A   1      36.222  31.518  28.438  1.00  0.00     0.200 A 
ATOM     52  F   UNL A   1      35.442  29.356  28.979  1.00  0.00    -0.200 F 
ATOM     53  F   UNL A   1      35.213  31.680  27.571  1.00  0.00    -0.200 F 
ENDBRANCH  29  43
BRANCH  30  54
ATOM     54  C   UNL A   1      45.605  29.320  36.981  1.00  0.00     0.064 A 
ATOM     55  C   UNL A   1      45.497  28.273  37.908  1.00  0.00     0.173 A 
ATOM     56  C   UNL A   1      46.747  30.134  37.058  1.00  0.00     0.173 A 
ATOM     57  F   UNL A   1      44.418  27.478  37.898  1.00  0.00    -0.203 F 
ATOM     58  C   UNL A   1      46.471  28.072  38.888  1.00  0.00     0.198 A 
ATOM     59  C   UNL A   1      47.736  29.910  38.013  1.00  0.00     0.198 A 
ATOM     60  F   UNL A   1      46.905  31.153  36.200  1.00  0.00    -0.203 F 
ATOM     61  F   UNL A   1      46.311  27.102  39.799  1.00  0.00    -0.200 F 
ATOM     62  C   UNL A   1      47.591  28.887  38.936  1.00  0.00     0.200 A 
ATOM     63  F   UNL A   1      48.824  30.692  38.043  1.00  0.00    -0.200 F 
ATOM     64  F   UNL A   1      48.525  28.695  39.878  1.00  0.00    -0.200 F 
ENDBRANCH  30  54
BRANCH  42  65
ATOM     65  C   UNL A   1      40.012  33.476  36.930  1.00  0.00     0.064 A 
ATOM     66  C   UNL A   1      39.028  33.070  37.841  1.00  0.00     0.173 A 
ATOM     67  C   UNL A   1      40.499  34.788  37.020  1.00  0.00     0.173 A 
ATOM     68  F   UNL A   1      38.522  31.828  37.782  1.00  0.00    -0.203 F 
ATOM     69  C   UNL A   1      38.528  33.956  38.791  1.00  0.00     0.198 A 
ATOM     70  C   UNL A   1      40.020  35.661  37.989  1.00  0.00     0.198 A 
ATOM     71  F   UNL A   1      41.448  35.218  36.173  1.00  0.00    -0.203 F 
ATOM     72  F   UNL A   1      37.550  33.564  39.619  1.00  0.00    -0.200 F 
ATOM     73  C   UNL A   1      39.029  35.247  38.868  1.00  0.00     0.200 A 
ATOM     74  F   UNL A   1      40.514  36.903  38.073  1.00  0.00    -0.200 F 
ATOM     75  F   UNL A   1      38.549  36.097  39.785  1.00  0.00    -0.200 F 
ENDBRANCH  42  65
ENDBRANCH  16  17
ENDBRANCH   9  11
ENDBRANCH   8   9
ENDBRANCH   7   8
ENDBRANCH   6   7
ENDBRANCH   5   6
ENDBRANCH   4   5
ENDBRANCH   3   4
ENDBRANCH   2   3
ENDBRANCH   1   2
BRANCH   1  76
ATOM     76  C   UNL A   1      38.964  21.698  25.745  1.00  0.00     0.188 C 
BRANCH  76  77
ATOM     77  O   UNL A   1      38.548  22.906  26.372  1.00  0.00    -0.376 OA
BRANCH  77  78
ATOM     78  C   UNL A   1      37.616  23.672  25.616  1.00  0.00     0.202 C 
BRANCH  78  79
ATOM     79  C   UNL A   1      36.175  23.491  26.083  1.00  0.00     0.261 C 
BRANCH  79  80
ATOM     80  O   UNL A   1      35.221  24.354  25.441  1.00  0.00    -0.460 OA
BRANCH  80  81
ATOM     81  C   UNL A   1      34.708  23.983  24.254  1.00  0.00     0.340 C 
ATOM     82  O   UNL A   1      35.052  24.373  23.149  1.00  0.00    -0.246 OA
BRANCH  81  83
ATOM     83  C   UNL A   1      33.701  22.944  24.470  1.00  0.00     0.091 A 
ATOM     84  C   UNL A   1      34.165  21.641  24.302  1.00  0.00     0.127 A 
ATOM     85  C   UNL A   1      32.415  23.135  24.976  1.00  0.00     0.057 A 
ATOM     86  N   UNL A   1      33.485  20.533  24.676  1.00  0.00    -0.264 NA
ATOM     87  C   UNL A   1      31.699  21.986  25.369  1.00  0.00     0.035 A 
ATOM     88  C   UNL A   1      32.272  20.734  25.226  1.00  0.00     0.112 A 
BRANCH  85  89
ATOM     89  C   UNL A   1      31.786  24.437  25.350  1.00  0.00     0.254 C 
ATOM     90  O   UNL A   1      31.445  24.536  26.533  1.00  0.00    -0.269 OA
ATOM     91  N   UNL A   1      31.622  25.521  24.475  1.00  0.00    -0.339 N 
ATOM     92  C   UNL A   1      31.792  26.826  25.116  1.00  0.00     0.120 C 
ATOM     93  C   UNL A   1      31.579  25.462  23.010  1.00  0.00     0.120 C 
ATOM     94  C   UNL A   1      31.155  28.002  24.394  1.00  0.00     0.025 C 
ATOM     95  C   UNL A   1      30.932  26.667  22.336  1.00  0.00     0.025 C 
ATOM     96  C   UNL A   1      31.498  27.979  22.904  1.00  0.00    -0.003 C 
BRANCH  96  97
ATOM     97  C   UNL A   1      30.946  29.180  22.120  1.00  0.00     0.039 C 
BRANCH  97  98
ATOM     98  C   UNL A   1      29.667  29.761  22.674  1.00  0.00    -0.048 A 
ATOM     99  C   UNL A   1      29.695  31.016  23.299  1.00  0.00     0.004 A 
ATOM    100  C   UNL A   1      28.444  29.088  22.558  1.00  0.00     0.004 A 
ATOM    101  C   UNL A   1      28.528  31.581  23.811  1.00  0.00     0.000 A 
ATOM    102  C   UNL A   1      27.275  29.656  23.072  1.00  0.00     0.000 A 
ATOM    103  C   UNL A   1      27.318  30.900  23.700  1.00  0.00     0.000 A 
ENDBRANCH  97  98
ENDBRANCH  96  97
ENDBRANCH  85  89
ENDBRANCH  81  83
ENDBRANCH  80  81
ENDBRANCH  79  80
ENDBRANCH  78  79
ENDBRANCH  77  78
ENDBRANCH  76  77
ENDBRANCH   1  76
TORSDOF 23
ENDMDL
