MODEL 1
REMARK VINA RESULT:     -11.7      0.000      0.000
REMARK SMILES O=C(OCCOCCOCCOCCOC(=O)[C@H]1Cc2c([nH]c3ccccc23)[C@H](c2c[nH]c3ccccc23)[NH2+]1)c1ccc(-c2c3nc(c(-c4c(F)c(F)c(F)c(F)c4F)c4ccc([nH]4)c(-c4c(F)c(F)c(F)c(F)c4F)c4nc(c(-c5c(F)c(F)c(F)c(F)c5F)c5ccc2[nH]5)C=C4)C=C3)cc1
REMARK SMILES IDX 8 1 7 2 6 3 5 4 4 5 3 6 2 7 1 8 40 9 41 10 102 11 42 12
REMARK SMILES IDX 101 13 43 14 44 15 45 16 95 17 46 18 100 19 94 20 96 21
REMARK SMILES IDX 47 22 99 23 93 24 92 25 48 27 80 28 60 29 79 30 61 31 64 32
REMARK SMILES IDX 78 33 97 34 62 35 63 36 77 38 98 39 65 40 49 41 50 42 58 43
REMARK SMILES IDX 51 44 52 45 56 46 59 47 53 48 54 49 57 50 55 51 81 52 82 53
REMARK SMILES IDX 90 54 83 55 84 56 88 57 91 58 85 59 86 60 89 61 87 62 66 63
REMARK SMILES IDX 67 64 75 65 68 66 69 67 73 68 76 69 70 70 71 71 74 72 72 73
REMARK SMILES IDX 9 74 10 75 11 76 12 77 13 78 14 79 15 80 16 81 17 82 18 83
REMARK SMILES IDX 19 84 39 85 20 86 29 87 21 90 28 91 22 92 23 93 27 94 24 96
REMARK SMILES IDX 26 97 25 98 30 99 31 100 38 101 32 102 33 103 37 104 34 106
REMARK SMILES IDX 36 107 35 108
REMARK H PARENT 96 26 64 37 39 88 39 89 22 95 32 105
REMARK Flexibility Score: inf
ROOT
ATOM      1  C   UNL A   1      33.411  28.602  22.858  1.00  0.00     0.188 C 
ENDROOT
BRANCH   1   2
ATOM      2  C   UNL A   1      31.973  29.088  22.673  1.00  0.00     0.188 C 
BRANCH   2   3
ATOM      3  O   UNL A   1      31.276  29.218  23.918  1.00  0.00    -0.376 OA
BRANCH   3   4
ATOM      4  C   UNL A   1      32.091  29.399  25.082  1.00  0.00     0.202 C 
BRANCH   4   5
ATOM      5  C   UNL A   1      31.839  30.683  25.870  1.00  0.00     0.261 C 
BRANCH   5   6
ATOM      6  O   UNL A   1      32.548  30.751  27.113  1.00  0.00    -0.460 OA
BRANCH   6   7
ATOM      7  C   UNL A   1      33.596  31.537  27.458  1.00  0.00     0.338 C 
ATOM      8  O   UNL A   1      33.508  32.742  27.224  1.00  0.00    -0.246 OA
BRANCH   7   9
ATOM      9  C   UNL A   1      34.881  31.044  28.059  1.00  0.00     0.060 A 
ATOM     10  C   UNL A   1      35.129  29.746  28.503  1.00  0.00     0.016 A 
ATOM     11  C   UNL A   1      35.944  31.964  28.129  1.00  0.00     0.016 A 
ATOM     12  C   UNL A   1      36.369  29.343  28.952  1.00  0.00     0.010 A 
ATOM     13  C   UNL A   1      37.189  31.594  28.647  1.00  0.00     0.010 A 
ATOM     14  C   UNL A   1      37.386  30.278  29.071  1.00  0.00    -0.014 A 
BRANCH  14  15
ATOM     15  C   UNL A   1      38.504  29.873  29.928  1.00  0.00     0.031 A 
ATOM     16  C   UNL A   1      39.555  29.018  29.289  1.00  0.00     0.074 A 
ATOM     17  C   UNL A   1      38.682  30.470  31.116  1.00  0.00     0.049 A 
ATOM     18  N   UNL A   1      40.636  28.505  29.802  1.00  0.00    -0.248 NA
ATOM     19  C   UNL A   1      39.379  28.734  27.851  1.00  0.00     0.031 C 
ATOM     20  C   UNL A   1      37.810  31.505  31.679  1.00  0.00     0.029 A 
ATOM     21  N   UNL A   1      39.678  30.330  32.039  1.00  0.00    -0.354 N 
ATOM     22  C   UNL A   1      41.246  27.814  28.764  1.00  0.00     0.074 A 
ATOM     23  C   UNL A   1      40.434  27.984  27.586  1.00  0.00     0.031 C 
ATOM     24  C   UNL A   1      38.313  31.904  32.859  1.00  0.00     0.029 A 
ATOM     25  C   UNL A   1      39.492  31.101  33.159  1.00  0.00     0.049 A 
ATOM     26  H   UNL A   1      40.453  29.737  31.913  1.00  0.00     0.167 HD
ATOM     27  C   UNL A   1      42.380  27.083  28.817  1.00  0.00     0.037 A 
ATOM     28  C   UNL A   1      40.185  31.095  34.313  1.00  0.00     0.037 A 
ATOM     29  C   UNL A   1      43.141  26.938  30.025  1.00  0.00     0.049 A 
ATOM     30  C   UNL A   1      41.350  30.144  34.405  1.00  0.00     0.074 A 
ATOM     31  C   UNL A   1      44.237  26.139  30.277  1.00  0.00     0.029 A 
ATOM     32  N   UNL A   1      42.860  27.630  31.200  1.00  0.00    -0.354 N 
ATOM     33  N   UNL A   1      41.863  29.373  33.472  1.00  0.00    -0.248 NA
ATOM     34  C   UNL A   1      42.019  30.039  35.705  1.00  0.00     0.031 C 
ATOM     35  C   UNL A   1      44.585  26.307  31.622  1.00  0.00     0.029 A 
ATOM     36  C   UNL A   1      43.749  27.260  32.190  1.00  0.00     0.049 A 
ATOM     37  H   UNL A   1      42.134  28.286  31.309  1.00  0.00     0.167 HD
ATOM     38  C   UNL A   1      42.926  28.707  34.062  1.00  0.00     0.074 A 
ATOM     39  C   UNL A   1      42.992  29.181  35.433  1.00  0.00     0.031 C 
ATOM     40  C   UNL A   1      43.769  27.784  33.535  1.00  0.00     0.037 A 
BRANCH  27  41
ATOM     41  C   UNL A   1      42.755  26.319  27.583  1.00  0.00     0.064 A 
ATOM     42  C   UNL A   1      42.237  25.045  27.302  1.00  0.00     0.173 A 
ATOM     43  C   UNL A   1      43.718  26.841  26.707  1.00  0.00     0.173 A 
ATOM     44  F   UNL A   1      41.346  24.480  28.131  1.00  0.00    -0.203 F 
ATOM     45  C   UNL A   1      42.693  24.312  26.207  1.00  0.00     0.198 A 
ATOM     46  C   UNL A   1      44.151  26.117  25.598  1.00  0.00     0.198 A 
ATOM     47  F   UNL A   1      44.261  28.045  26.939  1.00  0.00    -0.203 F 
ATOM     48  F   UNL A   1      42.237  23.068  25.998  1.00  0.00    -0.200 F 
ATOM     49  C   UNL A   1      43.646  24.849  25.356  1.00  0.00     0.200 A 
ATOM     50  F   UNL A   1      45.077  26.638  24.781  1.00  0.00    -0.200 F 
ATOM     51  F   UNL A   1      44.095  24.136  24.314  1.00  0.00    -0.200 F 
ENDBRANCH  27  41
BRANCH  28  52
ATOM     52  C   UNL A   1      39.749  31.928  35.467  1.00  0.00     0.064 A 
ATOM     53  C   UNL A   1      38.725  31.510  36.326  1.00  0.00     0.173 A 
ATOM     54  C   UNL A   1      40.331  33.181  35.718  1.00  0.00     0.173 A 
ATOM     55  F   UNL A   1      38.117  30.332  36.122  1.00  0.00    -0.203 F 
ATOM     56  C   UNL A   1      38.287  32.319  37.376  1.00  0.00     0.198 A 
ATOM     57  C   UNL A   1      39.916  33.975  36.785  1.00  0.00     0.198 A 
ATOM     58  F   UNL A   1      41.311  33.641  34.924  1.00  0.00    -0.203 F 
ATOM     59  F   UNL A   1      37.269  31.918  38.149  1.00  0.00    -0.200 F 
ATOM     60  C   UNL A   1      38.886  33.548  37.607  1.00  0.00     0.200 A 
ATOM     61  F   UNL A   1      40.508  35.156  37.010  1.00  0.00    -0.200 F 
ATOM     62  F   UNL A   1      38.462  34.326  38.612  1.00  0.00    -0.200 F 
ENDBRANCH  28  52
BRANCH  40  63
ATOM     63  C   UNL A   1      44.853  27.275  34.433  1.00  0.00     0.064 A 
ATOM     64  C   UNL A   1      46.099  27.911  34.514  1.00  0.00     0.173 A 
ATOM     65  C   UNL A   1      44.612  26.174  35.268  1.00  0.00     0.173 A 
ATOM     66  F   UNL A   1      46.376  28.958  33.722  1.00  0.00    -0.203 F 
ATOM     67  C   UNL A   1      47.076  27.448  35.389  1.00  0.00     0.198 A 
ATOM     68  C   UNL A   1      45.577  25.737  36.165  1.00  0.00     0.198 A 
ATOM     69  F   UNL A   1      43.428  25.542  35.229  1.00  0.00    -0.203 F 
ATOM     70  F   UNL A   1      48.277  28.040  35.420  1.00  0.00    -0.200 F 
ATOM     71  C   UNL A   1      46.810  26.369  36.219  1.00  0.00     0.200 A 
ATOM     72  F   UNL A   1      45.313  24.708  36.981  1.00  0.00    -0.200 F 
ATOM     73  F   UNL A   1      47.747  25.936  37.073  1.00  0.00    -0.200 F 
ENDBRANCH  40  63
ENDBRANCH  14  15
ENDBRANCH   7   9
ENDBRANCH   6   7
ENDBRANCH   5   6
ENDBRANCH   4   5
ENDBRANCH   3   4
ENDBRANCH   2   3
ENDBRANCH   1   2
BRANCH   1  74
ATOM     74  O   UNL A   1      33.764  27.473  22.079  1.00  0.00    -0.377 OA
BRANCH  74  75
ATOM     75  C   UNL A   1      33.446  26.219  22.657  1.00  0.00     0.188 C 
BRANCH  75  76
ATOM     76  C   UNL A   1      32.583  25.208  21.897  1.00  0.00     0.188 C 
BRANCH  76  77
ATOM     77  O   UNL A   1      31.417  24.848  22.613  1.00  0.00    -0.376 OA
BRANCH  77  78
ATOM     78  C   UNL A   1      30.611  25.937  23.047  1.00  0.00     0.202 C 
BRANCH  78  79
ATOM     79  C   UNL A   1      29.984  25.907  24.459  1.00  0.00     0.261 C 
BRANCH  79  80
ATOM     80  O   UNL A   1      30.425  24.879  25.373  1.00  0.00    -0.459 OA
BRANCH  80  81
ATOM     81  C   UNL A   1      31.586  25.056  26.058  1.00  0.00     0.365 C 
ATOM     82  O   UNL A   1      31.733  25.917  26.921  1.00  0.00    -0.245 OA
BRANCH  81  83
ATOM     83  C   UNL A   1      32.677  24.059  25.581  1.00  0.00     0.298 C 
ATOM     84  C   UNL A   1      33.948  24.312  26.381  1.00  0.00     0.115 C 
ATOM     85  N   UNL A   1      32.174  22.650  25.605  1.00  0.00    -0.323 N 
ATOM     86  C   UNL A   1      34.911  23.227  26.108  1.00  0.00    -0.006 A 
ATOM     87  C   UNL A   1      33.084  21.498  25.648  1.00  0.00     0.264 C 
ATOM     88  H   UNL A   1      31.608  22.536  24.765  1.00  0.00     0.347 HD
ATOM     89  H   UNL A   1      31.722  22.600  26.519  1.00  0.00     0.347 HD
ATOM     90  C   UNL A   1      34.498  21.947  25.797  1.00  0.00     0.083 A 
ATOM     91  C   UNL A   1      36.316  23.263  26.086  1.00  0.00     0.003 A 
ATOM     92  N   UNL A   1      35.620  21.162  25.785  1.00  0.00    -0.353 N 
ATOM     93  C   UNL A   1      36.747  21.947  25.925  1.00  0.00     0.046 A 
ATOM     94  C   UNL A   1      37.258  24.296  26.205  1.00  0.00     0.010 A 
ATOM     95  H   UNL A   1      35.623  20.182  25.689  1.00  0.00     0.166 HD
ATOM     96  C   UNL A   1      38.101  21.605  25.924  1.00  0.00     0.026 A 
ATOM     97  C   UNL A   1      38.614  23.978  26.160  1.00  0.00     0.001 A 
ATOM     98  C   UNL A   1      39.026  22.652  26.036  1.00  0.00     0.002 A 
BRANCH  87  99
ATOM     99  C   UNL A   1      32.801  20.484  24.505  1.00  0.00     0.041 A 
ATOM    100  C   UNL A   1      32.177  20.852  23.315  1.00  0.00     0.093 A 
ATOM    101  C   UNL A   1      33.184  19.076  24.296  1.00  0.00     0.009 A 
ATOM    102  N   UNL A   1      32.078  19.773  22.484  1.00  0.00    -0.361 N 
ATOM    103  C   UNL A   1      32.730  18.696  23.025  1.00  0.00     0.046 A 
ATOM    104  C   UNL A   1      33.888  18.070  25.013  1.00  0.00     0.011 A 
ATOM    105  H   UNL A   1      31.607  19.769  21.620  1.00  0.00     0.166 HD
ATOM    106  C   UNL A   1      32.943  17.426  22.461  1.00  0.00     0.026 A 
ATOM    107  C   UNL A   1      34.155  16.814  24.446  1.00  0.00     0.001 A 
ATOM    108  C   UNL A   1      33.683  16.494  23.185  1.00  0.00     0.002 A 
ENDBRANCH  87  99
ENDBRANCH  81  83
ENDBRANCH  80  81
ENDBRANCH  79  80
ENDBRANCH  78  79
ENDBRANCH  77  78
ENDBRANCH  76  77
ENDBRANCH  75  76
ENDBRANCH  74  75
ENDBRANCH   1  74
TORSDOF 21
ENDMDL
MODEL 2
REMARK VINA RESULT:     -11.7      0.617      7.000
REMARK SMILES O=C(OCCOCCOCCOCCOC(=O)[C@H]1Cc2c([nH]c3ccccc23)[C@H](c2c[nH]c3ccccc23)[NH2+]1)c1ccc(-c2c3nc(c(-c4c(F)c(F)c(F)c(F)c4F)c4ccc([nH]4)c(-c4c(F)c(F)c(F)c(F)c4F)c4nc(c(-c5c(F)c(F)c(F)c(F)c5F)c5ccc2[nH]5)C=C4)C=C3)cc1
REMARK SMILES IDX 8 1 7 2 6 3 5 4 4 5 3 6 2 7 1 8 40 9 41 10 102 11 42 12
REMARK SMILES IDX 101 13 43 14 44 15 45 16 95 17 46 18 100 19 94 20 96 21
REMARK SMILES IDX 47 22 99 23 93 24 92 25 48 27 80 28 60 29 79 30 61 31 64 32
REMARK SMILES IDX 78 33 97 34 62 35 63 36 77 38 98 39 65 40 49 41 50 42 58 43
REMARK SMILES IDX 51 44 52 45 56 46 59 47 53 48 54 49 57 50 55 51 81 52 82 53
REMARK SMILES IDX 90 54 83 55 84 56 88 57 91 58 85 59 86 60 89 61 87 62 66 63
REMARK SMILES IDX 67 64 75 65 68 66 69 67 73 68 76 69 70 70 71 71 74 72 72 73
REMARK SMILES IDX 9 74 10 75 11 76 12 77 13 78 14 79 15 80 16 81 17 82 18 83
REMARK SMILES IDX 19 84 39 85 20 86 29 87 21 90 28 91 22 92 23 93 27 94 24 96
REMARK SMILES IDX 26 97 25 98 30 99 31 100 38 101 32 102 33 103 37 104 34 106
REMARK SMILES IDX 36 107 35 108
REMARK H PARENT 96 26 64 37 39 88 39 89 22 95 32 105
REMARK Flexibility Score: inf
ROOT
ATOM      1  C   UNL A   1      33.396  28.679  22.876  1.00  0.00     0.188 C 
ENDROOT
BRANCH   1   2
ATOM      2  C   UNL A   1      31.924  29.072  22.750  1.00  0.00     0.188 C 
BRANCH   2   3
ATOM      3  O   UNL A   1      31.262  29.124  24.019  1.00  0.00    -0.376 OA
BRANCH   3   4
ATOM      4  C   UNL A   1      32.095  29.384  25.155  1.00  0.00     0.202 C 
BRANCH   4   5
ATOM      5  C   UNL A   1      31.776  30.660  25.930  1.00  0.00     0.261 C 
BRANCH   5   6
ATOM      6  O   UNL A   1      32.447  30.759  27.192  1.00  0.00    -0.460 OA
BRANCH   6   7
ATOM      7  C   UNL A   1      33.488  31.549  27.547  1.00  0.00     0.338 C 
ATOM      8  O   UNL A   1      33.338  32.768  27.456  1.00  0.00    -0.246 OA
BRANCH   7   9
ATOM      9  C   UNL A   1      34.832  31.053  27.995  1.00  0.00     0.060 A 
ATOM     10  C   UNL A   1      35.160  29.727  28.279  1.00  0.00     0.016 A 
ATOM     11  C   UNL A   1      35.865  32.006  28.085  1.00  0.00     0.016 A 
ATOM     12  C   UNL A   1      36.445  29.334  28.590  1.00  0.00     0.010 A 
ATOM     13  C   UNL A   1      37.158  31.637  28.468  1.00  0.00     0.010 A 
ATOM     14  C   UNL A   1      37.434  30.294  28.733  1.00  0.00    -0.014 A 
BRANCH  14  15
ATOM     15  C   UNL A   1      38.629  29.851  29.457  1.00  0.00     0.031 A 
ATOM     16  C   UNL A   1      38.781  30.355  30.859  1.00  0.00     0.074 A 
ATOM     17  C   UNL A   1      39.371  28.849  28.964  1.00  0.00     0.049 A 
ATOM     18  N   UNL A   1      39.734  30.142  31.721  1.00  0.00    -0.248 NA
ATOM     19  C   UNL A   1      37.677  31.187  31.377  1.00  0.00     0.031 C 
ATOM     20  C   UNL A   1      39.113  28.148  27.703  1.00  0.00     0.029 A 
ATOM     21  N   UNL A   1      40.461  28.211  29.486  1.00  0.00    -0.354 N 
ATOM     22  C   UNL A   1      39.361  30.839  32.863  1.00  0.00     0.074 A 
ATOM     23  C   UNL A   1      38.090  31.466  32.600  1.00  0.00     0.031 C 
ATOM     24  C   UNL A   1      40.028  27.176  27.549  1.00  0.00     0.029 A 
ATOM     25  C   UNL A   1      40.970  27.241  28.660  1.00  0.00     0.049 A 
ATOM     26  H   UNL A   1      40.843  28.427  30.367  1.00  0.00     0.167 HD
ATOM     27  C   UNL A   1      40.049  30.953  34.018  1.00  0.00     0.037 A 
ATOM     28  C   UNL A   1      42.110  26.537  28.786  1.00  0.00     0.037 A 
ATOM     29  C   UNL A   1      41.321  30.316  34.217  1.00  0.00     0.049 A 
ATOM     30  C   UNL A   1      42.947  26.807  30.009  1.00  0.00     0.074 A 
ATOM     31  C   UNL A   1      42.199  30.430  35.274  1.00  0.00     0.029 A 
ATOM     32  N   UNL A   1      41.890  29.430  33.306  1.00  0.00    -0.354 N 
ATOM     33  N   UNL A   1      42.677  27.573  31.043  1.00  0.00    -0.248 NA
ATOM     34  C   UNL A   1      44.251  26.142  30.079  1.00  0.00     0.031 C 
ATOM     35  C   UNL A   1      43.326  29.655  34.976  1.00  0.00     0.029 A 
ATOM     36  C   UNL A   1      43.121  29.007  33.765  1.00  0.00     0.049 A 
ATOM     37  H   UNL A   1      41.476  29.149  32.458  1.00  0.00     0.167 HD
ATOM     38  C   UNL A   1      43.764  27.467  31.896  1.00  0.00     0.074 A 
ATOM     39  C   UNL A   1      44.691  26.547  31.263  1.00  0.00     0.031 C 
ATOM     40  C   UNL A   1      43.990  28.074  33.089  1.00  0.00     0.037 A 
BRANCH  27  41
ATOM     41  C   UNL A   1      39.490  31.880  35.055  1.00  0.00     0.064 A 
ATOM     42  C   UNL A   1      39.834  33.239  35.110  1.00  0.00     0.173 A 
ATOM     43  C   UNL A   1      38.657  31.374  36.064  1.00  0.00     0.173 A 
ATOM     44  F   UNL A   1      40.664  33.764  34.196  1.00  0.00    -0.203 F 
ATOM     45  C   UNL A   1      39.388  34.049  36.155  1.00  0.00     0.198 A 
ATOM     46  C   UNL A   1      38.191  32.192  37.091  1.00  0.00     0.198 A 
ATOM     47  F   UNL A   1      38.314  30.077  36.071  1.00  0.00    -0.203 F 
ATOM     48  F   UNL A   1      39.787  35.327  36.228  1.00  0.00    -0.200 F 
ATOM     49  C   UNL A   1      38.567  33.526  37.141  1.00  0.00     0.200 A 
ATOM     50  F   UNL A   1      37.402  31.682  38.045  1.00  0.00    -0.200 F 
ATOM     51  F   UNL A   1      38.153  34.301  38.153  1.00  0.00    -0.200 F 
ENDBRANCH  27  41
BRANCH  28  52
ATOM     52  C   UNL A   1      42.553  25.607  27.712  1.00  0.00     0.064 A 
ATOM     53  C   UNL A   1      42.156  24.264  27.697  1.00  0.00     0.173 A 
ATOM     54  C   UNL A   1      43.413  26.037  26.687  1.00  0.00     0.173 A 
ATOM     55  F   UNL A   1      41.354  23.791  28.662  1.00  0.00    -0.203 F 
ATOM     56  C   UNL A   1      42.617  23.385  26.715  1.00  0.00     0.198 A 
ATOM     57  C   UNL A   1      43.847  25.168  25.689  1.00  0.00     0.198 A 
ATOM     58  F   UNL A   1      43.836  27.311  26.653  1.00  0.00    -0.203 F 
ATOM     59  F   UNL A   1      42.265  22.093  26.757  1.00  0.00    -0.200 F 
ATOM     60  C   UNL A   1      43.458  23.839  25.710  1.00  0.00     0.200 A 
ATOM     61  F   UNL A   1      44.649  25.617  24.714  1.00  0.00    -0.200 F 
ATOM     62  F   UNL A   1      43.903  22.994  24.771  1.00  0.00    -0.200 F 
ENDBRANCH  28  52
BRANCH  40  63
ATOM     63  C   UNL A   1      45.262  27.717  33.793  1.00  0.00     0.064 A 
ATOM     64  C   UNL A   1      45.339  26.618  34.659  1.00  0.00     0.173 A 
ATOM     65  C   UNL A   1      46.431  28.450  33.541  1.00  0.00     0.173 A 
ATOM     66  F   UNL A   1      44.242  25.900  34.939  1.00  0.00    -0.203 F 
ATOM     67  C   UNL A   1      46.543  26.278  35.267  1.00  0.00     0.198 A 
ATOM     68  C   UNL A   1      47.638  28.085  34.122  1.00  0.00     0.198 A 
ATOM     69  F   UNL A   1      46.403  29.503  32.709  1.00  0.00    -0.203 F 
ATOM     70  F   UNL A   1      46.588  25.253  36.128  1.00  0.00    -0.200 F 
ATOM     71  C   UNL A   1      47.692  27.005  34.990  1.00  0.00     0.200 A 
ATOM     72  F   UNL A   1      48.752  28.775  33.838  1.00  0.00    -0.200 F 
ATOM     73  F   UNL A   1      48.853  26.665  35.564  1.00  0.00    -0.200 F 
ENDBRANCH  40  63
ENDBRANCH  14  15
ENDBRANCH   7   9
ENDBRANCH   6   7
ENDBRANCH   5   6
ENDBRANCH   4   5
ENDBRANCH   3   4
ENDBRANCH   2   3
ENDBRANCH   1   2
BRANCH   1  74
ATOM     74  O   UNL A   1      33.791  27.578  22.078  1.00  0.00    -0.377 OA
BRANCH  74  75
ATOM     75  C   UNL A   1      33.422  26.305  22.581  1.00  0.00     0.188 C 
BRANCH  75  76
ATOM     76  C   UNL A   1      32.424  25.427  21.821  1.00  0.00     0.188 C 
BRANCH  76  77
ATOM     77  O   UNL A   1      31.397  24.930  22.658  1.00  0.00    -0.376 OA
BRANCH  77  78
ATOM     78  C   UNL A   1      30.413  25.883  23.043  1.00  0.00     0.202 C 
BRANCH  78  79
ATOM     79  C   UNL A   1      29.923  25.925  24.507  1.00  0.00     0.261 C 
BRANCH  79  80
ATOM     80  O   UNL A   1      30.423  24.922  25.417  1.00  0.00    -0.459 OA
BRANCH  80  81
ATOM     81  C   UNL A   1      31.608  25.133  26.050  1.00  0.00     0.365 C 
ATOM     82  O   UNL A   1      31.778  26.027  26.876  1.00  0.00    -0.245 OA
BRANCH  81  83
ATOM     83  C   UNL A   1      32.690  24.129  25.569  1.00  0.00     0.298 C 
ATOM     84  C   UNL A   1      33.963  24.368  26.371  1.00  0.00     0.115 C 
ATOM     85  N   UNL A   1      32.175  22.725  25.586  1.00  0.00    -0.323 N 
ATOM     86  C   UNL A   1      34.916  23.276  26.093  1.00  0.00    -0.006 A 
ATOM     87  C   UNL A   1      33.074  21.565  25.624  1.00  0.00     0.264 C 
ATOM     88  H   UNL A   1      31.608  22.620  24.746  1.00  0.00     0.347 HD
ATOM     89  H   UNL A   1      31.722  22.675  26.500  1.00  0.00     0.347 HD
ATOM     90  C   UNL A   1      34.493  22.001  25.776  1.00  0.00     0.083 A 
ATOM     91  C   UNL A   1      36.321  23.300  26.072  1.00  0.00     0.003 A 
ATOM     92  N   UNL A   1      35.608  21.206  25.760  1.00  0.00    -0.353 N 
ATOM     93  C   UNL A   1      36.741  21.981  25.904  1.00  0.00     0.046 A 
ATOM     94  C   UNL A   1      37.272  24.324  26.196  1.00  0.00     0.010 A 
ATOM     95  H   UNL A   1      35.602  20.226  25.660  1.00  0.00     0.166 HD
ATOM     96  C   UNL A   1      38.092  21.627  25.903  1.00  0.00     0.026 A 
ATOM     97  C   UNL A   1      38.625  23.994  26.150  1.00  0.00     0.001 A 
ATOM     98  C   UNL A   1      39.026  22.665  26.021  1.00  0.00     0.002 A 
BRANCH  87  99
ATOM     99  C   UNL A   1      32.784  20.559  24.477  1.00  0.00     0.041 A 
ATOM    100  C   UNL A   1      32.153  20.936  23.292  1.00  0.00     0.093 A 
ATOM    101  C   UNL A   1      33.163  19.152  24.256  1.00  0.00     0.009 A 
ATOM    102  N   UNL A   1      32.048  19.862  22.455  1.00  0.00    -0.361 N 
ATOM    103  C   UNL A   1      32.701  18.781  22.985  1.00  0.00     0.046 A 
ATOM    104  C   UNL A   1      33.869  18.140  24.962  1.00  0.00     0.011 A 
ATOM    105  H   UNL A   1      31.572  19.865  21.594  1.00  0.00     0.166 HD
ATOM    106  C   UNL A   1      32.909  17.514  22.412  1.00  0.00     0.026 A 
ATOM    107  C   UNL A   1      34.131  16.887  24.385  1.00  0.00     0.001 A 
ATOM    108  C   UNL A   1      33.651  16.577  23.125  1.00  0.00     0.002 A 
ENDBRANCH  87  99
ENDBRANCH  81  83
ENDBRANCH  80  81
ENDBRANCH  79  80
ENDBRANCH  78  79
ENDBRANCH  77  78
ENDBRANCH  76  77
ENDBRANCH  75  76
ENDBRANCH  74  75
ENDBRANCH   1  74
TORSDOF 21
ENDMDL
MODEL 3
REMARK VINA RESULT:     -11.7      4.344      8.031
REMARK SMILES O=C(OCCOCCOCCOCCOC(=O)[C@H]1Cc2c([nH]c3ccccc23)[C@H](c2c[nH]c3ccccc23)[NH2+]1)c1ccc(-c2c3nc(c(-c4c(F)c(F)c(F)c(F)c4F)c4ccc([nH]4)c(-c4c(F)c(F)c(F)c(F)c4F)c4nc(c(-c5c(F)c(F)c(F)c(F)c5F)c5ccc2[nH]5)C=C4)C=C3)cc1
REMARK SMILES IDX 8 1 7 2 6 3 5 4 4 5 3 6 2 7 1 8 40 9 41 10 102 11 42 12
REMARK SMILES IDX 101 13 43 14 44 15 45 16 95 17 46 18 100 19 94 20 96 21
REMARK SMILES IDX 47 22 99 23 93 24 92 25 48 27 80 28 60 29 79 30 61 31 64 32
REMARK SMILES IDX 78 33 97 34 62 35 63 36 77 38 98 39 65 40 49 41 50 42 58 43
REMARK SMILES IDX 51 44 52 45 56 46 59 47 53 48 54 49 57 50 55 51 81 52 82 53
REMARK SMILES IDX 90 54 83 55 84 56 88 57 91 58 85 59 86 60 89 61 87 62 66 63
REMARK SMILES IDX 67 64 75 65 68 66 69 67 73 68 76 69 70 70 71 71 74 72 72 73
REMARK SMILES IDX 9 74 10 75 11 76 12 77 13 78 14 79 15 80 16 81 17 82 18 83
REMARK SMILES IDX 19 84 39 85 20 86 29 87 21 90 28 91 22 92 23 93 27 94 24 96
REMARK SMILES IDX 26 97 25 98 30 99 31 100 38 101 32 102 33 103 37 104 34 106
REMARK SMILES IDX 36 107 35 108
REMARK H PARENT 96 26 64 37 39 88 39 89 22 95 32 105
REMARK Flexibility Score: inf
ROOT
ATOM      1  C   UNL A   1      35.564  22.457  25.613  1.00  0.00     0.188 C 
ENDROOT
BRANCH   1   2
ATOM      2  C   UNL A   1      36.503  21.910  24.539  1.00  0.00     0.188 C 
BRANCH   2   3
ATOM      3  O   UNL A   1      37.677  21.307  25.096  1.00  0.00    -0.376 OA
BRANCH   3   4
ATOM      4  C   UNL A   1      37.804  19.891  24.920  1.00  0.00     0.202 C 
BRANCH   4   5
ATOM      5  C   UNL A   1      39.013  19.247  25.595  1.00  0.00     0.261 C 
BRANCH   5   6
ATOM      6  O   UNL A   1      40.118  20.139  25.784  1.00  0.00    -0.460 OA
BRANCH   6   7
ATOM      7  C   UNL A   1      40.706  20.540  26.936  1.00  0.00     0.338 C 
ATOM      8  O   UNL A   1      41.014  19.672  27.753  1.00  0.00    -0.246 OA
BRANCH   7   9
ATOM      9  C   UNL A   1      40.964  21.969  27.319  1.00  0.00     0.060 A 
ATOM     10  C   UNL A   1      40.327  23.086  26.780  1.00  0.00     0.016 A 
ATOM     11  C   UNL A   1      41.896  22.192  28.350  1.00  0.00     0.016 A 
ATOM     12  C   UNL A   1      40.548  24.362  27.255  1.00  0.00     0.010 A 
ATOM     13  C   UNL A   1      42.187  23.485  28.795  1.00  0.00     0.010 A 
ATOM     14  C   UNL A   1      41.513  24.569  28.227  1.00  0.00    -0.014 A 
BRANCH  14  15
ATOM     15  C   UNL A   1      41.969  25.955  28.364  1.00  0.00     0.031 A 
ATOM     16  C   UNL A   1      43.250  26.304  27.670  1.00  0.00     0.074 A 
ATOM     17  C   UNL A   1      41.136  26.885  28.853  1.00  0.00     0.049 A 
ATOM     18  N   UNL A   1      43.894  27.436  27.631  1.00  0.00    -0.248 NA
ATOM     19  C   UNL A   1      43.874  25.230  26.873  1.00  0.00     0.031 C 
ATOM     20  C   UNL A   1      39.768  26.632  29.316  1.00  0.00     0.029 A 
ATOM     21  N   UNL A   1      41.295  28.234  28.996  1.00  0.00    -0.354 N 
ATOM     22  C   UNL A   1      45.009  27.199  26.838  1.00  0.00     0.074 A 
ATOM     23  C   UNL A   1      44.952  25.828  26.397  1.00  0.00     0.031 C 
ATOM     24  C   UNL A   1      39.214  27.796  29.696  1.00  0.00     0.029 A 
ATOM     25  C   UNL A   1      40.213  28.851  29.572  1.00  0.00     0.049 A 
ATOM     26  H   UNL A   1      42.105  28.715  28.713  1.00  0.00     0.167 HD
ATOM     27  C   UNL A   1      46.000  28.063  26.534  1.00  0.00     0.037 A 
ATOM     28  C   UNL A   1      40.092  30.122  29.996  1.00  0.00     0.037 A 
ATOM     29  C   UNL A   1      46.010  29.416  27.015  1.00  0.00     0.049 A 
ATOM     30  C   UNL A   1      41.282  31.025  29.793  1.00  0.00     0.074 A 
ATOM     31  C   UNL A   1      46.994  30.376  26.902  1.00  0.00     0.029 A 
ATOM     32  N   UNL A   1      44.955  29.992  27.717  1.00  0.00    -0.354 N 
ATOM     33  N   UNL A   1      42.409  30.779  29.163  1.00  0.00    -0.248 NA
ATOM     34  C   UNL A   1      41.201  32.368  30.375  1.00  0.00     0.031 C 
ATOM     35  C   UNL A   1      46.555  31.517  27.584  1.00  0.00     0.029 A 
ATOM     36  C   UNL A   1      45.271  31.290  28.065  1.00  0.00     0.049 A 
ATOM     37  H   UNL A   1      44.107  29.539  27.934  1.00  0.00     0.167 HD
ATOM     38  C   UNL A   1      43.163  31.937  29.253  1.00  0.00     0.074 A 
ATOM     39  C   UNL A   1      42.354  32.894  29.986  1.00  0.00     0.031 C 
ATOM     40  C   UNL A   1      44.410  32.197  28.785  1.00  0.00     0.037 A 
BRANCH  27  41
ATOM     41  C   UNL A   1      47.166  27.518  25.768  1.00  0.00     0.064 A 
ATOM     42  C   UNL A   1      48.274  26.933  26.401  1.00  0.00     0.173 A 
ATOM     43  C   UNL A   1      47.211  27.660  24.373  1.00  0.00     0.173 A 
ATOM     44  F   UNL A   1      48.303  26.813  27.737  1.00  0.00    -0.203 F 
ATOM     45  C   UNL A   1      49.394  26.540  25.668  1.00  0.00     0.198 A 
ATOM     46  C   UNL A   1      48.320  27.242  23.640  1.00  0.00     0.198 A 
ATOM     47  F   UNL A   1      46.188  28.232  23.719  1.00  0.00    -0.203 F 
ATOM     48  F   UNL A   1      50.470  26.050  26.300  1.00  0.00    -0.200 F 
ATOM     49  C   UNL A   1      49.414  26.693  24.290  1.00  0.00     0.200 A 
ATOM     50  F   UNL A   1      48.338  27.396  22.310  1.00  0.00    -0.200 F 
ATOM     51  F   UNL A   1      50.498  26.330  23.589  1.00  0.00    -0.200 F 
ENDBRANCH  27  41
BRANCH  28  52
ATOM     52  C   UNL A   1      38.868  30.573  30.711  1.00  0.00     0.064 A 
ATOM     53  C   UNL A   1      37.820  31.212  30.037  1.00  0.00     0.173 A 
ATOM     54  C   UNL A   1      38.732  30.400  32.099  1.00  0.00     0.173 A 
ATOM     55  F   UNL A   1      37.903  31.425  28.716  1.00  0.00    -0.203 F 
ATOM     56  C   UNL A   1      36.697  31.678  30.723  1.00  0.00     0.198 A 
ATOM     57  C   UNL A   1      37.598  30.836  32.779  1.00  0.00     0.198 A 
ATOM     58  F   UNL A   1      39.707  29.803  32.802  1.00  0.00    -0.203 F 
ATOM     59  F   UNL A   1      35.734  32.335  30.062  1.00  0.00    -0.200 F 
ATOM     60  C   UNL A   1      36.585  31.486  32.093  1.00  0.00     0.200 A 
ATOM     61  F   UNL A   1      37.490  30.635  34.099  1.00  0.00    -0.200 F 
ATOM     62  F   UNL A   1      35.509  31.937  32.751  1.00  0.00    -0.200 F 
ENDBRANCH  28  52
BRANCH  40  63
ATOM     63  C   UNL A   1      44.939  33.578  29.014  1.00  0.00     0.064 A 
ATOM     64  C   UNL A   1      45.825  33.862  30.062  1.00  0.00     0.173 A 
ATOM     65  C   UNL A   1      44.601  34.613  28.129  1.00  0.00     0.173 A 
ATOM     66  F   UNL A   1      46.163  32.905  30.940  1.00  0.00    -0.203 F 
ATOM     67  C   UNL A   1      46.340  35.143  30.228  1.00  0.00     0.198 A 
ATOM     68  C   UNL A   1      45.146  35.881  28.277  1.00  0.00     0.198 A 
ATOM     69  F   UNL A   1      43.765  34.381  27.106  1.00  0.00    -0.203 F 
ATOM     70  F   UNL A   1      47.150  35.407  31.262  1.00  0.00    -0.200 F 
ATOM     71  C   UNL A   1      46.008  36.147  29.330  1.00  0.00     0.200 A 
ATOM     72  F   UNL A   1      44.841  36.846  27.398  1.00  0.00    -0.200 F 
ATOM     73  F   UNL A   1      46.519  37.376  29.482  1.00  0.00    -0.200 F 
ENDBRANCH  40  63
ENDBRANCH  14  15
ENDBRANCH   7   9
ENDBRANCH   6   7
ENDBRANCH   5   6
ENDBRANCH   4   5
ENDBRANCH   3   4
ENDBRANCH   2   3
ENDBRANCH   1   2
BRANCH   1  74
ATOM     74  O   UNL A   1      35.186  21.522  26.608  1.00  0.00    -0.377 OA
BRANCH  74  75
ATOM     75  C   UNL A   1      34.035  21.870  27.357  1.00  0.00     0.188 C 
BRANCH  75  76
ATOM     76  C   UNL A   1      33.206  23.103  26.983  1.00  0.00     0.188 C 
BRANCH  76  77
ATOM     77  O   UNL A   1      31.817  22.832  26.960  1.00  0.00    -0.376 OA
BRANCH  77  78
ATOM     78  C   UNL A   1      31.300  22.417  25.701  1.00  0.00     0.202 C 
BRANCH  78  79
ATOM     79  C   UNL A   1      31.519  23.304  24.456  1.00  0.00     0.261 C 
BRANCH  79  80
ATOM     80  O   UNL A   1      32.737  23.123  23.701  1.00  0.00    -0.459 OA
BRANCH  80  81
ATOM     81  C   UNL A   1      33.446  24.218  23.316  1.00  0.00     0.365 C 
ATOM     82  O   UNL A   1      34.424  24.158  22.575  1.00  0.00    -0.245 OA
BRANCH  81  83
ATOM     83  C   UNL A   1      32.874  25.512  23.956  1.00  0.00     0.298 C 
ATOM     84  C   UNL A   1      34.028  26.315  24.541  1.00  0.00     0.115 C 
ATOM     85  N   UNL A   1      32.001  26.254  22.994  1.00  0.00    -0.323 N 
ATOM     86  C   UNL A   1      33.533  27.647  24.939  1.00  0.00    -0.006 A 
ATOM     87  C   UNL A   1      31.706  27.684  23.151  1.00  0.00     0.264 C 
ATOM     88  H   UNL A   1      31.101  25.774  22.997  1.00  0.00     0.347 HD
ATOM     89  H   UNL A   1      32.564  26.244  22.142  1.00  0.00     0.347 HD
ATOM     90  C   UNL A   1      32.489  28.263  24.280  1.00  0.00     0.083 A 
ATOM     91  C   UNL A   1      33.961  28.484  25.984  1.00  0.00     0.003 A 
ATOM     92  N   UNL A   1      32.407  29.538  24.774  1.00  0.00    -0.353 N 
ATOM     93  C   UNL A   1      33.273  29.687  25.839  1.00  0.00     0.046 A 
ATOM     94  C   UNL A   1      34.884  28.330  27.029  1.00  0.00     0.010 A 
ATOM     95  H   UNL A   1      31.818  30.244  24.422  1.00  0.00     0.166 HD
ATOM     96  C   UNL A   1      33.504  30.779  26.678  1.00  0.00     0.026 A 
ATOM     97  C   UNL A   1      35.092  29.394  27.904  1.00  0.00     0.001 A 
ATOM     98  C   UNL A   1      34.423  30.603  27.721  1.00  0.00     0.002 A 
BRANCH  87  99
ATOM     99  C   UNL A   1      30.179  27.971  23.154  1.00  0.00     0.041 A 
ATOM    100  C   UNL A   1      29.232  26.985  23.425  1.00  0.00     0.093 A 
ATOM    101  C   UNL A   1      29.392  29.212  23.042  1.00  0.00     0.009 A 
ATOM    102  N   UNL A   1      27.975  27.519  23.384  1.00  0.00    -0.361 N 
ATOM    103  C   UNL A   1      28.041  28.876  23.212  1.00  0.00     0.046 A 
ATOM    104  C   UNL A   1      29.650  30.597  22.846  1.00  0.00     0.011 A 
ATOM    105  H   UNL A   1      27.142  27.003  23.468  1.00  0.00     0.166 HD
ATOM    106  C   UNL A   1      26.991  29.811  23.205  1.00  0.00     0.026 A 
ATOM    107  C   UNL A   1      28.621  31.550  22.887  1.00  0.00     0.001 A 
ATOM    108  C   UNL A   1      27.304  31.160  23.060  1.00  0.00     0.002 A 
ENDBRANCH  87  99
ENDBRANCH  81  83
ENDBRANCH  80  81
ENDBRANCH  79  80
ENDBRANCH  78  79
ENDBRANCH  77  78
ENDBRANCH  76  77
ENDBRANCH  75  76
ENDBRANCH  74  75
ENDBRANCH   1  74
TORSDOF 21
ENDMDL
