MODEL 1
REMARK VINA RESULT:      -8.8      0.000      0.000
REMARK SMILES CC[C@@](C)(Nc1c([N+](=O)[O-])c(C(C)C)nn1C)C(=O)OCCOCCOCCOCCOC(=O)c1ccc(-c2c3nc(c(-c4c(F)c(F)c(F)c(F)c4F)c4ccc([nH]4)c(-c4c(F)c(F)c(F)c(F)c4F)c4nc(c(-c5c(F)c(F)c(F)c(F)c5F)c5ccc2[nH]5)C=C4)C=C3)cc1
REMARK SMILES IDX 25 1 24 2 23 3 22 4 21 5 20 6 18 7 19 8 3 9 4 10 2 11 1 12
REMARK SMILES IDX 5 13 6 15 7 16 16 17 11 18 15 19 17 20 8 21 9 22 10 23 12 24
REMARK SMILES IDX 13 25 14 26 26 27 27 28 28 29 29 30 30 31 31 32 32 33 33 34
REMARK SMILES IDX 34 35 35 36 36 37 97 38 37 39 96 40 38 41 39 42 40 43 90 44
REMARK SMILES IDX 41 45 95 46 89 47 91 48 42 49 94 50 88 51 87 52 43 54 75 55
REMARK SMILES IDX 55 56 74 57 56 58 59 59 73 60 92 61 57 62 58 63 72 65 93 66
REMARK SMILES IDX 60 67 44 68 45 69 53 70 46 71 47 72 51 73 54 74 48 75 49 76
REMARK SMILES IDX 52 77 50 78 76 79 77 80 85 81 78 82 79 83 83 84 86 85 80 86
REMARK SMILES IDX 81 87 84 88 82 89 61 90 62 91 70 92 63 93 64 94 68 95 71 96
REMARK SMILES IDX 65 97 66 98 69 99 67 100
REMARK H PARENT 5 14 91 53 59 64
REMARK Flexibility Score: inf
ROOT
ATOM      1  C   UNL A   1      35.239  31.016  28.248  1.00  0.00     0.188 C 
ENDROOT
BRANCH   1   2
ATOM      2  C   UNL A   1      34.926  30.153  27.026  1.00  0.00     0.188 C 
BRANCH   2   3
ATOM      3  O   UNL A   1      34.360  28.866  27.213  1.00  0.00    -0.376 OA
BRANCH   3   4
ATOM      4  C   UNL A   1      34.035  28.073  26.073  1.00  0.00     0.202 C 
BRANCH   4   5
ATOM      5  C   UNL A   1      34.049  26.562  26.247  1.00  0.00     0.261 C 
BRANCH   5   6
ATOM      6  O   UNL A   1      33.739  25.884  25.006  1.00  0.00    -0.462 OA
BRANCH   6   7
ATOM      7  C   UNL A   1      34.308  24.662  24.897  1.00  0.00     0.331 C 
ATOM      8  O   UNL A   1      35.456  24.448  25.291  1.00  0.00    -0.249 OA
BRANCH   7   9
ATOM      9  C   UNL A   1      33.440  23.524  24.302  1.00  0.00     0.134 C 
ATOM     10  C   UNL A   1      34.310  23.026  23.104  1.00  0.00     0.047 C 
BRANCH   9  11
ATOM     11  C   UNL A   1      33.262  22.361  25.317  1.00  0.00     0.037 C 
ATOM     12  C   UNL A   1      34.460  21.431  25.506  1.00  0.00     0.007 C 
ENDBRANCH   9  11
BRANCH   9  13
ATOM     13  N   UNL A   1      32.124  23.799  23.634  1.00  0.00    -0.349 N 
ATOM     14  H   UNL A   1      31.747  23.020  23.165  1.00  0.00     0.163 HD
BRANCH  13  15
ATOM     15  C   UNL A   1      31.344  24.928  23.548  1.00  0.00     0.205 A 
ATOM     16  C   UNL A   1      31.482  26.048  22.719  1.00  0.00     0.334 A 
ATOM     17  N   UNL A   1      30.597  25.402  24.611  1.00  0.00    -0.246 N 
ATOM     18  C   UNL A   1      30.958  27.157  23.448  1.00  0.00     0.145 A 
ATOM     19  N   UNL A   1      30.327  26.730  24.549  1.00  0.00    -0.169 NA
ATOM     20  C   UNL A   1      30.340  24.745  25.872  1.00  0.00     0.176 C 
BRANCH  16  21
ATOM     21  N   UNL A   1      32.210  26.117  21.485  1.00  0.00     0.068 N 
ATOM     22  O   UNL A   1      33.441  26.212  21.560  1.00  0.00    -0.258 OA
ATOM     23  O   UNL A   1      31.561  26.077  20.432  1.00  0.00    -0.258 OA
ENDBRANCH  16  21
BRANCH  18  24
ATOM     24  C   UNL A   1      31.208  28.644  23.231  1.00  0.00     0.041 C 
ATOM     25  C   UNL A   1      30.589  29.211  21.959  1.00  0.00     0.014 C 
ATOM     26  C   UNL A   1      30.800  29.505  24.440  1.00  0.00     0.014 C 
ENDBRANCH  18  24
ENDBRANCH  13  15
ENDBRANCH   9  13
ENDBRANCH   7   9
ENDBRANCH   6   7
ENDBRANCH   5   6
ENDBRANCH   4   5
ENDBRANCH   3   4
ENDBRANCH   2   3
ENDBRANCH   1   2
BRANCH   1  27
ATOM     27  O   UNL A   1      35.349  32.415  28.090  1.00  0.00    -0.377 OA
BRANCH  27  28
ATOM     28  C   UNL A   1      34.180  33.203  28.195  1.00  0.00     0.188 C 
BRANCH  28  29
ATOM     29  C   UNL A   1      34.299  34.719  28.372  1.00  0.00     0.188 C 
BRANCH  29  30
ATOM     30  O   UNL A   1      34.143  35.285  29.662  1.00  0.00    -0.376 OA
BRANCH  30  31
ATOM     31  C   UNL A   1      33.592  34.486  30.706  1.00  0.00     0.202 C 
BRANCH  31  32
ATOM     32  C   UNL A   1      34.437  34.337  31.966  1.00  0.00     0.261 C 
BRANCH  32  33
ATOM     33  O   UNL A   1      35.799  33.985  31.641  1.00  0.00    -0.460 OA
BRANCH  33  34
ATOM     34  C   UNL A   1      36.190  32.741  31.978  1.00  0.00     0.338 C 
ATOM     35  O   UNL A   1      35.521  31.882  32.537  1.00  0.00    -0.246 OA
BRANCH  34  36
ATOM     36  C   UNL A   1      37.579  32.489  31.548  1.00  0.00     0.060 A 
ATOM     37  C   UNL A   1      38.003  32.969  30.304  1.00  0.00     0.016 A 
ATOM     38  C   UNL A   1      38.399  31.629  32.281  1.00  0.00     0.016 A 
ATOM     39  C   UNL A   1      39.223  32.542  29.774  1.00  0.00     0.010 A 
ATOM     40  C   UNL A   1      39.637  31.237  31.766  1.00  0.00     0.010 A 
ATOM     41  C   UNL A   1      40.032  31.641  30.483  1.00  0.00    -0.014 A 
BRANCH  41  42
ATOM     42  C   UNL A   1      41.205  30.996  29.832  1.00  0.00     0.031 A 
ATOM     43  C   UNL A   1      42.472  31.792  29.636  1.00  0.00     0.074 A 
ATOM     44  C   UNL A   1      41.147  29.720  29.412  1.00  0.00     0.049 A 
ATOM     45  N   UNL A   1      43.602  31.437  29.075  1.00  0.00    -0.248 NA
ATOM     46  C   UNL A   1      42.458  33.183  30.117  1.00  0.00     0.031 C 
ATOM     47  C   UNL A   1      39.979  28.850  29.513  1.00  0.00     0.029 A 
ATOM     48  N   UNL A   1      42.100  28.936  28.808  1.00  0.00    -0.354 N 
ATOM     49  C   UNL A   1      44.417  32.561  29.119  1.00  0.00     0.074 A 
ATOM     50  C   UNL A   1      43.640  33.625  29.716  1.00  0.00     0.031 C 
ATOM     51  C   UNL A   1      40.286  27.646  29.001  1.00  0.00     0.029 A 
ATOM     52  C   UNL A   1      41.665  27.666  28.517  1.00  0.00     0.049 A 
ATOM     53  H   UNL A   1      43.009  29.254  28.602  1.00  0.00     0.167 HD
ATOM     54  C   UNL A   1      45.706  32.693  28.721  1.00  0.00     0.037 A 
ATOM     55  C   UNL A   1      42.308  26.640  27.926  1.00  0.00     0.037 A 
ATOM     56  C   UNL A   1      46.495  31.629  28.161  1.00  0.00     0.049 A 
ATOM     57  C   UNL A   1      43.744  26.805  27.504  1.00  0.00     0.074 A 
ATOM     58  C   UNL A   1      47.826  31.647  27.782  1.00  0.00     0.029 A 
ATOM     59  N   UNL A   1      46.024  30.351  27.903  1.00  0.00    -0.354 N 
ATOM     60  N   UNL A   1      44.523  27.854  27.606  1.00  0.00    -0.248 NA
ATOM     61  C   UNL A   1      44.395  25.634  26.894  1.00  0.00     0.031 C 
ATOM     62  C   UNL A   1      48.150  30.390  27.259  1.00  0.00     0.029 A 
ATOM     63  C   UNL A   1      47.033  29.576  27.355  1.00  0.00     0.049 A 
ATOM     64  H   UNL A   1      45.107  30.040  28.082  1.00  0.00     0.167 HD
ATOM     65  C   UNL A   1      45.757  27.466  27.101  1.00  0.00     0.074 A 
ATOM     66  C   UNL A   1      45.630  26.079  26.705  1.00  0.00     0.031 C 
ATOM     67  C   UNL A   1      46.894  28.194  26.976  1.00  0.00     0.037 A 
BRANCH  54  68
ATOM     68  C   UNL A   1      46.350  34.042  28.884  1.00  0.00     0.064 A 
ATOM     69  C   UNL A   1      47.059  34.384  30.045  1.00  0.00     0.173 A 
ATOM     70  C   UNL A   1      46.287  34.990  27.851  1.00  0.00     0.173 A 
ATOM     71  F   UNL A   1      47.141  33.517  31.065  1.00  0.00    -0.203 F 
ATOM     72  C   UNL A   1      47.653  35.636  30.179  1.00  0.00     0.198 A 
ATOM     73  C   UNL A   1      46.909  36.230  27.977  1.00  0.00     0.198 A 
ATOM     74  F   UNL A   1      45.629  34.713  26.715  1.00  0.00    -0.203 F 
ATOM     75  F   UNL A   1      48.283  35.958  31.318  1.00  0.00    -0.200 F 
ATOM     76  C   UNL A   1      47.585  36.555  29.144  1.00  0.00     0.200 A 
ATOM     77  F   UNL A   1      46.854  37.111  26.969  1.00  0.00    -0.200 F 
ATOM     78  F   UNL A   1      48.163  37.757  29.272  1.00  0.00    -0.200 F 
ENDBRANCH  54  68
BRANCH  55  79
ATOM     79  C   UNL A   1      41.605  25.345  27.733  1.00  0.00     0.064 A 
ATOM     80  C   UNL A   1      40.556  25.228  26.812  1.00  0.00     0.173 A 
ATOM     81  C   UNL A   1      41.967  24.201  28.459  1.00  0.00     0.173 A 
ATOM     82  F   UNL A   1      40.159  26.301  26.110  1.00  0.00    -0.203 F 
ATOM     83  C   UNL A   1      39.885  24.020  26.633  1.00  0.00     0.198 A 
ATOM     84  C   UNL A   1      41.313  22.987  28.261  1.00  0.00     0.198 A 
ATOM     85  F   UNL A   1      42.966  24.260  29.352  1.00  0.00    -0.203 F 
ATOM     86  F   UNL A   1      38.861  23.946  25.772  1.00  0.00    -0.200 F 
ATOM     87  C   UNL A   1      40.270  22.899  27.352  1.00  0.00     0.200 A 
ATOM     88  F   UNL A   1      41.696  21.902  28.948  1.00  0.00    -0.200 F 
ATOM     89  F   UNL A   1      39.631  21.734  27.174  1.00  0.00    -0.200 F 
ENDBRANCH  55  79
BRANCH  67  90
ATOM     90  C   UNL A   1      48.102  27.500  26.418  1.00  0.00     0.064 A 
ATOM     91  C   UNL A   1      48.356  27.460  25.040  1.00  0.00     0.173 A 
ATOM     92  C   UNL A   1      49.042  26.912  27.278  1.00  0.00     0.173 A 
ATOM     93  F   UNL A   1      47.481  27.997  24.177  1.00  0.00    -0.203 F 
ATOM     94  C   UNL A   1      49.497  26.836  24.540  1.00  0.00     0.198 A 
ATOM     95  C   UNL A   1      50.195  26.312  26.777  1.00  0.00     0.198 A 
ATOM     96  F   UNL A   1      48.850  26.929  28.606  1.00  0.00    -0.203 F 
ATOM     97  F   UNL A   1      49.699  26.774  23.218  1.00  0.00    -0.200 F 
ATOM     98  C   UNL A   1      50.418  26.269  25.409  1.00  0.00     0.200 A 
ATOM     99  F   UNL A   1      51.089  25.774  27.618  1.00  0.00    -0.200 F 
ATOM    100  F   UNL A   1      51.518  25.676  24.926  1.00  0.00    -0.200 F 
ENDBRANCH  67  90
ENDBRANCH  41  42
ENDBRANCH  34  36
ENDBRANCH  33  34
ENDBRANCH  32  33
ENDBRANCH  31  32
ENDBRANCH  30  31
ENDBRANCH  29  30
ENDBRANCH  28  29
ENDBRANCH  27  28
ENDBRANCH   1  27
TORSDOF 25
ENDMDL
MODEL 2
REMARK VINA RESULT:      -8.5      1.309      3.162
REMARK SMILES CC[C@@](C)(Nc1c([N+](=O)[O-])c(C(C)C)nn1C)C(=O)OCCOCCOCCOCCOC(=O)c1ccc(-c2c3nc(c(-c4c(F)c(F)c(F)c(F)c4F)c4ccc([nH]4)c(-c4c(F)c(F)c(F)c(F)c4F)c4nc(c(-c5c(F)c(F)c(F)c(F)c5F)c5ccc2[nH]5)C=C4)C=C3)cc1
REMARK SMILES IDX 25 1 24 2 23 3 22 4 21 5 20 6 18 7 19 8 3 9 4 10 2 11 1 12
REMARK SMILES IDX 5 13 6 15 7 16 16 17 11 18 15 19 17 20 8 21 9 22 10 23 12 24
REMARK SMILES IDX 13 25 14 26 26 27 27 28 28 29 29 30 30 31 31 32 32 33 33 34
REMARK SMILES IDX 34 35 35 36 36 37 97 38 37 39 96 40 38 41 39 42 40 43 90 44
REMARK SMILES IDX 41 45 95 46 89 47 91 48 42 49 94 50 88 51 87 52 43 54 75 55
REMARK SMILES IDX 55 56 74 57 56 58 59 59 73 60 92 61 57 62 58 63 72 65 93 66
REMARK SMILES IDX 60 67 44 68 45 69 53 70 46 71 47 72 51 73 54 74 48 75 49 76
REMARK SMILES IDX 52 77 50 78 76 79 77 80 85 81 78 82 79 83 83 84 86 85 80 86
REMARK SMILES IDX 81 87 84 88 82 89 61 90 62 91 70 92 63 93 64 94 68 95 71 96
REMARK SMILES IDX 65 97 66 98 69 99 67 100
REMARK H PARENT 5 14 91 53 59 64
REMARK Flexibility Score: inf
ROOT
ATOM      1  C   UNL A   1      35.982  30.968  28.411  1.00  0.00     0.188 C 
ENDROOT
BRANCH   1   2
ATOM      2  C   UNL A   1      35.443  30.038  27.324  1.00  0.00     0.188 C 
BRANCH   2   3
ATOM      3  O   UNL A   1      34.046  29.797  27.248  1.00  0.00    -0.376 OA
BRANCH   3   4
ATOM      4  C   UNL A   1      33.565  28.456  27.318  1.00  0.00     0.202 C 
BRANCH   4   5
ATOM      5  C   UNL A   1      32.167  28.189  26.781  1.00  0.00     0.261 C 
BRANCH   5   6
ATOM      6  O   UNL A   1      32.189  27.919  25.359  1.00  0.00    -0.462 OA
BRANCH   6   7
ATOM      7  C   UNL A   1      31.585  28.872  24.614  1.00  0.00     0.331 C 
ATOM      8  O   UNL A   1      31.200  29.933  25.113  1.00  0.00    -0.249 OA
BRANCH   7   9
ATOM      9  C   UNL A   1      31.441  28.603  23.095  1.00  0.00     0.134 C 
ATOM     10  C   UNL A   1      30.313  29.602  22.680  1.00  0.00     0.047 C 
BRANCH   9  11
ATOM     11  C   UNL A   1      32.744  28.966  22.331  1.00  0.00     0.037 C 
ATOM     12  C   UNL A   1      34.060  28.716  23.067  1.00  0.00     0.007 C 
ENDBRANCH   9  11
BRANCH   9  13
ATOM     13  N   UNL A   1      30.909  27.302  22.569  1.00  0.00    -0.349 N 
ATOM     14  H   UNL A   1      30.351  27.399  21.763  1.00  0.00     0.163 HD
BRANCH  13  15
ATOM     15  C   UNL A   1      31.047  26.002  22.994  1.00  0.00     0.205 A 
ATOM     16  C   UNL A   1      30.622  25.402  24.185  1.00  0.00     0.334 A 
ATOM     17  N   UNL A   1      32.077  25.183  22.567  1.00  0.00    -0.246 N 
ATOM     18  C   UNL A   1      31.562  24.367  24.473  1.00  0.00     0.145 A 
ATOM     19  N   UNL A   1      32.375  24.177  23.427  1.00  0.00    -0.169 NA
ATOM     20  C   UNL A   1      33.029  25.440  21.511  1.00  0.00     0.176 C 
BRANCH  16  21
ATOM     21  N   UNL A   1      29.591  25.874  25.062  1.00  0.00     0.068 N 
ATOM     22  O   UNL A   1      28.611  26.420  24.540  1.00  0.00    -0.258 OA
ATOM     23  O   UNL A   1      29.750  25.706  26.278  1.00  0.00    -0.258 OA
ENDBRANCH  16  21
BRANCH  18  24
ATOM     24  C   UNL A   1      31.841  23.676  25.801  1.00  0.00     0.041 C 
ATOM     25  C   UNL A   1      31.652  22.163  25.779  1.00  0.00     0.014 C 
ATOM     26  C   UNL A   1      33.224  24.022  26.381  1.00  0.00     0.014 C 
ENDBRANCH  18  24
ENDBRANCH  13  15
ENDBRANCH   9  13
ENDBRANCH   7   9
ENDBRANCH   6   7
ENDBRANCH   5   6
ENDBRANCH   4   5
ENDBRANCH   3   4
ENDBRANCH   2   3
ENDBRANCH   1   2
BRANCH   1  27
ATOM     27  O   UNL A   1      35.748  32.356  28.304  1.00  0.00    -0.377 OA
BRANCH  27  28
ATOM     28  C   UNL A   1      34.418  32.829  28.386  1.00  0.00     0.188 C 
BRANCH  28  29
ATOM     29  C   UNL A   1      34.148  34.335  28.417  1.00  0.00     0.188 C 
BRANCH  29  30
ATOM     30  O   UNL A   1      34.011  34.993  29.665  1.00  0.00    -0.376 OA
BRANCH  30  31
ATOM     31  C   UNL A   1      34.004  34.216  30.860  1.00  0.00     0.202 C 
BRANCH  31  32
ATOM     32  C   UNL A   1      34.955  34.660  31.965  1.00  0.00     0.261 C 
BRANCH  32  33
ATOM     33  O   UNL A   1      36.326  34.376  31.616  1.00  0.00    -0.460 OA
BRANCH  33  34
ATOM     34  C   UNL A   1      36.968  33.484  32.396  1.00  0.00     0.338 C 
ATOM     35  O   UNL A   1      36.530  32.925  33.393  1.00  0.00    -0.246 OA
BRANCH  34  36
ATOM     36  C   UNL A   1      38.320  33.204  31.876  1.00  0.00     0.060 A 
ATOM     37  C   UNL A   1      38.634  33.573  30.564  1.00  0.00     0.016 A 
ATOM     38  C   UNL A   1      39.210  32.420  32.614  1.00  0.00     0.016 A 
ATOM     39  C   UNL A   1      39.813  33.109  29.975  1.00  0.00     0.010 A 
ATOM     40  C   UNL A   1      40.407  31.991  32.034  1.00  0.00     0.010 A 
ATOM     41  C   UNL A   1      40.690  32.281  30.692  1.00  0.00    -0.014 A 
BRANCH  41  42
ATOM     42  C   UNL A   1      41.815  31.588  30.006  1.00  0.00     0.031 A 
ATOM     43  C   UNL A   1      43.117  32.321  29.797  1.00  0.00     0.074 A 
ATOM     44  C   UNL A   1      41.683  30.324  29.568  1.00  0.00     0.049 A 
ATOM     45  N   UNL A   1      44.216  31.918  29.206  1.00  0.00    -0.248 NA
ATOM     46  C   UNL A   1      43.184  33.703  30.299  1.00  0.00     0.031 C 
ATOM     47  C   UNL A   1      40.474  29.513  29.680  1.00  0.00     0.029 A 
ATOM     48  N   UNL A   1      42.582  29.502  28.931  1.00  0.00    -0.354 N 
ATOM     49  C   UNL A   1      45.088  32.999  29.251  1.00  0.00     0.074 A 
ATOM     50  C   UNL A   1      44.379  34.090  29.881  1.00  0.00     0.031 C 
ATOM     51  C   UNL A   1      40.708  28.303  29.143  1.00  0.00     0.029 A 
ATOM     52  C   UNL A   1      42.077  28.261  28.630  1.00  0.00     0.049 A 
ATOM     53  H   UNL A   1      43.502  29.777  28.712  1.00  0.00     0.167 HD
ATOM     54  C   UNL A   1      46.374  33.071  28.828  1.00  0.00     0.037 A 
ATOM     55  C   UNL A   1      42.654  27.213  28.010  1.00  0.00     0.037 A 
ATOM     56  C   UNL A   1      47.096  31.978  28.234  1.00  0.00     0.049 A 
ATOM     57  C   UNL A   1      44.088  27.312  27.560  1.00  0.00     0.074 A 
ATOM     58  C   UNL A   1      48.418  31.934  27.827  1.00  0.00     0.029 A 
ATOM     59  N   UNL A   1      46.554  30.730  27.966  1.00  0.00    -0.354 N 
ATOM     60  N   UNL A   1      44.921  28.318  27.662  1.00  0.00    -0.248 NA
ATOM     61  C   UNL A   1      44.665  26.120  26.919  1.00  0.00     0.031 C 
ATOM     62  C   UNL A   1      48.666  30.671  27.279  1.00  0.00     0.029 A 
ATOM     63  C   UNL A   1      47.510  29.914  27.385  1.00  0.00     0.049 A 
ATOM     64  H   UNL A   1      45.626  30.463  28.160  1.00  0.00     0.167 HD
ATOM     65  C   UNL A   1      46.123  27.876  27.125  1.00  0.00     0.074 A 
ATOM     66  C   UNL A   1      45.917  26.505  26.710  1.00  0.00     0.031 C 
ATOM     67  C   UNL A   1      47.294  28.547  26.987  1.00  0.00     0.037 A 
BRANCH  54  68
ATOM     68  C   UNL A   1      47.089  34.382  28.998  1.00  0.00     0.064 A 
ATOM     69  C   UNL A   1      47.237  35.284  27.933  1.00  0.00     0.173 A 
ATOM     70  C   UNL A   1      47.600  34.758  30.250  1.00  0.00     0.173 A 
ATOM     71  F   UNL A   1      46.774  34.969  26.713  1.00  0.00    -0.203 F 
ATOM     72  C   UNL A   1      47.898  36.497  28.107  1.00  0.00     0.198 A 
ATOM     73  C   UNL A   1      48.234  35.986  30.427  1.00  0.00     0.198 A 
ATOM     74  F   UNL A   1      47.479  33.938  31.305  1.00  0.00    -0.203 F 
ATOM     75  F   UNL A   1      48.070  37.320  27.062  1.00  0.00    -0.200 F 
ATOM     76  C   UNL A   1      48.389  36.850  29.354  1.00  0.00     0.200 A 
ATOM     77  F   UNL A   1      48.695  36.332  31.636  1.00  0.00    -0.200 F 
ATOM     78  F   UNL A   1      49.019  38.022  29.520  1.00  0.00    -0.200 F 
ENDBRANCH  54  68
BRANCH  55  79
ATOM     79  C   UNL A   1      41.881  25.959  27.811  1.00  0.00     0.064 A 
ATOM     80  C   UNL A   1      42.152  24.819  28.580  1.00  0.00     0.173 A 
ATOM     81  C   UNL A   1      40.859  25.875  26.855  1.00  0.00     0.173 A 
ATOM     82  F   UNL A   1      43.136  24.846  29.492  1.00  0.00    -0.203 F 
ATOM     83  C   UNL A   1      41.439  23.638  28.392  1.00  0.00     0.198 A 
ATOM     84  C   UNL A   1      40.129  24.700  26.686  1.00  0.00     0.198 A 
ATOM     85  F   UNL A   1      40.560  26.938  26.095  1.00  0.00    -0.203 F 
ATOM     86  F   UNL A   1      41.743  22.552  29.115  1.00  0.00    -0.200 F 
ATOM     87  C   UNL A   1      40.423  23.582  27.450  1.00  0.00     0.200 A 
ATOM     88  F   UNL A   1      39.139  24.654  25.784  1.00  0.00    -0.200 F 
ATOM     89  F   UNL A   1      39.731  22.448  27.275  1.00  0.00    -0.200 F 
ENDBRANCH  55  79
BRANCH  67  90
ATOM     90  C   UNL A   1      48.453  27.802  26.393  1.00  0.00     0.064 A 
ATOM     91  C   UNL A   1      49.479  27.281  27.194  1.00  0.00     0.173 A 
ATOM     92  C   UNL A   1      48.510  27.564  25.012  1.00  0.00     0.173 A 
ATOM     93  F   UNL A   1      49.475  27.493  28.518  1.00  0.00    -0.203 F 
ATOM     94  C   UNL A   1      50.534  26.567  26.630  1.00  0.00     0.198 A 
ATOM     95  C   UNL A   1      49.552  26.827  24.454  1.00  0.00     0.198 A 
ATOM     96  F   UNL A   1      47.549  28.035  24.203  1.00  0.00    -0.203 F 
ATOM     97  F   UNL A   1      51.525  26.113  27.408  1.00  0.00    -0.200 F 
ATOM     98  C   UNL A   1      50.565  26.334  25.263  1.00  0.00     0.200 A 
ATOM     99  F   UNL A   1      49.576  26.594  23.134  1.00  0.00    -0.200 F 
ATOM    100  F   UNL A   1      51.577  25.641  24.724  1.00  0.00    -0.200 F 
ENDBRANCH  67  90
ENDBRANCH  41  42
ENDBRANCH  34  36
ENDBRANCH  33  34
ENDBRANCH  32  33
ENDBRANCH  31  32
ENDBRANCH  30  31
ENDBRANCH  29  30
ENDBRANCH  28  29
ENDBRANCH  27  28
ENDBRANCH   1  27
TORSDOF 25
ENDMDL
MODEL 3
REMARK VINA RESULT:      -8.5      5.142      9.810
REMARK SMILES CC[C@@](C)(Nc1c([N+](=O)[O-])c(C(C)C)nn1C)C(=O)OCCOCCOCCOCCOC(=O)c1ccc(-c2c3nc(c(-c4c(F)c(F)c(F)c(F)c4F)c4ccc([nH]4)c(-c4c(F)c(F)c(F)c(F)c4F)c4nc(c(-c5c(F)c(F)c(F)c(F)c5F)c5ccc2[nH]5)C=C4)C=C3)cc1
REMARK SMILES IDX 25 1 24 2 23 3 22 4 21 5 20 6 18 7 19 8 3 9 4 10 2 11 1 12
REMARK SMILES IDX 5 13 6 15 7 16 16 17 11 18 15 19 17 20 8 21 9 22 10 23 12 24
REMARK SMILES IDX 13 25 14 26 26 27 27 28 28 29 29 30 30 31 31 32 32 33 33 34
REMARK SMILES IDX 34 35 35 36 36 37 97 38 37 39 96 40 38 41 39 42 40 43 90 44
REMARK SMILES IDX 41 45 95 46 89 47 91 48 42 49 94 50 88 51 87 52 43 54 75 55
REMARK SMILES IDX 55 56 74 57 56 58 59 59 73 60 92 61 57 62 58 63 72 65 93 66
REMARK SMILES IDX 60 67 44 68 45 69 53 70 46 71 47 72 51 73 54 74 48 75 49 76
REMARK SMILES IDX 52 77 50 78 76 79 77 80 85 81 78 82 79 83 83 84 86 85 80 86
REMARK SMILES IDX 81 87 84 88 82 89 61 90 62 91 70 92 63 93 64 94 68 95 71 96
REMARK SMILES IDX 65 97 66 98 69 99 67 100
REMARK H PARENT 5 14 91 53 59 64
REMARK Flexibility Score: inf
ROOT
ATOM      1  C   UNL A   1      42.421  33.536  36.012  1.00  0.00     0.188 C 
ENDROOT
BRANCH   1   2
ATOM      2  C   UNL A   1      42.718  32.083  35.644  1.00  0.00     0.188 C 
BRANCH   2   3
ATOM      3  O   UNL A   1      41.733  31.091  35.889  1.00  0.00    -0.376 OA
BRANCH   3   4
ATOM      4  C   UNL A   1      41.473  30.104  34.892  1.00  0.00     0.202 C 
BRANCH   4   5
ATOM      5  C   UNL A   1      40.044  29.986  34.385  1.00  0.00     0.261 C 
BRANCH   5   6
ATOM      6  O   UNL A   1      39.190  30.995  34.974  1.00  0.00    -0.462 OA
BRANCH   6   7
ATOM      7  C   UNL A   1      38.272  31.499  34.117  1.00  0.00     0.331 C 
ATOM      8  O   UNL A   1      37.553  30.764  33.438  1.00  0.00    -0.249 OA
BRANCH   7   9
ATOM      9  C   UNL A   1      38.123  33.041  34.060  1.00  0.00     0.134 C 
ATOM     10  C   UNL A   1      37.482  33.370  35.447  1.00  0.00     0.047 C 
BRANCH   9  11
ATOM     11  C   UNL A   1      39.508  33.739  33.965  1.00  0.00     0.037 C 
ATOM     12  C   UNL A   1      40.279  33.552  32.659  1.00  0.00     0.007 C 
ENDBRANCH   9  11
BRANCH   9  13
ATOM     13  N   UNL A   1      37.170  33.709  33.114  1.00  0.00    -0.349 N 
ATOM     14  H   UNL A   1      37.144  34.689  33.202  1.00  0.00     0.163 HD
BRANCH  13  15
ATOM     15  C   UNL A   1      36.324  33.219  32.147  1.00  0.00     0.205 A 
ATOM     16  C   UNL A   1      36.477  33.190  30.756  1.00  0.00     0.334 A 
ATOM     17  N   UNL A   1      34.953  33.142  32.323  1.00  0.00    -0.246 N 
ATOM     18  C   UNL A   1      35.166  33.286  30.202  1.00  0.00     0.145 A 
ATOM     19  N   UNL A   1      34.246  33.146  31.166  1.00  0.00    -0.169 NA
ATOM     20  C   UNL A   1      34.207  33.354  33.542  1.00  0.00     0.176 C 
BRANCH  16  21
ATOM     21  N   UNL A   1      37.710  33.282  30.028  1.00  0.00     0.068 N 
ATOM     22  O   UNL A   1      37.885  34.296  29.340  1.00  0.00    -0.258 OA
ATOM     23  O   UNL A   1      38.511  32.346  30.136  1.00  0.00    -0.258 OA
ENDBRANCH  16  21
BRANCH  18  24
ATOM     24  C   UNL A   1      34.752  33.706  28.798  1.00  0.00     0.041 C 
ATOM     25  C   UNL A   1      34.395  32.549  27.872  1.00  0.00     0.014 C 
ATOM     26  C   UNL A   1      33.622  34.750  28.790  1.00  0.00     0.014 C 
ENDBRANCH  18  24
ENDBRANCH  13  15
ENDBRANCH   9  13
ENDBRANCH   7   9
ENDBRANCH   6   7
ENDBRANCH   5   6
ENDBRANCH   4   5
ENDBRANCH   3   4
ENDBRANCH   2   3
ENDBRANCH   1   2
BRANCH   1  27
ATOM     27  O   UNL A   1      43.335  34.541  35.629  1.00  0.00    -0.377 OA
BRANCH  27  28
ATOM     28  C   UNL A   1      42.831  35.797  35.219  1.00  0.00     0.188 C 
BRANCH  28  29
ATOM     29  C   UNL A   1      42.851  36.177  33.737  1.00  0.00     0.188 C 
BRANCH  29  30
ATOM     30  O   UNL A   1      43.484  37.379  33.333  1.00  0.00    -0.376 OA
BRANCH  30  31
ATOM     31  C   UNL A   1      44.807  37.652  33.788  1.00  0.00     0.202 C 
BRANCH  31  32
ATOM     32  C   UNL A   1      45.771  38.236  32.763  1.00  0.00     0.261 C 
BRANCH  32  33
ATOM     33  O   UNL A   1      45.970  37.328  31.659  1.00  0.00    -0.460 OA
BRANCH  33  34
ATOM     34  C   UNL A   1      46.707  36.230  31.915  1.00  0.00     0.338 C 
ATOM     35  O   UNL A   1      47.779  36.180  32.504  1.00  0.00    -0.246 OA
BRANCH  34  36
ATOM     36  C   UNL A   1      46.036  35.015  31.415  1.00  0.00     0.060 A 
ATOM     37  C   UNL A   1      45.660  34.022  32.327  1.00  0.00     0.016 A 
ATOM     38  C   UNL A   1      45.945  34.774  30.043  1.00  0.00     0.016 A 
ATOM     39  C   UNL A   1      45.246  32.771  31.861  1.00  0.00     0.010 A 
ATOM     40  C   UNL A   1      45.492  33.535  29.580  1.00  0.00     0.010 A 
ATOM     41  C   UNL A   1      45.197  32.505  30.484  1.00  0.00    -0.014 A 
BRANCH  41  42
ATOM     42  C   UNL A   1      44.994  31.117  29.985  1.00  0.00     0.031 A 
ATOM     43  C   UNL A   1      43.594  30.625  29.716  1.00  0.00     0.074 A 
ATOM     44  C   UNL A   1      46.041  30.298  29.776  1.00  0.00     0.049 A 
ATOM     45  N   UNL A   1      43.187  29.450  29.300  1.00  0.00    -0.248 NA
ATOM     46  C   UNL A   1      42.500  31.577  29.972  1.00  0.00     0.031 C 
ATOM     47  C   UNL A   1      47.440  30.637  30.022  1.00  0.00     0.029 A 
ATOM     48  N   UNL A   1      46.082  29.005  29.314  1.00  0.00    -0.354 N 
ATOM     49  C   UNL A   1      41.800  29.519  29.266  1.00  0.00     0.074 A 
ATOM     50  C   UNL A   1      41.429  30.831  29.748  1.00  0.00     0.031 C 
ATOM     51  C   UNL A   1      48.207  29.583  29.695  1.00  0.00     0.029 A 
ATOM     52  C   UNL A   1      47.353  28.488  29.238  1.00  0.00     0.049 A 
ATOM     53  H   UNL A   1      45.278  28.497  29.061  1.00  0.00     0.167 HD
ATOM     54  C   UNL A   1      40.912  28.584  28.848  1.00  0.00     0.037 A 
ATOM     55  C   UNL A   1      47.775  27.271  28.845  1.00  0.00     0.037 A 
ATOM     56  C   UNL A   1      41.277  27.292  28.333  1.00  0.00     0.049 A 
ATOM     57  C   UNL A   1      46.772  26.252  28.372  1.00  0.00     0.074 A 
ATOM     58  C   UNL A   1      40.457  26.298  27.829  1.00  0.00     0.029 A 
ATOM     59  N   UNL A   1      42.577  26.815  28.252  1.00  0.00    -0.354 N 
ATOM     60  N   UNL A   1      45.468  26.349  28.287  1.00  0.00    -0.248 NA
ATOM     61  C   UNL A   1      47.304  24.954  27.927  1.00  0.00     0.031 C 
ATOM     62  C   UNL A   1      41.256  25.205  27.478  1.00  0.00     0.029 A 
ATOM     63  C   UNL A   1      42.580  25.535  27.721  1.00  0.00     0.049 A 
ATOM     64  H   UNL A   1      43.380  27.312  28.531  1.00  0.00     0.167 HD
ATOM     65  C   UNL A   1      45.026  25.144  27.757  1.00  0.00     0.074 A 
ATOM     66  C   UNL A   1      46.204  24.333  27.527  1.00  0.00     0.031 C 
ATOM     67  C   UNL A   1      43.759  24.744  27.487  1.00  0.00     0.037 A 
BRANCH  54  68
ATOM     68  C   UNL A   1      39.451  28.928  28.925  1.00  0.00     0.064 A 
ATOM     69  C   UNL A   1      38.743  29.389  27.805  1.00  0.00     0.173 A 
ATOM     70  C   UNL A   1      38.742  28.762  30.125  1.00  0.00     0.173 A 
ATOM     71  F   UNL A   1      39.376  29.573  26.636  1.00  0.00    -0.203 F 
ATOM     72  C   UNL A   1      37.389  29.699  27.890  1.00  0.00     0.198 A 
ATOM     73  C   UNL A   1      37.381  29.045  30.199  1.00  0.00     0.198 A 
ATOM     74  F   UNL A   1      39.368  28.316  31.225  1.00  0.00    -0.203 F 
ATOM     75  F   UNL A   1      36.745  30.184  26.818  1.00  0.00    -0.200 F 
ATOM     76  C   UNL A   1      36.707  29.521  29.084  1.00  0.00     0.200 A 
ATOM     77  F   UNL A   1      36.720  28.858  31.349  1.00  0.00    -0.200 F 
ATOM     78  F   UNL A   1      35.401  29.815  29.163  1.00  0.00    -0.200 F 
ENDBRANCH  54  68
BRANCH  55  79
ATOM     79  C   UNL A   1      49.229  26.960  28.846  1.00  0.00     0.064 A 
ATOM     80  C   UNL A   1      50.031  27.271  27.740  1.00  0.00     0.173 A 
ATOM     81  C   UNL A   1      49.844  26.352  29.950  1.00  0.00     0.173 A 
ATOM     82  F   UNL A   1      49.482  27.833  26.653  1.00  0.00    -0.203 F 
ATOM     83  C   UNL A   1      51.391  26.973  27.731  1.00  0.00     0.198 A 
ATOM     84  C   UNL A   1      51.210  26.077  29.950  1.00  0.00     0.198 A 
ATOM     85  F   UNL A   1      49.120  26.035  31.033  1.00  0.00    -0.203 F 
ATOM     86  F   UNL A   1      52.128  27.247  26.646  1.00  0.00    -0.200 F 
ATOM     87  C   UNL A   1      51.981  26.384  28.838  1.00  0.00     0.200 A 
ATOM     88  F   UNL A   1      51.780  25.520  31.027  1.00  0.00    -0.200 F 
ATOM     89  F   UNL A   1      53.292  26.105  28.834  1.00  0.00    -0.200 F 
ENDBRANCH  55  79
BRANCH  67  90
ATOM     90  C   UNL A   1      43.577  23.383  26.881  1.00  0.00     0.064 A 
ATOM     91  C   UNL A   1      44.027  23.089  25.587  1.00  0.00     0.173 A 
ATOM     92  C   UNL A   1      42.990  22.348  27.625  1.00  0.00     0.173 A 
ATOM     93  F   UNL A   1      44.583  24.049  24.832  1.00  0.00    -0.203 F 
ATOM     94  C   UNL A   1      43.876  21.813  25.049  1.00  0.00     0.198 A 
ATOM     95  C   UNL A   1      42.864  21.067  27.095  1.00  0.00     0.198 A 
ATOM     96  F   UNL A   1      42.550  22.576  28.872  1.00  0.00    -0.203 F 
ATOM     97  F   UNL A   1      44.276  21.564  23.795  1.00  0.00    -0.200 F 
ATOM     98  C   UNL A   1      43.302  20.802  25.806  1.00  0.00     0.200 A 
ATOM     99  F   UNL A   1      42.320  20.088  27.832  1.00  0.00    -0.200 F 
ATOM    100  F   UNL A   1      43.164  19.573  25.290  1.00  0.00    -0.200 F 
ENDBRANCH  67  90
ENDBRANCH  41  42
ENDBRANCH  34  36
ENDBRANCH  33  34
ENDBRANCH  32  33
ENDBRANCH  31  32
ENDBRANCH  30  31
ENDBRANCH  29  30
ENDBRANCH  28  29
ENDBRANCH  27  28
ENDBRANCH   1  27
TORSDOF 25
ENDMDL
