MODEL 1
REMARK VINA RESULT:     -10.5      0.000      0.000
REMARK SMILES O=C(OCCOCCOCCOCCOC(=O)c1ccc(-c2c3nc(c(-c4c(F)c(F)c(F)c(F)c4F)c4ccc([nH]4)c(-c4c(F)c(F)c(F)c(F)c4F)c4nc(c(-c5c(F)c(F)c(F)c(F)c5F)c5ccc2[nH]5)C=C4)C=C3)cc1)C(=O)/C(=C/c1cnn(Cc2ccccc2Cl)c1)c1ccc2ccccc2n1
REMARK SMILES IDX 8 1 7 2 6 3 5 4 4 5 3 6 2 7 1 8 81 9 82 10 83 11 84 12 98 13
REMARK SMILES IDX 99 14 107 15 100 16 106 17 101 18 105 19 102 20 104 21
REMARK SMILES IDX 103 22 85 23 86 24 97 25 87 26 88 27 89 28 90 29 91 30 95 31
REMARK SMILES IDX 92 32 94 33 96 34 93 35 9 36 10 37 11 38 12 39 13 40 14 41
REMARK SMILES IDX 15 42 16 43 17 44 18 45 19 46 80 47 20 48 79 49 21 50 22 51
REMARK SMILES IDX 23 52 73 53 24 54 78 55 72 56 74 57 25 58 77 59 71 60 70 61
REMARK SMILES IDX 26 63 58 64 38 65 57 66 39 67 42 68 56 69 75 70 40 71 41 72
REMARK SMILES IDX 55 74 76 75 43 76 27 77 28 78 36 79 29 80 30 81 34 82 37 83
REMARK SMILES IDX 31 84 32 85 35 86 33 87 59 88 60 89 68 90 61 91 62 92 66 93
REMARK SMILES IDX 69 94 63 95 64 96 67 97 65 98 44 99 45 100 53 101 46 102
REMARK SMILES IDX 47 103 51 104 54 105 48 106 49 107 52 108 50 109
REMARK H PARENT 74 62 42 73
REMARK Flexibility Score: inf
ROOT
ATOM      1  C   UNL A   1      41.141  20.999  26.972  1.00  0.00     0.188 C 
ENDROOT
BRANCH   1   2
ATOM      2  C   UNL A   1      41.069  22.436  27.524  1.00  0.00     0.188 C 
BRANCH   2   3
ATOM      3  O   UNL A   1      39.837  23.105  27.633  1.00  0.00    -0.376 OA
BRANCH   3   4
ATOM      4  C   UNL A   1      39.190  23.690  26.533  1.00  0.00     0.202 C 
BRANCH   4   5
ATOM      5  C   UNL A   1      38.177  22.925  25.734  1.00  0.00     0.261 C 
BRANCH   5   6
ATOM      6  O   UNL A   1      37.504  23.630  24.681  1.00  0.00    -0.457 OA
BRANCH   6   7
ATOM      7  C   UNL A   1      36.430  23.328  23.953  1.00  0.00     0.379 C 
ATOM      8  O   UNL A   1      36.606  23.091  22.759  1.00  0.00    -0.242 OA
BRANCH   7   9
ATOM      9  C   UNL A   1      34.966  23.255  24.474  1.00  0.00     0.272 C 
ATOM     10  O   UNL A   1      34.675  22.164  24.982  1.00  0.00    -0.281 OA
BRANCH   9  11
ATOM     11  C   UNL A   1      33.841  24.376  24.375  1.00  0.00     0.056 C 
ATOM     12  C   UNL A   1      34.133  25.425  25.262  1.00  0.00     0.026 C 
BRANCH  11  13
ATOM     13  C   UNL A   1      33.011  24.036  22.921  1.00  0.00     0.075 A 
ATOM     14  C   UNL A   1      31.751  24.536  23.063  1.00  0.00     0.030 A 
ATOM     15  N   UNL A   1      33.063  22.838  22.170  1.00  0.00    -0.248 NA
ATOM     16  C   UNL A   1      31.006  23.668  23.792  1.00  0.00     0.012 A 
ATOM     17  C   UNL A   1      32.202  21.797  22.479  1.00  0.00     0.071 A 
ATOM     18  C   UNL A   1      31.545  22.391  23.829  1.00  0.00     0.000 A 
ATOM     19  C   UNL A   1      32.448  19.993  22.321  1.00  0.00     0.029 A 
ATOM     20  C   UNL A   1      31.719  21.488  25.295  1.00  0.00     0.010 A 
ATOM     21  C   UNL A   1      32.432  18.868  23.761  1.00  0.00     0.002 A 
ATOM     22  C   UNL A   1      32.154  19.635  25.389  1.00  0.00     0.001 A 
ENDBRANCH  11  13
BRANCH  12  23
ATOM     23  C   UNL A   1      34.015  26.920  25.376  1.00  0.00     0.013 A 
ATOM     24  C   UNL A   1      34.098  27.750  26.539  1.00  0.00     0.143 A 
ATOM     25  C   UNL A   1      33.889  27.926  24.381  1.00  0.00     0.117 A 
ATOM     26  N   UNL A   1      33.724  29.041  26.341  1.00  0.00    -0.181 NA
ATOM     27  N   UNL A   1      33.260  29.063  25.054  1.00  0.00    -0.268 N 
BRANCH  27  28
ATOM     28  C   UNL A   1      31.781  29.778  24.660  1.00  0.00     0.181 C 
BRANCH  28  29
ATOM     29  C   UNL A   1      30.258  28.965  23.986  1.00  0.00    -0.008 A 
ATOM     30  C   UNL A   1      29.673  29.811  23.041  1.00  0.00     0.007 A 
ATOM     31  C   UNL A   1      29.579  27.383  24.406  1.00  0.00     0.046 A 
ATOM     32  C   UNL A   1      28.458  29.416  22.492  1.00  0.00     0.000 A 
ATOM     33  C   UNL A   1      28.336  27.182  23.683  1.00  0.00     0.021 A 
ATOM     34  Cl  UNL A   1      30.692  26.017  26.176  1.00  0.00    -0.084 Cl
ATOM     35  C   UNL A   1      27.820  28.191  22.817  1.00  0.00     0.002 A 
ENDBRANCH  28  29
ENDBRANCH  27  28
ENDBRANCH  12  23
ENDBRANCH   9  11
ENDBRANCH   7   9
ENDBRANCH   6   7
ENDBRANCH   5   6
ENDBRANCH   4   5
ENDBRANCH   3   4
ENDBRANCH   2   3
ENDBRANCH   1   2
BRANCH   1  36
ATOM     36  O   UNL A   1      41.752  20.643  25.746  1.00  0.00    -0.377 OA
BRANCH  36  37
ATOM     37  C   UNL A   1      42.982  19.959  25.761  1.00  0.00     0.188 C 
BRANCH  37  38
ATOM     38  C   UNL A   1      44.201  20.831  25.339  1.00  0.00     0.188 C 
BRANCH  38  39
ATOM     39  O   UNL A   1      44.137  21.605  24.164  1.00  0.00    -0.376 OA
BRANCH  39  40
ATOM     40  C   UNL A   1      44.412  22.992  24.241  1.00  0.00     0.202 C 
BRANCH  40  41
ATOM     41  C   UNL A   1      43.922  23.911  25.395  1.00  0.00     0.261 C 
BRANCH  41  42
ATOM     42  O   UNL A   1      42.713  24.686  25.237  1.00  0.00    -0.460 OA
BRANCH  42  43
ATOM     43  C   UNL A   1      42.768  26.023  25.470  1.00  0.00     0.338 C 
ATOM     44  O   UNL A   1      42.499  26.910  24.682  1.00  0.00    -0.246 OA
BRANCH  43  45
ATOM     45  C   UNL A   1      42.942  26.244  26.939  1.00  0.00     0.060 A 
ATOM     46  C   UNL A   1      44.133  26.825  27.422  1.00  0.00     0.016 A 
ATOM     47  C   UNL A   1      41.921  25.936  27.836  1.00  0.00     0.016 A 
ATOM     48  C   UNL A   1      44.299  27.104  28.784  1.00  0.00     0.010 A 
ATOM     49  C   UNL A   1      42.110  26.166  29.207  1.00  0.00     0.010 A 
ATOM     50  C   UNL A   1      43.302  26.738  29.694  1.00  0.00    -0.014 A 
BRANCH  50  51
ATOM     51  C   UNL A   1      43.541  26.814  31.162  1.00  0.00     0.031 A 
ATOM     52  C   UNL A   1      43.098  28.048  31.900  1.00  0.00     0.074 A 
ATOM     53  C   UNL A   1      44.169  25.825  31.828  1.00  0.00     0.049 A 
ATOM     54  N   UNL A   1      43.336  28.411  33.135  1.00  0.00    -0.248 NA
ATOM     55  C   UNL A   1      42.279  29.007  31.140  1.00  0.00     0.031 C 
ATOM     56  C   UNL A   1      44.599  24.556  31.248  1.00  0.00     0.029 A 
ATOM     57  N   UNL A   1      44.583  25.753  33.139  1.00  0.00    -0.354 N 
ATOM     58  C   UNL A   1      42.725  29.649  33.290  1.00  0.00     0.074 A 
ATOM     59  C   UNL A   1      42.108  29.980  32.023  1.00  0.00     0.031 C 
ATOM     60  C   UNL A   1      45.247  23.844  32.188  1.00  0.00     0.029 A 
ATOM     61  C   UNL A   1      45.326  24.630  33.419  1.00  0.00     0.049 A 
ATOM     62  H   UNL A   1      44.368  26.438  33.812  1.00  0.00     0.167 HD
ATOM     63  C   UNL A   1      42.690  30.439  34.388  1.00  0.00     0.037 A 
ATOM     64  C   UNL A   1      46.032  24.299  34.521  1.00  0.00     0.037 A 
ATOM     65  C   UNL A   1      43.301  30.104  35.648  1.00  0.00     0.049 A 
ATOM     66  C   UNL A   1      46.047  25.244  35.702  1.00  0.00     0.074 A 
ATOM     67  C   UNL A   1      43.278  30.822  36.831  1.00  0.00     0.029 A 
ATOM     68  N   UNL A   1      44.059  28.968  35.885  1.00  0.00    -0.354 N 
ATOM     69  N   UNL A   1      45.425  26.388  35.858  1.00  0.00    -0.248 NA
ATOM     70  C   UNL A   1      46.869  24.854  36.860  1.00  0.00     0.031 C 
ATOM     71  C   UNL A   1      44.096  30.168  37.755  1.00  0.00     0.029 A 
ATOM     72  C   UNL A   1      44.555  28.996  37.179  1.00  0.00     0.049 A 
ATOM     73  H   UNL A   1      44.221  28.249  35.232  1.00  0.00     0.167 HD
ATOM     74  C   UNL A   1      45.756  26.834  37.134  1.00  0.00     0.074 A 
ATOM     75  C   UNL A   1      46.607  25.825  37.722  1.00  0.00     0.031 C 
ATOM     76  C   UNL A   1      45.395  27.981  37.759  1.00  0.00     0.037 A 
BRANCH  63  77
ATOM     77  C   UNL A   1      42.007  31.772  34.289  1.00  0.00     0.064 A 
ATOM     78  C   UNL A   1      42.680  32.923  33.855  1.00  0.00     0.173 A 
ATOM     79  C   UNL A   1      40.627  31.871  34.532  1.00  0.00     0.173 A 
ATOM     80  F   UNL A   1      43.999  32.885  33.618  1.00  0.00    -0.203 F 
ATOM     81  C   UNL A   1      41.998  34.124  33.676  1.00  0.00     0.198 A 
ATOM     82  C   UNL A   1      39.943  33.064  34.318  1.00  0.00     0.198 A 
ATOM     83  F   UNL A   1      39.934  30.798  34.943  1.00  0.00    -0.203 F 
ATOM     84  F   UNL A   1      42.667  35.219  33.288  1.00  0.00    -0.200 F 
ATOM     85  C   UNL A   1      40.629  34.191  33.893  1.00  0.00     0.200 A 
ATOM     86  F   UNL A   1      38.618  33.118  34.508  1.00  0.00    -0.200 F 
ATOM     87  F   UNL A   1      39.972  35.340  33.692  1.00  0.00    -0.200 F 
ENDBRANCH  63  77
BRANCH  64  88
ATOM     88  C   UNL A   1      46.847  23.049  34.558  1.00  0.00     0.064 A 
ATOM     89  C   UNL A   1      48.233  23.076  34.345  1.00  0.00     0.173 A 
ATOM     90  C   UNL A   1      46.245  21.792  34.722  1.00  0.00     0.173 A 
ATOM     91  F   UNL A   1      48.858  24.248  34.156  1.00  0.00    -0.203 F 
ATOM     92  C   UNL A   1      48.973  21.899  34.244  1.00  0.00     0.198 A 
ATOM     93  C   UNL A   1      46.993  20.617  34.669  1.00  0.00     0.198 A 
ATOM     94  F   UNL A   1      44.922  21.699  34.926  1.00  0.00    -0.203 F 
ATOM     95  F   UNL A   1      50.279  21.955  33.947  1.00  0.00    -0.200 F 
ATOM     96  C   UNL A   1      48.354  20.670  34.410  1.00  0.00     0.200 A 
ATOM     97  F   UNL A   1      46.392  19.434  34.850  1.00  0.00    -0.200 F 
ATOM     98  F   UNL A   1      49.062  19.538  34.304  1.00  0.00    -0.200 F 
ENDBRANCH  64  88
BRANCH  76  99
ATOM     99  C   UNL A   1      45.889  28.200  39.162  1.00  0.00     0.064 A 
ATOM    100  C   UNL A   1      46.955  29.067  39.444  1.00  0.00     0.173 A 
ATOM    101  C   UNL A   1      45.250  27.577  40.247  1.00  0.00     0.173 A 
ATOM    102  F   UNL A   1      47.607  29.681  38.445  1.00  0.00    -0.203 F 
ATOM    103  C   UNL A   1      47.382  29.278  40.753  1.00  0.00     0.198 A 
ATOM    104  C   UNL A   1      45.653  27.823  41.557  1.00  0.00     0.198 A 
ATOM    105  F   UNL A   1      44.217  26.746  40.039  1.00  0.00    -0.203 F 
ATOM    106  F   UNL A   1      48.439  30.067  40.990  1.00  0.00    -0.200 F 
ATOM    107  C   UNL A   1      46.724  28.665  41.809  1.00  0.00     0.200 A 
ATOM    108  F   UNL A   1      44.999  27.248  42.577  1.00  0.00    -0.200 F 
ATOM    109  F   UNL A   1      47.127  28.881  43.068  1.00  0.00    -0.200 F 
ENDBRANCH  76  99
ENDBRANCH  50  51
ENDBRANCH  43  45
ENDBRANCH  42  43
ENDBRANCH  41  42
ENDBRANCH  40  41
ENDBRANCH  39  40
ENDBRANCH  38  39
ENDBRANCH  37  38
ENDBRANCH  36  37
ENDBRANCH   1  36
TORSDOF 25
ENDMDL
MODEL 2
REMARK VINA RESULT:     -10.3      6.078     11.906
REMARK SMILES O=C(OCCOCCOCCOCCOC(=O)c1ccc(-c2c3nc(c(-c4c(F)c(F)c(F)c(F)c4F)c4ccc([nH]4)c(-c4c(F)c(F)c(F)c(F)c4F)c4nc(c(-c5c(F)c(F)c(F)c(F)c5F)c5ccc2[nH]5)C=C4)C=C3)cc1)C(=O)/C(=C/c1cnn(Cc2ccccc2Cl)c1)c1ccc2ccccc2n1
REMARK SMILES IDX 8 1 7 2 6 3 5 4 4 5 3 6 2 7 1 8 81 9 82 10 83 11 84 12 98 13
REMARK SMILES IDX 99 14 107 15 100 16 106 17 101 18 105 19 102 20 104 21
REMARK SMILES IDX 103 22 85 23 86 24 97 25 87 26 88 27 89 28 90 29 91 30 95 31
REMARK SMILES IDX 92 32 94 33 96 34 93 35 9 36 10 37 11 38 12 39 13 40 14 41
REMARK SMILES IDX 15 42 16 43 17 44 18 45 19 46 80 47 20 48 79 49 21 50 22 51
REMARK SMILES IDX 23 52 73 53 24 54 78 55 72 56 74 57 25 58 77 59 71 60 70 61
REMARK SMILES IDX 26 63 58 64 38 65 57 66 39 67 42 68 56 69 75 70 40 71 41 72
REMARK SMILES IDX 55 74 76 75 43 76 27 77 28 78 36 79 29 80 30 81 34 82 37 83
REMARK SMILES IDX 31 84 32 85 35 86 33 87 59 88 60 89 68 90 61 91 62 92 66 93
REMARK SMILES IDX 69 94 63 95 64 96 67 97 65 98 44 99 45 100 53 101 46 102
REMARK SMILES IDX 47 103 51 104 54 105 48 106 49 107 52 108 50 109
REMARK H PARENT 74 62 42 73
REMARK Flexibility Score: inf
ROOT
ATOM      1  C   UNL A   1      32.528  30.719  26.924  1.00  0.00     0.188 C 
ENDROOT
BRANCH   1   2
ATOM      2  C   UNL A   1      32.257  29.746  25.760  1.00  0.00     0.188 C 
BRANCH   2   3
ATOM      3  O   UNL A   1      32.086  28.371  25.996  1.00  0.00    -0.376 OA
BRANCH   3   4
ATOM      4  C   UNL A   1      31.770  27.459  24.978  1.00  0.00     0.202 C 
BRANCH   4   5
ATOM      5  C   UNL A   1      32.595  26.224  24.760  1.00  0.00     0.261 C 
BRANCH   5   6
ATOM      6  O   UNL A   1      33.541  26.249  23.682  1.00  0.00    -0.457 OA
BRANCH   6   7
ATOM      7  C   UNL A   1      33.700  25.462  22.619  1.00  0.00     0.379 C 
ATOM      8  O   UNL A   1      33.651  25.995  21.511  1.00  0.00    -0.242 OA
BRANCH   7   9
ATOM      9  C   UNL A   1      33.935  23.925  22.648  1.00  0.00     0.272 C 
ATOM     10  O   UNL A   1      33.655  23.361  21.582  1.00  0.00    -0.281 OA
BRANCH   9  11
ATOM     11  C   UNL A   1      34.427  23.040  23.876  1.00  0.00     0.056 C 
ATOM     12  C   UNL A   1      35.781  23.301  24.140  1.00  0.00     0.026 C 
BRANCH  11  13
ATOM     13  C   UNL A   1      32.992  22.493  24.624  1.00  0.00     0.075 A 
ATOM     14  C   UNL A   1      33.167  22.649  25.967  1.00  0.00     0.030 A 
ATOM     15  N   UNL A   1      32.235  21.348  24.282  1.00  0.00    -0.248 NA
ATOM     16  C   UNL A   1      33.911  21.618  26.443  1.00  0.00     0.012 A 
ATOM     17  C   UNL A   1      32.560  20.120  24.835  1.00  0.00     0.071 A 
ATOM     18  C   UNL A   1      33.929  20.525  25.590  1.00  0.00     0.000 A 
ATOM     19  C   UNL A   1      32.388  18.442  24.132  1.00  0.00     0.029 A 
ATOM     20  C   UNL A   1      35.386  19.702  25.151  1.00  0.00     0.010 A 
ATOM     21  C   UNL A   1      33.823  17.354  23.819  1.00  0.00     0.002 A 
ATOM     22  C   UNL A   1      35.460  18.025  24.246  1.00  0.00     0.001 A 
ENDBRANCH  11  13
BRANCH  12  23
ATOM     23  C   UNL A   1      36.745  23.401  25.290  1.00  0.00     0.013 A 
ATOM     24  C   UNL A   1      36.660  24.194  26.478  1.00  0.00     0.143 A 
ATOM     25  C   UNL A   1      37.936  22.683  25.576  1.00  0.00     0.117 A 
ATOM     26  N   UNL A   1      37.800  24.232  27.216  1.00  0.00    -0.181 NA
ATOM     27  N   UNL A   1      38.714  23.553  26.458  1.00  0.00    -0.268 N 
BRANCH  27  28
ATOM     28  C   UNL A   1      40.253  24.183  26.156  1.00  0.00     0.181 C 
BRANCH  28  29
ATOM     29  C   UNL A   1      40.813  25.945  26.268  1.00  0.00    -0.008 A 
ATOM     30  C   UNL A   1      41.669  26.218  25.199  1.00  0.00     0.007 A 
ATOM     31  C   UNL A   1      40.387  27.159  27.488  1.00  0.00     0.046 A 
ATOM     32  C   UNL A   1      42.274  27.469  25.165  1.00  0.00     0.000 A 
ATOM     33  C   UNL A   1      41.113  28.388  27.222  1.00  0.00     0.021 A 
ATOM     34  Cl  UNL A   1      38.908  26.500  29.389  1.00  0.00    -0.084 Cl
ATOM     35  C   UNL A   1      42.030  28.477  26.133  1.00  0.00     0.002 A 
ENDBRANCH  28  29
ENDBRANCH  27  28
ENDBRANCH  12  23
ENDBRANCH   9  11
ENDBRANCH   7   9
ENDBRANCH   6   7
ENDBRANCH   5   6
ENDBRANCH   4   5
ENDBRANCH   3   4
ENDBRANCH   2   3
ENDBRANCH   1   2
BRANCH   1  36
ATOM     36  O   UNL A   1      33.751  30.799  27.632  1.00  0.00    -0.377 OA
BRANCH  36  37
ATOM     37  C   UNL A   1      34.136  32.024  28.209  1.00  0.00     0.188 C 
BRANCH  37  38
ATOM     38  C   UNL A   1      35.555  32.011  28.848  1.00  0.00     0.188 C 
BRANCH  38  39
ATOM     39  O   UNL A   1      35.942  30.937  29.674  1.00  0.00    -0.376 OA
BRANCH  39  40
ATOM     40  C   UNL A   1      36.270  31.197  31.026  1.00  0.00     0.202 C 
BRANCH  40  41
ATOM     41  C   UNL A   1      36.283  30.112  32.140  1.00  0.00     0.261 C 
BRANCH  41  42
ATOM     42  O   UNL A   1      37.424  29.993  33.020  1.00  0.00    -0.460 OA
BRANCH  42  43
ATOM     43  C   UNL A   1      38.416  29.133  32.678  1.00  0.00     0.338 C 
ATOM     44  O   UNL A   1      38.381  27.918  32.746  1.00  0.00    -0.246 OA
BRANCH  43  45
ATOM     45  C   UNL A   1      39.472  29.890  31.937  1.00  0.00     0.060 A 
ATOM     46  C   UNL A   1      39.438  29.940  30.529  1.00  0.00     0.016 A 
ATOM     47  C   UNL A   1      40.459  30.596  32.621  1.00  0.00     0.016 A 
ATOM     48  C   UNL A   1      40.374  30.695  29.811  1.00  0.00     0.010 A 
ATOM     49  C   UNL A   1      41.429  31.308  31.899  1.00  0.00     0.010 A 
ATOM     50  C   UNL A   1      41.404  31.352  30.491  1.00  0.00    -0.014 A 
BRANCH  50  51
ATOM     51  C   UNL A   1      42.537  31.971  29.750  1.00  0.00     0.031 A 
ATOM     52  C   UNL A   1      43.672  31.088  29.304  1.00  0.00     0.074 A 
ATOM     53  C   UNL A   1      42.583  33.294  29.503  1.00  0.00     0.049 A 
ATOM     54  N   UNL A   1      44.830  31.417  28.790  1.00  0.00    -0.248 NA
ATOM     55  C   UNL A   1      43.476  29.638  29.465  1.00  0.00     0.031 C 
ATOM     56  C   UNL A   1      41.529  34.252  29.829  1.00  0.00     0.029 A 
ATOM     57  N   UNL A   1      43.577  34.067  28.946  1.00  0.00    -0.354 N 
ATOM     58  C   UNL A   1      45.511  30.220  28.596  1.00  0.00     0.074 A 
ATOM     59  C   UNL A   1      44.639  29.158  29.050  1.00  0.00     0.031 C 
ATOM     60  C   UNL A   1      41.945  35.488  29.499  1.00  0.00     0.029 A 
ATOM     61  C   UNL A   1      43.314  35.416  28.991  1.00  0.00     0.049 A 
ATOM     62  H   UNL A   1      44.397  33.690  28.554  1.00  0.00     0.167 HD
ATOM     63  C   UNL A   1      46.751  30.030  28.091  1.00  0.00     0.037 A 
ATOM     64  C   UNL A   1      44.105  36.472  28.705  1.00  0.00     0.037 A 
ATOM     65  C   UNL A   1      47.613  31.090  27.635  1.00  0.00     0.049 A 
ATOM     66  C   UNL A   1      45.519  36.231  28.227  1.00  0.00     0.074 A 
ATOM     67  C   UNL A   1      48.871  30.989  27.065  1.00  0.00     0.029 A 
ATOM     68  N   UNL A   1      47.318  32.442  27.715  1.00  0.00    -0.354 N 
ATOM     69  N   UNL A   1      46.136  35.096  27.998  1.00  0.00    -0.248 NA
ATOM     70  C   UNL A   1      46.351  37.418  27.973  1.00  0.00     0.031 C 
ATOM     71  C   UNL A   1      49.374  32.279  26.884  1.00  0.00     0.029 A 
ATOM     72  C   UNL A   1      48.394  33.185  27.256  1.00  0.00     0.049 A 
ATOM     73  H   UNL A   1      46.471  32.818  28.047  1.00  0.00     0.167 HD
ATOM     74  C   UNL A   1      47.408  35.435  27.548  1.00  0.00     0.074 A 
ATOM     75  C   UNL A   1      47.467  36.878  27.506  1.00  0.00     0.031 C 
ATOM     76  C   UNL A   1      48.439  34.623  27.209  1.00  0.00     0.037 A 
BRANCH  63  77
ATOM     77  C   UNL A   1      47.293  28.631  28.033  1.00  0.00     0.064 A 
ATOM     78  C   UNL A   1      48.008  28.065  29.098  1.00  0.00     0.173 A 
ATOM     79  C   UNL A   1      46.998  27.811  26.932  1.00  0.00     0.173 A 
ATOM     80  F   UNL A   1      48.324  28.806  30.170  1.00  0.00    -0.203 F 
ATOM     81  C   UNL A   1      48.412  26.733  29.058  1.00  0.00     0.198 A 
ATOM     82  C   UNL A   1      47.372  26.471  26.911  1.00  0.00     0.198 A 
ATOM     83  F   UNL A   1      46.311  28.302  25.888  1.00  0.00    -0.203 F 
ATOM     84  F   UNL A   1      49.119  26.219  30.076  1.00  0.00    -0.200 F 
ATOM     85  C   UNL A   1      48.082  25.933  27.973  1.00  0.00     0.200 A 
ATOM     86  F   UNL A   1      47.032  25.698  25.872  1.00  0.00    -0.200 F 
ATOM     87  F   UNL A   1      48.446  24.645  27.952  1.00  0.00    -0.200 F 
ENDBRANCH  63  77
BRANCH  64  88
ATOM     88  C   UNL A   1      43.621  37.868  28.921  1.00  0.00     0.064 A 
ATOM     89  C   UNL A   1      43.862  38.545  30.125  1.00  0.00     0.173 A 
ATOM     90  C   UNL A   1      42.833  38.522  27.961  1.00  0.00     0.173 A 
ATOM     91  F   UNL A   1      44.587  37.958  31.090  1.00  0.00    -0.203 F 
ATOM     92  C   UNL A   1      43.296  39.794  30.380  1.00  0.00     0.198 A 
ATOM     93  C   UNL A   1      42.307  39.791  28.197  1.00  0.00     0.198 A 
ATOM     94  F   UNL A   1      42.564  37.925  26.789  1.00  0.00    -0.203 F 
ATOM     95  F   UNL A   1      43.469  40.373  31.576  1.00  0.00    -0.200 F 
ATOM     96  C   UNL A   1      42.522  40.417  29.414  1.00  0.00     0.200 A 
ATOM     97  F   UNL A   1      41.576  40.397  27.252  1.00  0.00    -0.200 F 
ATOM     98  F   UNL A   1      41.970  41.613  29.662  1.00  0.00    -0.200 F 
ENDBRANCH  64  88
BRANCH  76  99
ATOM     99  C   UNL A   1      49.711  35.268  26.732  1.00  0.00     0.064 A 
ATOM    100  C   UNL A   1      49.910  35.606  25.385  1.00  0.00     0.173 A 
ATOM    101  C   UNL A   1      50.724  35.605  27.645  1.00  0.00     0.173 A 
ATOM    102  F   UNL A   1      48.979  35.298  24.468  1.00  0.00    -0.203 F 
ATOM    103  C   UNL A   1      51.084  36.226  24.966  1.00  0.00     0.198 A 
ATOM    104  C   UNL A   1      51.878  36.264  27.229  1.00  0.00     0.198 A 
ATOM    105  F   UNL A   1      50.584  35.318  28.948  1.00  0.00    -0.203 F 
ATOM    106  F   UNL A   1      51.273  36.487  23.665  1.00  0.00    -0.200 F 
ATOM    107  C   UNL A   1      52.062  36.565  25.889  1.00  0.00     0.200 A 
ATOM    108  F   UNL A   1      52.809  36.613  28.128  1.00  0.00    -0.200 F 
ATOM    109  F   UNL A   1      53.183  37.177  25.486  1.00  0.00    -0.200 F 
ENDBRANCH  76  99
ENDBRANCH  50  51
ENDBRANCH  43  45
ENDBRANCH  42  43
ENDBRANCH  41  42
ENDBRANCH  40  41
ENDBRANCH  39  40
ENDBRANCH  38  39
ENDBRANCH  37  38
ENDBRANCH  36  37
ENDBRANCH   1  36
TORSDOF 25
ENDMDL
MODEL 3
REMARK VINA RESULT:     -10.2      6.457      9.562
REMARK SMILES O=C(OCCOCCOCCOCCOC(=O)c1ccc(-c2c3nc(c(-c4c(F)c(F)c(F)c(F)c4F)c4ccc([nH]4)c(-c4c(F)c(F)c(F)c(F)c4F)c4nc(c(-c5c(F)c(F)c(F)c(F)c5F)c5ccc2[nH]5)C=C4)C=C3)cc1)C(=O)/C(=C/c1cnn(Cc2ccccc2Cl)c1)c1ccc2ccccc2n1
REMARK SMILES IDX 8 1 7 2 6 3 5 4 4 5 3 6 2 7 1 8 81 9 82 10 83 11 84 12 98 13
REMARK SMILES IDX 99 14 107 15 100 16 106 17 101 18 105 19 102 20 104 21
REMARK SMILES IDX 103 22 85 23 86 24 97 25 87 26 88 27 89 28 90 29 91 30 95 31
REMARK SMILES IDX 92 32 94 33 96 34 93 35 9 36 10 37 11 38 12 39 13 40 14 41
REMARK SMILES IDX 15 42 16 43 17 44 18 45 19 46 80 47 20 48 79 49 21 50 22 51
REMARK SMILES IDX 23 52 73 53 24 54 78 55 72 56 74 57 25 58 77 59 71 60 70 61
REMARK SMILES IDX 26 63 58 64 38 65 57 66 39 67 42 68 56 69 75 70 40 71 41 72
REMARK SMILES IDX 55 74 76 75 43 76 27 77 28 78 36 79 29 80 30 81 34 82 37 83
REMARK SMILES IDX 31 84 32 85 35 86 33 87 59 88 60 89 68 90 61 91 62 92 66 93
REMARK SMILES IDX 69 94 63 95 64 96 67 97 65 98 44 99 45 100 53 101 46 102
REMARK SMILES IDX 47 103 51 104 54 105 48 106 49 107 52 108 50 109
REMARK H PARENT 74 62 42 73
REMARK Flexibility Score: inf
ROOT
ATOM      1  C   UNL A   1      32.676  29.325  27.215  1.00  0.00     0.188 C 
ENDROOT
BRANCH   1   2
ATOM      2  C   UNL A   1      31.733  28.565  26.262  1.00  0.00     0.188 C 
BRANCH   2   3
ATOM      3  O   UNL A   1      31.747  27.160  26.203  1.00  0.00    -0.376 OA
BRANCH   3   4
ATOM      4  C   UNL A   1      30.580  26.395  26.052  1.00  0.00     0.202 C 
BRANCH   4   5
ATOM      5  C   UNL A   1      30.345  25.169  26.885  1.00  0.00     0.261 C 
BRANCH   5   6
ATOM      6  O   UNL A   1      29.895  23.989  26.204  1.00  0.00    -0.457 OA
BRANCH   6   7
ATOM      7  C   UNL A   1      30.556  22.956  25.683  1.00  0.00     0.379 C 
ATOM      8  O   UNL A   1      30.287  21.837  26.121  1.00  0.00    -0.242 OA
BRANCH   7   9
ATOM      9  C   UNL A   1      31.645  23.033  24.576  1.00  0.00     0.272 C 
ATOM     10  O   UNL A   1      31.532  22.157  23.708  1.00  0.00    -0.281 OA
BRANCH   9  11
ATOM     11  C   UNL A   1      32.866  24.049  24.482  1.00  0.00     0.056 C 
ATOM     12  C   UNL A   1      32.690  24.908  23.385  1.00  0.00     0.026 C 
BRANCH  11  13
ATOM     13  C   UNL A   1      33.632  23.955  26.006  1.00  0.00     0.075 A 
ATOM     14  C   UNL A   1      34.298  25.131  26.183  1.00  0.00     0.030 A 
ATOM     15  N   UNL A   1      34.305  22.837  26.554  1.00  0.00    -0.248 NA
ATOM     16  C   UNL A   1      35.467  25.091  25.496  1.00  0.00     0.012 A 
ATOM     17  C   UNL A   1      35.646  22.638  26.274  1.00  0.00     0.071 A 
ATOM     18  C   UNL A   1      35.861  23.801  25.174  1.00  0.00     0.000 A 
ATOM     19  C   UNL A   1      36.587  21.078  26.123  1.00  0.00     0.029 A 
ATOM     20  C   UNL A   1      36.388  23.349  23.589  1.00  0.00     0.010 A 
ATOM     21  C   UNL A   1      37.401  20.566  24.567  1.00  0.00     0.002 A 
ATOM     22  C   UNL A   1      37.230  21.696  23.150  1.00  0.00     0.001 A 
ENDBRANCH  11  13
BRANCH  12  23
ATOM     23  C   UNL A   1      32.948  26.328  22.965  1.00  0.00     0.013 A 
ATOM     24  C   UNL A   1      33.939  27.247  23.435  1.00  0.00     0.143 A 
ATOM     25  C   UNL A   1      32.367  27.120  21.939  1.00  0.00     0.117 A 
ATOM     26  N   UNL A   1      33.767  28.529  23.019  1.00  0.00    -0.181 NA
ATOM     27  N   UNL A   1      32.571  28.508  22.354  1.00  0.00    -0.268 N 
BRANCH  27  28
ATOM     28  C   UNL A   1      31.372  29.660  22.658  1.00  0.00     0.181 C 
BRANCH  28  29
ATOM     29  C   UNL A   1      29.582  29.376  23.043  1.00  0.00    -0.008 A 
ATOM     30  C   UNL A   1      29.374  28.012  23.258  1.00  0.00     0.007 A 
ATOM     31  C   UNL A   1      28.277  30.571  23.147  1.00  0.00     0.046 A 
ATOM     32  C   UNL A   1      28.067  27.587  23.465  1.00  0.00     0.000 A 
ATOM     33  C   UNL A   1      27.019  29.894  23.404  1.00  0.00     0.021 A 
ATOM     34  Cl  UNL A   1      28.785  32.966  22.656  1.00  0.00    -0.084 Cl
ATOM     35  C   UNL A   1      26.960  28.472  23.506  1.00  0.00     0.002 A 
ENDBRANCH  28  29
ENDBRANCH  27  28
ENDBRANCH  12  23
ENDBRANCH   9  11
ENDBRANCH   7   9
ENDBRANCH   6   7
ENDBRANCH   5   6
ENDBRANCH   4   5
ENDBRANCH   3   4
ENDBRANCH   2   3
ENDBRANCH   1   2
BRANCH   1  36
ATOM     36  O   UNL A   1      33.556  30.359  26.813  1.00  0.00    -0.377 OA
BRANCH  36  37
ATOM     37  C   UNL A   1      33.515  31.597  27.481  1.00  0.00     0.188 C 
BRANCH  37  38
ATOM     38  C   UNL A   1      34.901  32.095  27.987  1.00  0.00     0.188 C 
BRANCH  38  39
ATOM     39  O   UNL A   1      35.033  33.404  28.491  1.00  0.00    -0.376 OA
BRANCH  39  40
ATOM     40  C   UNL A   1      34.169  33.829  29.529  1.00  0.00     0.202 C 
BRANCH  40  41
ATOM     41  C   UNL A   1      34.465  33.629  31.043  1.00  0.00     0.261 C 
BRANCH  41  42
ATOM     42  O   UNL A   1      35.138  32.432  31.495  1.00  0.00    -0.460 OA
BRANCH  42  43
ATOM     43  C   UNL A   1      36.213  32.566  32.313  1.00  0.00     0.338 C 
ATOM     44  O   UNL A   1      36.204  32.945  33.469  1.00  0.00    -0.246 OA
BRANCH  43  45
ATOM     45  C   UNL A   1      37.391  31.909  31.666  1.00  0.00     0.060 A 
ATOM     46  C   UNL A   1      38.251  31.101  32.437  1.00  0.00     0.016 A 
ATOM     47  C   UNL A   1      37.620  32.039  30.298  1.00  0.00     0.016 A 
ATOM     48  C   UNL A   1      39.323  30.421  31.847  1.00  0.00     0.010 A 
ATOM     49  C   UNL A   1      38.727  31.401  29.718  1.00  0.00     0.010 A 
ATOM     50  C   UNL A   1      39.594  30.599  30.487  1.00  0.00    -0.014 A 
BRANCH  50  51
ATOM     51  C   UNL A   1      40.849  30.075  29.881  1.00  0.00     0.031 A 
ATOM     52  C   UNL A   1      41.989  31.031  29.650  1.00  0.00     0.074 A 
ATOM     53  C   UNL A   1      40.971  28.786  29.510  1.00  0.00     0.049 A 
ATOM     54  N   UNL A   1      43.110  30.848  29.000  1.00  0.00    -0.248 NA
ATOM     55  C   UNL A   1      41.842  32.377  30.227  1.00  0.00     0.031 C 
ATOM     56  C   UNL A   1      39.969  27.746  29.727  1.00  0.00     0.029 A 
ATOM     57  N   UNL A   1      41.985  28.140  28.840  1.00  0.00    -0.354 N 
ATOM     58  C   UNL A   1      43.786  32.060  29.062  1.00  0.00     0.074 A 
ATOM     59  C   UNL A   1      42.949  32.974  29.810  1.00  0.00     0.031 C 
ATOM     60  C   UNL A   1      40.402  26.601  29.169  1.00  0.00     0.029 A 
ATOM     61  C   UNL A   1      41.685  26.840  28.509  1.00  0.00     0.049 A 
ATOM     62  H   UNL A   1      42.844  28.568  28.619  1.00  0.00     0.167 HD
ATOM     63  C   UNL A   1      44.991  32.381  28.536  1.00  0.00     0.037 A 
ATOM     64  C   UNL A   1      42.342  25.962  27.722  1.00  0.00     0.037 A 
ATOM     65  C   UNL A   1      45.822  31.467  27.796  1.00  0.00     0.049 A 
ATOM     66  C   UNL A   1      43.643  26.378  27.074  1.00  0.00     0.074 A 
ATOM     67  C   UNL A   1      47.080  31.689  27.264  1.00  0.00     0.029 A 
ATOM     68  N   UNL A   1      45.473  30.166  27.467  1.00  0.00    -0.354 N 
ATOM     69  N   UNL A   1      44.299  27.508  27.180  1.00  0.00    -0.248 NA
ATOM     70  C   UNL A   1      44.294  25.397  26.190  1.00  0.00     0.031 C 
ATOM     71  C   UNL A   1      47.454  30.557  26.537  1.00  0.00     0.029 A 
ATOM     72  C   UNL A   1      46.469  29.595  26.691  1.00  0.00     0.049 A 
ATOM     73  H   UNL A   1      44.643  29.715  27.744  1.00  0.00     0.167 HD
ATOM     74  C   UNL A   1      45.445  27.362  26.406  1.00  0.00     0.074 A 
ATOM     75  C   UNL A   1      45.413  26.024  25.860  1.00  0.00     0.031 C 
ATOM     76  C   UNL A   1      46.433  28.257  26.160  1.00  0.00     0.037 A 
BRANCH  63  77
ATOM     77  C   UNL A   1      45.487  33.789  28.692  1.00  0.00     0.064 A 
ATOM     78  C   UNL A   1      46.338  34.166  29.740  1.00  0.00     0.173 A 
ATOM     79  C   UNL A   1      45.188  34.749  27.712  1.00  0.00     0.173 A 
ATOM     80  F   UNL A   1      46.648  33.291  30.708  1.00  0.00    -0.203 F 
ATOM     81  C   UNL A   1      46.864  35.454  29.804  1.00  0.00     0.198 A 
ATOM     82  C   UNL A   1      45.744  36.024  27.760  1.00  0.00     0.198 A 
ATOM     83  F   UNL A   1      44.383  34.438  26.683  1.00  0.00    -0.203 F 
ATOM     84  F   UNL A   1      47.653  35.802  30.831  1.00  0.00    -0.200 F 
ATOM     85  C   UNL A   1      46.579  36.377  28.808  1.00  0.00     0.200 A 
ATOM     86  F   UNL A   1      45.483  36.904  26.784  1.00  0.00    -0.200 F 
ATOM     87  F   UNL A   1      47.110  37.605  28.857  1.00  0.00    -0.200 F 
ENDBRANCH  63  77
BRANCH  64  88
ATOM     88  C   UNL A   1      41.764  24.616  27.433  1.00  0.00     0.064 A 
ATOM     89  C   UNL A   1      40.618  24.470  26.636  1.00  0.00     0.173 A 
ATOM     90  C   UNL A   1      42.294  23.455  28.018  1.00  0.00     0.173 A 
ATOM     91  F   UNL A   1      40.053  25.549  26.073  1.00  0.00    -0.203 F 
ATOM     92  C   UNL A   1      40.000  23.231  26.477  1.00  0.00     0.198 A 
ATOM     93  C   UNL A   1      41.703  22.209  27.819  1.00  0.00     0.198 A 
ATOM     94  F   UNL A   1      43.386  23.529  28.793  1.00  0.00    -0.203 F 
ATOM     95  F   UNL A   1      38.855  23.141  25.786  1.00  0.00    -0.200 F 
ATOM     96  C   UNL A   1      40.544  22.100  27.065  1.00  0.00     0.200 A 
ATOM     97  F   UNL A   1      42.245  21.117  28.374  1.00  0.00    -0.200 F 
ATOM     98  F   UNL A   1      39.945  20.911  26.921  1.00  0.00    -0.200 F 
ENDBRANCH  64  88
BRANCH  76  99
ATOM     99  C   UNL A   1      47.577  27.818  25.290  1.00  0.00     0.064 A 
ATOM    100  C   UNL A   1      48.742  27.252  25.829  1.00  0.00     0.173 A 
ATOM    101  C   UNL A   1      47.485  27.913  23.892  1.00  0.00     0.173 A 
ATOM    102  F   UNL A   1      48.887  27.146  27.159  1.00  0.00    -0.203 F 
ATOM    103  C   UNL A   1      49.781  26.827  25.006  1.00  0.00     0.198 A 
ATOM    104  C   UNL A   1      48.508  27.447  23.070  1.00  0.00     0.198 A 
ATOM    105  F   UNL A   1      46.389  28.435  23.319  1.00  0.00    -0.203 F 
ATOM    106  F   UNL A   1      50.907  26.341  25.549  1.00  0.00    -0.200 F 
ATOM    107  C   UNL A   1      49.659  26.914  23.627  1.00  0.00     0.200 A 
ATOM    108  F   UNL A   1      48.376  27.511  21.737  1.00  0.00    -0.200 F 
ATOM    109  F   UNL A   1      50.654  26.490  22.836  1.00  0.00    -0.200 F 
ENDBRANCH  76  99
ENDBRANCH  50  51
ENDBRANCH  43  45
ENDBRANCH  42  43
ENDBRANCH  41  42
ENDBRANCH  40  41
ENDBRANCH  39  40
ENDBRANCH  38  39
ENDBRANCH  37  38
ENDBRANCH  36  37
ENDBRANCH   1  36
TORSDOF 25
ENDMDL
