MODEL 1
REMARK VINA RESULT:     -10.1      0.000      0.000
REMARK SMILES O=C(CCOc1cccc(/C=C2\CCn3c2nc2cc(Cl)ccc2c3=O)c1)OCCOCCOCCOCCOC(=O)c1ccc(-c2c3nc(c(-c4c(F)c(F)c(F)c(F)c4F)c4ccc([nH]4)c(-c4c(F)c(F)c(F)c(F)c4F)c4nc(c(-c5c(F)c(F)c(F)c(F)c5F)c5ccc2[nH]5)C=C4)C=C3)cc1
REMARK SMILES IDX 33 1 32 2 31 3 30 4 29 5 28 6 2 7 1 8 3 9 4 10 5 11 6 12
REMARK SMILES IDX 7 13 27 14 8 15 10 16 9 17 11 18 12 19 13 20 16 21 14 22
REMARK SMILES IDX 15 23 17 24 25 25 18 26 24 27 26 28 19 29 23 30 20 31 22 32
REMARK SMILES IDX 21 33 34 34 35 35 36 36 37 37 38 38 39 39 40 40 41 41 42 42
REMARK SMILES IDX 43 43 44 44 105 45 45 46 104 47 46 48 47 49 48 50 98 51
REMARK SMILES IDX 49 52 103 53 97 54 99 55 50 56 102 57 96 58 95 59 51 61
REMARK SMILES IDX 83 62 63 63 82 64 64 65 67 66 81 67 100 68 65 69 66 70 80 72
REMARK SMILES IDX 101 73 68 74 52 75 53 76 61 77 54 78 55 79 59 80 62 81 56 82
REMARK SMILES IDX 57 83 60 84 58 85 84 86 85 87 93 88 86 89 87 90 91 91 94 92
REMARK SMILES IDX 88 93 89 94 92 95 90 96 69 97 70 98 78 99 71 100 72 101
REMARK SMILES IDX 76 102 79 103 73 104 74 105 77 106 75 107
REMARK H PARENT 99 60 67 71
REMARK Flexibility Score: inf
ROOT
ATOM      1  C   UNL A   1      33.662  21.556  27.362  1.00  0.00     0.188 C 
ENDROOT
BRANCH   1   2
ATOM      2  C   UNL A   1      33.041  22.971  27.254  1.00  0.00     0.188 C 
BRANCH   2   3
ATOM      3  O   UNL A   1      31.675  23.256  27.578  1.00  0.00    -0.376 OA
BRANCH   3   4
ATOM      4  C   UNL A   1      30.698  23.269  26.552  1.00  0.00     0.202 C 
BRANCH   4   5
ATOM      5  C   UNL A   1      31.101  22.492  25.298  1.00  0.00     0.261 C 
BRANCH   5   6
ATOM      6  O   UNL A   1      31.426  23.328  24.171  1.00  0.00    -0.463 OA
BRANCH   6   7
ATOM      7  C   UNL A   1      32.514  23.138  23.395  1.00  0.00     0.309 C 
ATOM      8  O   UNL A   1      32.503  22.302  22.491  1.00  0.00    -0.252 OA
BRANCH   7   9
ATOM      9  C   UNL A   1      33.690  24.043  23.596  1.00  0.00     0.164 C 
BRANCH   9  10
ATOM     10  C   UNL A   1      33.257  25.430  24.047  1.00  0.00     0.241 C 
BRANCH  10  11
ATOM     11  O   UNL A   1      34.053  26.005  25.084  1.00  0.00    -0.493 OA
BRANCH  11  12
ATOM     12  C   UNL A   1      33.535  26.899  25.983  1.00  0.00     0.119 A 
ATOM     13  C   UNL A   1      32.197  26.642  26.284  1.00  0.00     0.046 A 
ATOM     14  C   UNL A   1      34.146  28.051  26.503  1.00  0.00     0.054 A 
ATOM     15  C   UNL A   1      31.470  27.525  27.069  1.00  0.00     0.004 A 
ATOM     16  C   UNL A   1      33.400  29.013  27.227  1.00  0.00    -0.022 A 
ATOM     17  C   UNL A   1      32.068  28.698  27.525  1.00  0.00     0.008 A 
BRANCH  16  18
ATOM     18  C   UNL A   1      33.971  30.388  27.382  1.00  0.00     0.015 C 
ATOM     19  C   UNL A   1      35.255  30.758  27.602  1.00  0.00    -0.003 C 
ATOM     20  C   UNL A   1      36.560  30.021  27.566  1.00  0.00     0.061 C 
ATOM     21  C   UNL A   1      35.374  31.610  28.827  1.00  0.00     0.139 A 
ATOM     22  C   UNL A   1      36.739  29.708  29.046  1.00  0.00     0.132 C 
ATOM     23  N   UNL A   1      36.087  30.813  29.713  1.00  0.00    -0.292 N 
ATOM     24  N   UNL A   1      34.889  32.763  29.120  1.00  0.00    -0.230 NA
ATOM     25  C   UNL A   1      35.891  30.919  31.060  1.00  0.00     0.261 A 
ATOM     26  C   UNL A   1      34.993  33.142  30.477  1.00  0.00     0.080 A 
ATOM     27  C   UNL A   1      35.288  32.202  31.471  1.00  0.00     0.066 A 
ATOM     28  O   UNL A   1      36.162  30.043  31.875  1.00  0.00    -0.269 OA
ATOM     29  C   UNL A   1      34.667  34.441  30.872  1.00  0.00     0.049 A 
ATOM     30  C   UNL A   1      35.075  32.487  32.815  1.00  0.00     0.017 A 
ATOM     31  C   UNL A   1      34.519  34.744  32.230  1.00  0.00     0.043 A 
ATOM     32  C   UNL A   1      34.668  33.757  33.200  1.00  0.00     0.021 A 
ATOM     33  Cl  UNL A   1      34.121  36.344  32.720  1.00  0.00    -0.084 Cl
ENDBRANCH  16  18
ENDBRANCH  11  12
ENDBRANCH  10  11
ENDBRANCH   9  10
ENDBRANCH   7   9
ENDBRANCH   6   7
ENDBRANCH   5   6
ENDBRANCH   4   5
ENDBRANCH   3   4
ENDBRANCH   2   3
ENDBRANCH   1   2
BRANCH   1  34
ATOM     34  O   UNL A   1      34.469  21.167  26.260  1.00  0.00    -0.377 OA
BRANCH  34  35
ATOM     35  C   UNL A   1      35.553  21.994  25.881  1.00  0.00     0.188 C 
BRANCH  35  36
ATOM     36  C   UNL A   1      36.424  21.533  24.705  1.00  0.00     0.188 C 
BRANCH  36  37
ATOM     37  O   UNL A   1      37.758  21.244  25.099  1.00  0.00    -0.376 OA
BRANCH  37  38
ATOM     38  C   UNL A   1      38.175  19.895  24.952  1.00  0.00     0.202 C 
BRANCH  38  39
ATOM     39  C   UNL A   1      39.469  19.564  25.706  1.00  0.00     0.261 C 
BRANCH  39  40
ATOM     40  O   UNL A   1      40.114  20.677  26.357  1.00  0.00    -0.460 OA
BRANCH  40  41
ATOM     41  C   UNL A   1      41.444  20.597  26.567  1.00  0.00     0.338 C 
ATOM     42  O   UNL A   1      42.170  19.645  26.311  1.00  0.00    -0.246 OA
BRANCH  41  43
ATOM     43  C   UNL A   1      41.939  21.920  27.002  1.00  0.00     0.060 A 
ATOM     44  C   UNL A   1      41.811  23.007  26.132  1.00  0.00     0.016 A 
ATOM     45  C   UNL A   1      42.519  22.094  28.262  1.00  0.00     0.016 A 
ATOM     46  C   UNL A   1      42.308  24.260  26.500  1.00  0.00     0.010 A 
ATOM     47  C   UNL A   1      42.997  23.355  28.639  1.00  0.00     0.010 A 
ATOM     48  C   UNL A   1      42.948  24.433  27.736  1.00  0.00    -0.014 A 
BRANCH  48  49
ATOM     49  C   UNL A   1      43.780  25.648  27.950  1.00  0.00     0.031 A 
ATOM     50  C   UNL A   1      43.192  26.769  28.772  1.00  0.00     0.074 A 
ATOM     51  C   UNL A   1      45.053  25.737  27.523  1.00  0.00     0.049 A 
ATOM     52  N   UNL A   1      43.744  27.883  29.183  1.00  0.00    -0.248 NA
ATOM     53  C   UNL A   1      41.791  26.605  29.194  1.00  0.00     0.031 C 
ATOM     54  C   UNL A   1      45.759  24.723  26.745  1.00  0.00     0.029 A 
ATOM     55  N   UNL A   1      45.985  26.733  27.695  1.00  0.00    -0.354 N 
ATOM     56  C   UNL A   1      42.768  28.532  29.927  1.00  0.00     0.074 A 
ATOM     57  C   UNL A   1      41.570  27.729  29.854  1.00  0.00     0.031 C 
ATOM     58  C   UNL A   1      47.011  25.150  26.501  1.00  0.00     0.029 A 
ATOM     59  C   UNL A   1      47.195  26.472  27.098  1.00  0.00     0.049 A 
ATOM     60  H   UNL A   1      45.803  27.559  28.201  1.00  0.00     0.167 HD
ATOM     61  C   UNL A   1      42.864  29.680  30.640  1.00  0.00     0.037 A 
ATOM     62  C   UNL A   1      48.318  27.214  27.041  1.00  0.00     0.037 A 
ATOM     63  C   UNL A   1      44.046  30.496  30.707  1.00  0.00     0.049 A 
ATOM     64  C   UNL A   1      48.377  28.531  27.777  1.00  0.00     0.074 A 
ATOM     65  C   UNL A   1      44.236  31.682  31.395  1.00  0.00     0.029 A 
ATOM     66  N   UNL A   1      45.235  30.215  30.053  1.00  0.00    -0.354 N 
ATOM     67  N   UNL A   1      47.462  29.112  28.516  1.00  0.00    -0.248 NA
ATOM     68  C   UNL A   1      49.638  29.285  27.691  1.00  0.00     0.031 C 
ATOM     69  C   UNL A   1      45.525  32.146  31.114  1.00  0.00     0.029 A 
ATOM     70  C   UNL A   1      46.159  31.218  30.304  1.00  0.00     0.049 A 
ATOM     71  H   UNL A   1      45.400  29.422  29.494  1.00  0.00     0.167 HD
ATOM     72  C   UNL A   1      48.045  30.277  29.005  1.00  0.00     0.074 A 
ATOM     73  C   UNL A   1      49.401  30.306  28.500  1.00  0.00     0.031 C 
ATOM     74  C   UNL A   1      47.507  31.238  29.797  1.00  0.00     0.037 A 
BRANCH  61  75
ATOM     75  C   UNL A   1      41.646  30.119  31.400  1.00  0.00     0.064 A 
ATOM     76  C   UNL A   1      41.396  29.673  32.707  1.00  0.00     0.173 A 
ATOM     77  C   UNL A   1      40.732  31.015  30.828  1.00  0.00     0.173 A 
ATOM     78  F   UNL A   1      42.229  28.800  33.294  1.00  0.00    -0.203 F 
ATOM     79  C   UNL A   1      40.263  30.087  33.402  1.00  0.00     0.198 A 
ATOM     80  C   UNL A   1      39.617  31.453  31.537  1.00  0.00     0.198 A 
ATOM     81  F   UNL A   1      40.923  31.473  29.581  1.00  0.00    -0.203 F 
ATOM     82  F   UNL A   1      40.018  29.606  34.629  1.00  0.00    -0.200 F 
ATOM     83  C   UNL A   1      39.380  30.983  32.820  1.00  0.00     0.200 A 
ATOM     84  F   UNL A   1      38.771  32.329  30.978  1.00  0.00    -0.200 F 
ATOM     85  F   UNL A   1      38.294  31.389  33.493  1.00  0.00    -0.200 F 
ENDBRANCH  61  75
BRANCH  62  86
ATOM     86  C   UNL A   1      49.492  26.740  26.254  1.00  0.00     0.064 A 
ATOM     87  C   UNL A   1      50.501  25.960  26.837  1.00  0.00     0.173 A 
ATOM     88  C   UNL A   1      49.651  27.104  24.908  1.00  0.00     0.173 A 
ATOM     89  F   UNL A   1      50.411  25.603  28.127  1.00  0.00    -0.203 F 
ATOM     90  C   UNL A   1      51.638  25.593  26.117  1.00  0.00     0.198 A 
ATOM     91  C   UNL A   1      50.772  26.707  24.180  1.00  0.00     0.198 A 
ATOM     92  F   UNL A   1      48.716  27.844  24.296  1.00  0.00    -0.203 F 
ATOM     93  F   UNL A   1      52.616  24.903  26.719  1.00  0.00    -0.200 F 
ATOM     94  C   UNL A   1      51.770  25.964  24.789  1.00  0.00     0.200 A 
ATOM     95  F   UNL A   1      50.882  27.050  22.889  1.00  0.00    -0.200 F 
ATOM     96  F   UNL A   1      52.862  25.611  24.096  1.00  0.00    -0.200 F 
ENDBRANCH  62  86
BRANCH  74  97
ATOM     97  C   UNL A   1      48.396  32.384  30.196  1.00  0.00     0.064 A 
ATOM     98  C   UNL A   1      49.166  32.351  31.368  1.00  0.00     0.173 A 
ATOM     99  C   UNL A   1      48.489  33.526  29.384  1.00  0.00     0.173 A 
ATOM    100  F   UNL A   1      49.108  31.288  32.184  1.00  0.00    -0.203 F 
ATOM    101  C   UNL A   1      49.959  33.435  31.736  1.00  0.00     0.198 A 
ATOM    102  C   UNL A   1      49.313  34.592  29.737  1.00  0.00     0.198 A 
ATOM    103  F   UNL A   1      47.786  33.608  28.245  1.00  0.00    -0.203 F 
ATOM    104  F   UNL A   1      50.631  33.407  32.895  1.00  0.00    -0.200 F 
ATOM    105  C   UNL A   1      50.037  34.552  30.918  1.00  0.00     0.200 A 
ATOM    106  F   UNL A   1      49.401  35.663  28.935  1.00  0.00    -0.200 F 
ATOM    107  F   UNL A   1      50.798  35.594  31.275  1.00  0.00    -0.200 F 
ENDBRANCH  74  97
ENDBRANCH  48  49
ENDBRANCH  41  43
ENDBRANCH  40  41
ENDBRANCH  39  40
ENDBRANCH  38  39
ENDBRANCH  37  38
ENDBRANCH  36  37
ENDBRANCH  35  36
ENDBRANCH  34  35
ENDBRANCH   1  34
TORSDOF 24
ENDMDL
MODEL 2
REMARK VINA RESULT:      -9.5      1.221      6.787
REMARK SMILES O=C(CCOc1cccc(/C=C2\CCn3c2nc2cc(Cl)ccc2c3=O)c1)OCCOCCOCCOCCOC(=O)c1ccc(-c2c3nc(c(-c4c(F)c(F)c(F)c(F)c4F)c4ccc([nH]4)c(-c4c(F)c(F)c(F)c(F)c4F)c4nc(c(-c5c(F)c(F)c(F)c(F)c5F)c5ccc2[nH]5)C=C4)C=C3)cc1
REMARK SMILES IDX 33 1 32 2 31 3 30 4 29 5 28 6 2 7 1 8 3 9 4 10 5 11 6 12
REMARK SMILES IDX 7 13 27 14 8 15 10 16 9 17 11 18 12 19 13 20 16 21 14 22
REMARK SMILES IDX 15 23 17 24 25 25 18 26 24 27 26 28 19 29 23 30 20 31 22 32
REMARK SMILES IDX 21 33 34 34 35 35 36 36 37 37 38 38 39 39 40 40 41 41 42 42
REMARK SMILES IDX 43 43 44 44 105 45 45 46 104 47 46 48 47 49 48 50 98 51
REMARK SMILES IDX 49 52 103 53 97 54 99 55 50 56 102 57 96 58 95 59 51 61
REMARK SMILES IDX 83 62 63 63 82 64 64 65 67 66 81 67 100 68 65 69 66 70 80 72
REMARK SMILES IDX 101 73 68 74 52 75 53 76 61 77 54 78 55 79 59 80 62 81 56 82
REMARK SMILES IDX 57 83 60 84 58 85 84 86 85 87 93 88 86 89 87 90 91 91 94 92
REMARK SMILES IDX 88 93 89 94 92 95 90 96 69 97 70 98 78 99 71 100 72 101
REMARK SMILES IDX 76 102 79 103 73 104 74 105 77 106 75 107
REMARK H PARENT 99 60 67 71
REMARK Flexibility Score: inf
ROOT
ATOM      1  C   UNL A   1      33.643  21.122  26.875  1.00  0.00     0.188 C 
ENDROOT
BRANCH   1   2
ATOM      2  C   UNL A   1      33.059  22.541  26.659  1.00  0.00     0.188 C 
BRANCH   2   3
ATOM      3  O   UNL A   1      31.654  22.804  26.547  1.00  0.00    -0.376 OA
BRANCH   3   4
ATOM      4  C   UNL A   1      31.000  22.605  25.307  1.00  0.00     0.202 C 
BRANCH   4   5
ATOM      5  C   UNL A   1      31.951  22.393  24.127  1.00  0.00     0.261 C 
BRANCH   5   6
ATOM      6  O   UNL A   1      31.990  23.496  23.202  1.00  0.00    -0.463 OA
BRANCH   6   7
ATOM      7  C   UNL A   1      33.113  23.893  22.567  1.00  0.00     0.309 C 
ATOM      8  O   UNL A   1      33.262  23.679  21.364  1.00  0.00    -0.252 OA
BRANCH   7   9
ATOM      9  C   UNL A   1      34.118  24.688  23.341  1.00  0.00     0.164 C 
BRANCH   9  10
ATOM     10  C   UNL A   1      33.520  25.246  24.624  1.00  0.00     0.241 C 
BRANCH  10  11
ATOM     11  O   UNL A   1      34.216  26.361  25.182  1.00  0.00    -0.493 OA
BRANCH  11  12
ATOM     12  C   UNL A   1      33.613  27.229  26.053  1.00  0.00     0.119 A 
ATOM     13  C   UNL A   1      32.295  26.873  26.338  1.00  0.00     0.046 A 
ATOM     14  C   UNL A   1      34.122  28.436  26.557  1.00  0.00     0.054 A 
ATOM     15  C   UNL A   1      31.487  27.711  27.092  1.00  0.00     0.004 A 
ATOM     16  C   UNL A   1      33.290  29.351  27.248  1.00  0.00    -0.022 A 
ATOM     17  C   UNL A   1      31.983  28.937  27.532  1.00  0.00     0.008 A 
BRANCH  16  18
ATOM     18  C   UNL A   1      33.748  30.769  27.382  1.00  0.00     0.015 C 
ATOM     19  C   UNL A   1      34.992  31.243  27.626  1.00  0.00    -0.003 C 
ATOM     20  C   UNL A   1      36.351  30.611  27.643  1.00  0.00     0.061 C 
ATOM     21  C   UNL A   1      35.011  32.132  28.831  1.00  0.00     0.139 A 
ATOM     22  C   UNL A   1      36.513  30.349  29.135  1.00  0.00     0.132 C 
ATOM     23  N   UNL A   1      35.758  31.415  29.756  1.00  0.00    -0.292 N 
ATOM     24  N   UNL A   1      34.430  33.250  29.082  1.00  0.00    -0.230 NA
ATOM     25  C   UNL A   1      35.517  31.536  31.094  1.00  0.00     0.261 A 
ATOM     26  C   UNL A   1      34.465  33.668  30.431  1.00  0.00     0.080 A 
ATOM     27  C   UNL A   1      34.806  32.778  31.456  1.00  0.00     0.066 A 
ATOM     28  O   UNL A   1      35.832  30.705  31.938  1.00  0.00    -0.269 OA
ATOM     29  C   UNL A   1      34.029  34.946  30.783  1.00  0.00     0.049 A 
ATOM     30  C   UNL A   1      34.533  33.078  32.785  1.00  0.00     0.017 A 
ATOM     31  C   UNL A   1      33.820  35.269  32.128  1.00  0.00     0.043 A 
ATOM     32  C   UNL A   1      34.018  34.321  33.127  1.00  0.00     0.021 A 
ATOM     33  Cl  UNL A   1      33.285  36.844  32.566  1.00  0.00    -0.084 Cl
ENDBRANCH  16  18
ENDBRANCH  11  12
ENDBRANCH  10  11
ENDBRANCH   9  10
ENDBRANCH   7   9
ENDBRANCH   6   7
ENDBRANCH   5   6
ENDBRANCH   4   5
ENDBRANCH   3   4
ENDBRANCH   2   3
ENDBRANCH   1   2
BRANCH   1  34
ATOM     34  O   UNL A   1      34.379  20.602  25.778  1.00  0.00    -0.377 OA
BRANCH  34  35
ATOM     35  C   UNL A   1      35.524  21.302  25.330  1.00  0.00     0.188 C 
BRANCH  35  36
ATOM     36  C   UNL A   1      36.645  20.488  24.672  1.00  0.00     0.188 C 
BRANCH  36  37
ATOM     37  O   UNL A   1      37.904  20.692  25.299  1.00  0.00    -0.376 OA
BRANCH  37  38
ATOM     38  C   UNL A   1      38.800  19.591  25.275  1.00  0.00     0.202 C 
BRANCH  38  39
ATOM     39  C   UNL A   1      40.041  19.786  26.156  1.00  0.00     0.261 C 
BRANCH  39  40
ATOM     40  O   UNL A   1      40.561  21.130  26.211  1.00  0.00    -0.460 OA
BRANCH  40  41
ATOM     41  C   UNL A   1      41.895  21.282  26.345  1.00  0.00     0.338 C 
ATOM     42  O   UNL A   1      42.763  20.523  25.935  1.00  0.00    -0.246 OA
BRANCH  41  43
ATOM     43  C   UNL A   1      42.167  22.614  26.923  1.00  0.00     0.060 A 
ATOM     44  C   UNL A   1      41.899  23.751  26.153  1.00  0.00     0.016 A 
ATOM     45  C   UNL A   1      42.678  22.748  28.218  1.00  0.00     0.016 A 
ATOM     46  C   UNL A   1      42.187  25.021  26.658  1.00  0.00     0.010 A 
ATOM     47  C   UNL A   1      42.945  24.023  28.732  1.00  0.00     0.010 A 
ATOM     48  C   UNL A   1      42.756  25.165  27.931  1.00  0.00    -0.014 A 
BRANCH  48  49
ATOM     49  C   UNL A   1      43.385  26.465  28.294  1.00  0.00     0.031 A 
ATOM     50  C   UNL A   1      44.776  26.742  27.780  1.00  0.00     0.074 A 
ATOM     51  C   UNL A   1      42.726  27.422  28.973  1.00  0.00     0.049 A 
ATOM     52  N   UNL A   1      45.500  27.829  27.872  1.00  0.00    -0.248 NA
ATOM     53  C   UNL A   1      45.437  25.644  27.055  1.00  0.00     0.031 C 
ATOM     54  C   UNL A   1      41.372  27.304  29.506  1.00  0.00     0.029 A 
ATOM     55  N   UNL A   1      43.113  28.694  29.324  1.00  0.00    -0.354 N 
ATOM     56  C   UNL A   1      46.683  27.550  27.198  1.00  0.00     0.074 A 
ATOM     57  C   UNL A   1      46.613  26.174  26.765  1.00  0.00     0.031 C 
ATOM     58  C   UNL A   1      41.041  28.453  30.121  1.00  0.00     0.029 A 
ATOM     59  C   UNL A   1      42.162  29.387  30.034  1.00  0.00     0.049 A 
ATOM     60  H   UNL A   1      43.991  29.074  29.088  1.00  0.00     0.167 HD
ATOM     61  C   UNL A   1      47.724  28.374  26.931  1.00  0.00     0.037 A 
ATOM     62  C   UNL A   1      42.195  30.630  30.554  1.00  0.00     0.037 A 
ATOM     63  C   UNL A   1      47.812  29.740  27.371  1.00  0.00     0.049 A 
ATOM     64  C   UNL A   1      43.402  31.505  30.312  1.00  0.00     0.074 A 
ATOM     65  C   UNL A   1      48.832  30.650  27.158  1.00  0.00     0.029 A 
ATOM     66  N   UNL A   1      46.845  30.389  28.123  1.00  0.00    -0.354 N 
ATOM     67  N   UNL A   1      44.495  31.245  29.633  1.00  0.00    -0.248 NA
ATOM     68  C   UNL A   1      43.370  32.857  30.889  1.00  0.00     0.031 C 
ATOM     69  C   UNL A   1      48.507  31.833  27.827  1.00  0.00     0.029 A 
ATOM     70  C   UNL A   1      47.256  31.683  28.402  1.00  0.00     0.049 A 
ATOM     71  H   UNL A   1      45.994  29.990  28.416  1.00  0.00     0.167 HD
ATOM     72  C   UNL A   1      45.260  32.407  29.677  1.00  0.00     0.074 A 
ATOM     73  C   UNL A   1      44.494  33.380  30.425  1.00  0.00     0.031 C 
ATOM     74  C   UNL A   1      46.486  32.645  29.148  1.00  0.00     0.037 A 
BRANCH  61  75
ATOM     75  C   UNL A   1      48.858  27.806  26.126  1.00  0.00     0.064 A 
ATOM     76  C   UNL A   1      50.058  27.403  26.731  1.00  0.00     0.173 A 
ATOM     77  C   UNL A   1      48.734  27.640  24.739  1.00  0.00     0.173 A 
ATOM     78  F   UNL A   1      50.236  27.559  28.052  1.00  0.00    -0.203 F 
ATOM     79  C   UNL A   1      51.102  26.879  25.974  1.00  0.00     0.198 A 
ATOM     80  C   UNL A   1      49.768  27.084  23.989  1.00  0.00     0.198 A 
ATOM     81  F   UNL A   1      47.608  28.009  24.110  1.00  0.00    -0.203 F 
ATOM     82  F   UNL A   1      52.258  26.549  26.566  1.00  0.00    -0.200 F 
ATOM     83  C   UNL A   1      50.952  26.711  24.606  1.00  0.00     0.200 A 
ATOM     84  F   UNL A   1      49.617  26.912  22.669  1.00  0.00    -0.200 F 
ATOM     85  F   UNL A   1      51.954  26.197  23.878  1.00  0.00    -0.200 F 
ENDBRANCH  61  75
BRANCH  62  86
ATOM     86  C   UNL A   1      41.051  31.137  31.363  1.00  0.00     0.064 A 
ATOM     87  C   UNL A   1      40.842  30.716  32.684  1.00  0.00     0.173 A 
ATOM     88  C   UNL A   1      40.112  32.020  30.809  1.00  0.00     0.173 A 
ATOM     89  F   UNL A   1      41.697  29.855  33.256  1.00  0.00    -0.203 F 
ATOM     90  C   UNL A   1      39.722  31.128  33.405  1.00  0.00     0.198 A 
ATOM     91  C   UNL A   1      39.011  32.458  31.543  1.00  0.00     0.198 A 
ATOM     92  F   UNL A   1      40.262  32.461  29.551  1.00  0.00    -0.203 F 
ATOM     93  F   UNL A   1      39.514  30.658  34.643  1.00  0.00    -0.200 F 
ATOM     94  C   UNL A   1      38.810  32.002  32.835  1.00  0.00     0.200 A 
ATOM     95  F   UNL A   1      38.145  33.320  30.993  1.00  0.00    -0.200 F 
ATOM     96  F   UNL A   1      37.733  32.399  33.528  1.00  0.00    -0.200 F 
ENDBRANCH  62  86
BRANCH  74  97
ATOM     97  C   UNL A   1      47.061  34.023  29.329  1.00  0.00     0.064 A 
ATOM     98  C   UNL A   1      47.869  34.349  30.430  1.00  0.00     0.173 A 
ATOM     99  C   UNL A   1      46.814  35.028  28.380  1.00  0.00     0.173 A 
ATOM    100  F   UNL A   1      48.130  33.431  31.371  1.00  0.00    -0.203 F 
ATOM    101  C   UNL A   1      48.367  35.640  30.596  1.00  0.00     0.198 A 
ATOM    102  C   UNL A   1      47.346  36.306  28.530  1.00  0.00     0.198 A 
ATOM    103  F   UNL A   1      46.060  34.769  27.300  1.00  0.00    -0.203 F 
ATOM    104  F   UNL A   1      49.077  35.944  31.691  1.00  0.00    -0.200 F 
ATOM    105  C   UNL A   1      48.111  36.615  29.645  1.00  0.00     0.200 A 
ATOM    106  F   UNL A   1      47.112  37.242  27.599  1.00  0.00    -0.200 F 
ATOM    107  F   UNL A   1      48.589  37.855  29.808  1.00  0.00    -0.200 F 
ENDBRANCH  74  97
ENDBRANCH  48  49
ENDBRANCH  41  43
ENDBRANCH  40  41
ENDBRANCH  39  40
ENDBRANCH  38  39
ENDBRANCH  37  38
ENDBRANCH  36  37
ENDBRANCH  35  36
ENDBRANCH  34  35
ENDBRANCH   1  34
TORSDOF 24
ENDMDL
MODEL 3
REMARK VINA RESULT:      -9.2      1.719      6.926
REMARK SMILES O=C(CCOc1cccc(/C=C2\CCn3c2nc2cc(Cl)ccc2c3=O)c1)OCCOCCOCCOCCOC(=O)c1ccc(-c2c3nc(c(-c4c(F)c(F)c(F)c(F)c4F)c4ccc([nH]4)c(-c4c(F)c(F)c(F)c(F)c4F)c4nc(c(-c5c(F)c(F)c(F)c(F)c5F)c5ccc2[nH]5)C=C4)C=C3)cc1
REMARK SMILES IDX 33 1 32 2 31 3 30 4 29 5 28 6 2 7 1 8 3 9 4 10 5 11 6 12
REMARK SMILES IDX 7 13 27 14 8 15 10 16 9 17 11 18 12 19 13 20 16 21 14 22
REMARK SMILES IDX 15 23 17 24 25 25 18 26 24 27 26 28 19 29 23 30 20 31 22 32
REMARK SMILES IDX 21 33 34 34 35 35 36 36 37 37 38 38 39 39 40 40 41 41 42 42
REMARK SMILES IDX 43 43 44 44 105 45 45 46 104 47 46 48 47 49 48 50 98 51
REMARK SMILES IDX 49 52 103 53 97 54 99 55 50 56 102 57 96 58 95 59 51 61
REMARK SMILES IDX 83 62 63 63 82 64 64 65 67 66 81 67 100 68 65 69 66 70 80 72
REMARK SMILES IDX 101 73 68 74 52 75 53 76 61 77 54 78 55 79 59 80 62 81 56 82
REMARK SMILES IDX 57 83 60 84 58 85 84 86 85 87 93 88 86 89 87 90 91 91 94 92
REMARK SMILES IDX 88 93 89 94 92 95 90 96 69 97 70 98 78 99 71 100 72 101
REMARK SMILES IDX 76 102 79 103 73 104 74 105 77 106 75 107
REMARK H PARENT 99 60 67 71
REMARK Flexibility Score: inf
ROOT
ATOM      1  C   UNL A   1      33.686  21.177  27.095  1.00  0.00     0.188 C 
ENDROOT
BRANCH   1   2
ATOM      2  C   UNL A   1      33.142  22.593  26.780  1.00  0.00     0.188 C 
BRANCH   2   3
ATOM      3  O   UNL A   1      31.744  22.892  26.672  1.00  0.00    -0.376 OA
BRANCH   3   4
ATOM      4  C   UNL A   1      31.081  22.709  25.434  1.00  0.00     0.202 C 
BRANCH   4   5
ATOM      5  C   UNL A   1      31.967  22.119  24.334  1.00  0.00     0.261 C 
BRANCH   5   6
ATOM      6  O   UNL A   1      32.051  22.934  23.150  1.00  0.00    -0.463 OA
BRANCH   6   7
ATOM      7  C   UNL A   1      33.209  23.441  22.679  1.00  0.00     0.309 C 
ATOM      8  O   UNL A   1      33.539  23.268  21.505  1.00  0.00    -0.252 OA
BRANCH   7   9
ATOM      9  C   UNL A   1      34.025  24.303  23.592  1.00  0.00     0.164 C 
BRANCH   9  10
ATOM     10  C   UNL A   1      33.209  25.461  24.143  1.00  0.00     0.241 C 
BRANCH  10  11
ATOM     11  O   UNL A   1      33.975  26.556  24.647  1.00  0.00    -0.493 OA
BRANCH  11  12
ATOM     12  C   UNL A   1      33.547  27.312  25.707  1.00  0.00     0.119 A 
ATOM     13  C   UNL A   1      32.299  26.911  26.182  1.00  0.00     0.046 A 
ATOM     14  C   UNL A   1      34.151  28.458  26.247  1.00  0.00     0.054 A 
ATOM     15  C   UNL A   1      31.648  27.648  27.160  1.00  0.00     0.004 A 
ATOM     16  C   UNL A   1      33.466  29.279  27.177  1.00  0.00    -0.022 A 
ATOM     17  C   UNL A   1      32.227  28.821  27.641  1.00  0.00     0.008 A 
BRANCH  16  18
ATOM     18  C   UNL A   1      33.955  30.677  27.388  1.00  0.00     0.015 C 
ATOM     19  C   UNL A   1      35.210  31.110  27.655  1.00  0.00    -0.003 C 
ATOM     20  C   UNL A   1      36.554  30.448  27.635  1.00  0.00     0.061 C 
ATOM     21  C   UNL A   1      35.249  31.930  28.908  1.00  0.00     0.139 A 
ATOM     22  C   UNL A   1      36.711  30.100  29.110  1.00  0.00     0.132 C 
ATOM     23  N   UNL A   1      35.981  31.146  29.790  1.00  0.00    -0.292 N 
ATOM     24  N   UNL A   1      34.692  33.045  29.221  1.00  0.00    -0.230 NA
ATOM     25  C   UNL A   1      35.743  31.199  31.134  1.00  0.00     0.261 A 
ATOM     26  C   UNL A   1      34.737  33.386  30.591  1.00  0.00     0.080 A 
ATOM     27  C   UNL A   1      35.059  32.434  31.565  1.00  0.00     0.066 A 
ATOM     28  O   UNL A   1      36.041  30.315  31.930  1.00  0.00    -0.269 OA
ATOM     29  C   UNL A   1      34.329  34.652  31.015  1.00  0.00     0.049 A 
ATOM     30  C   UNL A   1      34.794  32.665  32.910  1.00  0.00     0.017 A 
ATOM     31  C   UNL A   1      34.128  34.904  32.376  1.00  0.00     0.043 A 
ATOM     32  C   UNL A   1      34.306  33.898  33.321  1.00  0.00     0.021 A 
ATOM     33  Cl  UNL A   1      33.628  36.464  32.901  1.00  0.00    -0.084 Cl
ENDBRANCH  16  18
ENDBRANCH  11  12
ENDBRANCH  10  11
ENDBRANCH   9  10
ENDBRANCH   7   9
ENDBRANCH   6   7
ENDBRANCH   5   6
ENDBRANCH   4   5
ENDBRANCH   3   4
ENDBRANCH   2   3
ENDBRANCH   1   2
BRANCH   1  34
ATOM     34  O   UNL A   1      34.594  20.654  26.136  1.00  0.00    -0.377 OA
BRANCH  34  35
ATOM     35  C   UNL A   1      35.572  21.513  25.582  1.00  0.00     0.188 C 
BRANCH  35  36
ATOM     36  C   UNL A   1      36.856  20.874  25.038  1.00  0.00     0.188 C 
BRANCH  36  37
ATOM     37  O   UNL A   1      38.027  21.523  25.513  1.00  0.00    -0.376 OA
BRANCH  37  38
ATOM     38  C   UNL A   1      39.196  20.721  25.595  1.00  0.00     0.202 C 
BRANCH  38  39
ATOM     39  C   UNL A   1      40.326  21.360  26.414  1.00  0.00     0.261 C 
BRANCH  39  40
ATOM     40  O   UNL A   1      40.728  22.680  25.997  1.00  0.00    -0.460 OA
BRANCH  40  41
ATOM     41  C   UNL A   1      42.049  22.947  25.945  1.00  0.00     0.338 C 
ATOM     42  O   UNL A   1      42.895  22.334  25.308  1.00  0.00    -0.246 OA
BRANCH  41  43
ATOM     43  C   UNL A   1      42.307  24.220  26.650  1.00  0.00     0.060 A 
ATOM     44  C   UNL A   1      42.692  25.338  25.903  1.00  0.00     0.016 A 
ATOM     45  C   UNL A   1      42.165  24.318  28.038  1.00  0.00     0.016 A 
ATOM     46  C   UNL A   1      42.983  26.543  26.548  1.00  0.00     0.010 A 
ATOM     47  C   UNL A   1      42.436  25.531  28.681  1.00  0.00     0.010 A 
ATOM     48  C   UNL A   1      42.904  26.636  27.944  1.00  0.00    -0.014 A 
BRANCH  48  49
ATOM     49  C   UNL A   1      43.560  27.786  28.626  1.00  0.00     0.031 A 
ATOM     50  C   UNL A   1      45.067  27.810  28.672  1.00  0.00     0.074 A 
ATOM     51  C   UNL A   1      42.865  28.832  29.109  1.00  0.00     0.049 A 
ATOM     52  N   UNL A   1      45.876  28.740  29.117  1.00  0.00    -0.248 NA
ATOM     53  C   UNL A   1      45.758  26.625  28.135  1.00  0.00     0.031 C 
ATOM     54  C   UNL A   1      41.411  28.957  29.107  1.00  0.00     0.029 A 
ATOM     55  N   UNL A   1      43.299  30.000  29.689  1.00  0.00    -0.354 N 
ATOM     56  C   UNL A   1      47.160  28.261  28.889  1.00  0.00     0.074 A 
ATOM     57  C   UNL A   1      47.028  26.933  28.336  1.00  0.00     0.031 C 
ATOM     58  C   UNL A   1      41.070  30.132  29.665  1.00  0.00     0.029 A 
ATOM     59  C   UNL A   1      42.282  30.842  30.072  1.00  0.00     0.049 A 
ATOM     60  H   UNL A   1      44.252  30.215  29.819  1.00  0.00     0.167 HD
ATOM     61  C   UNL A   1      48.347  28.881  29.090  1.00  0.00     0.037 A 
ATOM     62  C   UNL A   1      42.326  32.044  30.680  1.00  0.00     0.037 A 
ATOM     63  C   UNL A   1      48.491  30.195  29.655  1.00  0.00     0.049 A 
ATOM     64  C   UNL A   1      43.663  32.682  30.968  1.00  0.00     0.074 A 
ATOM     65  C   UNL A   1      49.653  30.903  29.906  1.00  0.00     0.029 A 
ATOM     66  N   UNL A   1      47.436  30.995  30.067  1.00  0.00    -0.354 N 
ATOM     67  N   UNL A   1      44.870  32.239  30.706  1.00  0.00    -0.248 NA
ATOM     68  C   UNL A   1      43.644  34.003  31.616  1.00  0.00     0.031 C 
ATOM     69  C   UNL A   1      49.304  32.110  30.519  1.00  0.00     0.029 A 
ATOM     70  C   UNL A   1      47.923  32.182  30.591  1.00  0.00     0.049 A 
ATOM     71  H   UNL A   1      46.484  30.756  29.998  1.00  0.00     0.167 HD
ATOM     72  C   UNL A   1      45.746  33.236  31.126  1.00  0.00     0.074 A 
ATOM     73  C   UNL A   1      44.931  34.317  31.636  1.00  0.00     0.031 C 
ATOM     74  C   UNL A   1      47.102  33.253  31.096  1.00  0.00     0.037 A 
BRANCH  61  75
ATOM     75  C   UNL A   1      49.587  28.131  28.696  1.00  0.00     0.064 A 
ATOM     76  C   UNL A   1      50.175  28.297  27.433  1.00  0.00     0.173 A 
ATOM     77  C   UNL A   1      50.209  27.257  29.599  1.00  0.00     0.173 A 
ATOM     78  F   UNL A   1      49.609  29.107  26.524  1.00  0.00    -0.203 F 
ATOM     79  C   UNL A   1      51.325  27.596  27.079  1.00  0.00     0.198 A 
ATOM     80  C   UNL A   1      51.377  26.582  29.254  1.00  0.00     0.198 A 
ATOM     81  F   UNL A   1      49.688  27.061  30.820  1.00  0.00    -0.203 F 
ATOM     82  F   UNL A   1      51.838  27.732  25.848  1.00  0.00    -0.200 F 
ATOM     83  C   UNL A   1      51.929  26.747  27.993  1.00  0.00     0.200 A 
ATOM     84  F   UNL A   1      51.967  25.771  30.142  1.00  0.00    -0.200 F 
ATOM     85  F   UNL A   1      53.042  26.079  27.655  1.00  0.00    -0.200 F 
ENDBRANCH  61  75
BRANCH  62  86
ATOM     86  C   UNL A   1      41.065  32.736  31.068  1.00  0.00     0.064 A 
ATOM     87  C   UNL A   1      40.321  32.335  32.187  1.00  0.00     0.173 A 
ATOM     88  C   UNL A   1      40.551  33.787  30.293  1.00  0.00     0.173 A 
ATOM     89  F   UNL A   1      40.753  31.321  32.951  1.00  0.00    -0.203 F 
ATOM     90  C   UNL A   1      39.098  32.931  32.493  1.00  0.00     0.198 A 
ATOM     91  C   UNL A   1      39.346  34.406  30.620  1.00  0.00     0.198 A 
ATOM     92  F   UNL A   1      41.222  34.217  29.214  1.00  0.00    -0.203 F 
ATOM     93  F   UNL A   1      38.377  32.484  33.531  1.00  0.00    -0.200 F 
ATOM     94  C   UNL A   1      38.614  33.968  31.712  1.00  0.00     0.200 A 
ATOM     95  F   UNL A   1      38.895  35.422  29.873  1.00  0.00    -0.200 F 
ATOM     96  F   UNL A   1      37.439  34.543  32.006  1.00  0.00    -0.200 F 
ENDBRANCH  62  86
BRANCH  74  97
ATOM     97  C   UNL A   1      47.789  34.494  31.597  1.00  0.00     0.064 A 
ATOM     98  C   UNL A   1      48.058  34.692  32.960  1.00  0.00     0.173 A 
ATOM     99  C   UNL A   1      48.198  35.492  30.698  1.00  0.00     0.173 A 
ATOM    100  F   UNL A   1      47.682  33.775  33.863  1.00  0.00    -0.203 F 
ATOM    101  C   UNL A   1      48.668  35.862  33.408  1.00  0.00     0.198 A 
ATOM    102  C   UNL A   1      48.842  36.643  31.146  1.00  0.00     0.198 A 
ATOM    103  F   UNL A   1      47.979  35.351  29.382  1.00  0.00    -0.203 F 
ATOM    104  F   UNL A   1      48.851  36.058  34.721  1.00  0.00    -0.200 F 
ATOM    105  C   UNL A   1      49.064  36.833  32.502  1.00  0.00     0.200 A 
ATOM    106  F   UNL A   1      49.240  37.572  30.266  1.00  0.00    -0.200 F 
ATOM    107  F   UNL A   1      49.648  37.958  32.934  1.00  0.00    -0.200 F 
ENDBRANCH  74  97
ENDBRANCH  48  49
ENDBRANCH  41  43
ENDBRANCH  40  41
ENDBRANCH  39  40
ENDBRANCH  38  39
ENDBRANCH  37  38
ENDBRANCH  36  37
ENDBRANCH  35  36
ENDBRANCH  34  35
ENDBRANCH   1  34
TORSDOF 24
ENDMDL
