MODEL 1
REMARK VINA RESULT:     -14.1      0.000      0.000
REMARK SMILES Cc1ccccc1NC(=O)c1ccccc1NC(=O)CCC(=O)OCCOCCOCCOCCOC(=O)c1ccc(-c2c3nc(c(-c4c(F)c(F)c(F)c(F)c4F)c4ccc([nH]4)c(-c4c(F)c(F)c(F)c(F)c4F)c4nc(c(-c5c(F)c(F)c(F)c(F)c5F)c5ccc2[nH]5)C=C4)C=C3)cc1
REMARK SMILES IDX 28 1 27 2 26 3 25 4 24 5 22 6 23 7 21 8 20 9 18 10 17 11
REMARK SMILES IDX 19 13 16 14 11 15 12 16 13 17 15 18 14 19 9 20 8 21 10 23
REMARK SMILES IDX 7 24 1 25 2 26 3 27 4 28 6 29 5 30 29 31 30 32 31 33 32 34
REMARK SMILES IDX 33 35 34 36 35 37 36 38 37 39 38 40 39 41 40 42 101 43 41 44
REMARK SMILES IDX 100 45 42 46 43 47 44 48 94 49 45 50 99 51 93 52 95 53 46 54
REMARK SMILES IDX 98 55 92 56 91 57 47 59 79 60 59 61 78 62 60 63 63 64 77 65
REMARK SMILES IDX 96 66 61 67 62 68 76 70 97 71 64 72 48 73 49 74 57 75 50 76
REMARK SMILES IDX 51 77 55 78 58 79 52 80 53 81 56 82 54 83 80 84 81 85 89 86
REMARK SMILES IDX 82 87 83 88 87 89 90 90 84 91 85 92 88 93 86 94 65 95 66 96
REMARK SMILES IDX 74 97 67 98 68 99 72 100 75 101 69 102 70 103 73 104 71 105
REMARK H PARENT 17 12 8 22 95 58 63 69
REMARK Flexibility Score: inf
ROOT
ATOM      1  C   UNL A   1      35.057  23.969  24.647  1.00  0.00     0.188 C 
ENDROOT
BRANCH   1   2
ATOM      2  O   UNL A   1      36.943  23.298  24.961  1.00  0.00    -0.376 OA
BRANCH   2   3
ATOM      3  C   UNL A   1      38.127  21.864  25.451  1.00  0.00     0.202 C 
BRANCH   3   4
ATOM      4  C   UNL A   1      39.517  22.264  26.830  1.00  0.00     0.261 C 
BRANCH   4   5
ATOM      5  O   UNL A   1      40.945  21.004  27.003  1.00  0.00    -0.463 OA
BRANCH   5   6
ATOM      6  C   UNL A   1      42.108  20.255  26.034  1.00  0.00     0.306 C 
ATOM      7  O   UNL A   1      42.011  19.030  25.860  1.00  0.00    -0.252 OA
BRANCH   6   8
ATOM      8  C   UNL A   1      43.647  21.057  25.333  1.00  0.00     0.132 C 
BRANCH   8   9
ATOM      9  C   UNL A   1      45.243  21.752  25.604  1.00  0.00     0.112 C 
BRANCH   9  10
ATOM     10  C   UNL A   1      46.248  23.059  25.241  1.00  0.00     0.224 C 
ATOM     11  N   UNL A   1      46.697  24.104  26.054  1.00  0.00    -0.325 N 
ATOM     12  H   UNL A   1      47.357  24.704  25.636  1.00  0.00     0.169 HD
ATOM     13  O   UNL A   1      46.680  23.139  24.078  1.00  0.00    -0.275 OA
BRANCH  11  14
ATOM     14  C   UNL A   1      46.342  24.437  27.410  1.00  0.00     0.054 A 
ATOM     15  C   UNL A   1      44.883  24.331  28.612  1.00  0.00     0.063 A 
ATOM     16  C   UNL A   1      45.305  24.994  30.174  1.00  0.00     0.016 A 
ATOM     17  C   UNL A   1      46.873  25.938  30.461  1.00  0.00     0.001 A 
ATOM     18  C   UNL A   1      47.828  25.422  27.808  1.00  0.00     0.027 A 
ATOM     19  C   UNL A   1      48.044  26.219  29.277  1.00  0.00     0.002 A 
BRANCH  15  20
ATOM     20  C   UNL A   1      42.919  24.355  28.541  1.00  0.00     0.257 C 
ATOM     21  N   UNL A   1      41.950  25.847  28.466  1.00  0.00    -0.322 N 
ATOM     22  H   UNL A   1      40.969  25.762  28.495  1.00  0.00     0.170 HD
ATOM     23  O   UNL A   1      42.222  23.332  28.549  1.00  0.00    -0.269 OA
BRANCH  21  24
ATOM     24  C   UNL A   1      42.635  27.476  28.342  1.00  0.00     0.044 A 
ATOM     25  C   UNL A   1      41.365  28.778  26.052  1.00  0.00     0.046 C 
ATOM     26  C   UNL A   1      42.565  28.587  26.921  1.00  0.00    -0.027 A 
ATOM     27  C   UNL A   1      43.517  30.130  27.014  1.00  0.00     0.005 A 
ATOM     28  C   UNL A   1      44.501  30.629  28.437  1.00  0.00     0.000 A 
ATOM     29  C   UNL A   1      43.722  28.219  29.927  1.00  0.00     0.026 A 
ATOM     30  C   UNL A   1      44.604  29.708  29.873  1.00  0.00     0.002 A 
ENDBRANCH  21  24
ENDBRANCH  15  20
ENDBRANCH  11  14
ENDBRANCH   9  10
ENDBRANCH   8   9
ENDBRANCH   6   8
ENDBRANCH   5   6
ENDBRANCH   4   5
ENDBRANCH   3   4
ENDBRANCH   2   3
ENDBRANCH   1   2
BRANCH   1  31
ATOM     31  C   UNL A   1      34.253  25.272  24.228  1.00  0.00     0.188 C 
BRANCH  31  32
ATOM     32  O   UNL A   1      32.954  25.323  24.779  1.00  0.00    -0.377 OA
BRANCH  32  33
ATOM     33  C   UNL A   1      32.485  26.645  25.062  1.00  0.00     0.188 C 
BRANCH  33  34
ATOM     34  C   UNL A   1      33.231  27.448  26.189  1.00  0.00     0.188 C 
BRANCH  34  35
ATOM     35  O   UNL A   1      34.064  28.468  25.771  1.00  0.00    -0.376 OA
BRANCH  35  36
ATOM     36  C   UNL A   1      33.626  29.527  26.604  1.00  0.00     0.202 C 
BRANCH  36  37
ATOM     37  C   UNL A   1      34.796  30.219  27.622  1.00  0.00     0.261 C 
BRANCH  37  38
ATOM     38  O   UNL A   1      35.740  29.233  28.659  1.00  0.00    -0.460 OA
BRANCH  38  39
ATOM     39  C   UNL A   1      36.783  29.549  29.655  1.00  0.00     0.338 C 
ATOM     40  O   UNL A   1      36.569  29.283  30.837  1.00  0.00    -0.246 OA
BRANCH  39  41
ATOM     41  C   UNL A   1      38.151  30.575  29.298  1.00  0.00     0.060 A 
ATOM     42  C   UNL A   1      39.453  30.132  28.872  1.00  0.00     0.016 A 
ATOM     43  C   UNL A   1      38.356  31.823  29.870  1.00  0.00     0.016 A 
ATOM     44  C   UNL A   1      40.838  30.687  29.444  1.00  0.00     0.010 A 
ATOM     45  C   UNL A   1      39.727  32.335  30.399  1.00  0.00     0.010 A 
ATOM     46  C   UNL A   1      40.991  31.597  30.581  1.00  0.00    -0.014 A 
BRANCH  46  47
ATOM     47  C   UNL A   1      42.140  31.695  32.160  1.00  0.00     0.031 A 
ATOM     48  C   UNL A   1      41.382  30.300  32.768  1.00  0.00     0.074 A 
ATOM     49  C   UNL A   1      43.104  32.913  33.114  1.00  0.00     0.049 A 
ATOM     50  N   UNL A   1      40.694  30.235  33.892  1.00  0.00    -0.248 NA
ATOM     51  C   UNL A   1      41.015  29.084  32.002  1.00  0.00     0.031 C 
ATOM     52  C   UNL A   1      43.585  33.345  34.776  1.00  0.00     0.029 A 
ATOM     53  N   UNL A   1      43.438  34.464  33.024  1.00  0.00    -0.354 N 
ATOM     54  C   UNL A   1      40.739  28.917  34.200  1.00  0.00     0.074 A 
ATOM     55  C   UNL A   1      40.433  28.337  32.946  1.00  0.00     0.031 C 
ATOM     56  C   UNL A   1      44.012  34.583  35.107  1.00  0.00     0.029 A 
ATOM     57  C   UNL A   1      43.714  35.425  34.009  1.00  0.00     0.049 A 
ATOM     58  H   UNL A   1      43.453  34.817  32.106  1.00  0.00     0.167 HD
ATOM     59  C   UNL A   1      41.532  28.519  35.237  1.00  0.00     0.037 A 
ATOM     60  C   UNL A   1      43.464  36.774  34.028  1.00  0.00     0.037 A 
ATOM     61  C   UNL A   1      41.911  29.672  36.168  1.00  0.00     0.049 A 
ATOM     62  C   UNL A   1      42.097  36.300  35.097  1.00  0.00     0.074 A 
ATOM     63  C   UNL A   1      43.066  30.047  36.844  1.00  0.00     0.029 A 
ATOM     64  N   UNL A   1      41.076  30.841  36.281  1.00  0.00    -0.354 N 
ATOM     65  N   UNL A   1      41.550  35.054  35.185  1.00  0.00    -0.248 NA
ATOM     66  C   UNL A   1      41.863  36.910  36.425  1.00  0.00     0.031 C 
ATOM     67  C   UNL A   1      42.934  31.418  37.297  1.00  0.00     0.029 A 
ATOM     68  C   UNL A   1      41.738  31.990  36.814  1.00  0.00     0.049 A 
ATOM     69  H   UNL A   1      40.129  30.847  36.014  1.00  0.00     0.167 HD
ATOM     70  C   UNL A   1      41.216  34.616  36.514  1.00  0.00     0.074 A 
ATOM     71  C   UNL A   1      41.342  35.913  37.196  1.00  0.00     0.031 C 
ATOM     72  C   UNL A   1      41.016  33.311  37.119  1.00  0.00     0.037 A 
BRANCH  59  73
ATOM     73  C   UNL A   1      42.135  27.084  35.204  1.00  0.00     0.064 A 
ATOM     74  C   UNL A   1      41.596  26.079  36.021  1.00  0.00     0.173 A 
ATOM     75  C   UNL A   1      43.219  26.610  34.391  1.00  0.00     0.173 A 
ATOM     76  F   UNL A   1      40.617  26.352  36.892  1.00  0.00    -0.203 F 
ATOM     77  C   UNL A   1      42.023  24.739  35.967  1.00  0.00     0.198 A 
ATOM     78  C   UNL A   1      43.594  25.266  34.287  1.00  0.00     0.198 A 
ATOM     79  F   UNL A   1      44.031  27.399  33.682  1.00  0.00    -0.203 F 
ATOM     80  F   UNL A   1      41.471  23.836  36.789  1.00  0.00    -0.200 F 
ATOM     81  C   UNL A   1      42.989  24.324  35.072  1.00  0.00     0.200 A 
ATOM     82  F   UNL A   1      44.556  24.909  33.419  1.00  0.00    -0.200 F 
ATOM     83  F   UNL A   1      43.342  23.036  34.976  1.00  0.00    -0.200 F 
ENDBRANCH  59  73
BRANCH  60  84
ATOM     84  C   UNL A   1      43.799  37.611  32.460  1.00  0.00     0.064 A 
ATOM     85  C   UNL A   1      44.355  37.351  30.778  1.00  0.00     0.173 A 
ATOM     86  C   UNL A   1      43.372  39.168  32.566  1.00  0.00     0.173 A 
ATOM     87  F   UNL A   1      44.510  36.030  30.553  1.00  0.00    -0.203 F 
ATOM     88  C   UNL A   1      44.581  38.888  29.405  1.00  0.00     0.198 A 
ATOM     89  C   UNL A   1      43.430  40.624  31.265  1.00  0.00     0.198 A 
ATOM     90  F   UNL A   1      43.781  39.318  33.852  1.00  0.00    -0.203 F 
ATOM     91  F   UNL A   1      45.043  38.919  28.126  1.00  0.00    -0.200 F 
ATOM     92  C   UNL A   1      44.088  40.479  29.771  1.00  0.00     0.200 A 
ATOM     93  F   UNL A   1      43.217  41.949  31.503  1.00  0.00    -0.200 F 
ATOM     94  F   UNL A   1      44.332  41.540  28.992  1.00  0.00    -0.200 F 
ENDBRANCH  60  84
BRANCH  72  95
ATOM     95  C   UNL A   1      40.061  33.046  38.325  1.00  0.00     0.064 A 
ATOM     96  C   UNL A   1      40.460  33.158  39.654  1.00  0.00     0.173 A 
ATOM     97  C   UNL A   1      38.637  32.863  38.162  1.00  0.00     0.173 A 
ATOM     98  F   UNL A   1      41.722  33.467  39.976  1.00  0.00    -0.203 F 
ATOM     99  C   UNL A   1      39.556  32.996  40.715  1.00  0.00     0.198 A 
ATOM    100  C   UNL A   1      37.733  32.818  39.213  1.00  0.00     0.198 A 
ATOM    101  F   UNL A   1      38.027  32.721  36.981  1.00  0.00    -0.203 F 
ATOM    102  F   UNL A   1      40.017  33.010  41.971  1.00  0.00    -0.200 F 
ATOM    103  C   UNL A   1      38.197  32.840  40.497  1.00  0.00     0.200 A 
ATOM    104  F   UNL A   1      36.417  32.750  38.956  1.00  0.00    -0.200 F 
ATOM    105  F   UNL A   1      37.343  32.711  41.518  1.00  0.00    -0.200 F 
ENDBRANCH  72  95
ENDBRANCH  46  47
ENDBRANCH  39  41
ENDBRANCH  38  39
ENDBRANCH  37  38
ENDBRANCH  36  37
ENDBRANCH  35  36
ENDBRANCH  34  35
ENDBRANCH  33  34
ENDBRANCH  32  33
ENDBRANCH  31  32
ENDBRANCH   1  31
TORSDOF 25
ENDMDL
MODEL 2
REMARK VINA RESULT:     -13.3      5.086     10.582
REMARK SMILES Cc1ccccc1NC(=O)c1ccccc1NC(=O)CCC(=O)OCCOCCOCCOCCOC(=O)c1ccc(-c2c3nc(c(-c4c(F)c(F)c(F)c(F)c4F)c4ccc([nH]4)c(-c4c(F)c(F)c(F)c(F)c4F)c4nc(c(-c5c(F)c(F)c(F)c(F)c5F)c5ccc2[nH]5)C=C4)C=C3)cc1
REMARK SMILES IDX 28 1 27 2 26 3 25 4 24 5 22 6 23 7 21 8 20 9 18 10 17 11
REMARK SMILES IDX 19 13 16 14 11 15 12 16 13 17 15 18 14 19 9 20 8 21 10 23
REMARK SMILES IDX 7 24 1 25 2 26 3 27 4 28 6 29 5 30 29 31 30 32 31 33 32 34
REMARK SMILES IDX 33 35 34 36 35 37 36 38 37 39 38 40 39 41 40 42 101 43 41 44
REMARK SMILES IDX 100 45 42 46 43 47 44 48 94 49 45 50 99 51 93 52 95 53 46 54
REMARK SMILES IDX 98 55 92 56 91 57 47 59 79 60 59 61 78 62 60 63 63 64 77 65
REMARK SMILES IDX 96 66 61 67 62 68 76 70 97 71 64 72 48 73 49 74 57 75 50 76
REMARK SMILES IDX 51 77 55 78 58 79 52 80 53 81 56 82 54 83 80 84 81 85 89 86
REMARK SMILES IDX 82 87 83 88 87 89 90 90 84 91 85 92 88 93 86 94 65 95 66 96
REMARK SMILES IDX 74 97 67 98 68 99 72 100 75 101 69 102 70 103 73 104 71 105
REMARK H PARENT 17 12 8 22 95 58 63 69
REMARK Flexibility Score: inf
ROOT
ATOM      1  C   UNL A   1      44.549  26.535  29.962  1.00  0.00     0.188 C 
ENDROOT
BRANCH   1   2
ATOM      2  O   UNL A   1      44.069  24.686  30.636  1.00  0.00    -0.376 OA
BRANCH   2   3
ATOM      3  C   UNL A   1      43.920  23.449  32.101  1.00  0.00     0.202 C 
BRANCH   3   4
ATOM      4  C   UNL A   1      43.820  24.223  33.940  1.00  0.00     0.261 C 
BRANCH   4   5
ATOM      5  O   UNL A   1      45.465  24.370  34.903  1.00  0.00    -0.463 OA
BRANCH   5   6
ATOM      6  C   UNL A   1      47.020  23.709  34.879  1.00  0.00     0.306 C 
ATOM      7  O   UNL A   1      47.977  24.492  34.778  1.00  0.00    -0.252 OA
BRANCH   6   8
ATOM      8  C   UNL A   1      47.446  21.888  34.810  1.00  0.00     0.132 C 
BRANCH   8   9
ATOM      9  C   UNL A   1      46.937  20.212  34.999  1.00  0.00     0.112 C 
BRANCH   9  10
ATOM     10  C   UNL A   1      46.007  19.160  35.937  1.00  0.00     0.224 C 
ATOM     11  N   UNL A   1      46.197  18.715  37.249  1.00  0.00    -0.325 N 
ATOM     12  H   UNL A   1      45.462  18.170  37.615  1.00  0.00     0.169 HD
ATOM     13  O   UNL A   1      44.982  18.686  35.416  1.00  0.00    -0.275 OA
BRANCH  11  14
ATOM     14  C   UNL A   1      47.302  18.933  38.146  1.00  0.00     0.054 A 
ATOM     15  C   UNL A   1      49.099  19.532  38.143  1.00  0.00     0.063 A 
ATOM     16  C   UNL A   1      49.776  19.499  39.755  1.00  0.00     0.016 A 
ATOM     17  C   UNL A   1      48.912  18.686  41.178  1.00  0.00     0.001 A 
ATOM     18  C   UNL A   1      46.575  18.128  39.617  1.00  0.00     0.027 A 
ATOM     19  C   UNL A   1      47.401  17.942  41.073  1.00  0.00     0.002 A 
BRANCH  15  20
ATOM     20  C   UNL A   1      50.638  19.544  36.923  1.00  0.00     0.257 C 
ATOM     21  N   UNL A   1      51.307  21.022  36.187  1.00  0.00    -0.322 N 
ATOM     22  H   UNL A   1      52.042  20.922  35.539  1.00  0.00     0.170 HD
ATOM     23  O   UNL A   1      51.246  18.522  36.579  1.00  0.00    -0.269 OA
BRANCH  21  24
ATOM     24  C   UNL A   1      50.734  22.660  36.543  1.00  0.00     0.044 A 
ATOM     25  C   UNL A   1      51.618  24.381  34.349  1.00  0.00     0.046 C 
ATOM     26  C   UNL A   1      51.305  24.203  35.799  1.00  0.00    -0.027 A 
ATOM     27  C   UNL A   1      50.666  25.755  36.492  1.00  0.00     0.005 A 
ATOM     28  C   UNL A   1      49.488  25.849  37.851  1.00  0.00     0.000 A 
ATOM     29  C   UNL A   1      49.324  22.919  38.022  1.00  0.00     0.026 A 
ATOM     30  C   UNL A   1      48.816  24.469  38.604  1.00  0.00     0.002 A 
ENDBRANCH  21  24
ENDBRANCH  15  20
ENDBRANCH  11  14
ENDBRANCH   9  10
ENDBRANCH   8   9
ENDBRANCH   6   8
ENDBRANCH   5   6
ENDBRANCH   4   5
ENDBRANCH   3   4
ENDBRANCH   2   3
ENDBRANCH   1   2
BRANCH   1  31
ATOM     31  C   UNL A   1      45.089  27.289  28.672  1.00  0.00     0.188 C 
BRANCH  31  32
ATOM     32  O   UNL A   1      44.236  28.326  28.238  1.00  0.00    -0.377 OA
BRANCH  32  33
ATOM     33  C   UNL A   1      44.893  29.357  27.495  1.00  0.00     0.188 C 
BRANCH  33  34
ATOM     34  C   UNL A   1      45.414  28.988  26.057  1.00  0.00     0.188 C 
BRANCH  34  35
ATOM     35  O   UNL A   1      44.607  28.157  25.304  1.00  0.00    -0.376 OA
BRANCH  35  36
ATOM     36  C   UNL A   1      45.519  27.125  24.977  1.00  0.00     0.202 C 
BRANCH  36  37
ATOM     37  C   UNL A   1      45.025  25.540  25.338  1.00  0.00     0.261 C 
BRANCH  37  38
ATOM     38  O   UNL A   1      43.380  25.197  25.676  1.00  0.00    -0.460 OA
BRANCH  38  39
ATOM     39  C   UNL A   1      42.632  25.058  26.941  1.00  0.00     0.338 C 
ATOM     40  O   UNL A   1      42.667  23.979  27.532  1.00  0.00    -0.246 OA
BRANCH  39  41
ATOM     41  C   UNL A   1      41.439  26.222  27.466  1.00  0.00     0.060 A 
ATOM     42  C   UNL A   1      41.235  27.534  26.910  1.00  0.00     0.016 A 
ATOM     43  C   UNL A   1      40.934  26.288  28.757  1.00  0.00     0.016 A 
ATOM     44  C   UNL A   1      41.017  28.865  27.767  1.00  0.00     0.010 A 
ATOM     45  C   UNL A   1      40.719  27.607  29.553  1.00  0.00     0.010 A 
ATOM     46  C   UNL A   1      41.150  28.978  29.221  1.00  0.00    -0.014 A 
BRANCH  46  47
ATOM     47  C   UNL A   1      41.992  30.231  30.464  1.00  0.00     0.031 A 
ATOM     48  C   UNL A   1      40.550  31.133  30.491  1.00  0.00     0.074 A 
ATOM     49  C   UNL A   1      43.648  30.811  30.956  1.00  0.00     0.049 A 
ATOM     50  N   UNL A   1      40.428  32.386  30.097  1.00  0.00    -0.248 NA
ATOM     51  C   UNL A   1      39.169  30.596  30.559  1.00  0.00     0.031 C 
ATOM     52  C   UNL A   1      44.539  32.266  31.477  1.00  0.00     0.029 A 
ATOM     53  N   UNL A   1      45.157  30.494  30.572  1.00  0.00    -0.354 N 
ATOM     54  C   UNL A   1      39.320  32.804  30.755  1.00  0.00     0.074 A 
ATOM     55  C   UNL A   1      38.444  31.718  30.522  1.00  0.00     0.031 C 
ATOM     56  C   UNL A   1      45.882  32.365  31.380  1.00  0.00     0.029 A 
ATOM     57  C   UNL A   1      46.314  31.288  30.570  1.00  0.00     0.049 A 
ATOM     58  H   UNL A   1      45.308  29.566  30.279  1.00  0.00     0.167 HD
ATOM     59  C   UNL A   1      39.473  33.664  31.804  1.00  0.00     0.037 A 
ATOM     60  C   UNL A   1      47.429  31.231  29.772  1.00  0.00     0.037 A 
ATOM     61  C   UNL A   1      40.834  34.364  31.802  1.00  0.00     0.049 A 
ATOM     62  C   UNL A   1      46.657  32.628  28.942  1.00  0.00     0.074 A 
ATOM     63  C   UNL A   1      41.757  34.713  32.780  1.00  0.00     0.029 A 
ATOM     64  N   UNL A   1      41.571  34.550  30.579  1.00  0.00    -0.354 N 
ATOM     65  N   UNL A   1      45.338  32.963  29.006  1.00  0.00    -0.248 NA
ATOM     66  C   UNL A   1      47.360  33.907  28.696  1.00  0.00     0.031 C 
ATOM     67  C   UNL A   1      43.020  35.047  32.150  1.00  0.00     0.029 A 
ATOM     68  C   UNL A   1      42.966  34.800  30.762  1.00  0.00     0.049 A 
ATOM     69  H   UNL A   1      41.149  34.510  29.690  1.00  0.00     0.167 HD
ATOM     70  C   UNL A   1      45.060  34.370  29.121  1.00  0.00     0.074 A 
ATOM     71  C   UNL A   1      46.402  34.873  28.791  1.00  0.00     0.031 C 
ATOM     72  C   UNL A   1      43.922  35.130  29.606  1.00  0.00     0.037 A 
BRANCH  59  73
ATOM     73  C   UNL A   1      38.419  33.634  32.949  1.00  0.00     0.064 A 
ATOM     74  C   UNL A   1      38.696  32.943  34.139  1.00  0.00     0.173 A 
ATOM     75  C   UNL A   1      37.132  34.269  32.969  1.00  0.00     0.173 A 
ATOM     76  F   UNL A   1      39.825  32.239  34.278  1.00  0.00    -0.203 F 
ATOM     77  C   UNL A   1      37.834  32.961  35.251  1.00  0.00     0.198 A 
ATOM     78  C   UNL A   1      36.310  34.345  34.098  1.00  0.00     0.198 A 
ATOM     79  F   UNL A   1      36.543  34.814  31.900  1.00  0.00    -0.203 F 
ATOM     80  F   UNL A   1      38.159  32.264  36.349  1.00  0.00    -0.200 F 
ATOM     81  C   UNL A   1      36.665  33.694  35.248  1.00  0.00     0.200 A 
ATOM     82  F   UNL A   1      35.167  35.051  34.044  1.00  0.00    -0.200 F 
ATOM     83  F   UNL A   1      35.882  33.764  36.333  1.00  0.00    -0.200 F 
ENDBRANCH  59  73
BRANCH  60  84
ATOM     84  C   UNL A   1      48.021  29.553  29.446  1.00  0.00     0.064 A 
ATOM     85  C   UNL A   1      48.212  27.927  30.170  1.00  0.00     0.173 A 
ATOM     86  C   UNL A   1      48.489  29.426  27.903  1.00  0.00     0.173 A 
ATOM     87  F   UNL A   1      47.628  27.902  31.386  1.00  0.00    -0.203 F 
ATOM     88  C   UNL A   1      49.096  26.336  29.177  1.00  0.00     0.198 A 
ATOM     89  C   UNL A   1      49.195  27.919  26.879  1.00  0.00     0.198 A 
ATOM     90  F   UNL A   1      49.023  30.672  27.835  1.00  0.00    -0.203 F 
ATOM     91  F   UNL A   1      49.395  25.065  29.558  1.00  0.00    -0.200 F 
ATOM     92  C   UNL A   1      49.549  26.461  27.538  1.00  0.00     0.200 A 
ATOM     93  F   UNL A   1      49.734  27.956  25.627  1.00  0.00    -0.200 F 
ATOM     94  F   UNL A   1      50.249  25.530  26.877  1.00  0.00    -0.200 F 
ENDBRANCH  60  84
BRANCH  72  95
ATOM     95  C   UNL A   1      43.528  36.545  29.074  1.00  0.00     0.064 A 
ATOM     96  C   UNL A   1      42.679  36.743  27.988  1.00  0.00     0.173 A 
ATOM     97  C   UNL A   1      43.845  37.759  29.789  1.00  0.00     0.173 A 
ATOM     98  F   UNL A   1      42.178  35.709  27.301  1.00  0.00    -0.203 F 
ATOM     99  C   UNL A   1      42.277  38.025  27.587  1.00  0.00     0.198 A 
ATOM    100  C   UNL A   1      43.350  39.011  29.455  1.00  0.00     0.198 A 
ATOM    101  F   UNL A   1      44.647  37.816  30.857  1.00  0.00    -0.203 F 
ATOM    102  F   UNL A   1      41.548  38.161  26.474  1.00  0.00    -0.200 F 
ATOM    103  C   UNL A   1      42.599  39.154  28.324  1.00  0.00     0.200 A 
ATOM    104  F   UNL A   1      43.618  40.065  30.242  1.00  0.00    -0.200 F 
ATOM    105  F   UNL A   1      42.187  40.369  27.944  1.00  0.00    -0.200 F 
ENDBRANCH  72  95
ENDBRANCH  46  47
ENDBRANCH  39  41
ENDBRANCH  38  39
ENDBRANCH  37  38
ENDBRANCH  36  37
ENDBRANCH  35  36
ENDBRANCH  34  35
ENDBRANCH  33  34
ENDBRANCH  32  33
ENDBRANCH  31  32
ENDBRANCH   1  31
TORSDOF 25
ENDMDL
MODEL 3
REMARK VINA RESULT:     -12.5      5.535     13.103
REMARK SMILES Cc1ccccc1NC(=O)c1ccccc1NC(=O)CCC(=O)OCCOCCOCCOCCOC(=O)c1ccc(-c2c3nc(c(-c4c(F)c(F)c(F)c(F)c4F)c4ccc([nH]4)c(-c4c(F)c(F)c(F)c(F)c4F)c4nc(c(-c5c(F)c(F)c(F)c(F)c5F)c5ccc2[nH]5)C=C4)C=C3)cc1
REMARK SMILES IDX 28 1 27 2 26 3 25 4 24 5 22 6 23 7 21 8 20 9 18 10 17 11
REMARK SMILES IDX 19 13 16 14 11 15 12 16 13 17 15 18 14 19 9 20 8 21 10 23
REMARK SMILES IDX 7 24 1 25 2 26 3 27 4 28 6 29 5 30 29 31 30 32 31 33 32 34
REMARK SMILES IDX 33 35 34 36 35 37 36 38 37 39 38 40 39 41 40 42 101 43 41 44
REMARK SMILES IDX 100 45 42 46 43 47 44 48 94 49 45 50 99 51 93 52 95 53 46 54
REMARK SMILES IDX 98 55 92 56 91 57 47 59 79 60 59 61 78 62 60 63 63 64 77 65
REMARK SMILES IDX 96 66 61 67 62 68 76 70 97 71 64 72 48 73 49 74 57 75 50 76
REMARK SMILES IDX 51 77 55 78 58 79 52 80 53 81 56 82 54 83 80 84 81 85 89 86
REMARK SMILES IDX 82 87 83 88 87 89 90 90 84 91 85 92 88 93 86 94 65 95 66 96
REMARK SMILES IDX 74 97 67 98 68 99 72 100 75 101 69 102 70 103 73 104 71 105
REMARK H PARENT 17 12 8 22 95 58 63 69
REMARK Flexibility Score: inf
ROOT
ATOM      1  C   UNL A   1      44.859  40.585  36.546  1.00  0.00     0.188 C 
ENDROOT
BRANCH   1   2
ATOM      2  O   UNL A   1      44.243  39.027  37.684  1.00  0.00    -0.376 OA
BRANCH   2   3
ATOM      3  C   UNL A   1      44.674  37.461  38.715  1.00  0.00     0.202 C 
BRANCH   3   4
ATOM      4  C   UNL A   1      43.223  36.109  38.964  1.00  0.00     0.261 C 
BRANCH   4   5
ATOM      5  O   UNL A   1      41.946  35.946  37.551  1.00  0.00    -0.463 OA
BRANCH   5   6
ATOM      6  C   UNL A   1      40.269  35.926  37.345  1.00  0.00     0.306 C 
ATOM      7  O   UNL A   1      39.610  36.822  37.896  1.00  0.00    -0.252 OA
BRANCH   6   8
ATOM      8  C   UNL A   1      39.274  34.579  36.512  1.00  0.00     0.132 C 
BRANCH   8   9
ATOM      9  C   UNL A   1      37.704  33.852  36.173  1.00  0.00     0.112 C 
BRANCH   9  10
ATOM     10  C   UNL A   1      36.715  33.237  34.952  1.00  0.00     0.224 C 
ATOM     11  N   UNL A   1      36.942  32.197  34.044  1.00  0.00    -0.325 N 
ATOM     12  H   UNL A   1      36.170  31.959  33.481  1.00  0.00     0.169 HD
ATOM     13  O   UNL A   1      35.596  33.761  34.806  1.00  0.00    -0.275 OA
BRANCH  11  14
ATOM     14  C   UNL A   1      38.134  31.423  33.809  1.00  0.00     0.054 A 
ATOM     15  C   UNL A   1      40.019  31.599  33.794  1.00  0.00     0.063 A 
ATOM     16  C   UNL A   1      40.790  30.081  33.393  1.00  0.00     0.016 A 
ATOM     17  C   UNL A   1      39.838  28.618  32.773  1.00  0.00     0.001 A 
ATOM     18  C   UNL A   1      37.317  29.928  33.147  1.00  0.00     0.027 A 
ATOM     19  C   UNL A   1      38.162  28.591  32.570  1.00  0.00     0.002 A 
BRANCH  15  20
ATOM     20  C   UNL A   1      41.360  32.987  33.423  1.00  0.00     0.257 C 
ATOM     21  N   UNL A   1      43.042  32.918  34.004  1.00  0.00    -0.322 N 
ATOM     22  H   UNL A   1      43.625  33.691  33.819  1.00  0.00     0.170 HD
ATOM     23  O   UNL A   1      41.123  34.006  32.762  1.00  0.00    -0.269 OA
BRANCH  21  24
ATOM     24  C   UNL A   1      43.735  31.553  34.894  1.00  0.00     0.044 A 
ATOM     25  C   UNL A   1      44.753  29.656  32.913  1.00  0.00     0.046 C 
ATOM     26  C   UNL A   1      44.131  29.914  34.247  1.00  0.00    -0.027 A 
ATOM     27  C   UNL A   1      44.663  28.649  35.435  1.00  0.00     0.005 A 
ATOM     28  C   UNL A   1      44.841  28.932  37.205  1.00  0.00     0.000 A 
ATOM     29  C   UNL A   1      44.072  31.754  36.916  1.00  0.00     0.026 A 
ATOM     30  C   UNL A   1      44.563  30.449  37.943  1.00  0.00     0.002 A 
ENDBRANCH  21  24
ENDBRANCH  15  20
ENDBRANCH  11  14
ENDBRANCH   9  10
ENDBRANCH   8   9
ENDBRANCH   6   8
ENDBRANCH   5   6
ENDBRANCH   4   5
ENDBRANCH   3   4
ENDBRANCH   2   3
ENDBRANCH   1   2
BRANCH   1  31
ATOM     31  C   UNL A   1      45.746  40.923  35.272  1.00  0.00     0.188 C 
BRANCH  31  32
ATOM     32  O   UNL A   1      45.383  40.177  34.131  1.00  0.00    -0.377 OA
BRANCH  32  33
ATOM     33  C   UNL A   1      45.480  38.759  34.297  1.00  0.00     0.188 C 
BRANCH  33  34
ATOM     34  C   UNL A   1      44.824  37.857  33.189  1.00  0.00     0.188 C 
BRANCH  34  35
ATOM     35  O   UNL A   1      45.061  38.220  31.878  1.00  0.00    -0.376 OA
BRANCH  35  36
ATOM     36  C   UNL A   1      43.907  37.699  31.244  1.00  0.00     0.202 C 
BRANCH  36  37
ATOM     37  C   UNL A   1      44.172  36.599  29.978  1.00  0.00     0.261 C 
BRANCH  37  38
ATOM     38  O   UNL A   1      43.826  37.037  28.357  1.00  0.00    -0.460 OA
BRANCH  38  39
ATOM     39  C   UNL A   1      43.494  36.240  27.160  1.00  0.00     0.338 C 
ATOM     40  O   UNL A   1      42.371  36.351  26.668  1.00  0.00    -0.246 OA
BRANCH  39  41
ATOM     41  C   UNL A   1      44.483  34.910  26.607  1.00  0.00     0.060 A 
ATOM     42  C   UNL A   1      44.056  33.838  25.745  1.00  0.00     0.016 A 
ATOM     43  C   UNL A   1      45.570  34.406  27.307  1.00  0.00     0.016 A 
ATOM     44  C   UNL A   1      44.392  32.293  25.975  1.00  0.00     0.010 A 
ATOM     45  C   UNL A   1      45.874  32.892  27.494  1.00  0.00     0.010 A 
ATOM     46  C   UNL A   1      45.035  31.724  27.161  1.00  0.00    -0.014 A 
BRANCH  46  47
ATOM     47  C   UNL A   1      44.733  30.182  28.324  1.00  0.00     0.031 A 
ATOM     48  C   UNL A   1      46.189  29.506  27.765  1.00  0.00     0.074 A 
ATOM     49  C   UNL A   1      43.366  29.297  29.145  1.00  0.00     0.049 A 
ATOM     50  N   UNL A   1      46.299  28.362  27.117  1.00  0.00    -0.248 NA
ATOM     51  C   UNL A   1      47.470  30.220  27.539  1.00  0.00     0.031 C 
ATOM     52  C   UNL A   1      42.815  27.665  29.605  1.00  0.00     0.029 A 
ATOM     53  N   UNL A   1      41.791  29.449  29.275  1.00  0.00    -0.354 N 
ATOM     54  C   UNL A   1      47.588  28.011  27.338  1.00  0.00     0.074 A 
ATOM     55  C   UNL A   1      48.248  29.235  27.080  1.00  0.00     0.031 C 
ATOM     56  C   UNL A   1      41.521  27.388  29.877  1.00  0.00     0.029 A 
ATOM     57  C   UNL A   1      40.766  28.506  29.448  1.00  0.00     0.049 A 
ATOM     58  H   UNL A   1      41.473  30.379  29.224  1.00  0.00     0.167 HD
ATOM     59  C   UNL A   1      47.842  26.983  28.199  1.00  0.00     0.037 A 
ATOM     60  C   UNL A   1      39.459  28.526  29.027  1.00  0.00     0.037 A 
ATOM     61  C   UNL A   1      46.617  26.102  28.449  1.00  0.00     0.049 A 
ATOM     62  C   UNL A   1      40.064  27.405  27.757  1.00  0.00     0.074 A 
ATOM     63  C   UNL A   1      46.072  25.472  29.561  1.00  0.00     0.029 A 
ATOM     64  N   UNL A   1      45.560  26.007  27.473  1.00  0.00    -0.354 N 
ATOM     65  N   UNL A   1      41.365  27.259  27.377  1.00  0.00    -0.248 NA
ATOM     66  C   UNL A   1      39.439  26.092  27.478  1.00  0.00     0.031 C 
ATOM     67  C   UNL A   1      44.714  25.062  29.264  1.00  0.00     0.029 A 
ATOM     68  C   UNL A   1      44.317  25.532  27.994  1.00  0.00     0.049 A 
ATOM     69  H   UNL A   1      45.685  26.248  26.527  1.00  0.00     0.167 HD
ATOM     70  C   UNL A   1      41.792  25.906  27.133  1.00  0.00     0.074 A 
ATOM     71  C   UNL A   1      40.464  25.273  27.107  1.00  0.00     0.031 C 
ATOM     72  C   UNL A   1      43.088  25.253  27.116  1.00  0.00     0.037 A 
BRANCH  59  73
ATOM     73  C   UNL A   1      49.189  26.983  28.980  1.00  0.00     0.064 A 
ATOM     74  C   UNL A   1      49.211  27.333  30.339  1.00  0.00     0.173 A 
ATOM     75  C   UNL A   1      50.489  26.638  28.480  1.00  0.00     0.173 A 
ATOM     76  F   UNL A   1      48.100  27.745  30.961  1.00  0.00    -0.203 F 
ATOM     77  C   UNL A   1      50.373  27.257  31.129  1.00  0.00     0.198 A 
ATOM     78  C   UNL A   1      51.627  26.493  29.282  1.00  0.00     0.198 A 
ATOM     79  F   UNL A   1      50.779  26.465  27.187  1.00  0.00    -0.203 F 
ATOM     80  F   UNL A   1      50.320  27.621  32.418  1.00  0.00    -0.200 F 
ATOM     81  C   UNL A   1      51.569  26.796  30.614  1.00  0.00     0.200 A 
ATOM     82  F   UNL A   1      52.778  26.065  28.734  1.00  0.00    -0.200 F 
ATOM     83  F   UNL A   1      52.654  26.660  31.387  1.00  0.00    -0.200 F 
ENDBRANCH  59  73
BRANCH  60  84
ATOM     84  C   UNL A   1      38.646  30.131  29.216  1.00  0.00     0.064 A 
ATOM     85  C   UNL A   1      38.783  31.732  30.006  1.00  0.00     0.173 A 
ATOM     86  C   UNL A   1      37.341  30.200  28.264  1.00  0.00     0.173 A 
ATOM     87  F   UNL A   1      39.973  31.824  30.636  1.00  0.00    -0.203 F 
ATOM     88  C   UNL A   1      37.345  33.215  29.828  1.00  0.00     0.198 A 
ATOM     89  C   UNL A   1      36.034  31.618  27.950  1.00  0.00     0.198 A 
ATOM     90  F   UNL A   1      36.983  28.904  28.454  1.00  0.00    -0.203 F 
ATOM     91  F   UNL A   1      37.222  34.449  30.385  1.00  0.00    -0.200 F 
ATOM     92  C   UNL A   1      36.017  33.034  28.774  1.00  0.00     0.200 A 
ATOM     93  F   UNL A   1      34.860  31.517  27.263  1.00  0.00    -0.200 F 
ATOM     94  F   UNL A   1      34.983  33.883  28.715  1.00  0.00    -0.200 F 
ENDBRANCH  60  84
BRANCH  72  95
ATOM     95  C   UNL A   1      43.428  24.013  26.230  1.00  0.00     0.064 A 
ATOM     96  C   UNL A   1      44.258  24.076  25.114  1.00  0.00     0.173 A 
ATOM     97  C   UNL A   1      43.075  22.665  26.613  1.00  0.00     0.173 A 
ATOM     98  F   UNL A   1      44.789  25.236  24.709  1.00  0.00    -0.203 F 
ATOM     99  C   UNL A   1      44.613  22.929  24.389  1.00  0.00     0.198 A 
ATOM    100  C   UNL A   1      43.523  21.527  25.957  1.00  0.00     0.198 A 
ATOM    101  F   UNL A   1      42.282  22.359  27.644  1.00  0.00    -0.203 F 
ATOM    102  F   UNL A   1      45.326  23.063  23.265  1.00  0.00    -0.200 F 
ATOM    103  C   UNL A   1      44.259  21.659  24.815  1.00  0.00     0.200 A 
ATOM    104  F   UNL A   1      43.226  20.315  26.451  1.00  0.00    -0.200 F 
ATOM    105  F   UNL A   1      44.624  20.571  24.127  1.00  0.00    -0.200 F 
ENDBRANCH  72  95
ENDBRANCH  46  47
ENDBRANCH  39  41
ENDBRANCH  38  39
ENDBRANCH  37  38
ENDBRANCH  36  37
ENDBRANCH  35  36
ENDBRANCH  34  35
ENDBRANCH  33  34
ENDBRANCH  32  33
ENDBRANCH  31  32
ENDBRANCH   1  31
TORSDOF 25
ENDMDL
