MODEL 1
REMARK VINA RESULT:     -11.8      0.000      0.000
REMARK SMILES O=C(OCCOCCOCCOCCOC(=O)c1ccc([C@@H]2CC(O)=Nc3c2ncn3-c2cccc(Cl)c2)cc1)c1ccc(-c2c3nc(c(-c4c(F)c(F)c(F)c(F)c4F)c4ccc([nH]4)c(-c4c(F)c(F)c(F)c(F)c4F)c4nc(c(-c5c(F)c(F)c(F)c(F)c5F)c5ccc2[nH]5)C=C4)C=C3)cc1
REMARK SMILES IDX 9 1 8 2 7 3 6 4 5 5 4 6 3 7 2 8 1 9 41 10 42 11 103 12 43 13
REMARK SMILES IDX 102 14 44 15 45 16 46 17 96 18 47 19 101 20 95 21 97 22
REMARK SMILES IDX 48 23 100 24 94 25 93 26 49 28 81 29 61 30 80 31 62 32 65 33
REMARK SMILES IDX 79 34 98 35 63 36 64 37 78 39 99 40 66 41 50 42 51 43 59 44
REMARK SMILES IDX 52 45 53 46 57 47 60 48 54 49 55 50 58 51 56 52 82 53 83 54
REMARK SMILES IDX 91 55 84 56 85 57 89 58 92 59 86 60 87 61 90 62 88 63 67 64
REMARK SMILES IDX 68 65 76 66 69 67 70 68 74 69 77 70 71 71 72 72 75 73 73 74
REMARK SMILES IDX 10 75 11 76 12 77 13 78 14 79 15 80 16 81 17 82 18 83 19 84
REMARK SMILES IDX 40 85 20 86 39 87 21 88 22 89 23 90 28 91 24 92 27 93 29 94
REMARK SMILES IDX 26 95 31 96 30 97 25 98 32 100 33 101 38 102 34 103 36 104
REMARK SMILES IDX 35 105 37 106
REMARK H PARENT 97 27 65 38 25 99
REMARK Flexibility Score: inf
ROOT
ATOM      1  O   UNL A   1      34.790  31.517  27.279  1.00  0.00    -0.377 OA
ENDROOT
BRANCH   1   2
ATOM      2  C   UNL A   1      35.165  32.775  27.807  1.00  0.00     0.188 C 
BRANCH   2   3
ATOM      3  C   UNL A   1      34.393  33.348  29.018  1.00  0.00     0.188 C 
BRANCH   3   4
ATOM      4  O   UNL A   1      33.368  34.336  29.034  1.00  0.00    -0.376 OA
BRANCH   4   5
ATOM      5  C   UNL A   1      33.407  35.707  29.366  1.00  0.00     0.202 C 
BRANCH   5   6
ATOM      6  C   UNL A   1      32.756  36.288  30.618  1.00  0.00     0.261 C 
BRANCH   6   7
ATOM      7  O   UNL A   1      33.469  36.056  31.821  1.00  0.00    -0.460 OA
BRANCH   7   8
ATOM      8  C   UNL A   1      33.602  34.896  32.492  1.00  0.00     0.338 C 
ATOM      9  O   UNL A   1      32.583  34.369  32.936  1.00  0.00    -0.246 OA
BRANCH   8  10
ATOM     10  C   UNL A   1      34.900  34.225  32.779  1.00  0.00     0.060 A 
ATOM     11  C   UNL A   1      36.135  34.834  33.013  1.00  0.00     0.016 A 
ATOM     12  C   UNL A   1      34.838  32.817  32.747  1.00  0.00     0.016 A 
ATOM     13  C   UNL A   1      37.295  34.092  32.931  1.00  0.00     0.010 A 
ATOM     14  C   UNL A   1      35.989  32.063  32.705  1.00  0.00     0.010 A 
ATOM     15  C   UNL A   1      37.201  32.729  32.678  1.00  0.00    -0.014 A 
BRANCH  15  16
ATOM     16  C   UNL A   1      38.426  32.018  32.399  1.00  0.00     0.031 A 
ATOM     17  C   UNL A   1      39.268  31.800  33.594  1.00  0.00     0.074 A 
ATOM     18  C   UNL A   1      38.703  31.602  31.148  1.00  0.00     0.049 A 
ATOM     19  N   UNL A   1      40.415  32.334  33.850  1.00  0.00    -0.248 NA
ATOM     20  C   UNL A   1      38.689  31.049  34.717  1.00  0.00     0.031 C 
ATOM     21  C   UNL A   1      37.823  31.601  29.975  1.00  0.00     0.029 A 
ATOM     22  N   UNL A   1      39.830  31.006  30.681  1.00  0.00    -0.354 N 
ATOM     23  C   UNL A   1      40.803  31.815  35.080  1.00  0.00     0.074 A 
ATOM     24  C   UNL A   1      39.638  31.186  35.644  1.00  0.00     0.031 C 
ATOM     25  C   UNL A   1      38.361  30.819  29.013  1.00  0.00     0.029 A 
ATOM     26  C   UNL A   1      39.677  30.387  29.444  1.00  0.00     0.049 A 
ATOM     27  H   UNL A   1      40.682  31.010  31.176  1.00  0.00     0.167 HD
ATOM     28  C   UNL A   1      42.121  31.716  35.400  1.00  0.00     0.037 A 
ATOM     29  C   UNL A   1      40.556  29.514  28.890  1.00  0.00     0.037 A 
ATOM     30  C   UNL A   1      42.921  32.584  34.575  1.00  0.00     0.049 A 
ATOM     31  C   UNL A   1      41.868  29.731  29.558  1.00  0.00     0.074 A 
ATOM     32  C   UNL A   1      42.987  33.952  34.389  1.00  0.00     0.029 A 
ATOM     33  N   UNL A   1      43.558  32.026  33.495  1.00  0.00    -0.354 N 
ATOM     34  N   UNL A   1      42.575  30.818  29.411  1.00  0.00    -0.248 NA
ATOM     35  C   UNL A   1      42.137  28.969  30.771  1.00  0.00     0.031 C 
ATOM     36  C   UNL A   1      43.230  34.124  32.995  1.00  0.00     0.029 A 
ATOM     37  C   UNL A   1      43.376  32.860  32.423  1.00  0.00     0.049 A 
ATOM     38  H   UNL A   1      44.058  31.178  33.491  1.00  0.00     0.167 HD
ATOM     39  C   UNL A   1      43.043  31.108  30.685  1.00  0.00     0.074 A 
ATOM     40  C   UNL A   1      42.794  29.899  31.470  1.00  0.00     0.031 C 
ATOM     41  C   UNL A   1      43.308  32.395  31.058  1.00  0.00     0.037 A 
BRANCH  28  42
ATOM     42  C   UNL A   1      42.716  30.545  36.143  1.00  0.00     0.064 A 
ATOM     43  C   UNL A   1      43.624  30.794  37.190  1.00  0.00     0.173 A 
ATOM     44  C   UNL A   1      42.685  29.215  35.666  1.00  0.00     0.173 A 
ATOM     45  F   UNL A   1      43.748  32.026  37.707  1.00  0.00    -0.203 F 
ATOM     46  C   UNL A   1      44.497  29.810  37.658  1.00  0.00     0.198 A 
ATOM     47  C   UNL A   1      43.521  28.223  36.172  1.00  0.00     0.198 A 
ATOM     48  F   UNL A   1      41.940  28.845  34.619  1.00  0.00    -0.203 F 
ATOM     49  F   UNL A   1      45.437  30.128  38.557  1.00  0.00    -0.200 F 
ATOM     50  C   UNL A   1      44.451  28.528  37.142  1.00  0.00     0.200 A 
ATOM     51  F   UNL A   1      43.474  26.993  35.642  1.00  0.00    -0.200 F 
ATOM     52  F   UNL A   1      45.332  27.600  37.538  1.00  0.00    -0.200 F 
ENDBRANCH  28  42
BRANCH  29  53
ATOM     53  C   UNL A   1      40.248  28.282  28.122  1.00  0.00     0.064 A 
ATOM     54  C   UNL A   1      40.856  28.031  26.881  1.00  0.00     0.173 A 
ATOM     55  C   UNL A   1      39.575  27.195  28.718  1.00  0.00     0.173 A 
ATOM     56  F   UNL A   1      41.559  28.996  26.269  1.00  0.00    -0.203 F 
ATOM     57  C   UNL A   1      40.813  26.767  26.284  1.00  0.00     0.198 A 
ATOM     58  C   UNL A   1      39.528  25.936  28.118  1.00  0.00     0.198 A 
ATOM     59  F   UNL A   1      39.032  27.305  29.938  1.00  0.00    -0.203 F 
ATOM     60  F   UNL A   1      41.458  26.550  25.129  1.00  0.00    -0.200 F 
ATOM     61  C   UNL A   1      40.159  25.718  26.908  1.00  0.00     0.200 A 
ATOM     62  F   UNL A   1      38.925  24.921  28.752  1.00  0.00    -0.200 F 
ATOM     63  F   UNL A   1      40.172  24.490  26.369  1.00  0.00    -0.200 F 
ENDBRANCH  29  53
BRANCH  41  64
ATOM     64  C   UNL A   1      43.323  33.446  29.985  1.00  0.00     0.064 A 
ATOM     65  C   UNL A   1      44.414  33.685  29.129  1.00  0.00     0.173 A 
ATOM     66  C   UNL A   1      42.132  34.132  29.718  1.00  0.00     0.173 A 
ATOM     67  F   UNL A   1      45.554  32.992  29.254  1.00  0.00    -0.203 F 
ATOM     68  C   UNL A   1      44.323  34.603  28.083  1.00  0.00     0.198 A 
ATOM     69  C   UNL A   1      42.033  35.019  28.651  1.00  0.00     0.198 A 
ATOM     70  F   UNL A   1      41.042  33.899  30.466  1.00  0.00    -0.203 F 
ATOM     71  F   UNL A   1      45.379  34.821  27.284  1.00  0.00    -0.200 F 
ATOM     72  C   UNL A   1      43.130  35.263  27.842  1.00  0.00     0.200 A 
ATOM     73  F   UNL A   1      40.861  35.613  28.389  1.00  0.00    -0.200 F 
ATOM     74  F   UNL A   1      43.027  36.112  26.809  1.00  0.00    -0.200 F 
ENDBRANCH  41  64
ENDBRANCH  15  16
ENDBRANCH   8  10
ENDBRANCH   7   8
ENDBRANCH   6   7
ENDBRANCH   5   6
ENDBRANCH   4   5
ENDBRANCH   3   4
ENDBRANCH   2   3
ENDBRANCH   1   2
BRANCH   1  75
ATOM     75  C   UNL A   1      33.663  30.947  27.904  1.00  0.00     0.188 C 
BRANCH  75  76
ATOM     76  C   UNL A   1      32.556  30.614  26.890  1.00  0.00     0.188 C 
BRANCH  76  77
ATOM     77  O   UNL A   1      32.780  29.604  25.926  1.00  0.00    -0.376 OA
BRANCH  77  78
ATOM     78  C   UNL A   1      32.310  29.742  24.593  1.00  0.00     0.202 C 
BRANCH  78  79
ATOM     79  C   UNL A   1      30.840  29.602  24.130  1.00  0.00     0.261 C 
BRANCH  79  80
ATOM     80  O   UNL A   1      30.262  28.298  24.051  1.00  0.00    -0.460 OA
BRANCH  80  81
ATOM     81  C   UNL A   1      30.904  27.420  23.246  1.00  0.00     0.338 C 
ATOM     82  O   UNL A   1      30.879  27.372  22.035  1.00  0.00    -0.246 OA
BRANCH  81  83
ATOM     83  C   UNL A   1      31.844  26.637  24.076  1.00  0.00     0.060 A 
ATOM     84  C   UNL A   1      33.035  26.199  23.486  1.00  0.00     0.016 A 
ATOM     85  C   UNL A   1      31.553  26.322  25.402  1.00  0.00     0.016 A 
ATOM     86  C   UNL A   1      33.929  25.426  24.212  1.00  0.00     0.005 A 
ATOM     87  C   UNL A   1      32.416  25.478  26.106  1.00  0.00     0.005 A 
ATOM     88  C   UNL A   1      33.596  24.995  25.504  1.00  0.00    -0.038 A 
BRANCH  88  89
ATOM     89  C   UNL A   1      34.405  23.837  26.059  1.00  0.00     0.081 C 
ATOM     90  C   UNL A   1      35.795  23.834  25.383  1.00  0.00     0.111 C 
ATOM     91  C   UNL A   1      33.678  22.574  25.827  1.00  0.00     0.093 A 
ATOM     92  C   UNL A   1      36.001  22.728  24.366  1.00  0.00     0.188 C 
ATOM     93  C   UNL A   1      34.201  21.595  25.014  1.00  0.00     0.164 A 
ATOM     94  N   UNL A   1      32.464  22.215  26.342  1.00  0.00    -0.238 NA
ATOM     95  N   UNL A   1      35.305  21.645  24.229  1.00  0.00    -0.198 NA
ATOM     96  N   UNL A   1      33.278  20.571  25.046  1.00  0.00    -0.283 N 
ATOM     97  C   UNL A   1      32.228  21.029  25.817  1.00  0.00     0.206 A 
BRANCH  92  98
ATOM     98  O   UNL A   1      37.070  22.904  23.567  1.00  0.00    -0.496 OA
ATOM     99  H   UNL A   1      37.441  23.759  23.462  1.00  0.00     0.294 HD
ENDBRANCH  92  98
BRANCH  96 100
ATOM    100  C   UNL A   1      33.391  19.306  24.431  1.00  0.00     0.050 A 
ATOM    101  C   UNL A   1      32.648  19.010  23.283  1.00  0.00     0.027 A 
ATOM    102  C   UNL A   1      34.262  18.356  24.983  1.00  0.00     0.047 A 
ATOM    103  C   UNL A   1      32.811  17.770  22.666  1.00  0.00     0.004 A 
ATOM    104  C   UNL A   1      34.373  17.103  24.386  1.00  0.00     0.043 A 
ATOM    105  C   UNL A   1      33.664  16.813  23.222  1.00  0.00     0.020 A 
ATOM    106  Cl  UNL A   1      35.379  15.905  25.102  1.00  0.00    -0.084 Cl
ENDBRANCH  96 100
ENDBRANCH  88  89
ENDBRANCH  81  83
ENDBRANCH  80  81
ENDBRANCH  79  80
ENDBRANCH  78  79
ENDBRANCH  77  78
ENDBRANCH  76  77
ENDBRANCH  75  76
ENDBRANCH   1  75
TORSDOF 23
ENDMDL
MODEL 2
REMARK VINA RESULT:     -11.7      3.755      9.588
REMARK SMILES O=C(OCCOCCOCCOCCOC(=O)c1ccc([C@@H]2CC(O)=Nc3c2ncn3-c2cccc(Cl)c2)cc1)c1ccc(-c2c3nc(c(-c4c(F)c(F)c(F)c(F)c4F)c4ccc([nH]4)c(-c4c(F)c(F)c(F)c(F)c4F)c4nc(c(-c5c(F)c(F)c(F)c(F)c5F)c5ccc2[nH]5)C=C4)C=C3)cc1
REMARK SMILES IDX 9 1 8 2 7 3 6 4 5 5 4 6 3 7 2 8 1 9 41 10 42 11 103 12 43 13
REMARK SMILES IDX 102 14 44 15 45 16 46 17 96 18 47 19 101 20 95 21 97 22
REMARK SMILES IDX 48 23 100 24 94 25 93 26 49 28 81 29 61 30 80 31 62 32 65 33
REMARK SMILES IDX 79 34 98 35 63 36 64 37 78 39 99 40 66 41 50 42 51 43 59 44
REMARK SMILES IDX 52 45 53 46 57 47 60 48 54 49 55 50 58 51 56 52 82 53 83 54
REMARK SMILES IDX 91 55 84 56 85 57 89 58 92 59 86 60 87 61 90 62 88 63 67 64
REMARK SMILES IDX 68 65 76 66 69 67 70 68 74 69 77 70 71 71 72 72 75 73 73 74
REMARK SMILES IDX 10 75 11 76 12 77 13 78 14 79 15 80 16 81 17 82 18 83 19 84
REMARK SMILES IDX 40 85 20 86 39 87 21 88 22 89 23 90 28 91 24 92 27 93 29 94
REMARK SMILES IDX 26 95 31 96 30 97 25 98 32 100 33 101 38 102 34 103 36 104
REMARK SMILES IDX 35 105 37 106
REMARK H PARENT 97 27 65 38 25 99
REMARK Flexibility Score: inf
ROOT
ATOM      1  O   UNL A   1      42.698  19.450  25.010  1.00  0.00    -0.377 OA
ENDROOT
BRANCH   1   2
ATOM      2  C   UNL A   1      44.075  19.127  25.008  1.00  0.00     0.188 C 
BRANCH   2   3
ATOM      3  C   UNL A   1      45.120  20.264  24.939  1.00  0.00     0.188 C 
BRANCH   3   4
ATOM      4  O   UNL A   1      45.242  21.412  25.772  1.00  0.00    -0.376 OA
BRANCH   4   5
ATOM      5  C   UNL A   1      44.580  22.658  25.738  1.00  0.00     0.202 C 
BRANCH   5   6
ATOM      6  C   UNL A   1      43.433  22.976  24.783  1.00  0.00     0.261 C 
BRANCH   6   7
ATOM      7  O   UNL A   1      42.173  23.156  25.406  1.00  0.00    -0.460 OA
BRANCH   7   8
ATOM      8  C   UNL A   1      41.912  23.743  26.589  1.00  0.00     0.338 C 
ATOM      9  O   UNL A   1      41.394  23.056  27.469  1.00  0.00    -0.246 OA
BRANCH   8  10
ATOM     10  C   UNL A   1      42.161  25.178  26.900  1.00  0.00     0.060 A 
ATOM     11  C   UNL A   1      43.173  25.707  27.705  1.00  0.00     0.016 A 
ATOM     12  C   UNL A   1      41.213  26.059  26.343  1.00  0.00     0.016 A 
ATOM     13  C   UNL A   1      43.077  27.003  28.167  1.00  0.00     0.010 A 
ATOM     14  C   UNL A   1      41.134  27.367  26.766  1.00  0.00     0.010 A 
ATOM     15  C   UNL A   1      41.998  27.780  27.763  1.00  0.00    -0.014 A 
BRANCH  15  16
ATOM     16  C   UNL A   1      41.815  29.055  28.414  1.00  0.00     0.031 A 
ATOM     17  C   UNL A   1      42.884  30.031  28.112  1.00  0.00     0.074 A 
ATOM     18  C   UNL A   1      40.739  29.275  29.193  1.00  0.00     0.049 A 
ATOM     19  N   UNL A   1      43.774  30.491  28.926  1.00  0.00    -0.248 NA
ATOM     20  C   UNL A   1      43.105  30.398  26.706  1.00  0.00     0.031 C 
ATOM     21  C   UNL A   1      39.551  28.431  29.361  1.00  0.00     0.029 A 
ATOM     22  N   UNL A   1      40.445  30.364  29.950  1.00  0.00    -0.354 N 
ATOM     23  C   UNL A   1      44.542  31.376  28.177  1.00  0.00     0.074 A 
ATOM     24  C   UNL A   1      44.208  31.142  26.798  1.00  0.00     0.031 C 
ATOM     25  C   UNL A   1      38.577  29.145  29.967  1.00  0.00     0.029 A 
ATOM     26  C   UNL A   1      39.115  30.435  30.354  1.00  0.00     0.049 A 
ATOM     27  H   UNL A   1      41.115  31.044  30.191  1.00  0.00     0.167 HD
ATOM     28  C   UNL A   1      45.185  32.411  28.782  1.00  0.00     0.037 A 
ATOM     29  C   UNL A   1      38.515  31.530  30.884  1.00  0.00     0.037 A 
ATOM     30  C   UNL A   1      45.330  32.175  30.196  1.00  0.00     0.049 A 
ATOM     31  C   UNL A   1      39.595  32.412  31.405  1.00  0.00     0.074 A 
ATOM     32  C   UNL A   1      45.981  31.222  30.955  1.00  0.00     0.029 A 
ATOM     33  N   UNL A   1      44.427  32.775  31.037  1.00  0.00    -0.354 N 
ATOM     34  N   UNL A   1      40.340  32.101  32.430  1.00  0.00    -0.248 NA
ATOM     35  C   UNL A   1      40.172  33.383  30.485  1.00  0.00     0.031 C 
ATOM     36  C   UNL A   1      45.115  30.975  32.061  1.00  0.00     0.029 A 
ATOM     37  C   UNL A   1      44.026  31.842  31.958  1.00  0.00     0.049 A 
ATOM     38  H   UNL A   1      44.122  33.710  30.989  1.00  0.00     0.167 HD
ATOM     39  C   UNL A   1      41.623  32.482  32.062  1.00  0.00     0.074 A 
ATOM     40  C   UNL A   1      41.447  33.324  30.879  1.00  0.00     0.031 C 
ATOM     41  C   UNL A   1      42.717  31.838  32.564  1.00  0.00     0.037 A 
BRANCH  28  42
ATOM     42  C   UNL A   1      45.292  33.793  28.186  1.00  0.00     0.064 A 
ATOM     43  C   UNL A   1      46.558  34.405  28.113  1.00  0.00     0.173 A 
ATOM     44  C   UNL A   1      44.188  34.652  27.989  1.00  0.00     0.173 A 
ATOM     45  F   UNL A   1      47.676  33.687  28.302  1.00  0.00    -0.203 F 
ATOM     46  C   UNL A   1      46.701  35.785  27.948  1.00  0.00     0.198 A 
ATOM     47  C   UNL A   1      44.337  36.019  27.773  1.00  0.00     0.198 A 
ATOM     48  F   UNL A   1      42.923  34.235  28.116  1.00  0.00    -0.203 F 
ATOM     49  F   UNL A   1      47.917  36.341  28.023  1.00  0.00    -0.200 F 
ATOM     50  C   UNL A   1      45.590  36.591  27.788  1.00  0.00     0.200 A 
ATOM     51  F   UNL A   1      43.244  36.785  27.642  1.00  0.00    -0.200 F 
ATOM     52  F   UNL A   1      45.718  37.922  27.700  1.00  0.00    -0.200 F 
ENDBRANCH  28  42
BRANCH  29  53
ATOM     53  C   UNL A   1      37.140  32.025  30.625  1.00  0.00     0.064 A 
ATOM     54  C   UNL A   1      36.160  32.003  31.632  1.00  0.00     0.173 A 
ATOM     55  C   UNL A   1      36.839  32.790  29.479  1.00  0.00     0.173 A 
ATOM     56  F   UNL A   1      36.387  31.340  32.776  1.00  0.00    -0.203 F 
ATOM     57  C   UNL A   1      34.965  32.719  31.510  1.00  0.00     0.198 A 
ATOM     58  C   UNL A   1      35.643  33.500  29.356  1.00  0.00     0.198 A 
ATOM     59  F   UNL A   1      37.738  32.945  28.497  1.00  0.00    -0.203 F 
ATOM     60  F   UNL A   1      34.082  32.723  32.518  1.00  0.00    -0.200 F 
ATOM     61  C   UNL A   1      34.712  33.476  30.377  1.00  0.00     0.200 A 
ATOM     62  F   UNL A   1      35.429  34.258  28.272  1.00  0.00    -0.200 F 
ATOM     63  F   UNL A   1      33.597  34.213  30.287  1.00  0.00    -0.200 F 
ENDBRANCH  29  53
BRANCH  41  64
ATOM     64  C   UNL A   1      42.505  30.887  33.708  1.00  0.00     0.064 A 
ATOM     65  C   UNL A   1      42.479  31.272  35.061  1.00  0.00     0.173 A 
ATOM     66  C   UNL A   1      42.168  29.561  33.409  1.00  0.00     0.173 A 
ATOM     67  F   UNL A   1      42.688  32.546  35.420  1.00  0.00    -0.203 F 
ATOM     68  C   UNL A   1      42.171  30.356  36.066  1.00  0.00     0.198 A 
ATOM     69  C   UNL A   1      41.824  28.659  34.410  1.00  0.00     0.198 A 
ATOM     70  F   UNL A   1      42.119  29.154  32.131  1.00  0.00    -0.203 F 
ATOM     71  F   UNL A   1      42.159  30.744  37.351  1.00  0.00    -0.200 F 
ATOM     72  C   UNL A   1      41.837  29.053  35.738  1.00  0.00     0.200 A 
ATOM     73  F   UNL A   1      41.449  27.415  34.083  1.00  0.00    -0.200 F 
ATOM     74  F   UNL A   1      41.496  28.182  36.700  1.00  0.00    -0.200 F 
ENDBRANCH  41  64
ENDBRANCH  15  16
ENDBRANCH   8  10
ENDBRANCH   7   8
ENDBRANCH   6   7
ENDBRANCH   5   6
ENDBRANCH   4   5
ENDBRANCH   3   4
ENDBRANCH   2   3
ENDBRANCH   1   2
BRANCH   1  75
ATOM     75  C   UNL A   1      42.007  19.006  26.155  1.00  0.00     0.188 C 
BRANCH  75  76
ATOM     76  C   UNL A   1      40.870  19.965  26.543  1.00  0.00     0.188 C 
BRANCH  76  77
ATOM     77  O   UNL A   1      40.115  20.592  25.525  1.00  0.00    -0.376 OA
BRANCH  77  78
ATOM     78  C   UNL A   1      38.777  21.013  25.754  1.00  0.00     0.202 C 
BRANCH  78  79
ATOM     79  C   UNL A   1      37.546  20.629  24.900  1.00  0.00     0.261 C 
BRANCH  79  80
ATOM     80  O   UNL A   1      36.241  20.938  25.392  1.00  0.00    -0.460 OA
BRANCH  80  81
ATOM     81  C   UNL A   1      35.216  20.303  24.776  1.00  0.00     0.338 C 
ATOM     82  O   UNL A   1      34.959  19.119  24.800  1.00  0.00    -0.246 OA
BRANCH  81  83
ATOM     83  C   UNL A   1      34.301  21.328  24.231  1.00  0.00     0.060 A 
ATOM     84  C   UNL A   1      34.839  22.575  23.889  1.00  0.00     0.016 A 
ATOM     85  C   UNL A   1      32.939  21.078  24.076  1.00  0.00     0.016 A 
ATOM     86  C   UNL A   1      34.013  23.583  23.414  1.00  0.00     0.005 A 
ATOM     87  C   UNL A   1      32.098  22.118  23.671  1.00  0.00     0.005 A 
ATOM     88  C   UNL A   1      32.625  23.391  23.369  1.00  0.00    -0.038 A 
BRANCH  88  89
ATOM     89  C   UNL A   1      31.773  24.641  23.247  1.00  0.00     0.081 C 
ATOM     90  C   UNL A   1      32.237  25.436  22.005  1.00  0.00     0.111 C 
ATOM     91  C   UNL A   1      31.889  25.438  24.483  1.00  0.00     0.093 A 
ATOM     92  C   UNL A   1      33.013  26.702  22.317  1.00  0.00     0.188 C 
ATOM     93  C   UNL A   1      32.443  26.697  24.466  1.00  0.00     0.164 A 
ATOM     94  N   UNL A   1      31.497  25.069  25.740  1.00  0.00    -0.238 NA
ATOM     95  N   UNL A   1      33.061  27.336  23.444  1.00  0.00    -0.198 NA
ATOM     96  N   UNL A   1      32.369  27.139  25.771  1.00  0.00    -0.283 N 
ATOM     97  C   UNL A   1      31.842  26.091  26.499  1.00  0.00     0.206 A 
BRANCH  92  98
ATOM     98  O   UNL A   1      33.671  27.220  21.263  1.00  0.00    -0.496 OA
ATOM     99  H   UNL A   1      34.250  27.948  21.384  1.00  0.00     0.294 HD
ENDBRANCH  92  98
BRANCH  96 100
ATOM    100  C   UNL A   1      32.740  28.411  26.257  1.00  0.00     0.050 A 
ATOM    101  C   UNL A   1      31.805  29.450  26.299  1.00  0.00     0.027 A 
ATOM    102  C   UNL A   1      34.054  28.614  26.702  1.00  0.00     0.047 A 
ATOM    103  C   UNL A   1      32.181  30.686  26.827  1.00  0.00     0.004 A 
ATOM    104  C   UNL A   1      34.429  29.868  27.176  1.00  0.00     0.043 A 
ATOM    105  C   UNL A   1      33.494  30.898  27.255  1.00  0.00     0.020 A 
ATOM    106  Cl  UNL A   1      36.059  30.147  27.649  1.00  0.00    -0.084 Cl
ENDBRANCH  96 100
ENDBRANCH  88  89
ENDBRANCH  81  83
ENDBRANCH  80  81
ENDBRANCH  79  80
ENDBRANCH  78  79
ENDBRANCH  77  78
ENDBRANCH  76  77
ENDBRANCH  75  76
ENDBRANCH   1  75
TORSDOF 23
ENDMDL
MODEL 3
REMARK VINA RESULT:     -11.2      1.618      2.438
REMARK SMILES O=C(OCCOCCOCCOCCOC(=O)c1ccc([C@@H]2CC(O)=Nc3c2ncn3-c2cccc(Cl)c2)cc1)c1ccc(-c2c3nc(c(-c4c(F)c(F)c(F)c(F)c4F)c4ccc([nH]4)c(-c4c(F)c(F)c(F)c(F)c4F)c4nc(c(-c5c(F)c(F)c(F)c(F)c5F)c5ccc2[nH]5)C=C4)C=C3)cc1
REMARK SMILES IDX 9 1 8 2 7 3 6 4 5 5 4 6 3 7 2 8 1 9 41 10 42 11 103 12 43 13
REMARK SMILES IDX 102 14 44 15 45 16 46 17 96 18 47 19 101 20 95 21 97 22
REMARK SMILES IDX 48 23 100 24 94 25 93 26 49 28 81 29 61 30 80 31 62 32 65 33
REMARK SMILES IDX 79 34 98 35 63 36 64 37 78 39 99 40 66 41 50 42 51 43 59 44
REMARK SMILES IDX 52 45 53 46 57 47 60 48 54 49 55 50 58 51 56 52 82 53 83 54
REMARK SMILES IDX 91 55 84 56 85 57 89 58 92 59 86 60 87 61 90 62 88 63 67 64
REMARK SMILES IDX 68 65 76 66 69 67 70 68 74 69 77 70 71 71 72 72 75 73 73 74
REMARK SMILES IDX 10 75 11 76 12 77 13 78 14 79 15 80 16 81 17 82 18 83 19 84
REMARK SMILES IDX 40 85 20 86 39 87 21 88 22 89 23 90 28 91 24 92 27 93 29 94
REMARK SMILES IDX 26 95 31 96 30 97 25 98 32 100 33 101 38 102 34 103 36 104
REMARK SMILES IDX 35 105 37 106
REMARK H PARENT 97 27 65 38 25 99
REMARK Flexibility Score: inf
ROOT
ATOM      1  O   UNL A   1      34.881  30.887  27.130  1.00  0.00    -0.377 OA
ENDROOT
BRANCH   1   2
ATOM      2  C   UNL A   1      34.280  32.102  27.535  1.00  0.00     0.188 C 
BRANCH   2   3
ATOM      3  C   UNL A   1      34.459  32.587  28.992  1.00  0.00     0.188 C 
BRANCH   3   4
ATOM      4  O   UNL A   1      33.704  33.560  29.705  1.00  0.00    -0.376 OA
BRANCH   4   5
ATOM      5  C   UNL A   1      33.206  34.820  29.309  1.00  0.00     0.202 C 
BRANCH   5   6
ATOM      6  C   UNL A   1      32.783  35.906  30.295  1.00  0.00     0.261 C 
BRANCH   6   7
ATOM      7  O   UNL A   1      33.516  35.927  31.507  1.00  0.00    -0.460 OA
BRANCH   7   8
ATOM      8  C   UNL A   1      33.694  34.921  32.383  1.00  0.00     0.338 C 
ATOM      9  O   UNL A   1      32.712  34.521  33.006  1.00  0.00    -0.246 OA
BRANCH   8  10
ATOM     10  C   UNL A   1      35.005  34.284  32.692  1.00  0.00     0.060 A 
ATOM     11  C   UNL A   1      36.231  34.923  32.890  1.00  0.00     0.016 A 
ATOM     12  C   UNL A   1      34.966  32.876  32.724  1.00  0.00     0.016 A 
ATOM     13  C   UNL A   1      37.403  34.198  32.833  1.00  0.00     0.010 A 
ATOM     14  C   UNL A   1      36.129  32.139  32.708  1.00  0.00     0.010 A 
ATOM     15  C   UNL A   1      37.330  32.823  32.643  1.00  0.00    -0.014 A 
BRANCH  15  16
ATOM     16  C   UNL A   1      38.564  32.120  32.388  1.00  0.00     0.031 A 
ATOM     17  C   UNL A   1      39.377  31.895  33.602  1.00  0.00     0.074 A 
ATOM     18  C   UNL A   1      38.874  31.716  31.141  1.00  0.00     0.049 A 
ATOM     19  N   UNL A   1      40.515  32.431  33.891  1.00  0.00    -0.248 NA
ATOM     20  C   UNL A   1      38.774  31.131  34.704  1.00  0.00     0.031 C 
ATOM     21  C   UNL A   1      38.023  31.722  29.947  1.00  0.00     0.029 A 
ATOM     22  N   UNL A   1      40.015  31.129  30.697  1.00  0.00    -0.354 N 
ATOM     23  C   UNL A   1      40.875  31.903  35.125  1.00  0.00     0.074 A 
ATOM     24  C   UNL A   1      39.700  31.264  35.654  1.00  0.00     0.031 C 
ATOM     25  C   UNL A   1      38.589  30.951  28.991  1.00  0.00     0.029 A 
ATOM     26  C   UNL A   1      39.895  30.521  29.451  1.00  0.00     0.049 A 
ATOM     27  H   UNL A   1      40.855  31.133  31.212  1.00  0.00     0.167 HD
ATOM     28  C   UNL A   1      42.185  31.807  35.477  1.00  0.00     0.037 A 
ATOM     29  C   UNL A   1      40.791  29.657  28.911  1.00  0.00     0.037 A 
ATOM     30  C   UNL A   1      43.001  32.686  34.679  1.00  0.00     0.049 A 
ATOM     31  C   UNL A   1      42.086  29.873  29.613  1.00  0.00     0.074 A 
ATOM     32  C   UNL A   1      43.066  34.055  34.508  1.00  0.00     0.029 A 
ATOM     33  N   UNL A   1      43.668  32.141  33.611  1.00  0.00    -0.354 N 
ATOM     34  N   UNL A   1      42.791  30.965  29.493  1.00  0.00    -0.248 NA
ATOM     35  C   UNL A   1      42.328  29.102  30.825  1.00  0.00     0.031 C 
ATOM     36  C   UNL A   1      43.342  34.242  33.121  1.00  0.00     0.029 A 
ATOM     37  C   UNL A   1      43.508  32.983  32.542  1.00  0.00     0.049 A 
ATOM     38  H   UNL A   1      44.171  31.295  33.611  1.00  0.00     0.167 HD
ATOM     39  C   UNL A   1      43.227  31.246  30.781  1.00  0.00     0.074 A 
ATOM     40  C   UNL A   1      42.963  30.029  31.549  1.00  0.00     0.031 C 
ATOM     41  C   UNL A   1      43.476  32.530  31.172  1.00  0.00     0.037 A 
BRANCH  28  42
ATOM     42  C   UNL A   1      42.767  30.632  36.224  1.00  0.00     0.064 A 
ATOM     43  C   UNL A   1      43.631  30.876  37.308  1.00  0.00     0.173 A 
ATOM     44  C   UNL A   1      42.772  29.309  35.726  1.00  0.00     0.173 A 
ATOM     45  F   UNL A   1      43.720  32.101  37.848  1.00  0.00    -0.203 F 
ATOM     46  C   UNL A   1      44.499  29.895  37.794  1.00  0.00     0.198 A 
ATOM     47  C   UNL A   1      43.601  28.320  36.248  1.00  0.00     0.198 A 
ATOM     48  F   UNL A   1      42.072  28.947  34.646  1.00  0.00    -0.203 F 
ATOM     49  F   UNL A   1      45.400  30.211  38.733  1.00  0.00    -0.200 F 
ATOM     50  C   UNL A   1      44.489  28.621  37.257  1.00  0.00     0.200 A 
ATOM     51  F   UNL A   1      43.590  27.098  35.698  1.00  0.00    -0.200 F 
ATOM     52  F   UNL A   1      45.367  27.698  37.672  1.00  0.00    -0.200 F 
ENDBRANCH  28  42
BRANCH  29  53
ATOM     53  C   UNL A   1      40.509  28.430  28.125  1.00  0.00     0.064 A 
ATOM     54  C   UNL A   1      41.075  28.238  26.854  1.00  0.00     0.173 A 
ATOM     55  C   UNL A   1      39.912  27.300  28.719  1.00  0.00     0.173 A 
ATOM     56  F   UNL A   1      41.707  29.249  26.239  1.00  0.00    -0.203 F 
ATOM     57  C   UNL A   1      41.065  26.987  26.227  1.00  0.00     0.198 A 
ATOM     58  C   UNL A   1      39.897  26.054  28.090  1.00  0.00     0.198 A 
ATOM     59  F   UNL A   1      39.416  27.355  29.963  1.00  0.00    -0.203 F 
ATOM     60  F   UNL A   1      41.670  26.828  25.041  1.00  0.00    -0.200 F 
ATOM     61  C   UNL A   1      40.486  25.894  26.850  1.00  0.00     0.200 A 
ATOM     62  F   UNL A   1      39.368  24.997  28.721  1.00  0.00    -0.200 F 
ATOM     63  F   UNL A   1      40.532  24.682  26.279  1.00  0.00    -0.200 F 
ENDBRANCH  29  53
BRANCH  41  64
ATOM     64  C   UNL A   1      43.513  33.591  30.108  1.00  0.00     0.064 A 
ATOM     65  C   UNL A   1      42.387  34.311  29.671  1.00  0.00     0.173 A 
ATOM     66  C   UNL A   1      44.764  33.994  29.624  1.00  0.00     0.173 A 
ATOM     67  F   UNL A   1      41.169  34.054  30.167  1.00  0.00    -0.203 F 
ATOM     68  C   UNL A   1      42.509  35.356  28.757  1.00  0.00     0.198 A 
ATOM     69  C   UNL A   1      44.887  35.061  28.741  1.00  0.00     0.198 A 
ATOM     70  F   UNL A   1      45.878  33.381  30.053  1.00  0.00    -0.203 F 
ATOM     71  F   UNL A   1      41.419  36.024  28.347  1.00  0.00    -0.200 F 
ATOM     72  C   UNL A   1      43.760  35.734  28.299  1.00  0.00     0.200 A 
ATOM     73  F   UNL A   1      46.104  35.458  28.344  1.00  0.00    -0.200 F 
ATOM     74  F   UNL A   1      43.884  36.769  27.455  1.00  0.00    -0.200 F 
ENDBRANCH  41  64
ENDBRANCH  15  16
ENDBRANCH   8  10
ENDBRANCH   7   8
ENDBRANCH   6   7
ENDBRANCH   5   6
ENDBRANCH   4   5
ENDBRANCH   3   4
ENDBRANCH   2   3
ENDBRANCH   1   2
BRANCH   1  75
ATOM     75  C   UNL A   1      34.543  29.784  27.938  1.00  0.00     0.188 C 
BRANCH  75  76
ATOM     76  C   UNL A   1      33.927  28.641  27.115  1.00  0.00     0.188 C 
BRANCH  76  77
ATOM     77  O   UNL A   1      34.218  28.546  25.734  1.00  0.00    -0.376 OA
BRANCH  77  78
ATOM     78  C   UNL A   1      33.361  29.126  24.761  1.00  0.00     0.202 C 
BRANCH  78  79
ATOM     79  C   UNL A   1      32.063  29.916  25.049  1.00  0.00     0.261 C 
BRANCH  79  80
ATOM     80  O   UNL A   1      30.815  29.221  25.034  1.00  0.00    -0.460 OA
BRANCH  80  81
ATOM     81  C   UNL A   1      30.419  28.751  23.828  1.00  0.00     0.338 C 
ATOM     82  O   UNL A   1      30.208  29.388  22.819  1.00  0.00    -0.246 OA
BRANCH  81  83
ATOM     83  C   UNL A   1      30.496  27.275  23.863  1.00  0.00     0.060 A 
ATOM     84  C   UNL A   1      30.443  26.642  25.110  1.00  0.00     0.016 A 
ATOM     85  C   UNL A   1      30.636  26.527  22.695  1.00  0.00     0.016 A 
ATOM     86  C   UNL A   1      30.554  25.263  25.197  1.00  0.00     0.005 A 
ATOM     87  C   UNL A   1      30.826  25.146  22.791  1.00  0.00     0.005 A 
ATOM     88  C   UNL A   1      30.821  24.506  24.047  1.00  0.00    -0.038 A 
BRANCH  88  89
ATOM     89  C   UNL A   1      31.337  23.097  24.270  1.00  0.00     0.081 C 
ATOM     90  C   UNL A   1      31.047  22.689  25.733  1.00  0.00     0.111 C 
ATOM     91  C   UNL A   1      32.779  23.047  23.962  1.00  0.00     0.093 A 
ATOM     92  C   UNL A   1      32.268  22.652  26.633  1.00  0.00     0.188 C 
ATOM     93  C   UNL A   1      33.703  22.757  24.939  1.00  0.00     0.164 A 
ATOM     94  N   UNL A   1      33.370  23.271  22.750  1.00  0.00    -0.238 NA
ATOM     95  N   UNL A   1      33.510  22.615  26.272  1.00  0.00    -0.198 NA
ATOM     96  N   UNL A   1      34.924  22.778  24.296  1.00  0.00    -0.283 N 
ATOM     97  C   UNL A   1      34.661  23.150  22.992  1.00  0.00     0.206 A 
BRANCH  92  98
ATOM     98  O   UNL A   1      31.983  22.603  27.948  1.00  0.00    -0.496 OA
ATOM     99  H   UNL A   1      32.450  22.012  28.507  1.00  0.00     0.294 HD
ENDBRANCH  92  98
BRANCH  96 100
ATOM    100  C   UNL A   1      36.182  22.466  24.853  1.00  0.00     0.050 A 
ATOM    101  C   UNL A   1      36.933  23.453  25.499  1.00  0.00     0.027 A 
ATOM    102  C   UNL A   1      36.664  21.153  24.754  1.00  0.00     0.047 A 
ATOM    103  C   UNL A   1      38.153  23.111  26.082  1.00  0.00     0.004 A 
ATOM    104  C   UNL A   1      37.907  20.839  25.294  1.00  0.00     0.043 A 
ATOM    105  C   UNL A   1      38.646  21.808  25.971  1.00  0.00     0.020 A 
ATOM    106  Cl  UNL A   1      38.541  19.250  25.108  1.00  0.00    -0.084 Cl
ENDBRANCH  96 100
ENDBRANCH  88  89
ENDBRANCH  81  83
ENDBRANCH  80  81
ENDBRANCH  79  80
ENDBRANCH  78  79
ENDBRANCH  77  78
ENDBRANCH  76  77
ENDBRANCH  75  76
ENDBRANCH   1  75
TORSDOF 23
ENDMDL
