MODEL 1
REMARK VINA RESULT:     -11.8      0.000      0.000
REMARK SMILES O=C1C[C@H](c2cn[nH]c2C(=O)OCCOCCOCCOCCOC(=O)c2ccc(-c3c4nc(c(-c5c(F)c(F)c(F)c(F)c5F)c5ccc([nH]5)c(-c5c(F)c(F)c(F)c(F)c5F)c5nc(c(-c6c(F)c(F)c(F)c(F)c6F)c6ccc3[nH]6)C=C5)C=C4)cc2)c2c(-c3cccs3)n[nH]c2N1
REMARK SMILES IDX 18 1 17 2 16 3 15 4 14 5 13 6 12 7 10 8 11 9 9 10 5 11 6 12
REMARK SMILES IDX 7 13 8 14 4 16 1 17 2 18 3 19 100 20 99 21 90 23 98 24 91 25
REMARK SMILES IDX 97 26 92 28 93 29 96 30 94 31 95 32 19 33 20 34 21 35 22 36
REMARK SMILES IDX 23 37 24 38 25 39 26 40 27 41 28 42 89 43 29 44 88 45 30 46
REMARK SMILES IDX 31 47 32 48 82 49 33 50 87 51 81 52 83 53 34 54 86 55 80 56
REMARK SMILES IDX 79 57 35 59 67 60 47 61 66 62 48 63 51 64 65 65 84 66 49 67
REMARK SMILES IDX 50 68 64 70 85 71 52 72 36 73 37 74 45 75 38 76 39 77 43 78
REMARK SMILES IDX 46 79 40 80 41 81 44 82 42 83 68 84 69 85 77 86 70 87 71 88
REMARK SMILES IDX 75 89 78 90 72 91 73 92 76 93 74 94 53 95 54 96 62 97 55 98
REMARK SMILES IDX 56 99 60 100 63 101 57 102 58 103 61 104 59 105
REMARK H PARENT 8 15 100 22 98 27 83 58 51 69
REMARK Flexibility Score: inf
ROOT
ATOM      1  O   UNL A   1      41.839  20.864  27.275  1.00  0.00    -0.377 OA
ENDROOT
BRANCH   1   2
ATOM      2  C   UNL A   1      40.562  21.481  27.306  1.00  0.00     0.188 C 
BRANCH   2   3
ATOM      3  C   UNL A   1      39.869  21.719  25.944  1.00  0.00     0.188 C 
BRANCH   3   4
ATOM      4  O   UNL A   1      38.484  21.453  25.894  1.00  0.00    -0.376 OA
BRANCH   4   5
ATOM      5  C   UNL A   1      37.498  22.429  25.623  1.00  0.00     0.202 C 
BRANCH   5   6
ATOM      6  C   UNL A   1      36.049  22.136  25.214  1.00  0.00     0.261 C 
BRANCH   6   7
ATOM      7  O   UNL A   1      35.508  22.938  24.165  1.00  0.00    -0.459 OA
BRANCH   7   8
ATOM      8  C   UNL A   1      34.910  24.092  24.542  1.00  0.00     0.356 C 
ATOM      9  O   UNL A   1      35.240  24.750  25.530  1.00  0.00    -0.244 OA
BRANCH   8  10
ATOM     10  C   UNL A   1      34.011  24.595  23.535  1.00  0.00     0.147 A 
ATOM     11  C   UNL A   1      32.704  24.363  23.080  1.00  0.00     0.013 A 
ATOM     12  C   UNL A   1      32.561  25.325  22.032  1.00  0.00     0.140 A 
ATOM     13  N   UNL A   1      33.658  26.036  21.804  1.00  0.00    -0.183 NA
ATOM     14  N   UNL A   1      34.498  25.606  22.742  1.00  0.00    -0.271 N 
ATOM     15  H   UNL A   1      35.400  25.985  22.860  1.00  0.00     0.190 HD
BRANCH  11  16
ATOM     16  C   UNL A   1      31.529  23.489  23.517  1.00  0.00     0.069 C 
ATOM     17  O   UNL A   1      32.619  20.042  24.538  1.00  0.00    -0.275 OA
ATOM     18  C   UNL A   1      32.091  21.153  24.606  1.00  0.00     0.226 C 
ATOM     19  C   UNL A   1      31.804  21.970  23.347  1.00  0.00     0.114 C 
ATOM     20  N   UNL A   1      31.631  21.616  25.812  1.00  0.00    -0.311 N 
ATOM     21  C   UNL A   1      31.064  22.855  25.887  1.00  0.00     0.132 A 
ATOM     22  H   UNL A   1      31.710  21.058  26.619  1.00  0.00     0.171 HD
ATOM     23  C   UNL A   1      30.960  23.755  24.861  1.00  0.00     0.031 A 
ATOM     24  N   UNL A   1      30.544  23.450  26.993  1.00  0.00    -0.262 N 
ATOM     25  C   UNL A   1      30.310  24.876  25.436  1.00  0.00     0.108 A 
ATOM     26  N   UNL A   1      30.131  24.712  26.759  1.00  0.00    -0.173 NA
ATOM     27  H   UNL A   1      30.477  23.007  27.870  1.00  0.00     0.192 HD
BRANCH  25  28
ATOM     28  C   UNL A   1      30.032  26.169  24.735  1.00  0.00     0.055 A 
ATOM     29  C   UNL A   1      30.928  27.218  24.687  1.00  0.00     0.022 A 
ATOM     30  S   UNL A   1      28.637  26.483  23.805  1.00  0.00    -0.142 S 
ATOM     31  C   UNL A   1      30.521  28.218  23.755  1.00  0.00     0.012 A 
ATOM     32  C   UNL A   1      29.268  27.966  23.243  1.00  0.00     0.065 A 
ENDBRANCH  25  28
ENDBRANCH  11  16
ENDBRANCH   8  10
ENDBRANCH   7   8
ENDBRANCH   6   7
ENDBRANCH   5   6
ENDBRANCH   4   5
ENDBRANCH   3   4
ENDBRANCH   2   3
ENDBRANCH   1   2
BRANCH   1  33
ATOM     33  C   UNL A   1      41.897  19.660  26.540  1.00  0.00     0.188 C 
BRANCH  33  34
ATOM     34  C   UNL A   1      43.154  19.490  25.662  1.00  0.00     0.188 C 
BRANCH  34  35
ATOM     35  O   UNL A   1      43.628  20.459  24.727  1.00  0.00    -0.376 OA
BRANCH  35  36
ATOM     36  C   UNL A   1      44.557  21.486  25.043  1.00  0.00     0.202 C 
BRANCH  36  37
ATOM     37  C   UNL A   1      44.326  22.908  24.540  1.00  0.00     0.261 C 
BRANCH  37  38
ATOM     38  O   UNL A   1      43.032  23.385  24.831  1.00  0.00    -0.460 OA
BRANCH  38  39
ATOM     39  C   UNL A   1      43.023  24.650  25.286  1.00  0.00     0.338 C 
ATOM     40  O   UNL A   1      43.810  25.543  25.020  1.00  0.00    -0.246 OA
BRANCH  39  41
ATOM     41  C   UNL A   1      41.942  24.779  26.278  1.00  0.00     0.060 A 
ATOM     42  C   UNL A   1      40.917  25.611  25.840  1.00  0.00     0.016 A 
ATOM     43  C   UNL A   1      42.287  24.643  27.631  1.00  0.00     0.016 A 
ATOM     44  C   UNL A   1      40.610  26.661  26.659  1.00  0.00     0.010 A 
ATOM     45  C   UNL A   1      41.981  25.692  28.451  1.00  0.00     0.010 A 
ATOM     46  C   UNL A   1      41.271  26.746  27.890  1.00  0.00    -0.014 A 
BRANCH  46  47
ATOM     47  C   UNL A   1      41.205  28.014  28.566  1.00  0.00     0.031 A 
ATOM     48  C   UNL A   1      42.362  28.867  28.257  1.00  0.00     0.074 A 
ATOM     49  C   UNL A   1      40.166  28.345  29.351  1.00  0.00     0.049 A 
ATOM     50  N   UNL A   1      43.303  29.253  29.051  1.00  0.00    -0.248 NA
ATOM     51  C   UNL A   1      42.598  29.160  26.835  1.00  0.00     0.031 C 
ATOM     52  C   UNL A   1      38.863  27.686  29.487  1.00  0.00     0.029 A 
ATOM     53  N   UNL A   1      40.039  29.440  30.140  1.00  0.00    -0.354 N 
ATOM     54  C   UNL A   1      44.168  29.990  28.253  1.00  0.00     0.074 A 
ATOM     55  C   UNL A   1      43.794  29.738  26.887  1.00  0.00     0.031 C 
ATOM     56  C   UNL A   1      38.009  28.526  30.117  1.00  0.00     0.029 A 
ATOM     57  C   UNL A   1      38.740  29.712  30.533  1.00  0.00     0.049 A 
ATOM     58  H   UNL A   1      40.805  29.995  30.410  1.00  0.00     0.167 HD
ATOM     59  C   UNL A   1      44.969  30.948  28.786  1.00  0.00     0.037 A 
ATOM     60  C   UNL A   1      38.319  30.894  31.044  1.00  0.00     0.037 A 
ATOM     61  C   UNL A   1      45.145  30.759  30.200  1.00  0.00     0.049 A 
ATOM     62  C   UNL A   1      39.527  31.635  31.508  1.00  0.00     0.074 A 
ATOM     63  C   UNL A   1      45.709  29.762  30.974  1.00  0.00     0.029 A 
ATOM     64  N   UNL A   1      44.378  31.510  31.058  1.00  0.00    -0.354 N 
ATOM     65  N   UNL A   1      40.258  31.271  32.527  1.00  0.00    -0.248 NA
ATOM     66  C   UNL A   1      40.194  32.504  30.546  1.00  0.00     0.031 C 
ATOM     67  C   UNL A   1      44.891  29.687  32.138  1.00  0.00     0.029 A 
ATOM     68  C   UNL A   1      43.903  30.666  32.029  1.00  0.00     0.049 A 
ATOM     69  H   UNL A   1      44.202  32.477  30.988  1.00  0.00     0.167 HD
ATOM     70  C   UNL A   1      41.568  31.525  32.140  1.00  0.00     0.074 A 
ATOM     71  C   UNL A   1      41.461  32.350  30.941  1.00  0.00     0.031 C 
ATOM     72  C   UNL A   1      42.610  30.809  32.657  1.00  0.00     0.037 A 
BRANCH  59  73
ATOM     73  C   UNL A   1      45.282  32.240  28.082  1.00  0.00     0.064 A 
ATOM     74  C   UNL A   1      44.243  33.155  27.844  1.00  0.00     0.173 A 
ATOM     75  C   UNL A   1      46.486  32.487  27.383  1.00  0.00     0.173 A 
ATOM     76  F   UNL A   1      43.050  33.005  28.441  1.00  0.00    -0.203 F 
ATOM     77  C   UNL A   1      44.376  34.194  26.921  1.00  0.00     0.198 A 
ATOM     78  C   UNL A   1      46.636  33.558  26.509  1.00  0.00     0.198 A 
ATOM     79  F   UNL A   1      47.529  31.649  27.424  1.00  0.00    -0.203 F 
ATOM     80  F   UNL A   1      43.319  34.964  26.634  1.00  0.00    -0.200 F 
ATOM     81  C   UNL A   1      45.570  34.392  26.252  1.00  0.00     0.200 A 
ATOM     82  F   UNL A   1      47.797  33.722  25.860  1.00  0.00    -0.200 F 
ATOM     83  F   UNL A   1      45.680  35.350  25.323  1.00  0.00    -0.200 F 
ENDBRANCH  59  73
BRANCH  60  84
ATOM     84  C   UNL A   1      37.018  31.555  30.792  1.00  0.00     0.064 A 
ATOM     85  C   UNL A   1      36.121  31.821  31.837  1.00  0.00     0.173 A 
ATOM     86  C   UNL A   1      36.737  32.168  29.553  1.00  0.00     0.173 A 
ATOM     87  F   UNL A   1      36.349  31.323  33.061  1.00  0.00    -0.203 F 
ATOM     88  C   UNL A   1      35.010  32.651  31.654  1.00  0.00     0.198 A 
ATOM     89  C   UNL A   1      35.624  32.988  29.370  1.00  0.00     0.198 A 
ATOM     90  F   UNL A   1      37.586  32.057  28.522  1.00  0.00    -0.203 F 
ATOM     91  F   UNL A   1      34.201  32.923  32.687  1.00  0.00    -0.200 F 
ATOM     92  C   UNL A   1      34.766  33.238  30.422  1.00  0.00     0.200 A 
ATOM     93  F   UNL A   1      35.424  33.580  28.183  1.00  0.00    -0.200 F 
ATOM     94  F   UNL A   1      33.730  34.073  30.260  1.00  0.00    -0.200 F 
ENDBRANCH  60  84
BRANCH  72  95
ATOM     95  C   UNL A   1      42.326  29.898  33.816  1.00  0.00     0.064 A 
ATOM     96  C   UNL A   1      41.841  28.586  33.669  1.00  0.00     0.173 A 
ATOM     97  C   UNL A   1      42.723  30.299  35.097  1.00  0.00     0.173 A 
ATOM     98  F   UNL A   1      41.539  28.098  32.459  1.00  0.00    -0.203 F 
ATOM     99  C   UNL A   1      41.729  27.730  34.763  1.00  0.00     0.198 A 
ATOM    100  C   UNL A   1      42.644  29.431  36.182  1.00  0.00     0.198 A 
ATOM    101  F   UNL A   1      43.250  31.519  35.285  1.00  0.00    -0.203 F 
ATOM    102  F   UNL A   1      41.261  26.483  34.597  1.00  0.00    -0.200 F 
ATOM    103  C   UNL A   1      42.139  28.150  36.017  1.00  0.00     0.200 A 
ATOM    104  F   UNL A   1      43.092  29.823  37.383  1.00  0.00    -0.200 F 
ATOM    105  F   UNL A   1      42.080  27.312  37.061  1.00  0.00    -0.200 F 
ENDBRANCH  72  95
ENDBRANCH  46  47
ENDBRANCH  39  41
ENDBRANCH  38  39
ENDBRANCH  37  38
ENDBRANCH  36  37
ENDBRANCH  35  36
ENDBRANCH  34  35
ENDBRANCH  33  34
ENDBRANCH   1  33
TORSDOF 22
ENDMDL
MODEL 2
REMARK VINA RESULT:     -11.8      3.708      9.509
REMARK SMILES O=C1C[C@H](c2cn[nH]c2C(=O)OCCOCCOCCOCCOC(=O)c2ccc(-c3c4nc(c(-c5c(F)c(F)c(F)c(F)c5F)c5ccc([nH]5)c(-c5c(F)c(F)c(F)c(F)c5F)c5nc(c(-c6c(F)c(F)c(F)c(F)c6F)c6ccc3[nH]6)C=C5)C=C4)cc2)c2c(-c3cccs3)n[nH]c2N1
REMARK SMILES IDX 18 1 17 2 16 3 15 4 14 5 13 6 12 7 10 8 11 9 9 10 5 11 6 12
REMARK SMILES IDX 7 13 8 14 4 16 1 17 2 18 3 19 100 20 99 21 90 23 98 24 91 25
REMARK SMILES IDX 97 26 92 28 93 29 96 30 94 31 95 32 19 33 20 34 21 35 22 36
REMARK SMILES IDX 23 37 24 38 25 39 26 40 27 41 28 42 89 43 29 44 88 45 30 46
REMARK SMILES IDX 31 47 32 48 82 49 33 50 87 51 81 52 83 53 34 54 86 55 80 56
REMARK SMILES IDX 79 57 35 59 67 60 47 61 66 62 48 63 51 64 65 65 84 66 49 67
REMARK SMILES IDX 50 68 64 70 85 71 52 72 36 73 37 74 45 75 38 76 39 77 43 78
REMARK SMILES IDX 46 79 40 80 41 81 44 82 42 83 68 84 69 85 77 86 70 87 71 88
REMARK SMILES IDX 75 89 78 90 72 91 73 92 76 93 74 94 53 95 54 96 62 97 55 98
REMARK SMILES IDX 56 99 60 100 63 101 57 102 58 103 61 104 59 105
REMARK H PARENT 8 15 100 22 98 27 83 58 51 69
REMARK Flexibility Score: inf
ROOT
ATOM      1  O   UNL A   1      32.517  34.537  29.079  1.00  0.00    -0.377 OA
ENDROOT
BRANCH   1   2
ATOM      2  C   UNL A   1      33.049  33.795  27.992  1.00  0.00     0.188 C 
BRANCH   2   3
ATOM      3  C   UNL A   1      34.045  32.666  28.341  1.00  0.00     0.188 C 
BRANCH   3   4
ATOM      4  O   UNL A   1      34.206  31.653  27.371  1.00  0.00    -0.376 OA
BRANCH   4   5
ATOM      5  C   UNL A   1      33.814  30.308  27.554  1.00  0.00     0.202 C 
BRANCH   5   6
ATOM      6  C   UNL A   1      32.510  29.686  27.039  1.00  0.00     0.261 C 
BRANCH   6   7
ATOM      7  O   UNL A   1      32.394  28.268  27.145  1.00  0.00    -0.459 OA
BRANCH   7   8
ATOM      8  C   UNL A   1      32.520  27.571  25.992  1.00  0.00     0.356 C 
ATOM      9  O   UNL A   1      33.316  27.856  25.096  1.00  0.00    -0.244 OA
BRANCH   8  10
ATOM     10  C   UNL A   1      31.801  26.323  26.028  1.00  0.00     0.147 A 
ATOM     11  C   UNL A   1      30.978  25.557  25.189  1.00  0.00     0.013 A 
ATOM     12  C   UNL A   1      30.688  24.411  25.993  1.00  0.00     0.140 A 
ATOM     13  N   UNL A   1      31.206  24.467  27.213  1.00  0.00    -0.183 NA
ATOM     14  N   UNL A   1      31.900  25.603  27.195  1.00  0.00    -0.271 N 
ATOM     15  H   UNL A   1      32.443  25.904  27.960  1.00  0.00     0.190 HD
BRANCH  11  16
ATOM     16  C   UNL A   1      30.507  25.646  23.738  1.00  0.00     0.069 C 
ATOM     17  O   UNL A   1      29.448  29.124  22.792  1.00  0.00    -0.275 OA
ATOM     18  C   UNL A   1      30.050  28.049  22.752  1.00  0.00     0.226 C 
ATOM     19  C   UNL A   1      29.520  26.820  23.489  1.00  0.00     0.114 C 
ATOM     20  N   UNL A   1      31.140  27.910  21.932  1.00  0.00    -0.311 N 
ATOM     21  C   UNL A   1      31.816  26.724  21.905  1.00  0.00     0.132 A 
ATOM     22  H   UNL A   1      31.434  28.660  21.367  1.00  0.00     0.171 HD
ATOM     23  C   UNL A   1      31.556  25.633  22.690  1.00  0.00     0.031 A 
ATOM     24  N   UNL A   1      32.896  26.417  21.140  1.00  0.00    -0.262 N 
ATOM     25  C   UNL A   1      32.522  24.673  22.293  1.00  0.00     0.108 A 
ATOM     26  N   UNL A   1      33.386  25.188  21.402  1.00  0.00    -0.173 NA
ATOM     27  H   UNL A   1      33.279  27.025  20.467  1.00  0.00     0.192 HD
BRANCH  25  28
ATOM     28  C   UNL A   1      32.707  23.324  22.917  1.00  0.00     0.055 A 
ATOM     29  C   UNL A   1      31.862  22.257  22.692  1.00  0.00     0.022 A 
ATOM     30  S   UNL A   1      34.040  22.885  23.887  1.00  0.00    -0.142 S 
ATOM     31  C   UNL A   1      32.402  21.039  23.200  1.00  0.00     0.012 A 
ATOM     32  C   UNL A   1      33.559  21.247  23.917  1.00  0.00     0.065 A 
ENDBRANCH  25  28
ENDBRANCH  11  16
ENDBRANCH   8  10
ENDBRANCH   7   8
ENDBRANCH   6   7
ENDBRANCH   5   6
ENDBRANCH   4   5
ENDBRANCH   3   4
ENDBRANCH   2   3
ENDBRANCH   1   2
BRANCH   1  33
ATOM     33  C   UNL A   1      33.419  35.448  29.671  1.00  0.00     0.188 C 
BRANCH  33  34
ATOM     34  C   UNL A   1      33.093  35.835  31.129  1.00  0.00     0.188 C 
BRANCH  34  35
ATOM     35  O   UNL A   1      33.904  35.506  32.257  1.00  0.00    -0.376 OA
BRANCH  35  36
ATOM     36  C   UNL A   1      34.934  34.529  32.241  1.00  0.00     0.202 C 
BRANCH  36  37
ATOM     37  C   UNL A   1      34.633  33.091  32.654  1.00  0.00     0.261 C 
BRANCH  37  38
ATOM     38  O   UNL A   1      34.853  32.169  31.610  1.00  0.00    -0.460 OA
BRANCH  38  39
ATOM     39  C   UNL A   1      35.948  31.410  31.796  1.00  0.00     0.338 C 
ATOM     40  O   UNL A   1      36.473  31.106  32.854  1.00  0.00    -0.246 OA
BRANCH  39  41
ATOM     41  C   UNL A   1      36.507  31.073  30.476  1.00  0.00     0.060 A 
ATOM     42  C   UNL A   1      36.407  29.715  30.189  1.00  0.00     0.016 A 
ATOM     43  C   UNL A   1      37.547  31.879  29.990  1.00  0.00     0.016 A 
ATOM     44  C   UNL A   1      37.578  29.084  29.878  1.00  0.00     0.010 A 
ATOM     45  C   UNL A   1      38.719  31.249  29.678  1.00  0.00     0.010 A 
ATOM     46  C   UNL A   1      38.736  29.863  29.778  1.00  0.00    -0.014 A 
BRANCH  46  47
ATOM     47  C   UNL A   1      39.989  29.156  29.803  1.00  0.00     0.031 A 
ATOM     48  C   UNL A   1      40.558  29.088  31.158  1.00  0.00     0.074 A 
ATOM     49  C   UNL A   1      40.517  28.611  28.695  1.00  0.00     0.049 A 
ATOM     50  N   UNL A   1      41.633  29.647  31.599  1.00  0.00    -0.248 NA
ATOM     51  C   UNL A   1      39.709  28.480  32.194  1.00  0.00     0.031 C 
ATOM     52  C   UNL A   1      39.895  28.390  27.386  1.00  0.00     0.029 A 
ATOM     53  N   UNL A   1      41.737  28.036  28.555  1.00  0.00    -0.354 N 
ATOM     54  C   UNL A   1      41.686  29.311  32.946  1.00  0.00     0.074 A 
ATOM     55  C   UNL A   1      40.400  28.769  33.293  1.00  0.00     0.031 C 
ATOM     56  C   UNL A   1      40.655  27.522  26.679  1.00  0.00     0.029 A 
ATOM     57  C   UNL A   1      41.865  27.237  27.432  1.00  0.00     0.049 A 
ATOM     58  H   UNL A   1      42.470  28.175  29.197  1.00  0.00     0.167 HD
ATOM     59  C   UNL A   1      42.867  29.276  33.614  1.00  0.00     0.037 A 
ATOM     60  C   UNL A   1      42.850  26.326  27.241  1.00  0.00     0.037 A 
ATOM     61  C   UNL A   1      43.878  30.043  32.938  1.00  0.00     0.049 A 
ATOM     62  C   UNL A   1      43.954  26.657  28.187  1.00  0.00     0.074 A 
ATOM     63  C   UNL A   1      44.018  31.382  32.623  1.00  0.00     0.029 A 
ATOM     64  N   UNL A   1      44.781  29.376  32.146  1.00  0.00    -0.354 N 
ATOM     65  N   UNL A   1      44.701  27.724  28.090  1.00  0.00    -0.248 NA
ATOM     66  C   UNL A   1      43.909  26.050  29.512  1.00  0.00     0.031 C 
ATOM     67  C   UNL A   1      44.650  31.400  31.347  1.00  0.00     0.029 A 
ATOM     68  C   UNL A   1      44.896  30.079  30.974  1.00  0.00     0.049 A 
ATOM     69  H   UNL A   1      45.257  28.546  32.378  1.00  0.00     0.167 HD
ATOM     70  C   UNL A   1      44.894  28.150  29.398  1.00  0.00     0.074 A 
ATOM     71  C   UNL A   1      44.443  27.041  30.233  1.00  0.00     0.031 C 
ATOM     72  C   UNL A   1      45.128  29.463  29.687  1.00  0.00     0.037 A 
BRANCH  59  73
ATOM     73  C   UNL A   1      43.180  28.255  34.674  1.00  0.00     0.064 A 
ATOM     74  C   UNL A   1      43.554  28.696  35.954  1.00  0.00     0.173 A 
ATOM     75  C   UNL A   1      43.405  26.885  34.409  1.00  0.00     0.173 A 
ATOM     76  F   UNL A   1      43.402  29.983  36.305  1.00  0.00    -0.203 F 
ATOM     77  C   UNL A   1      44.176  27.846  36.871  1.00  0.00     0.198 A 
ATOM     78  C   UNL A   1      43.969  26.026  35.347  1.00  0.00     0.198 A 
ATOM     79  F   UNL A   1      43.198  26.339  33.205  1.00  0.00    -0.203 F 
ATOM     80  F   UNL A   1      44.629  28.341  38.030  1.00  0.00    -0.200 F 
ATOM     81  C   UNL A   1      44.386  26.514  36.566  1.00  0.00     0.200 A 
ATOM     82  F   UNL A   1      44.178  24.743  35.023  1.00  0.00    -0.200 F 
ATOM     83  F   UNL A   1      45.036  25.713  37.419  1.00  0.00    -0.200 F 
ENDBRANCH  59  73
BRANCH  60  84
ATOM     84  C   UNL A   1      42.717  25.002  26.592  1.00  0.00     0.064 A 
ATOM     85  C   UNL A   1      43.464  24.671  25.451  1.00  0.00     0.173 A 
ATOM     86  C   UNL A   1      42.040  23.940  27.227  1.00  0.00     0.173 A 
ATOM     87  F   UNL A   1      44.183  25.612  24.823  1.00  0.00    -0.203 F 
ATOM     88  C   UNL A   1      43.529  23.357  24.975  1.00  0.00     0.198 A 
ATOM     89  C   UNL A   1      42.099  22.633  26.747  1.00  0.00     0.198 A 
ATOM     90  F   UNL A   1      41.382  24.135  28.378  1.00  0.00    -0.203 F 
ATOM     91  F   UNL A   1      44.292  23.069  23.912  1.00  0.00    -0.200 F 
ATOM     92  C   UNL A   1      42.851  22.339  25.627  1.00  0.00     0.200 A 
ATOM     93  F   UNL A   1      41.470  21.652  27.411  1.00  0.00    -0.200 F 
ATOM     94  F   UNL A   1      42.955  21.073  25.201  1.00  0.00    -0.200 F 
ENDBRANCH  60  84
BRANCH  72  95
ATOM     95  C   UNL A   1      45.396  30.395  28.540  1.00  0.00     0.064 A 
ATOM     96  C   UNL A   1      44.379  31.043  27.815  1.00  0.00     0.173 A 
ATOM     97  C   UNL A   1      46.717  30.781  28.285  1.00  0.00     0.173 A 
ATOM     98  F   UNL A   1      43.089  30.800  28.077  1.00  0.00    -0.203 F 
ATOM     99  C   UNL A   1      44.679  32.007  26.855  1.00  0.00     0.198 A 
ATOM    100  C   UNL A   1      47.012  31.771  27.351  1.00  0.00     0.198 A 
ATOM    101  F   UNL A   1      47.723  30.241  28.991  1.00  0.00    -0.203 F 
ATOM    102  F   UNL A   1      43.692  32.609  26.174  1.00  0.00    -0.200 F 
ATOM    103  C   UNL A   1      45.995  32.377  26.631  1.00  0.00     0.200 A 
ATOM    104  F   UNL A   1      48.281  32.163  27.175  1.00  0.00    -0.200 F 
ATOM    105  F   UNL A   1      46.282  33.340  25.744  1.00  0.00    -0.200 F 
ENDBRANCH  72  95
ENDBRANCH  46  47
ENDBRANCH  39  41
ENDBRANCH  38  39
ENDBRANCH  37  38
ENDBRANCH  36  37
ENDBRANCH  35  36
ENDBRANCH  34  35
ENDBRANCH  33  34
ENDBRANCH   1  33
TORSDOF 22
ENDMDL
MODEL 3
REMARK VINA RESULT:     -11.7      1.605      2.916
REMARK SMILES O=C1C[C@H](c2cn[nH]c2C(=O)OCCOCCOCCOCCOC(=O)c2ccc(-c3c4nc(c(-c5c(F)c(F)c(F)c(F)c5F)c5ccc([nH]5)c(-c5c(F)c(F)c(F)c(F)c5F)c5nc(c(-c6c(F)c(F)c(F)c(F)c6F)c6ccc3[nH]6)C=C5)C=C4)cc2)c2c(-c3cccs3)n[nH]c2N1
REMARK SMILES IDX 18 1 17 2 16 3 15 4 14 5 13 6 12 7 10 8 11 9 9 10 5 11 6 12
REMARK SMILES IDX 7 13 8 14 4 16 1 17 2 18 3 19 100 20 99 21 90 23 98 24 91 25
REMARK SMILES IDX 97 26 92 28 93 29 96 30 94 31 95 32 19 33 20 34 21 35 22 36
REMARK SMILES IDX 23 37 24 38 25 39 26 40 27 41 28 42 89 43 29 44 88 45 30 46
REMARK SMILES IDX 31 47 32 48 82 49 33 50 87 51 81 52 83 53 34 54 86 55 80 56
REMARK SMILES IDX 79 57 35 59 67 60 47 61 66 62 48 63 51 64 65 65 84 66 49 67
REMARK SMILES IDX 50 68 64 70 85 71 52 72 36 73 37 74 45 75 38 76 39 77 43 78
REMARK SMILES IDX 46 79 40 80 41 81 44 82 42 83 68 84 69 85 77 86 70 87 71 88
REMARK SMILES IDX 75 89 78 90 72 91 73 92 76 93 74 94 53 95 54 96 62 97 55 98
REMARK SMILES IDX 56 99 60 100 63 101 57 102 58 103 61 104 59 105
REMARK H PARENT 8 15 100 22 98 27 83 58 51 69
REMARK Flexibility Score: inf
ROOT
ATOM      1  O   UNL A   1      40.067  21.165  27.130  1.00  0.00    -0.377 OA
ENDROOT
BRANCH   1   2
ATOM      2  C   UNL A   1      39.356  22.196  26.464  1.00  0.00     0.188 C 
BRANCH   2   3
ATOM      3  C   UNL A   1      38.127  21.767  25.629  1.00  0.00     0.188 C 
BRANCH   3   4
ATOM      4  O   UNL A   1      37.284  22.805  25.180  1.00  0.00    -0.376 OA
BRANCH   4   5
ATOM      5  C   UNL A   1      35.986  22.605  24.656  1.00  0.00     0.202 C 
BRANCH   5   6
ATOM      6  C   UNL A   1      35.376  23.377  23.480  1.00  0.00     0.261 C 
BRANCH   6   7
ATOM      7  O   UNL A   1      34.713  24.601  23.796  1.00  0.00    -0.459 OA
BRANCH   7   8
ATOM      8  C   UNL A   1      34.032  25.189  22.785  1.00  0.00     0.356 C 
ATOM      9  O   UNL A   1      33.545  24.578  21.833  1.00  0.00    -0.244 OA
BRANCH   8  10
ATOM     10  C   UNL A   1      33.728  26.570  23.064  1.00  0.00     0.147 A 
ATOM     11  C   UNL A   1      33.589  27.414  24.176  1.00  0.00     0.013 A 
ATOM     12  C   UNL A   1      33.292  28.677  23.577  1.00  0.00     0.140 A 
ATOM     13  N   UNL A   1      33.191  28.633  22.254  1.00  0.00    -0.183 NA
ATOM     14  N   UNL A   1      33.495  27.369  21.970  1.00  0.00    -0.271 N 
ATOM     15  H   UNL A   1      33.549  27.031  21.046  1.00  0.00     0.190 HD
BRANCH  11  16
ATOM     16  C   UNL A   1      33.792  27.282  25.684  1.00  0.00     0.069 C 
ATOM     17  O   UNL A   1      34.799  30.530  27.279  1.00  0.00    -0.275 OA
ATOM     18  C   UNL A   1      34.158  29.501  27.062  1.00  0.00     0.226 C 
ATOM     19  C   UNL A   1      34.763  28.347  26.264  1.00  0.00     0.114 C 
ATOM     20  N   UNL A   1      32.933  29.325  27.652  1.00  0.00    -0.311 N 
ATOM     21  C   UNL A   1      32.217  28.192  27.395  1.00  0.00     0.132 A 
ATOM     22  H   UNL A   1      32.571  30.012  28.257  1.00  0.00     0.171 HD
ATOM     23  C   UNL A   1      32.571  27.199  26.522  1.00  0.00     0.031 A 
ATOM     24  N   UNL A   1      31.005  27.857  27.909  1.00  0.00    -0.262 N 
ATOM     25  C   UNL A   1      31.512  26.259  26.605  1.00  0.00     0.108 A 
ATOM     26  N   UNL A   1      30.521  26.708  27.396  1.00  0.00    -0.173 NA
ATOM     27  H   UNL A   1      30.531  28.396  28.584  1.00  0.00     0.192 HD
BRANCH  25  28
ATOM     28  C   UNL A   1      31.389  25.019  25.776  1.00  0.00     0.055 A 
ATOM     29  C   UNL A   1      30.650  24.950  24.612  1.00  0.00     0.022 A 
ATOM     30  S   UNL A   1      32.230  23.566  26.082  1.00  0.00    -0.142 S 
ATOM     31  C   UNL A   1      30.904  23.742  23.897  1.00  0.00     0.012 A 
ATOM     32  C   UNL A   1      31.706  22.879  24.610  1.00  0.00     0.065 A 
ENDBRANCH  25  28
ENDBRANCH  11  16
ENDBRANCH   8  10
ENDBRANCH   7   8
ENDBRANCH   6   7
ENDBRANCH   5   6
ENDBRANCH   4   5
ENDBRANCH   3   4
ENDBRANCH   2   3
ENDBRANCH   1   2
BRANCH   1  33
ATOM     33  C   UNL A   1      40.588  20.162  26.283  1.00  0.00     0.188 C 
BRANCH  33  34
ATOM     34  C   UNL A   1      42.127  20.055  26.267  1.00  0.00     0.188 C 
BRANCH  34  35
ATOM     35  O   UNL A   1      42.969  20.601  25.252  1.00  0.00    -0.376 OA
BRANCH  35  36
ATOM     36  C   UNL A   1      44.183  21.291  25.508  1.00  0.00     0.202 C 
BRANCH  36  37
ATOM     37  C   UNL A   1      44.260  22.803  25.314  1.00  0.00     0.261 C 
BRANCH  37  38
ATOM     38  O   UNL A   1      43.002  23.382  25.053  1.00  0.00    -0.460 OA
BRANCH  38  39
ATOM     39  C   UNL A   1      42.942  24.687  25.376  1.00  0.00     0.338 C 
ATOM     40  O   UNL A   1      43.713  25.572  25.045  1.00  0.00    -0.246 OA
BRANCH  39  41
ATOM     41  C   UNL A   1      41.825  24.881  26.315  1.00  0.00     0.060 A 
ATOM     42  C   UNL A   1      40.853  25.740  25.812  1.00  0.00     0.016 A 
ATOM     43  C   UNL A   1      42.104  24.767  27.685  1.00  0.00     0.016 A 
ATOM     44  C   UNL A   1      40.552  26.822  26.590  1.00  0.00     0.010 A 
ATOM     45  C   UNL A   1      41.803  25.847  28.466  1.00  0.00     0.010 A 
ATOM     46  C   UNL A   1      41.160  26.913  27.847  1.00  0.00    -0.014 A 
BRANCH  46  47
ATOM     47  C   UNL A   1      41.114  28.199  28.490  1.00  0.00     0.031 A 
ATOM     48  C   UNL A   1      42.222  29.068  28.069  1.00  0.00     0.074 A 
ATOM     49  C   UNL A   1      40.130  28.530  29.343  1.00  0.00     0.049 A 
ATOM     50  N   UNL A   1      43.211  29.500  28.777  1.00  0.00    -0.248 NA
ATOM     51  C   UNL A   1      42.343  29.322  26.625  1.00  0.00     0.031 C 
ATOM     52  C   UNL A   1      38.858  27.846  29.597  1.00  0.00     0.029 A 
ATOM     53  N   UNL A   1      40.035  29.646  30.106  1.00  0.00    -0.354 N 
ATOM     54  C   UNL A   1      43.994  30.232  27.894  1.00  0.00     0.074 A 
ATOM     55  C   UNL A   1      43.524  29.929  26.569  1.00  0.00     0.031 C 
ATOM     56  C   UNL A   1      38.034  28.686  30.266  1.00  0.00     0.029 A 
ATOM     57  C   UNL A   1      38.764  29.900  30.590  1.00  0.00     0.049 A 
ATOM     58  H   UNL A   1      40.806  30.227  30.301  1.00  0.00     0.167 HD
ATOM     59  C   UNL A   1      44.809  31.223  28.336  1.00  0.00     0.037 A 
ATOM     60  C   UNL A   1      38.353  31.088  31.098  1.00  0.00     0.037 A 
ATOM     61  C   UNL A   1      45.097  31.082  29.738  1.00  0.00     0.049 A 
ATOM     62  C   UNL A   1      39.574  31.870  31.445  1.00  0.00     0.074 A 
ATOM     63  C   UNL A   1      45.742  30.123  30.494  1.00  0.00     0.029 A 
ATOM     64  N   UNL A   1      44.378  31.842  30.629  1.00  0.00    -0.354 N 
ATOM     65  N   UNL A   1      40.389  31.554  32.416  1.00  0.00    -0.248 NA
ATOM     66  C   UNL A   1      40.144  32.724  30.410  1.00  0.00     0.031 C 
ATOM     67  C   UNL A   1      45.018  30.064  31.719  1.00  0.00     0.029 A 
ATOM     68  C   UNL A   1      44.000  31.017  31.658  1.00  0.00     0.049 A 
ATOM     69  H   UNL A   1      44.173  32.801  30.545  1.00  0.00     0.167 HD
ATOM     70  C   UNL A   1      41.659  31.826  31.922  1.00  0.00     0.074 A 
ATOM     71  C   UNL A   1      41.441  32.611  30.712  1.00  0.00     0.031 C 
ATOM     72  C   UNL A   1      42.755  31.150  32.378  1.00  0.00     0.037 A 
BRANCH  59  73
ATOM     73  C   UNL A   1      45.036  32.499  27.572  1.00  0.00     0.064 A 
ATOM     74  C   UNL A   1      46.272  32.700  26.934  1.00  0.00     0.173 A 
ATOM     75  C   UNL A   1      44.211  33.642  27.681  1.00  0.00     0.173 A 
ATOM     76  F   UNL A   1      47.141  31.687  26.794  1.00  0.00    -0.203 F 
ATOM     77  C   UNL A   1      46.680  33.964  26.505  1.00  0.00     0.198 A 
ATOM     78  C   UNL A   1      44.596  34.889  27.198  1.00  0.00     0.198 A 
ATOM     79  F   UNL A   1      43.053  33.635  28.351  1.00  0.00    -0.203 F 
ATOM     80  F   UNL A   1      47.916  34.130  26.018  1.00  0.00    -0.200 F 
ATOM     81  C   UNL A   1      45.845  35.057  26.641  1.00  0.00     0.200 A 
ATOM     82  F   UNL A   1      43.776  35.937  27.353  1.00  0.00    -0.200 F 
ATOM     83  F   UNL A   1      46.258  36.280  26.285  1.00  0.00    -0.200 F 
ENDBRANCH  59  73
BRANCH  60  84
ATOM     84  C   UNL A   1      37.021  31.711  30.926  1.00  0.00     0.064 A 
ATOM     85  C   UNL A   1      36.193  31.974  32.028  1.00  0.00     0.173 A 
ATOM     86  C   UNL A   1      36.637  32.292  29.700  1.00  0.00     0.173 A 
ATOM     87  F   UNL A   1      36.519  31.504  33.241  1.00  0.00    -0.203 F 
ATOM     88  C   UNL A   1      35.049  32.772  31.909  1.00  0.00     0.198 A 
ATOM     89  C   UNL A   1      35.493  33.081  29.582  1.00  0.00     0.198 A 
ATOM     90  F   UNL A   1      37.414  32.183  28.614  1.00  0.00    -0.203 F 
ATOM     91  F   UNL A   1      34.309  33.043  32.993  1.00  0.00    -0.200 F 
ATOM     92  C   UNL A   1      34.704  33.328  30.688  1.00  0.00     0.200 A 
ATOM     93  F   UNL A   1      35.194  33.645  28.403  1.00  0.00    -0.200 F 
ATOM     94  F   UNL A   1      33.638  34.134  30.586  1.00  0.00    -0.200 F 
ENDBRANCH  60  84
BRANCH  72  95
ATOM     95  C   UNL A   1      42.583  30.269  33.582  1.00  0.00     0.064 A 
ATOM     96  C   UNL A   1      42.697  30.733  34.905  1.00  0.00     0.173 A 
ATOM     97  C   UNL A   1      42.114  28.963  33.394  1.00  0.00     0.173 A 
ATOM     98  F   UNL A   1      43.039  32.001  35.159  1.00  0.00    -0.203 F 
ATOM     99  C   UNL A   1      42.388  29.911  35.987  1.00  0.00     0.198 A 
ATOM    100  C   UNL A   1      41.771  28.156  34.476  1.00  0.00     0.198 A 
ATOM    101  F   UNL A   1      41.928  28.488  32.152  1.00  0.00    -0.203 F 
ATOM    102  F   UNL A   1      42.507  30.376  37.240  1.00  0.00    -0.200 F 
ATOM    103  C   UNL A   1      41.916  28.628  35.772  1.00  0.00     0.200 A 
ATOM    104  F   UNL A   1      41.266  26.934  34.262  1.00  0.00    -0.200 F 
ATOM    105  F   UNL A   1      41.570  27.854  36.810  1.00  0.00    -0.200 F 
ENDBRANCH  72  95
ENDBRANCH  46  47
ENDBRANCH  39  41
ENDBRANCH  38  39
ENDBRANCH  37  38
ENDBRANCH  36  37
ENDBRANCH  35  36
ENDBRANCH  34  35
ENDBRANCH  33  34
ENDBRANCH   1  33
TORSDOF 22
ENDMDL
