MODEL 1
REMARK VINA RESULT:     -11.4      0.000      0.000
REMARK SMILES O=C(OCCOCCOCCOCCOC(=O)c1oc2cccc3c2c1CCC3)c1ccc(-c2c3nc(c(-c4c(F)c(F)c(F)c(F)c4F)c4ccc([nH]4)c(-c4c(F)c(F)c(F)c(F)c4F)c4nc(c(-c5c(F)c(F)c(F)c(F)c5F)c5ccc2[nH]5)C=C4)C=C3)cc1
REMARK SMILES IDX 8 1 7 2 6 3 5 4 4 5 3 6 2 7 1 8 30 9 31 10 92 11 32 12 91 13
REMARK SMILES IDX 33 14 34 15 35 16 85 17 36 18 90 19 84 20 86 21 37 22 89 23
REMARK SMILES IDX 83 24 82 25 38 27 70 28 50 29 69 30 51 31 54 32 68 33 87 34
REMARK SMILES IDX 52 35 53 36 67 38 88 39 55 40 39 41 40 42 48 43 41 44 42 45
REMARK SMILES IDX 46 46 49 47 43 48 44 49 47 50 45 51 71 52 72 53 80 54 73 55
REMARK SMILES IDX 74 56 78 57 81 58 75 59 76 60 79 61 77 62 56 63 57 64 65 65
REMARK SMILES IDX 58 66 59 67 63 68 66 69 60 70 61 71 64 72 62 73 9 74 10 75
REMARK SMILES IDX 11 76 12 77 13 78 14 79 15 80 16 81 17 82 18 83 19 84 26 85
REMARK SMILES IDX 20 86 25 87 27 88 21 89 24 90 28 91 22 92 23 93 29 94
REMARK H PARENT 86 26 54 37
REMARK Flexibility Score: inf
ROOT
ATOM      1  C   UNL A   1      38.522  21.843  25.548  1.00  0.00     0.188 C 
ENDROOT
BRANCH   1   2
ATOM      2  C   UNL A   1      39.345  22.497  26.659  1.00  0.00     0.188 C 
BRANCH   2   3
ATOM      3  O   UNL A   1      40.421  21.772  27.281  1.00  0.00    -0.376 OA
BRANCH   3   4
ATOM      4  C   UNL A   1      41.156  20.787  26.561  1.00  0.00     0.202 C 
BRANCH   4   5
ATOM      5  C   UNL A   1      42.469  21.300  25.976  1.00  0.00     0.261 C 
BRANCH   5   6
ATOM      6  O   UNL A   1      42.332  22.452  25.116  1.00  0.00    -0.460 OA
BRANCH   6   7
ATOM      7  C   UNL A   1      43.038  23.578  25.376  1.00  0.00     0.338 C 
ATOM      8  O   UNL A   1      44.031  23.910  24.748  1.00  0.00    -0.246 OA
BRANCH   7   9
ATOM      9  C   UNL A   1      42.314  24.529  26.245  1.00  0.00     0.060 A 
ATOM     10  C   UNL A   1      41.437  25.486  25.731  1.00  0.00     0.016 A 
ATOM     11  C   UNL A   1      42.612  24.498  27.614  1.00  0.00     0.016 A 
ATOM     12  C   UNL A   1      41.058  26.546  26.506  1.00  0.00     0.010 A 
ATOM     13  C   UNL A   1      42.224  25.558  28.409  1.00  0.00     0.010 A 
ATOM     14  C   UNL A   1      41.551  26.615  27.801  1.00  0.00    -0.014 A 
BRANCH  14  15
ATOM     15  C   UNL A   1      41.472  27.929  28.392  1.00  0.00     0.031 A 
ATOM     16  C   UNL A   1      42.627  28.816  28.139  1.00  0.00     0.074 A 
ATOM     17  C   UNL A   1      40.437  28.201  29.205  1.00  0.00     0.049 A 
ATOM     18  N   UNL A   1      43.432  29.350  28.999  1.00  0.00    -0.248 NA
ATOM     19  C   UNL A   1      42.992  29.043  26.734  1.00  0.00     0.031 C 
ATOM     20  C   UNL A   1      39.182  27.454  29.356  1.00  0.00     0.029 A 
ATOM     21  N   UNL A   1      40.256  29.276  30.010  1.00  0.00    -0.354 N 
ATOM     22  C   UNL A   1      44.322  30.110  28.251  1.00  0.00     0.074 A 
ATOM     23  C   UNL A   1      44.081  29.797  26.863  1.00  0.00     0.031 C 
ATOM     24  C   UNL A   1      38.286  28.232  30.001  1.00  0.00     0.029 A 
ATOM     25  C   UNL A   1      38.942  29.465  30.396  1.00  0.00     0.049 A 
ATOM     26  H   UNL A   1      40.991  29.866  30.293  1.00  0.00     0.167 HD
ATOM     27  C   UNL A   1      45.073  31.099  28.799  1.00  0.00     0.037 A 
ATOM     28  C   UNL A   1      38.428  30.624  30.869  1.00  0.00     0.037 A 
ATOM     29  C   UNL A   1      45.223  30.958  30.217  1.00  0.00     0.049 A 
ATOM     30  C   UNL A   1      39.567  31.445  31.362  1.00  0.00     0.074 A 
ATOM     31  C   UNL A   1      45.846  30.034  31.031  1.00  0.00     0.029 A 
ATOM     32  N   UNL A   1      44.400  31.687  31.039  1.00  0.00    -0.354 N 
ATOM     33  N   UNL A   1      40.285  31.145  32.410  1.00  0.00    -0.248 NA
ATOM     34  C   UNL A   1      40.191  32.375  30.429  1.00  0.00     0.031 C 
ATOM     35  C   UNL A   1      45.037  29.954  32.199  1.00  0.00     0.029 A 
ATOM     36  C   UNL A   1      43.978  30.849  32.040  1.00  0.00     0.049 A 
ATOM     37  H   UNL A   1      44.158  32.635  30.930  1.00  0.00     0.167 HD
ATOM     38  C   UNL A   1      41.580  31.523  32.080  1.00  0.00     0.074 A 
ATOM     39  C   UNL A   1      41.444  32.357  30.891  1.00  0.00     0.031 C 
ATOM     40  C   UNL A   1      42.660  30.898  32.632  1.00  0.00     0.037 A 
BRANCH  27  41
ATOM     41  C   UNL A   1      45.418  32.352  28.055  1.00  0.00     0.064 A 
ATOM     42  C   UNL A   1      44.439  33.322  27.791  1.00  0.00     0.173 A 
ATOM     43  C   UNL A   1      46.644  32.504  27.370  1.00  0.00     0.173 A 
ATOM     44  F   UNL A   1      43.224  33.235  28.354  1.00  0.00    -0.203 F 
ATOM     45  C   UNL A   1      44.669  34.364  26.889  1.00  0.00     0.198 A 
ATOM     46  C   UNL A   1      46.890  33.573  26.515  1.00  0.00     0.198 A 
ATOM     47  F   UNL A   1      47.603  31.567  27.428  1.00  0.00    -0.203 F 
ATOM     48  F   UNL A   1      43.680  35.218  26.592  1.00  0.00    -0.200 F 
ATOM     49  C   UNL A   1      45.895  34.492  26.257  1.00  0.00     0.200 A 
ATOM     50  F   UNL A   1      48.075  33.663  25.895  1.00  0.00    -0.200 F 
ATOM     51  F   UNL A   1      46.103  35.468  25.364  1.00  0.00    -0.200 F 
ENDBRANCH  27  41
BRANCH  28  52
ATOM     52  C   UNL A   1      37.104  31.191  30.520  1.00  0.00     0.064 A 
ATOM     53  C   UNL A   1      36.184  31.527  31.523  1.00  0.00     0.173 A 
ATOM     54  C   UNL A   1      36.804  31.649  29.219  1.00  0.00     0.173 A 
ATOM     55  F   UNL A   1      36.419  31.174  32.796  1.00  0.00    -0.203 F 
ATOM     56  C   UNL A   1      35.044  32.288  31.246  1.00  0.00     0.198 A 
ATOM     57  C   UNL A   1      35.658  32.393  28.941  1.00  0.00     0.198 A 
ATOM     58  F   UNL A   1      37.658  31.470  28.202  1.00  0.00    -0.203 F 
ATOM     59  F   UNL A   1      34.221  32.644  32.243  1.00  0.00    -0.200 F 
ATOM     60  C   UNL A   1      34.786  32.725  29.956  1.00  0.00     0.200 A 
ATOM     61  F   UNL A   1      35.441  32.836  27.694  1.00  0.00    -0.200 F 
ATOM     62  F   UNL A   1      33.721  33.499  29.701  1.00  0.00    -0.200 F 
ENDBRANCH  28  52
BRANCH  40  63
ATOM     63  C   UNL A   1      42.408  29.965  33.782  1.00  0.00     0.064 A 
ATOM     64  C   UNL A   1      42.018  28.625  33.613  1.00  0.00     0.173 A 
ATOM     65  C   UNL A   1      42.730  30.386  35.078  1.00  0.00     0.173 A 
ATOM     66  F   UNL A   1      41.802  28.121  32.392  1.00  0.00    -0.203 F 
ATOM     67  C   UNL A   1      41.911  27.761  34.701  1.00  0.00     0.198 A 
ATOM     68  C   UNL A   1      42.658  29.511  36.159  1.00  0.00     0.198 A 
ATOM     69  F   UNL A   1      43.172  31.636  35.289  1.00  0.00    -0.203 F 
ATOM     70  F   UNL A   1      41.533  26.487  34.514  1.00  0.00    -0.200 F 
ATOM     71  C   UNL A   1      42.240  28.202  35.972  1.00  0.00     0.200 A 
ATOM     72  F   UNL A   1      43.028  29.925  37.379  1.00  0.00    -0.200 F 
ATOM     73  F   UNL A   1      42.186  27.358  37.012  1.00  0.00    -0.200 F 
ENDBRANCH  40  63
ENDBRANCH  14  15
ENDBRANCH   7   9
ENDBRANCH   6   7
ENDBRANCH   5   6
ENDBRANCH   4   5
ENDBRANCH   3   4
ENDBRANCH   2   3
ENDBRANCH   1   2
BRANCH   1  74
ATOM     74  O   UNL A   1      37.133  22.127  25.548  1.00  0.00    -0.377 OA
BRANCH  74  75
ATOM     75  C   UNL A   1      36.285  21.435  24.652  1.00  0.00     0.188 C 
BRANCH  75  76
ATOM     76  C   UNL A   1      34.953  20.925  25.228  1.00  0.00     0.188 C 
BRANCH  76  77
ATOM     77  O   UNL A   1      33.720  21.583  24.945  1.00  0.00    -0.376 OA
BRANCH  77  78
ATOM     78  C   UNL A   1      32.740  21.741  25.955  1.00  0.00     0.202 C 
BRANCH  78  79
ATOM     79  C   UNL A   1      31.354  22.098  25.400  1.00  0.00     0.261 C 
BRANCH  79  80
ATOM     80  O   UNL A   1      31.119  23.503  25.213  1.00  0.00    -0.457 OA
BRANCH  80  81
ATOM     81  C   UNL A   1      30.547  24.175  26.257  1.00  0.00     0.374 C 
ATOM     82  O   UNL A   1      29.975  23.654  27.208  1.00  0.00    -0.242 OA
BRANCH  81  83
ATOM     83  C   UNL A   1      30.806  25.588  26.103  1.00  0.00     0.216 A 
ATOM     84  O   UNL A   1      31.378  26.287  27.163  1.00  0.00    -0.449 OA
ATOM     85  C   UNL A   1      30.684  26.435  25.021  1.00  0.00     0.014 A 
ATOM     86  C   UNL A   1      31.590  27.574  26.740  1.00  0.00     0.135 A 
ATOM     87  C   UNL A   1      31.114  27.696  25.459  1.00  0.00     0.028 A 
ATOM     88  C   UNL A   1      30.198  26.292  23.626  1.00  0.00     0.041 C 
ATOM     89  C   UNL A   1      32.170  28.640  27.417  1.00  0.00     0.048 A 
ATOM     90  C   UNL A   1      31.088  28.907  24.768  1.00  0.00    -0.037 A 
ATOM     91  C   UNL A   1      29.571  27.640  23.166  1.00  0.00     0.010 C 
ATOM     92  C   UNL A   1      32.199  29.864  26.716  1.00  0.00     0.004 A 
ATOM     93  C   UNL A   1      31.659  30.003  25.421  1.00  0.00     0.004 A 
ATOM     94  C   UNL A   1      30.482  28.896  23.390  1.00  0.00     0.036 C 
ENDBRANCH  81  83
ENDBRANCH  80  81
ENDBRANCH  79  80
ENDBRANCH  78  79
ENDBRANCH  77  78
ENDBRANCH  76  77
ENDBRANCH  75  76
ENDBRANCH  74  75
ENDBRANCH   1  74
TORSDOF 20
ENDMDL
MODEL 2
REMARK VINA RESULT:     -11.0      2.125      2.975
REMARK SMILES O=C(OCCOCCOCCOCCOC(=O)c1oc2cccc3c2c1CCC3)c1ccc(-c2c3nc(c(-c4c(F)c(F)c(F)c(F)c4F)c4ccc([nH]4)c(-c4c(F)c(F)c(F)c(F)c4F)c4nc(c(-c5c(F)c(F)c(F)c(F)c5F)c5ccc2[nH]5)C=C4)C=C3)cc1
REMARK SMILES IDX 8 1 7 2 6 3 5 4 4 5 3 6 2 7 1 8 30 9 31 10 92 11 32 12 91 13
REMARK SMILES IDX 33 14 34 15 35 16 85 17 36 18 90 19 84 20 86 21 37 22 89 23
REMARK SMILES IDX 83 24 82 25 38 27 70 28 50 29 69 30 51 31 54 32 68 33 87 34
REMARK SMILES IDX 52 35 53 36 67 38 88 39 55 40 39 41 40 42 48 43 41 44 42 45
REMARK SMILES IDX 46 46 49 47 43 48 44 49 47 50 45 51 71 52 72 53 80 54 73 55
REMARK SMILES IDX 74 56 78 57 81 58 75 59 76 60 79 61 77 62 56 63 57 64 65 65
REMARK SMILES IDX 58 66 59 67 63 68 66 69 60 70 61 71 64 72 62 73 9 74 10 75
REMARK SMILES IDX 11 76 12 77 13 78 14 79 15 80 16 81 17 82 18 83 19 84 26 85
REMARK SMILES IDX 20 86 25 87 27 88 21 89 24 90 28 91 22 92 23 93 29 94
REMARK H PARENT 86 26 54 37
REMARK Flexibility Score: inf
ROOT
ATOM      1  C   UNL A   1      39.172  21.801  26.041  1.00  0.00     0.188 C 
ENDROOT
BRANCH   1   2
ATOM      2  C   UNL A   1      40.068  22.278  27.184  1.00  0.00     0.188 C 
BRANCH   2   3
ATOM      3  O   UNL A   1      41.069  21.402  27.730  1.00  0.00    -0.376 OA
BRANCH   3   4
ATOM      4  C   UNL A   1      41.164  20.043  27.310  1.00  0.00     0.202 C 
BRANCH   4   5
ATOM      5  C   UNL A   1      42.378  19.750  26.432  1.00  0.00     0.261 C 
BRANCH   5   6
ATOM      6  O   UNL A   1      42.635  20.743  25.415  1.00  0.00    -0.460 OA
BRANCH   6   7
ATOM      7  C   UNL A   1      43.908  21.103  25.129  1.00  0.00     0.338 C 
ATOM      8  O   UNL A   1      44.658  20.430  24.437  1.00  0.00    -0.246 OA
BRANCH   7   9
ATOM      9  C   UNL A   1      44.194  22.520  25.434  1.00  0.00     0.060 A 
ATOM     10  C   UNL A   1      45.057  22.899  26.465  1.00  0.00     0.016 A 
ATOM     11  C   UNL A   1      43.489  23.485  24.703  1.00  0.00     0.016 A 
ATOM     12  C   UNL A   1      45.032  24.182  26.933  1.00  0.00     0.010 A 
ATOM     13  C   UNL A   1      43.467  24.788  25.160  1.00  0.00     0.010 A 
ATOM     14  C   UNL A   1      44.154  25.077  26.337  1.00  0.00    -0.014 A 
BRANCH  14  15
ATOM     15  C   UNL A   1      43.873  26.246  27.134  1.00  0.00     0.031 A 
ATOM     16  C   UNL A   1      44.899  27.309  27.097  1.00  0.00     0.074 A 
ATOM     17  C   UNL A   1      42.786  26.231  27.925  1.00  0.00     0.049 A 
ATOM     18  N   UNL A   1      45.594  27.788  28.076  1.00  0.00    -0.248 NA
ATOM     19  C   UNL A   1      45.270  27.823  25.771  1.00  0.00     0.031 C 
ATOM     20  C   UNL A   1      41.644  25.310  27.881  1.00  0.00     0.029 A 
ATOM     21  N   UNL A   1      42.431  27.116  28.888  1.00  0.00    -0.354 N 
ATOM     22  C   UNL A   1      46.391  28.778  27.515  1.00  0.00     0.074 A 
ATOM     23  C   UNL A   1      46.238  28.682  26.084  1.00  0.00     0.031 C 
ATOM     24  C   UNL A   1      40.629  25.837  28.598  1.00  0.00     0.029 A 
ATOM     25  C   UNL A   1      41.093  27.059  29.229  1.00  0.00     0.049 A 
ATOM     26  H   UNL A   1      43.067  27.741  29.305  1.00  0.00     0.167 HD
ATOM     27  C   UNL A   1      46.979  29.748  28.262  1.00  0.00     0.037 A 
ATOM     28  C   UNL A   1      40.407  28.039  29.861  1.00  0.00     0.037 A 
ATOM     29  C   UNL A   1      47.104  29.384  29.642  1.00  0.00     0.049 A 
ATOM     30  C   UNL A   1      41.404  28.906  30.546  1.00  0.00     0.074 A 
ATOM     31  C   UNL A   1      47.826  28.423  30.321  1.00  0.00     0.029 A 
ATOM     32  N   UNL A   1      46.163  29.842  30.529  1.00  0.00    -0.354 N 
ATOM     33  N   UNL A   1      42.125  28.527  31.566  1.00  0.00    -0.248 NA
ATOM     34  C   UNL A   1      41.919  30.059  29.818  1.00  0.00     0.031 C 
ATOM     35  C   UNL A   1      47.002  28.034  31.414  1.00  0.00     0.029 A 
ATOM     36  C   UNL A   1      45.833  28.794  31.351  1.00  0.00     0.049 A 
ATOM     37  H   UNL A   1      45.794  30.754  30.568  1.00  0.00     0.167 HD
ATOM     38  C   UNL A   1      43.364  29.125  31.374  1.00  0.00     0.074 A 
ATOM     39  C   UNL A   1      43.148  30.128  30.336  1.00  0.00     0.031 C 
ATOM     40  C   UNL A   1      44.504  28.563  31.871  1.00  0.00     0.037 A 
BRANCH  27  41
ATOM     41  C   UNL A   1      47.167  31.146  27.758  1.00  0.00     0.064 A 
ATOM     42  C   UNL A   1      46.062  31.985  27.543  1.00  0.00     0.173 A 
ATOM     43  C   UNL A   1      48.401  31.596  27.238  1.00  0.00     0.173 A 
ATOM     44  F   UNL A   1      44.839  31.619  27.954  1.00  0.00    -0.203 F 
ATOM     45  C   UNL A   1      46.186  33.186  26.841  1.00  0.00     0.198 A 
ATOM     46  C   UNL A   1      48.531  32.818  26.588  1.00  0.00     0.198 A 
ATOM     47  F   UNL A   1      49.495  30.820  27.254  1.00  0.00    -0.203 F 
ATOM     48  F   UNL A   1      45.095  33.916  26.574  1.00  0.00    -0.200 F 
ATOM     49  C   UNL A   1      47.419  33.604  26.369  1.00  0.00     0.200 A 
ATOM     50  F   UNL A   1      49.729  33.191  26.118  1.00  0.00    -0.200 F 
ATOM     51  F   UNL A   1      47.531  34.736  25.663  1.00  0.00    -0.200 F 
ENDBRANCH  27  41
BRANCH  28  52
ATOM     52  C   UNL A   1      39.027  28.477  29.542  1.00  0.00     0.064 A 
ATOM     53  C   UNL A   1      38.091  28.689  30.564  1.00  0.00     0.173 A 
ATOM     54  C   UNL A   1      38.666  28.938  28.258  1.00  0.00     0.173 A 
ATOM     55  F   UNL A   1      38.377  28.326  31.823  1.00  0.00    -0.203 F 
ATOM     56  C   UNL A   1      36.876  29.336  30.320  1.00  0.00     0.198 A 
ATOM     57  C   UNL A   1      37.447  29.567  28.012  1.00  0.00     0.198 A 
ATOM     58  F   UNL A   1      39.521  28.875  27.228  1.00  0.00    -0.203 F 
ATOM     59  F   UNL A   1      36.034  29.578  31.334  1.00  0.00    -0.200 F 
ATOM     60  C   UNL A   1      36.558  29.780  29.046  1.00  0.00     0.200 A 
ATOM     61  F   UNL A   1      37.169  30.020  26.781  1.00  0.00    -0.200 F 
ATOM     62  F   UNL A   1      35.417  30.447  28.824  1.00  0.00    -0.200 F 
ENDBRANCH  28  52
BRANCH  40  63
ATOM     63  C   UNL A   1      44.351  27.420  32.832  1.00  0.00     0.064 A 
ATOM     64  C   UNL A   1      44.258  26.078  32.422  1.00  0.00     0.173 A 
ATOM     65  C   UNL A   1      44.469  27.669  34.205  1.00  0.00     0.173 A 
ATOM     66  F   UNL A   1      44.253  25.756  31.123  1.00  0.00    -0.203 F 
ATOM     67  C   UNL A   1      44.238  25.039  33.350  1.00  0.00     0.198 A 
ATOM     68  C   UNL A   1      44.486  26.627  35.129  1.00  0.00     0.198 A 
ATOM     69  F   UNL A   1      44.628  28.926  34.649  1.00  0.00    -0.203 F 
ATOM     70  F   UNL A   1      44.145  23.767  32.934  1.00  0.00    -0.200 F 
ATOM     71  C   UNL A   1      44.361  25.313  34.702  1.00  0.00     0.200 A 
ATOM     72  F   UNL A   1      44.659  26.891  36.431  1.00  0.00    -0.200 F 
ATOM     73  F   UNL A   1      44.392  24.311  35.592  1.00  0.00    -0.200 F 
ENDBRANCH  40  63
ENDBRANCH  14  15
ENDBRANCH   7   9
ENDBRANCH   6   7
ENDBRANCH   5   6
ENDBRANCH   4   5
ENDBRANCH   3   4
ENDBRANCH   2   3
ENDBRANCH   1   2
BRANCH   1  74
ATOM     74  O   UNL A   1      37.833  22.267  26.058  1.00  0.00    -0.377 OA
BRANCH  74  75
ATOM     75  C   UNL A   1      37.447  23.299  25.170  1.00  0.00     0.188 C 
BRANCH  75  76
ATOM     76  C   UNL A   1      35.935  23.506  24.980  1.00  0.00     0.188 C 
BRANCH  76  77
ATOM     77  O   UNL A   1      35.092  23.877  26.069  1.00  0.00    -0.376 OA
BRANCH  77  78
ATOM     78  C   UNL A   1      34.349  22.896  26.771  1.00  0.00     0.202 C 
BRANCH  78  79
ATOM     79  C   UNL A   1      33.015  22.552  26.094  1.00  0.00     0.261 C 
BRANCH  79  80
ATOM     80  O   UNL A   1      32.347  23.661  25.471  1.00  0.00    -0.457 OA
BRANCH  80  81
ATOM     81  C   UNL A   1      31.487  24.379  26.256  1.00  0.00     0.374 C 
ATOM     82  O   UNL A   1      31.066  24.028  27.352  1.00  0.00    -0.242 OA
BRANCH  81  83
ATOM     83  C   UNL A   1      31.232  25.654  25.626  1.00  0.00     0.216 A 
ATOM     84  O   UNL A   1      30.470  25.688  24.461  1.00  0.00    -0.449 OA
ATOM     85  C   UNL A   1      31.527  26.946  26.007  1.00  0.00     0.014 A 
ATOM     86  C   UNL A   1      30.311  27.005  24.112  1.00  0.00     0.135 A 
ATOM     87  C   UNL A   1      31.003  27.780  25.008  1.00  0.00     0.028 A 
ATOM     88  C   UNL A   1      32.254  27.565  27.144  1.00  0.00     0.041 C 
ATOM     89  C   UNL A   1      29.601  27.556  23.053  1.00  0.00     0.048 A 
ATOM     90  C   UNL A   1      31.128  29.162  24.883  1.00  0.00    -0.037 A 
ATOM     91  C   UNL A   1      32.926  28.882  26.660  1.00  0.00     0.010 C 
ATOM     92  C   UNL A   1      29.674  28.961  22.936  1.00  0.00     0.004 A 
ATOM     93  C   UNL A   1      30.430  29.752  23.824  1.00  0.00     0.004 A 
ATOM     94  C   UNL A   1      31.967  29.871  25.913  1.00  0.00     0.036 C 
ENDBRANCH  81  83
ENDBRANCH  80  81
ENDBRANCH  79  80
ENDBRANCH  78  79
ENDBRANCH  77  78
ENDBRANCH  76  77
ENDBRANCH  75  76
ENDBRANCH  74  75
ENDBRANCH   1  74
TORSDOF 20
ENDMDL
MODEL 3
REMARK VINA RESULT:     -11.0      3.657      8.388
REMARK SMILES O=C(OCCOCCOCCOCCOC(=O)c1oc2cccc3c2c1CCC3)c1ccc(-c2c3nc(c(-c4c(F)c(F)c(F)c(F)c4F)c4ccc([nH]4)c(-c4c(F)c(F)c(F)c(F)c4F)c4nc(c(-c5c(F)c(F)c(F)c(F)c5F)c5ccc2[nH]5)C=C4)C=C3)cc1
REMARK SMILES IDX 8 1 7 2 6 3 5 4 4 5 3 6 2 7 1 8 30 9 31 10 92 11 32 12 91 13
REMARK SMILES IDX 33 14 34 15 35 16 85 17 36 18 90 19 84 20 86 21 37 22 89 23
REMARK SMILES IDX 83 24 82 25 38 27 70 28 50 29 69 30 51 31 54 32 68 33 87 34
REMARK SMILES IDX 52 35 53 36 67 38 88 39 55 40 39 41 40 42 48 43 41 44 42 45
REMARK SMILES IDX 46 46 49 47 43 48 44 49 47 50 45 51 71 52 72 53 80 54 73 55
REMARK SMILES IDX 74 56 78 57 81 58 75 59 76 60 79 61 77 62 56 63 57 64 65 65
REMARK SMILES IDX 58 66 59 67 63 68 66 69 60 70 61 71 64 72 62 73 9 74 10 75
REMARK SMILES IDX 11 76 12 77 13 78 14 79 15 80 16 81 17 82 18 83 19 84 26 85
REMARK SMILES IDX 20 86 25 87 27 88 21 89 24 90 28 91 22 92 23 93 29 94
REMARK H PARENT 86 26 54 37
REMARK Flexibility Score: inf
ROOT
ATOM      1  C   UNL A   1      34.016  29.211  27.074  1.00  0.00     0.188 C 
ENDROOT
BRANCH   1   2
ATOM      2  C   UNL A   1      33.576  30.667  27.234  1.00  0.00     0.188 C 
BRANCH   2   3
ATOM      3  O   UNL A   1      34.538  31.677  27.581  1.00  0.00    -0.376 OA
BRANCH   3   4
ATOM      4  C   UNL A   1      34.410  32.433  28.782  1.00  0.00     0.202 C 
BRANCH   4   5
ATOM      5  C   UNL A   1      35.373  32.006  29.887  1.00  0.00     0.261 C 
BRANCH   5   6
ATOM      6  O   UNL A   1      35.544  30.578  30.015  1.00  0.00    -0.460 OA
BRANCH   6   7
ATOM      7  C   UNL A   1      36.426  30.081  30.914  1.00  0.00     0.338 C 
ATOM      8  O   UNL A   1      36.258  30.136  32.123  1.00  0.00    -0.246 OA
BRANCH   7   9
ATOM      9  C   UNL A   1      37.423  29.174  30.308  1.00  0.00     0.060 A 
ATOM     10  C   UNL A   1      38.221  28.325  31.079  1.00  0.00     0.016 A 
ATOM     11  C   UNL A   1      37.609  29.264  28.922  1.00  0.00     0.016 A 
ATOM     12  C   UNL A   1      39.342  27.767  30.533  1.00  0.00     0.010 A 
ATOM     13  C   UNL A   1      38.733  28.694  28.358  1.00  0.00     0.010 A 
ATOM     14  C   UNL A   1      39.633  28.053  29.206  1.00  0.00    -0.014 A 
BRANCH  14  15
ATOM     15  C   UNL A   1      41.005  27.802  28.837  1.00  0.00     0.031 A 
ATOM     16  C   UNL A   1      41.295  26.443  28.333  1.00  0.00     0.074 A 
ATOM     17  C   UNL A   1      41.917  28.758  29.084  1.00  0.00     0.049 A 
ATOM     18  N   UNL A   1      42.100  25.560  28.826  1.00  0.00    -0.248 NA
ATOM     19  C   UNL A   1      40.494  25.976  27.193  1.00  0.00     0.031 C 
ATOM     20  C   UNL A   1      41.685  30.172  29.405  1.00  0.00     0.029 A 
ATOM     21  N   UNL A   1      43.267  28.677  29.005  1.00  0.00    -0.354 N 
ATOM     22  C   UNL A   1      42.024  24.470  27.967  1.00  0.00     0.074 A 
ATOM     23  C   UNL A   1      40.943  24.731  27.049  1.00  0.00     0.031 C 
ATOM     24  C   UNL A   1      42.840  30.852  29.242  1.00  0.00     0.029 A 
ATOM     25  C   UNL A   1      43.893  29.906  28.921  1.00  0.00     0.049 A 
ATOM     26  H   UNL A   1      43.756  27.823  29.008  1.00  0.00     0.167 HD
ATOM     27  C   UNL A   1      42.978  23.504  27.932  1.00  0.00     0.037 A 
ATOM     28  C   UNL A   1      45.152  30.110  28.469  1.00  0.00     0.037 A 
ATOM     29  C   UNL A   1      43.758  23.453  29.133  1.00  0.00     0.049 A 
ATOM     30  C   UNL A   1      45.876  28.814  28.573  1.00  0.00     0.074 A 
ATOM     31  C   UNL A   1      43.480  23.132  30.446  1.00  0.00     0.029 A 
ATOM     32  N   UNL A   1      44.977  24.083  29.150  1.00  0.00    -0.354 N 
ATOM     33  N   UNL A   1      46.197  28.244  29.703  1.00  0.00    -0.248 NA
ATOM     34  C   UNL A   1      45.856  27.928  27.416  1.00  0.00     0.031 C 
ATOM     35  C   UNL A   1      44.318  23.979  31.226  1.00  0.00     0.029 A 
ATOM     36  C   UNL A   1      45.073  24.753  30.344  1.00  0.00     0.049 A 
ATOM     37  H   UNL A   1      45.657  24.058  28.438  1.00  0.00     0.167 HD
ATOM     38  C   UNL A   1      46.032  26.883  29.479  1.00  0.00     0.074 A 
ATOM     39  C   UNL A   1      45.913  26.744  28.032  1.00  0.00     0.031 C 
ATOM     40  C   UNL A   1      45.727  26.032  30.501  1.00  0.00     0.037 A 
BRANCH  27  41
ATOM     41  C   UNL A   1      43.369  22.808  26.665  1.00  0.00     0.064 A 
ATOM     42  C   UNL A   1      43.147  21.431  26.506  1.00  0.00     0.173 A 
ATOM     43  C   UNL A   1      44.195  23.420  25.697  1.00  0.00     0.173 A 
ATOM     44  F   UNL A   1      42.419  20.750  27.403  1.00  0.00    -0.203 F 
ATOM     45  C   UNL A   1      43.727  20.716  25.454  1.00  0.00     0.198 A 
ATOM     46  C   UNL A   1      44.726  22.717  24.621  1.00  0.00     0.198 A 
ATOM     47  F   UNL A   1      44.596  24.695  25.820  1.00  0.00    -0.203 F 
ATOM     48  F   UNL A   1      43.569  19.387  25.386  1.00  0.00    -0.200 F 
ATOM     49  C   UNL A   1      44.510  21.360  24.511  1.00  0.00     0.200 A 
ATOM     50  F   UNL A   1      45.501  23.356  23.734  1.00  0.00    -0.200 F 
ATOM     51  F   UNL A   1      45.097  20.669  23.526  1.00  0.00    -0.200 F 
ENDBRANCH  27  41
BRANCH  28  52
ATOM     52  C   UNL A   1      45.589  31.221  27.589  1.00  0.00     0.064 A 
ATOM     53  C   UNL A   1      44.753  31.694  26.569  1.00  0.00     0.173 A 
ATOM     54  C   UNL A   1      46.723  32.009  27.884  1.00  0.00     0.173 A 
ATOM     55  F   UNL A   1      43.628  31.031  26.261  1.00  0.00    -0.203 F 
ATOM     56  C   UNL A   1      45.024  32.889  25.895  1.00  0.00     0.198 A 
ATOM     57  C   UNL A   1      47.002  33.191  27.200  1.00  0.00     0.198 A 
ATOM     58  F   UNL A   1      47.538  31.705  28.903  1.00  0.00    -0.203 F 
ATOM     59  F   UNL A   1      44.168  33.342  24.969  1.00  0.00    -0.200 F 
ATOM     60  C   UNL A   1      46.145  33.639  26.215  1.00  0.00     0.200 A 
ATOM     61  F   UNL A   1      48.072  33.920  27.545  1.00  0.00    -0.200 F 
ATOM     62  F   UNL A   1      46.376  34.810  25.606  1.00  0.00    -0.200 F 
ENDBRANCH  28  52
BRANCH  40  63
ATOM     63  C   UNL A   1      45.818  26.569  31.901  1.00  0.00     0.064 A 
ATOM     64  C   UNL A   1      44.766  27.257  32.530  1.00  0.00     0.173 A 
ATOM     65  C   UNL A   1      46.931  26.236  32.683  1.00  0.00     0.173 A 
ATOM     66  F   UNL A   1      43.625  27.512  31.877  1.00  0.00    -0.203 F 
ATOM     67  C   UNL A   1      44.847  27.633  33.869  1.00  0.00     0.198 A 
ATOM     68  C   UNL A   1      46.994  26.580  34.031  1.00  0.00     0.198 A 
ATOM     69  F   UNL A   1      47.936  25.521  32.153  1.00  0.00    -0.203 F 
ATOM     70  F   UNL A   1      43.830  28.292  34.446  1.00  0.00    -0.200 F 
ATOM     71  C   UNL A   1      45.957  27.286  34.621  1.00  0.00     0.200 A 
ATOM     72  F   UNL A   1      48.044  26.197  34.770  1.00  0.00    -0.200 F 
ATOM     73  F   UNL A   1      46.014  27.604  35.922  1.00  0.00    -0.200 F 
ENDBRANCH  40  63
ENDBRANCH  14  15
ENDBRANCH   7   9
ENDBRANCH   6   7
ENDBRANCH   5   6
ENDBRANCH   4   5
ENDBRANCH   3   4
ENDBRANCH   2   3
ENDBRANCH   1   2
BRANCH   1  74
ATOM     74  O   UNL A   1      34.352  28.799  25.760  1.00  0.00    -0.377 OA
BRANCH  74  75
ATOM     75  C   UNL A   1      33.742  27.643  25.219  1.00  0.00     0.188 C 
BRANCH  75  76
ATOM     76  C   UNL A   1      32.416  27.205  25.866  1.00  0.00     0.188 C 
BRANCH  76  77
ATOM     77  O   UNL A   1      31.163  27.445  25.228  1.00  0.00    -0.376 OA
BRANCH  77  78
ATOM     78  C   UNL A   1      31.026  27.286  23.828  1.00  0.00     0.202 C 
BRANCH  78  79
ATOM     79  C   UNL A   1      30.949  25.817  23.392  1.00  0.00     0.261 C 
BRANCH  79  80
ATOM     80  O   UNL A   1      31.604  25.517  22.149  1.00  0.00    -0.457 OA
BRANCH  80  81
ATOM     81  C   UNL A   1      32.943  25.246  22.210  1.00  0.00     0.374 C 
ATOM     82  O   UNL A   1      33.836  25.995  21.834  1.00  0.00    -0.242 OA
BRANCH  81  83
ATOM     83  C   UNL A   1      33.133  23.976  22.872  1.00  0.00     0.216 A 
ATOM     84  O   UNL A   1      32.321  22.902  22.515  1.00  0.00    -0.449 OA
ATOM     85  C   UNL A   1      34.074  23.544  23.783  1.00  0.00     0.014 A 
ATOM     86  C   UNL A   1      32.750  21.809  23.224  1.00  0.00     0.135 A 
ATOM     87  C   UNL A   1      33.775  22.198  24.048  1.00  0.00     0.028 A 
ATOM     88  C   UNL A   1      35.211  24.175  24.498  1.00  0.00     0.041 C 
ATOM     89  C   UNL A   1      32.287  20.500  23.189  1.00  0.00     0.048 A 
ATOM     90  C   UNL A   1      34.373  21.347  24.975  1.00  0.00    -0.037 A 
ATOM     91  C   UNL A   1      35.376  23.498  25.889  1.00  0.00     0.010 C 
ATOM     92  C   UNL A   1      32.912  19.608  24.086  1.00  0.00     0.004 A 
ATOM     93  C   UNL A   1      33.928  20.021  24.972  1.00  0.00     0.004 A 
ATOM     94  C   UNL A   1      35.448  21.933  25.851  1.00  0.00     0.036 C 
ENDBRANCH  81  83
ENDBRANCH  80  81
ENDBRANCH  79  80
ENDBRANCH  78  79
ENDBRANCH  77  78
ENDBRANCH  76  77
ENDBRANCH  75  76
ENDBRANCH  74  75
ENDBRANCH   1  74
TORSDOF 20
ENDMDL
