MODEL 1
REMARK VINA RESULT:      -7.8      0.000      0.000
REMARK SMILES Cn1cc(S(=O)(=O)NC[C@H]2CC[C@@H](C(=O)OCCOCCOCCOCCOC(=O)c3ccc(-c4c5nc(c(-c6c(F)c(F)c(F)c(F)c6F)c6ccc([nH]6)c(-c6c(F)c(F)c(F)c(F)c6F)c6nc(c(-c7c(F)c(F)c(F)c(F)c7F)c7ccc4[nH]7)C=C6)C=C5)cc3)CC2)cn1
REMARK SMILES IDX 21 1 20 2 19 3 18 4 17 5 16 6 14 7 15 8 13 9 10 10 11 11
REMARK SMILES IDX 95 12 12 13 94 14 9 15 8 16 5 18 6 19 7 20 4 21 1 22 2 23
REMARK SMILES IDX 3 24 97 25 96 26 22 27 23 28 24 29 25 30 26 31 27 32 28 33
REMARK SMILES IDX 29 34 30 35 31 36 32 37 93 38 33 39 92 40 34 41 35 42 36 43
REMARK SMILES IDX 86 44 37 45 91 46 85 47 87 48 38 49 90 50 84 51 83 52 39 54
REMARK SMILES IDX 71 55 51 56 70 57 52 58 55 59 69 60 88 61 53 62 54 63 68 65
REMARK SMILES IDX 89 66 56 67 40 68 41 69 49 70 42 71 43 72 47 73 50 74 44 75
REMARK SMILES IDX 45 76 48 77 46 78 72 79 73 80 81 81 74 82 75 83 79 84 82 85
REMARK SMILES IDX 76 86 77 87 80 88 78 89 57 90 58 91 66 92 59 93 60 94 64 95
REMARK SMILES IDX 67 96 61 97 62 98 65 99 63 100
REMARK H PARENT 8 17 87 53 55 64
REMARK Flexibility Score: inf
ROOT
ATOM      1  C   UNL A   1      37.773  31.491  36.615  1.00  0.00     0.188 C 
ENDROOT
BRANCH   1   2
ATOM      2  C   UNL A   1      39.174  31.632  36.011  1.00  0.00     0.188 C 
BRANCH   2   3
ATOM      3  O   UNL A   1      39.181  32.001  34.639  1.00  0.00    -0.376 OA
BRANCH   3   4
ATOM      4  C   UNL A   1      39.175  30.901  33.740  1.00  0.00     0.202 C 
BRANCH   4   5
ATOM      5  C   UNL A   1      39.916  31.142  32.424  1.00  0.00     0.261 C 
BRANCH   5   6
ATOM      6  O   UNL A   1      39.193  30.859  31.211  1.00  0.00    -0.463 OA
BRANCH   6   7
ATOM      7  C   UNL A   1      39.864  30.292  30.187  1.00  0.00     0.309 C 
ATOM      8  O   UNL A   1      40.834  30.803  29.640  1.00  0.00    -0.252 OA
BRANCH   7   9
ATOM      9  C   UNL A   1      39.227  28.981  29.702  1.00  0.00     0.099 C 
ATOM     10  C   UNL A   1      36.646  29.739  28.390  1.00  0.00     0.004 C 
ATOM     11  C   UNL A   1      38.011  30.005  27.740  1.00  0.00     0.006 C 
ATOM     12  C   UNL A   1      36.710  29.453  29.897  1.00  0.00     0.006 C 
ATOM     13  C   UNL A   1      39.100  29.026  28.177  1.00  0.00     0.015 C 
ATOM     14  C   UNL A   1      37.873  28.546  30.279  1.00  0.00     0.015 C 
BRANCH  10  15
ATOM     15  C   UNL A   1      35.610  30.827  28.060  1.00  0.00     0.102 C 
BRANCH  15  16
ATOM     16  N   UNL A   1      34.781  31.258  29.195  1.00  0.00    -0.211 NA
ATOM     17  H   UNL A   1      33.816  31.111  28.901  1.00  0.00     0.141 HD
BRANCH  16  18
ATOM     18  S   UNL A   1      34.823  32.794  29.865  1.00  0.00     0.243 S 
ATOM     19  O   UNL A   1      34.255  32.696  31.188  1.00  0.00    -0.207 OA
ATOM     20  O   UNL A   1      34.265  33.703  28.885  1.00  0.00    -0.207 OA
BRANCH  18  21
ATOM     21  C   UNL A   1      36.411  33.354  30.118  1.00  0.00     0.120 A 
ATOM     22  C   UNL A   1      39.284  34.578  31.881  1.00  0.00     0.173 C 
ATOM     23  N   UNL A   1      38.273  34.089  30.977  1.00  0.00    -0.274 N 
ATOM     24  C   UNL A   1      37.053  33.585  31.313  1.00  0.00     0.130 A 
ATOM     25  N   UNL A   1      38.483  34.152  29.648  1.00  0.00    -0.180 NA
ATOM     26  C   UNL A   1      37.342  33.688  29.124  1.00  0.00     0.156 A 
ENDBRANCH  18  21
ENDBRANCH  16  18
ENDBRANCH  15  16
ENDBRANCH  10  15
ENDBRANCH   7   9
ENDBRANCH   6   7
ENDBRANCH   5   6
ENDBRANCH   4   5
ENDBRANCH   3   4
ENDBRANCH   2   3
ENDBRANCH   1   2
BRANCH   1  27
ATOM     27  O   UNL A   1      37.630  31.391  38.027  1.00  0.00    -0.377 OA
BRANCH  27  28
ATOM     28  C   UNL A   1      37.285  32.560  38.768  1.00  0.00     0.188 C 
BRANCH  28  29
ATOM     29  C   UNL A   1      38.086  32.935  40.033  1.00  0.00     0.188 C 
BRANCH  29  30
ATOM     30  O   UNL A   1      39.445  32.524  40.029  1.00  0.00    -0.376 OA
BRANCH  30  31
ATOM     31  C   UNL A   1      40.420  33.525  39.763  1.00  0.00     0.202 C 
BRANCH  31  32
ATOM     32  C   UNL A   1      40.031  34.949  40.182  1.00  0.00     0.261 C 
BRANCH  32  33
ATOM     33  O   UNL A   1      40.082  35.924  39.127  1.00  0.00    -0.460 OA
BRANCH  33  34
ATOM     34  C   UNL A   1      41.292  36.440  38.826  1.00  0.00     0.338 C 
ATOM     35  O   UNL A   1      41.999  37.146  39.521  1.00  0.00    -0.246 OA
BRANCH  34  36
ATOM     36  C   UNL A   1      41.710  35.882  37.532  1.00  0.00     0.060 A 
ATOM     37  C   UNL A   1      40.738  35.650  36.551  1.00  0.00     0.016 A 
ATOM     38  C   UNL A   1      43.047  35.544  37.313  1.00  0.00     0.016 A 
ATOM     39  C   UNL A   1      41.096  35.019  35.362  1.00  0.00     0.010 A 
ATOM     40  C   UNL A   1      43.402  34.897  36.129  1.00  0.00     0.010 A 
ATOM     41  C   UNL A   1      42.418  34.594  35.171  1.00  0.00    -0.014 A 
BRANCH  41  42
ATOM     42  C   UNL A   1      42.721  33.635  34.084  1.00  0.00     0.031 A 
ATOM     43  C   UNL A   1      42.941  34.180  32.701  1.00  0.00     0.074 A 
ATOM     44  C   UNL A   1      42.821  32.317  34.324  1.00  0.00     0.049 A 
ATOM     45  N   UNL A   1      43.210  33.547  31.588  1.00  0.00    -0.248 NA
ATOM     46  C   UNL A   1      42.845  35.642  32.552  1.00  0.00     0.031 C 
ATOM     47  C   UNL A   1      42.655  31.679  35.626  1.00  0.00     0.029 A 
ATOM     48  N   UNL A   1      43.081  31.280  33.465  1.00  0.00    -0.354 N 
ATOM     49  C   UNL A   1      43.316  34.529  30.613  1.00  0.00     0.074 A 
ATOM     50  C   UNL A   1      43.049  35.799  31.253  1.00  0.00     0.031 C 
ATOM     51  C   UNL A   1      42.808  30.351  35.481  1.00  0.00     0.029 A 
ATOM     52  C   UNL A   1      43.062  30.049  34.073  1.00  0.00     0.049 A 
ATOM     53  H   UNL A   1      43.266  31.405  32.507  1.00  0.00     0.167 HD
ATOM     54  C   UNL A   1      43.618  34.387  29.301  1.00  0.00     0.037 A 
ATOM     55  C   UNL A   1      43.219  28.821  33.541  1.00  0.00     0.037 A 
ATOM     56  C   UNL A   1      43.876  33.125  28.664  1.00  0.00     0.049 A 
ATOM     57  C   UNL A   1      43.499  28.686  32.065  1.00  0.00     0.074 A 
ATOM     58  C   UNL A   1      44.200  32.874  27.343  1.00  0.00     0.029 A 
ATOM     59  N   UNL A   1      43.828  31.897  29.307  1.00  0.00    -0.354 N 
ATOM     60  N   UNL A   1      43.630  29.620  31.155  1.00  0.00    -0.248 NA
ATOM     61  C   UNL A   1      43.662  27.319  31.545  1.00  0.00     0.031 C 
ATOM     62  C   UNL A   1      44.304  31.489  27.176  1.00  0.00     0.029 A 
ATOM     63  C   UNL A   1      44.096  30.881  28.404  1.00  0.00     0.049 A 
ATOM     64  H   UNL A   1      43.633  31.765  30.263  1.00  0.00     0.167 HD
ATOM     65  C   UNL A   1      43.919  28.961  29.966  1.00  0.00     0.074 A 
ATOM     66  C   UNL A   1      43.955  27.547  30.273  1.00  0.00     0.031 C 
ATOM     67  C   UNL A   1      44.137  29.479  28.731  1.00  0.00     0.037 A 
BRANCH  54  68
ATOM     68  C   UNL A   1      43.662  35.632  28.467  1.00  0.00     0.064 A 
ATOM     69  C   UNL A   1      44.870  36.291  28.189  1.00  0.00     0.173 A 
ATOM     70  C   UNL A   1      42.483  36.166  27.926  1.00  0.00     0.173 A 
ATOM     71  F   UNL A   1      46.022  35.831  28.701  1.00  0.00    -0.203 F 
ATOM     72  C   UNL A   1      44.893  37.451  27.419  1.00  0.00     0.198 A 
ATOM     73  C   UNL A   1      42.512  37.310  27.134  1.00  0.00     0.198 A 
ATOM     74  F   UNL A   1      41.302  35.575  28.163  1.00  0.00    -0.203 F 
ATOM     75  F   UNL A   1      46.052  38.089  27.206  1.00  0.00    -0.200 F 
ATOM     76  C   UNL A   1      43.715  37.955  26.887  1.00  0.00     0.200 A 
ATOM     77  F   UNL A   1      41.375  37.793  26.614  1.00  0.00    -0.200 F 
ATOM     78  F   UNL A   1      43.739  39.069  26.143  1.00  0.00    -0.200 F 
ENDBRANCH  54  68
BRANCH  55  79
ATOM     79  C   UNL A   1      43.113  27.620  34.408  1.00  0.00     0.064 A 
ATOM     80  C   UNL A   1      44.240  27.091  35.053  1.00  0.00     0.173 A 
ATOM     81  C   UNL A   1      41.889  26.961  34.588  1.00  0.00     0.173 A 
ATOM     82  F   UNL A   1      45.440  27.667  34.885  1.00  0.00    -0.203 F 
ATOM     83  C   UNL A   1      44.150  25.937  35.829  1.00  0.00     0.198 A 
ATOM     84  C   UNL A   1      41.794  25.823  35.386  1.00  0.00     0.198 A 
ATOM     85  F   UNL A   1      40.783  27.420  33.984  1.00  0.00    -0.203 F 
ATOM     86  F   UNL A   1      45.253  25.419  36.386  1.00  0.00    -0.200 F 
ATOM     87  C   UNL A   1      42.926  25.307  35.998  1.00  0.00     0.200 A 
ATOM     88  F   UNL A   1      40.610  25.216  35.546  1.00  0.00    -0.200 F 
ATOM     89  F   UNL A   1      42.842  24.190  36.735  1.00  0.00    -0.200 F 
ENDBRANCH  55  79
BRANCH  67  90
ATOM     90  C   UNL A   1      44.473  28.518  27.627  1.00  0.00     0.064 A 
ATOM     91  C   UNL A   1      45.781  28.055  27.425  1.00  0.00     0.173 A 
ATOM     92  C   UNL A   1      43.463  28.022  26.789  1.00  0.00     0.173 A 
ATOM     93  F   UNL A   1      46.783  28.508  28.193  1.00  0.00    -0.203 F 
ATOM     94  C   UNL A   1      46.070  27.149  26.408  1.00  0.00     0.198 A 
ATOM     95  C   UNL A   1      43.750  27.094  25.792  1.00  0.00     0.198 A 
ATOM     96  F   UNL A   1      42.193  28.426  26.947  1.00  0.00    -0.203 F 
ATOM     97  F   UNL A   1      47.334  26.755  26.205  1.00  0.00    -0.200 F 
ATOM     98  C   UNL A   1      45.054  26.664  25.597  1.00  0.00     0.200 A 
ATOM     99  F   UNL A   1      42.766  26.615  25.019  1.00  0.00    -0.200 F 
ATOM    100  F   UNL A   1      45.334  25.787  24.623  1.00  0.00    -0.200 F 
ENDBRANCH  67  90
ENDBRANCH  41  42
ENDBRANCH  34  36
ENDBRANCH  33  34
ENDBRANCH  32  33
ENDBRANCH  31  32
ENDBRANCH  30  31
ENDBRANCH  29  30
ENDBRANCH  28  29
ENDBRANCH  27  28
ENDBRANCH   1  27
TORSDOF 24
ENDMDL
MODEL 2
REMARK VINA RESULT:      -7.6      1.472      7.392
REMARK SMILES Cn1cc(S(=O)(=O)NC[C@H]2CC[C@@H](C(=O)OCCOCCOCCOCCOC(=O)c3ccc(-c4c5nc(c(-c6c(F)c(F)c(F)c(F)c6F)c6ccc([nH]6)c(-c6c(F)c(F)c(F)c(F)c6F)c6nc(c(-c7c(F)c(F)c(F)c(F)c7F)c7ccc4[nH]7)C=C6)C=C5)cc3)CC2)cn1
REMARK SMILES IDX 21 1 20 2 19 3 18 4 17 5 16 6 14 7 15 8 13 9 10 10 11 11
REMARK SMILES IDX 95 12 12 13 94 14 9 15 8 16 5 18 6 19 7 20 4 21 1 22 2 23
REMARK SMILES IDX 3 24 97 25 96 26 22 27 23 28 24 29 25 30 26 31 27 32 28 33
REMARK SMILES IDX 29 34 30 35 31 36 32 37 93 38 33 39 92 40 34 41 35 42 36 43
REMARK SMILES IDX 86 44 37 45 91 46 85 47 87 48 38 49 90 50 84 51 83 52 39 54
REMARK SMILES IDX 71 55 51 56 70 57 52 58 55 59 69 60 88 61 53 62 54 63 68 65
REMARK SMILES IDX 89 66 56 67 40 68 41 69 49 70 42 71 43 72 47 73 50 74 44 75
REMARK SMILES IDX 45 76 48 77 46 78 72 79 73 80 81 81 74 82 75 83 79 84 82 85
REMARK SMILES IDX 76 86 77 87 80 88 78 89 57 90 58 91 66 92 59 93 60 94 64 95
REMARK SMILES IDX 67 96 61 97 62 98 65 99 63 100
REMARK H PARENT 8 17 87 53 55 64
REMARK Flexibility Score: inf
ROOT
ATOM      1  C   UNL A   1      38.524  31.979  36.769  1.00  0.00     0.188 C 
ENDROOT
BRANCH   1   2
ATOM      2  C   UNL A   1      37.903  31.556  35.433  1.00  0.00     0.188 C 
BRANCH   2   3
ATOM      3  O   UNL A   1      38.260  30.247  35.013  1.00  0.00    -0.376 OA
BRANCH   3   4
ATOM      4  C   UNL A   1      39.497  30.176  34.317  1.00  0.00     0.202 C 
BRANCH   4   5
ATOM      5  C   UNL A   1      39.503  30.854  32.947  1.00  0.00     0.261 C 
BRANCH   5   6
ATOM      6  O   UNL A   1      39.947  32.223  32.903  1.00  0.00    -0.463 OA
BRANCH   6   7
ATOM      7  C   UNL A   1      40.193  32.775  31.695  1.00  0.00     0.309 C 
ATOM      8  O   UNL A   1      40.833  32.220  30.809  1.00  0.00    -0.252 OA
BRANCH   7   9
ATOM      9  C   UNL A   1      39.676  34.216  31.575  1.00  0.00     0.099 C 
ATOM     10  C   UNL A   1      37.433  34.142  29.595  1.00  0.00     0.004 C 
ATOM     11  C   UNL A   1      37.296  33.585  31.020  1.00  0.00     0.006 C 
ATOM     12  C   UNL A   1      38.883  34.347  29.136  1.00  0.00     0.006 C 
ATOM     13  C   UNL A   1      38.217  34.261  32.035  1.00  0.00     0.015 C 
ATOM     14  C   UNL A   1      39.772  34.937  30.224  1.00  0.00     0.015 C 
BRANCH  10  15
ATOM     15  C   UNL A   1      36.617  33.343  28.565  1.00  0.00     0.102 C 
BRANCH  15  16
ATOM     16  N   UNL A   1      35.352  33.970  28.157  1.00  0.00    -0.211 NA
ATOM     17  H   UNL A   1      35.546  34.969  28.101  1.00  0.00     0.141 HD
BRANCH  16  18
ATOM     18  S   UNL A   1      33.913  33.834  29.006  1.00  0.00     0.243 S 
ATOM     19  O   UNL A   1      34.025  32.665  29.845  1.00  0.00    -0.207 OA
ATOM     20  O   UNL A   1      32.836  33.955  28.046  1.00  0.00    -0.207 OA
BRANCH  18  21
ATOM     21  C   UNL A   1      33.671  35.122  30.092  1.00  0.00     0.120 A 
ATOM     22  C   UNL A   1      33.688  36.938  33.185  1.00  0.00     0.173 C 
ATOM     23  N   UNL A   1      33.593  36.413  31.845  1.00  0.00    -0.274 N 
ATOM     24  C   UNL A   1      34.104  35.234  31.394  1.00  0.00     0.130 A 
ATOM     25  N   UNL A   1      32.902  37.095  30.911  1.00  0.00    -0.180 NA
ATOM     26  C   UNL A   1      32.963  36.306  29.833  1.00  0.00     0.156 A 
ENDBRANCH  18  21
ENDBRANCH  16  18
ENDBRANCH  15  16
ENDBRANCH  10  15
ENDBRANCH   7   9
ENDBRANCH   6   7
ENDBRANCH   5   6
ENDBRANCH   4   5
ENDBRANCH   3   4
ENDBRANCH   2   3
ENDBRANCH   1   2
BRANCH   1  27
ATOM     27  O   UNL A   1      37.721  32.655  37.728  1.00  0.00    -0.377 OA
BRANCH  27  28
ATOM     28  C   UNL A   1      37.230  31.926  38.852  1.00  0.00     0.188 C 
BRANCH  28  29
ATOM     29  C   UNL A   1      37.367  32.514  40.272  1.00  0.00     0.188 C 
BRANCH  29  30
ATOM     30  O   UNL A   1      38.523  33.311  40.485  1.00  0.00    -0.376 OA
BRANCH  30  31
ATOM     31  C   UNL A   1      38.313  34.676  40.820  1.00  0.00     0.202 C 
BRANCH  31  32
ATOM     32  C   UNL A   1      39.558  35.570  40.748  1.00  0.00     0.261 C 
BRANCH  32  33
ATOM     33  O   UNL A   1      40.089  35.761  39.426  1.00  0.00    -0.460 OA
BRANCH  33  34
ATOM     34  C   UNL A   1      41.429  35.870  39.313  1.00  0.00     0.338 C 
ATOM     35  O   UNL A   1      42.237  36.113  40.190  1.00  0.00    -0.246 OA
BRANCH  34  36
ATOM     36  C   UNL A   1      41.798  35.496  37.940  1.00  0.00     0.060 A 
ATOM     37  C   UNL A   1      40.790  35.093  37.056  1.00  0.00     0.016 A 
ATOM     38  C   UNL A   1      43.139  35.495  37.549  1.00  0.00     0.016 A 
ATOM     39  C   UNL A   1      41.129  34.629  35.788  1.00  0.00     0.010 A 
ATOM     40  C   UNL A   1      43.479  35.014  36.285  1.00  0.00     0.010 A 
ATOM     41  C   UNL A   1      42.479  34.539  35.419  1.00  0.00    -0.014 A 
BRANCH  41  42
ATOM     42  C   UNL A   1      42.854  33.737  34.232  1.00  0.00     0.031 A 
ATOM     43  C   UNL A   1      42.959  32.246  34.388  1.00  0.00     0.074 A 
ATOM     44  C   UNL A   1      43.072  34.317  33.040  1.00  0.00     0.049 A 
ATOM     45  N   UNL A   1      43.277  31.335  33.505  1.00  0.00    -0.248 NA
ATOM     46  C   UNL A   1      42.664  31.708  35.727  1.00  0.00     0.031 C 
ATOM     47  C   UNL A   1      42.973  35.747  32.763  1.00  0.00     0.029 A 
ATOM     48  N   UNL A   1      43.431  33.761  31.839  1.00  0.00    -0.354 N 
ATOM     49  C   UNL A   1      43.219  30.123  34.178  1.00  0.00     0.074 A 
ATOM     50  C   UNL A   1      42.871  30.413  35.552  1.00  0.00     0.031 C 
ATOM     51  C   UNL A   1      43.274  35.961  31.470  1.00  0.00     0.029 A 
ATOM     52  C   UNL A   1      43.608  34.684  30.838  1.00  0.00     0.049 A 
ATOM     53  H   UNL A   1      43.550  32.793  31.706  1.00  0.00     0.167 HD
ATOM     54  C   UNL A   1      43.429  28.877  33.693  1.00  0.00     0.037 A 
ATOM     55  C   UNL A   1      44.006  34.510  29.563  1.00  0.00     0.037 A 
ATOM     56  C   UNL A   1      43.783  28.591  32.330  1.00  0.00     0.049 A 
ATOM     57  C   UNL A   1      44.289  33.116  29.061  1.00  0.00     0.074 A 
ATOM     58  C   UNL A   1      44.008  27.363  31.735  1.00  0.00     0.029 A 
ATOM     59  N   UNL A   1      43.972  29.554  31.349  1.00  0.00    -0.354 N 
ATOM     60  N   UNL A   1      44.201  31.971  29.694  1.00  0.00    -0.248 NA
ATOM     61  C   UNL A   1      44.719  32.992  27.660  1.00  0.00     0.031 C 
ATOM     62  C   UNL A   1      44.378  27.585  30.404  1.00  0.00     0.029 A 
ATOM     63  C   UNL A   1      44.333  28.948  30.157  1.00  0.00     0.049 A 
ATOM     64  H   UNL A   1      43.866  30.524  31.479  1.00  0.00     0.167 HD
ATOM     65  C   UNL A   1      44.534  30.992  28.765  1.00  0.00     0.074 A 
ATOM     66  C   UNL A   1      44.815  31.677  27.522  1.00  0.00     0.031 C 
ATOM     67  C   UNL A   1      44.599  29.647  28.925  1.00  0.00     0.037 A 
BRANCH  54  68
ATOM     68  C   UNL A   1      43.303  27.734  34.655  1.00  0.00     0.064 A 
ATOM     69  C   UNL A   1      42.123  26.979  34.750  1.00  0.00     0.173 A 
ATOM     70  C   UNL A   1      44.379  27.379  35.480  1.00  0.00     0.173 A 
ATOM     71  F   UNL A   1      41.058  27.293  33.996  1.00  0.00    -0.203 F 
ATOM     72  C   UNL A   1      42.019  25.926  35.654  1.00  0.00     0.198 A 
ATOM     73  C   UNL A   1      44.281  26.307  36.363  1.00  0.00     0.198 A 
ATOM     74  F   UNL A   1      45.528  28.070  35.429  1.00  0.00    -0.203 F 
ATOM     75  F   UNL A   1      40.867  25.248  35.762  1.00  0.00    -0.200 F 
ATOM     76  C   UNL A   1      43.100  25.586  36.455  1.00  0.00     0.200 A 
ATOM     77  F   UNL A   1      45.328  25.976  37.132  1.00  0.00    -0.200 F 
ATOM     78  F   UNL A   1      42.999  24.569  37.322  1.00  0.00    -0.200 F 
ENDBRANCH  54  68
BRANCH  55  79
ATOM     79  C   UNL A   1      44.164  35.687  28.670  1.00  0.00     0.064 A 
ATOM     80  C   UNL A   1      45.390  36.358  28.567  1.00  0.00     0.173 A 
ATOM     81  C   UNL A   1      43.085  36.179  27.922  1.00  0.00     0.173 A 
ATOM     82  F   UNL A   1      46.443  35.945  29.289  1.00  0.00    -0.203 F 
ATOM     83  C   UNL A   1      45.525  37.490  27.766  1.00  0.00     0.198 A 
ATOM     84  C   UNL A   1      43.228  37.294  27.100  1.00  0.00     0.198 A 
ATOM     85  F   UNL A   1      41.887  35.580  27.994  1.00  0.00    -0.203 F 
ATOM     86  F   UNL A   1      46.692  38.148  27.731  1.00  0.00    -0.200 F 
ATOM     87  C   UNL A   1      44.446  37.954  27.029  1.00  0.00     0.200 A 
ATOM     88  F   UNL A   1      42.182  37.740  26.391  1.00  0.00    -0.200 F 
ATOM     89  F   UNL A   1      44.574  39.049  26.267  1.00  0.00    -0.200 F 
ENDBRANCH  55  79
BRANCH  67  90
ATOM     90  C   UNL A   1      44.951  28.822  27.721  1.00  0.00     0.064 A 
ATOM     91  C   UNL A   1      43.976  28.408  26.802  1.00  0.00     0.173 A 
ATOM     92  C   UNL A   1      46.287  28.481  27.462  1.00  0.00     0.173 A 
ATOM     93  F   UNL A   1      42.684  28.700  27.011  1.00  0.00    -0.203 F 
ATOM     94  C   UNL A   1      44.324  27.660  25.679  1.00  0.00     0.198 A 
ATOM     95  C   UNL A   1      46.635  27.759  26.325  1.00  0.00     0.198 A 
ATOM     96  F   UNL A   1      47.259  28.862  28.306  1.00  0.00    -0.203 F 
ATOM     97  F   UNL A   1      43.371  27.236  24.838  1.00  0.00    -0.200 F 
ATOM     98  C   UNL A   1      45.653  27.342  25.438  1.00  0.00     0.200 A 
ATOM     99  F   UNL A   1      47.920  27.464  26.085  1.00  0.00    -0.200 F 
ATOM    100  F   UNL A   1      45.986  26.628  24.354  1.00  0.00    -0.200 F 
ENDBRANCH  67  90
ENDBRANCH  41  42
ENDBRANCH  34  36
ENDBRANCH  33  34
ENDBRANCH  32  33
ENDBRANCH  31  32
ENDBRANCH  30  31
ENDBRANCH  29  30
ENDBRANCH  28  29
ENDBRANCH  27  28
ENDBRANCH   1  27
TORSDOF 24
ENDMDL
MODEL 3
REMARK VINA RESULT:      -7.3      1.047      2.254
REMARK SMILES Cn1cc(S(=O)(=O)NC[C@H]2CC[C@@H](C(=O)OCCOCCOCCOCCOC(=O)c3ccc(-c4c5nc(c(-c6c(F)c(F)c(F)c(F)c6F)c6ccc([nH]6)c(-c6c(F)c(F)c(F)c(F)c6F)c6nc(c(-c7c(F)c(F)c(F)c(F)c7F)c7ccc4[nH]7)C=C6)C=C5)cc3)CC2)cn1
REMARK SMILES IDX 21 1 20 2 19 3 18 4 17 5 16 6 14 7 15 8 13 9 10 10 11 11
REMARK SMILES IDX 95 12 12 13 94 14 9 15 8 16 5 18 6 19 7 20 4 21 1 22 2 23
REMARK SMILES IDX 3 24 97 25 96 26 22 27 23 28 24 29 25 30 26 31 27 32 28 33
REMARK SMILES IDX 29 34 30 35 31 36 32 37 93 38 33 39 92 40 34 41 35 42 36 43
REMARK SMILES IDX 86 44 37 45 91 46 85 47 87 48 38 49 90 50 84 51 83 52 39 54
REMARK SMILES IDX 71 55 51 56 70 57 52 58 55 59 69 60 88 61 53 62 54 63 68 65
REMARK SMILES IDX 89 66 56 67 40 68 41 69 49 70 42 71 43 72 47 73 50 74 44 75
REMARK SMILES IDX 45 76 48 77 46 78 72 79 73 80 81 81 74 82 75 83 79 84 82 85
REMARK SMILES IDX 76 86 77 87 80 88 78 89 57 90 58 91 66 92 59 93 60 94 64 95
REMARK SMILES IDX 67 96 61 97 62 98 65 99 63 100
REMARK H PARENT 8 17 87 53 55 64
REMARK Flexibility Score: inf
ROOT
ATOM      1  C   UNL A   1      37.960  31.331  36.353  1.00  0.00     0.188 C 
ENDROOT
BRANCH   1   2
ATOM      2  C   UNL A   1      39.331  31.184  35.684  1.00  0.00     0.188 C 
BRANCH   2   3
ATOM      3  O   UNL A   1      39.406  31.746  34.382  1.00  0.00    -0.376 OA
BRANCH   3   4
ATOM      4  C   UNL A   1      39.468  30.786  33.336  1.00  0.00     0.202 C 
BRANCH   4   5
ATOM      5  C   UNL A   1      40.144  31.274  32.054  1.00  0.00     0.261 C 
BRANCH   5   6
ATOM      6  O   UNL A   1      39.420  31.079  30.825  1.00  0.00    -0.463 OA
BRANCH   6   7
ATOM      7  C   UNL A   1      39.822  30.089  30.000  1.00  0.00     0.309 C 
ATOM      8  O   UNL A   1      40.786  30.175  29.249  1.00  0.00    -0.252 OA
BRANCH   7   9
ATOM      9  C   UNL A   1      38.884  28.872  30.018  1.00  0.00     0.099 C 
ATOM     10  C   UNL A   1      36.456  29.661  28.456  1.00  0.00     0.004 C 
ATOM     11  C   UNL A   1      37.804  29.355  27.787  1.00  0.00     0.006 C 
ATOM     12  C   UNL A   1      36.548  29.939  29.963  1.00  0.00     0.006 C 
ATOM     13  C   UNL A   1      38.677  28.384  28.582  1.00  0.00     0.015 C 
ATOM     14  C   UNL A   1      37.506  28.996  30.682  1.00  0.00     0.015 C 
BRANCH  10  15
ATOM     15  C   UNL A   1      35.665  30.757  27.722  1.00  0.00     0.102 C 
BRANCH  15  16
ATOM     16  N   UNL A   1      35.742  32.091  28.334  1.00  0.00    -0.211 NA
ATOM     17  H   UNL A   1      35.863  31.929  29.333  1.00  0.00     0.141 HD
BRANCH  16  18
ATOM     18  S   UNL A   1      34.546  33.258  28.206  1.00  0.00     0.243 S 
ATOM     19  O   UNL A   1      33.324  32.577  27.850  1.00  0.00    -0.207 OA
ATOM     20  O   UNL A   1      35.071  34.320  27.374  1.00  0.00    -0.207 OA
BRANCH  18  21
ATOM     21  C   UNL A   1      34.201  34.008  29.696  1.00  0.00     0.120 A 
ATOM     22  C   UNL A   1      32.833  36.384  32.008  1.00  0.00     0.173 C 
ATOM     23  N   UNL A   1      33.469  35.316  31.276  1.00  0.00    -0.274 N 
ATOM     24  C   UNL A   1      33.325  35.038  29.951  1.00  0.00     0.130 A 
ATOM     25  N   UNL A   1      34.340  34.505  31.907  1.00  0.00    -0.180 NA
ATOM     26  C   UNL A   1      34.778  33.694  30.936  1.00  0.00     0.156 A 
ENDBRANCH  18  21
ENDBRANCH  16  18
ENDBRANCH  15  16
ENDBRANCH  10  15
ENDBRANCH   7   9
ENDBRANCH   6   7
ENDBRANCH   5   6
ENDBRANCH   4   5
ENDBRANCH   3   4
ENDBRANCH   2   3
ENDBRANCH   1   2
BRANCH   1  27
ATOM     27  O   UNL A   1      37.882  31.415  37.771  1.00  0.00    -0.377 OA
BRANCH  27  28
ATOM     28  C   UNL A   1      37.560  32.669  38.369  1.00  0.00     0.188 C 
BRANCH  28  29
ATOM     29  C   UNL A   1      38.019  32.977  39.810  1.00  0.00     0.188 C 
BRANCH  29  30
ATOM     30  O   UNL A   1      39.362  32.620  40.103  1.00  0.00    -0.376 OA
BRANCH  30  31
ATOM     31  C   UNL A   1      40.340  33.646  39.995  1.00  0.00     0.202 C 
BRANCH  31  32
ATOM     32  C   UNL A   1      39.820  35.075  40.199  1.00  0.00     0.261 C 
BRANCH  32  33
ATOM     33  O   UNL A   1      40.127  35.988  39.133  1.00  0.00    -0.460 OA
BRANCH  33  34
ATOM     34  C   UNL A   1      41.429  36.282  38.933  1.00  0.00     0.338 C 
ATOM     35  O   UNL A   1      42.213  36.781  39.718  1.00  0.00    -0.246 OA
BRANCH  34  36
ATOM     36  C   UNL A   1      41.811  35.757  37.614  1.00  0.00     0.060 A 
ATOM     37  C   UNL A   1      40.803  35.414  36.705  1.00  0.00     0.016 A 
ATOM     38  C   UNL A   1      43.158  35.556  37.303  1.00  0.00     0.016 A 
ATOM     39  C   UNL A   1      41.141  34.811  35.496  1.00  0.00     0.010 A 
ATOM     40  C   UNL A   1      43.494  34.937  36.099  1.00  0.00     0.010 A 
ATOM     41  C   UNL A   1      42.484  34.523  35.214  1.00  0.00    -0.014 A 
BRANCH  41  42
ATOM     42  C   UNL A   1      42.808  33.589  34.111  1.00  0.00     0.031 A 
ATOM     43  C   UNL A   1      43.029  34.163  32.740  1.00  0.00     0.074 A 
ATOM     44  C   UNL A   1      42.926  32.269  34.328  1.00  0.00     0.049 A 
ATOM     45  N   UNL A   1      43.314  33.554  31.617  1.00  0.00    -0.248 NA
ATOM     46  C   UNL A   1      42.911  35.626  32.617  1.00  0.00     0.031 C 
ATOM     47  C   UNL A   1      42.762  31.604  35.617  1.00  0.00     0.029 A 
ATOM     48  N   UNL A   1      43.208  31.251  33.453  1.00  0.00    -0.354 N 
ATOM     49  C   UNL A   1      43.412  34.556  30.661  1.00  0.00     0.074 A 
ATOM     50  C   UNL A   1      43.121  35.809  31.323  1.00  0.00     0.031 C 
ATOM     51  C   UNL A   1      42.937  30.282  35.449  1.00  0.00     0.029 A 
ATOM     52  C   UNL A   1      43.204  30.009  34.037  1.00  0.00     0.049 A 
ATOM     53  H   UNL A   1      43.397  31.397  32.497  1.00  0.00     0.167 HD
ATOM     54  C   UNL A   1      43.724  34.442  29.349  1.00  0.00     0.037 A 
ATOM     55  C   UNL A   1      43.383  28.794  33.484  1.00  0.00     0.037 A 
ATOM     56  C   UNL A   1      44.005  33.196  28.691  1.00  0.00     0.049 A 
ATOM     57  C   UNL A   1      43.675  28.690  32.008  1.00  0.00     0.074 A 
ATOM     58  C   UNL A   1      44.342  32.974  27.368  1.00  0.00     0.029 A 
ATOM     59  N   UNL A   1      43.972  31.956  29.311  1.00  0.00    -0.354 N 
ATOM     60  N   UNL A   1      43.797  29.643  31.116  1.00  0.00    -0.248 NA
ATOM     61  C   UNL A   1      43.862  27.336  31.464  1.00  0.00     0.031 C 
ATOM     62  C   UNL A   1      44.469  31.594  27.176  1.00  0.00     0.029 A 
ATOM     63  C   UNL A   1      44.262  30.961  28.392  1.00  0.00     0.049 A 
ATOM     64  H   UNL A   1      43.773  31.804  30.263  1.00  0.00     0.167 HD
ATOM     65  C   UNL A   1      44.104  29.010  29.917  1.00  0.00     0.074 A 
ATOM     66  C   UNL A   1      44.160  27.591  30.198  1.00  0.00     0.031 C 
ATOM     67  C   UNL A   1      44.322  29.553  28.693  1.00  0.00     0.037 A 
BRANCH  54  68
ATOM     68  C   UNL A   1      43.754  35.703  28.539  1.00  0.00     0.064 A 
ATOM     69  C   UNL A   1      42.587  36.246  27.977  1.00  0.00     0.173 A 
ATOM     70  C   UNL A   1      44.962  36.387  28.334  1.00  0.00     0.173 A 
ATOM     71  F   UNL A   1      41.412  35.618  28.128  1.00  0.00    -0.203 F 
ATOM     72  C   UNL A   1      42.633  37.414  27.221  1.00  0.00     0.198 A 
ATOM     73  C   UNL A   1      44.999  37.569  27.601  1.00  0.00     0.198 A 
ATOM     74  F   UNL A   1      46.105  35.909  28.848  1.00  0.00    -0.203 F 
ATOM     75  F   UNL A   1      41.515  37.888  26.655  1.00  0.00    -0.200 F 
ATOM     76  C   UNL A   1      43.838  38.078  27.039  1.00  0.00     0.200 A 
ATOM     77  F   UNL A   1      46.162  38.214  27.431  1.00  0.00    -0.200 F 
ATOM     78  F   UNL A   1      43.880  39.204  26.314  1.00  0.00    -0.200 F 
ENDBRANCH  54  68
BRANCH  55  79
ATOM     79  C   UNL A   1      43.290  27.575  34.329  1.00  0.00     0.064 A 
ATOM     80  C   UNL A   1      42.064  26.926  34.530  1.00  0.00     0.173 A 
ATOM     81  C   UNL A   1      44.421  27.051  34.972  1.00  0.00     0.173 A 
ATOM     82  F   UNL A   1      40.950  27.409  33.963  1.00  0.00    -0.203 F 
ATOM     83  C   UNL A   1      41.970  25.811  35.361  1.00  0.00     0.198 A 
ATOM     84  C   UNL A   1      44.330  25.920  35.780  1.00  0.00     0.198 A 
ATOM     85  F   UNL A   1      45.615  27.643  34.821  1.00  0.00    -0.203 F 
ATOM     86  F   UNL A   1      40.776  25.244  35.583  1.00  0.00    -0.200 F 
ATOM     87  C   UNL A   1      43.103  25.306  35.980  1.00  0.00     0.200 A 
ATOM     88  F   UNL A   1      45.427  25.436  36.378  1.00  0.00    -0.200 F 
ATOM     89  F   UNL A   1      43.009  24.240  36.787  1.00  0.00    -0.200 F 
ENDBRANCH  55  79
BRANCH  67  90
ATOM     90  C   UNL A   1      44.679  28.618  27.574  1.00  0.00     0.064 A 
ATOM     91  C   UNL A   1      43.709  28.120  26.693  1.00  0.00     0.173 A 
ATOM     92  C   UNL A   1      46.016  28.253  27.356  1.00  0.00     0.173 A 
ATOM     93  F   UNL A   1      42.416  28.431  26.866  1.00  0.00    -0.203 F 
ATOM     94  C   UNL A   1      44.062  27.269  25.648  1.00  0.00     0.198 A 
ATOM     95  C   UNL A   1      46.369  27.427  26.294  1.00  0.00     0.198 A 
ATOM     96  F   UNL A   1      46.984  28.712  28.165  1.00  0.00    -0.203 F 
ATOM     97  F   UNL A   1      43.113  26.768  24.846  1.00  0.00    -0.200 F 
ATOM     98  C   UNL A   1      45.391  26.929  25.445  1.00  0.00     0.200 A 
ATOM     99  F   UNL A   1      47.655  27.110  26.090  1.00  0.00    -0.200 F 
ATOM    100  F   UNL A   1      45.729  26.115  24.435  1.00  0.00    -0.200 F 
ENDBRANCH  67  90
ENDBRANCH  41  42
ENDBRANCH  34  36
ENDBRANCH  33  34
ENDBRANCH  32  33
ENDBRANCH  31  32
ENDBRANCH  30  31
ENDBRANCH  29  30
ENDBRANCH  28  29
ENDBRANCH  27  28
ENDBRANCH   1  27
TORSDOF 24
ENDMDL
