MODEL 1
REMARK VINA RESULT:     -10.7      0.000      0.000
REMARK SMILES O=C(OCCOCCOCCOCCOC(=O)c1ccc(-c2c3nc(c(-c4c(F)c(F)c(F)c(F)c4F)c4ccc([nH]4)c(-c4c(F)c(F)c(F)c(F)c4F)c4nc(c(-c5c(F)c(F)c(F)c(F)c5F)c5ccc2[nH]5)C=C4)C=C3)cc1)c1ccc(Oc2cc(-c3ccccc3)nc(-c3cnccn3)n2)cc1
REMARK SMILES IDX 8 1 7 2 6 3 5 4 4 5 3 6 2 7 1 8 81 9 82 10 105 11 83 12
REMARK SMILES IDX 104 13 84 14 85 15 86 16 87 17 103 18 88 19 96 20 95 21
REMARK SMILES IDX 89 22 90 23 94 24 91 25 93 26 92 27 97 28 98 29 102 30 99 31
REMARK SMILES IDX 101 32 100 33 9 34 10 35 11 36 12 37 13 38 14 39 15 40 16 41
REMARK SMILES IDX 17 42 18 43 19 44 80 45 20 46 79 47 21 48 22 49 23 50 73 51
REMARK SMILES IDX 24 52 78 53 72 54 74 55 25 56 77 57 71 58 70 59 26 61 58 62
REMARK SMILES IDX 38 63 57 64 39 65 42 66 56 67 75 68 40 69 41 70 55 72 76 73
REMARK SMILES IDX 43 74 27 75 28 76 36 77 29 78 30 79 34 80 37 81 31 82 32 83
REMARK SMILES IDX 35 84 33 85 59 86 60 87 68 88 61 89 62 90 66 91 69 92 63 93
REMARK SMILES IDX 64 94 67 95 65 96 44 97 45 98 53 99 46 100 47 101 51 102
REMARK SMILES IDX 54 103 48 104 49 105 52 106 50 107
REMARK H PARENT 74 60 42 71
REMARK Flexibility Score: inf
ROOT
ATOM      1  C   UNL A   1      45.612  19.721  24.855  1.00  0.00     0.188 C 
ENDROOT
BRANCH   1   2
ATOM      2  C   UNL A   1      44.475  18.809  24.394  1.00  0.00     0.188 C 
BRANCH   2   3
ATOM      3  O   UNL A   1      44.032  17.958  25.450  1.00  0.00    -0.376 OA
BRANCH   3   4
ATOM      4  C   UNL A   1      43.322  18.541  26.536  1.00  0.00     0.202 C 
BRANCH   4   5
ATOM      5  C   UNL A   1      41.987  19.195  26.209  1.00  0.00     0.261 C 
BRANCH   5   6
ATOM      6  O   UNL A   1      42.052  20.560  25.770  1.00  0.00    -0.460 OA
BRANCH   6   7
ATOM      7  C   UNL A   1      41.749  21.705  26.416  1.00  0.00     0.338 C 
ATOM      8  O   UNL A   1      42.662  22.351  26.928  1.00  0.00    -0.246 OA
BRANCH   7   9
ATOM      9  C   UNL A   1      40.392  22.306  26.427  1.00  0.00     0.060 A 
ATOM     10  C   UNL A   1      40.056  23.619  26.764  1.00  0.00     0.019 A 
ATOM     11  C   UNL A   1      39.397  21.498  25.876  1.00  0.00     0.019 A 
ATOM     12  C   UNL A   1      38.732  24.063  26.733  1.00  0.00     0.048 A 
ATOM     13  C   UNL A   1      38.093  21.965  25.759  1.00  0.00     0.048 A 
ATOM     14  C   UNL A   1      37.737  23.215  26.278  1.00  0.00     0.129 A 
BRANCH  14  15
ATOM     15  O   UNL A   1      36.453  23.702  26.384  1.00  0.00    -0.439 OA
BRANCH  15  16
ATOM     16  C   UNL A   1      35.555  23.247  25.449  1.00  0.00     0.223 A 
ATOM     17  C   UNL A   1      34.984  24.114  24.545  1.00  0.00     0.098 A 
ATOM     18  N   UNL A   1      35.194  21.973  25.606  1.00  0.00    -0.191 NA
ATOM     19  C   UNL A   1      33.842  23.656  23.929  1.00  0.00     0.078 A 
ATOM     20  C   UNL A   1      34.142  21.577  24.881  1.00  0.00     0.184 A 
ATOM     21  N   UNL A   1      33.428  22.375  24.057  1.00  0.00    -0.226 NA
BRANCH  19  22
ATOM     22  C   UNL A   1      32.922  24.583  23.246  1.00  0.00     0.000 A 
ATOM     23  C   UNL A   1      31.600  24.737  23.704  1.00  0.00     0.010 A 
ATOM     24  C   UNL A   1      33.342  25.396  22.180  1.00  0.00     0.010 A 
ATOM     25  C   UNL A   1      30.729  25.657  23.114  1.00  0.00     0.001 A 
ATOM     26  C   UNL A   1      32.470  26.314  21.584  1.00  0.00     0.001 A 
ATOM     27  C   UNL A   1      31.164  26.442  22.050  1.00  0.00     0.000 A 
ENDBRANCH  19  22
BRANCH  20  28
ATOM     28  C   UNL A   1      33.813  20.155  24.942  1.00  0.00     0.126 A 
ATOM     29  C   UNL A   1      32.565  19.742  25.396  1.00  0.00     0.143 A 
ATOM     30  N   UNL A   1      34.712  19.258  24.443  1.00  0.00    -0.250 NA
ATOM     31  N   UNL A   1      32.153  18.449  25.361  1.00  0.00    -0.261 NA
ATOM     32  C   UNL A   1      34.304  17.970  24.411  1.00  0.00     0.132 A 
ATOM     33  C   UNL A   1      33.051  17.578  24.851  1.00  0.00     0.131 A 
ENDBRANCH  20  28
ENDBRANCH  15  16
ENDBRANCH  14  15
ENDBRANCH   7   9
ENDBRANCH   6   7
ENDBRANCH   5   6
ENDBRANCH   4   5
ENDBRANCH   3   4
ENDBRANCH   2   3
ENDBRANCH   1   2
BRANCH   1  34
ATOM     34  O   UNL A   1      45.625  21.018  24.261  1.00  0.00    -0.377 OA
BRANCH  34  35
ATOM     35  C   UNL A   1      46.316  22.028  24.984  1.00  0.00     0.188 C 
BRANCH  35  36
ATOM     36  C   UNL A   1      46.716  23.329  24.250  1.00  0.00     0.188 C 
BRANCH  36  37
ATOM     37  O   UNL A   1      45.716  24.337  24.255  1.00  0.00    -0.376 OA
BRANCH  37  38
ATOM     38  C   UNL A   1      45.139  24.628  25.522  1.00  0.00     0.202 C 
BRANCH  38  39
ATOM     39  C   UNL A   1      45.189  26.094  25.984  1.00  0.00     0.261 C 
BRANCH  39  40
ATOM     40  O   UNL A   1      44.332  27.003  25.273  1.00  0.00    -0.460 OA
BRANCH  40  41
ATOM     41  C   UNL A   1      42.988  26.816  25.339  1.00  0.00     0.338 C 
ATOM     42  O   UNL A   1      42.313  26.116  24.630  1.00  0.00    -0.246 OA
BRANCH  41  43
ATOM     43  C   UNL A   1      42.544  27.428  26.626  1.00  0.00     0.060 A 
ATOM     44  C   UNL A   1      41.864  26.618  27.550  1.00  0.00     0.016 A 
ATOM     45  C   UNL A   1      42.946  28.718  26.992  1.00  0.00     0.016 A 
ATOM     46  C   UNL A   1      41.617  27.086  28.847  1.00  0.00     0.010 A 
ATOM     47  C   UNL A   1      42.668  29.195  28.277  1.00  0.00     0.010 A 
ATOM     48  C   UNL A   1      42.000  28.385  29.213  1.00  0.00    -0.014 A 
BRANCH  48  49
ATOM     49  C   UNL A   1      41.533  28.984  30.490  1.00  0.00     0.031 A 
ATOM     50  C   UNL A   1      40.289  29.827  30.446  1.00  0.00     0.074 A 
ATOM     51  C   UNL A   1      42.206  28.835  31.647  1.00  0.00     0.049 A 
ATOM     52  N   UNL A   1      39.742  30.555  31.383  1.00  0.00    -0.248 NA
ATOM     53  C   UNL A   1      39.569  29.855  29.162  1.00  0.00     0.031 C 
ATOM     54  C   UNL A   1      43.406  28.025  31.837  1.00  0.00     0.029 A 
ATOM     55  N   UNL A   1      41.981  29.394  32.886  1.00  0.00    -0.354 N 
ATOM     56  C   UNL A   1      38.625  31.136  30.800  1.00  0.00     0.074 A 
ATOM     57  C   UNL A   1      38.572  30.684  29.428  1.00  0.00     0.031 C 
ATOM     58  C   UNL A   1      43.831  28.164  33.107  1.00  0.00     0.029 A 
ATOM     59  C   UNL A   1      42.956  29.104  33.810  1.00  0.00     0.049 A 
ATOM     60  H   UNL A   1      41.194  29.950  33.090  1.00  0.00     0.167 HD
ATOM     61  C   UNL A   1      37.725  31.978  31.356  1.00  0.00     0.037 A 
ATOM     62  C   UNL A   1      43.141  29.577  35.061  1.00  0.00     0.037 A 
ATOM     63  C   UNL A   1      37.774  32.435  32.716  1.00  0.00     0.049 A 
ATOM     64  C   UNL A   1      42.164  30.582  35.629  1.00  0.00     0.074 A 
ATOM     65  C   UNL A   1      36.875  33.249  33.383  1.00  0.00     0.029 A 
ATOM     66  N   UNL A   1      38.788  32.135  33.612  1.00  0.00    -0.354 N 
ATOM     67  N   UNL A   1      41.074  31.076  35.093  1.00  0.00    -0.248 NA
ATOM     68  C   UNL A   1      42.449  31.103  36.977  1.00  0.00     0.031 C 
ATOM     69  C   UNL A   1      37.378  33.492  34.664  1.00  0.00     0.029 A 
ATOM     70  C   UNL A   1      38.560  32.786  34.812  1.00  0.00     0.049 A 
ATOM     71  H   UNL A   1      39.555  31.549  33.422  1.00  0.00     0.167 HD
ATOM     72  C   UNL A   1      40.539  31.945  36.039  1.00  0.00     0.074 A 
ATOM     73  C   UNL A   1      41.409  31.895  37.193  1.00  0.00     0.031 C 
ATOM     74  C   UNL A   1      39.430  32.719  35.956  1.00  0.00     0.037 A 
BRANCH  61  75
ATOM     75  C   UNL A   1      36.620  32.490  30.485  1.00  0.00     0.064 A 
ATOM     76  C   UNL A   1      36.600  33.814  30.026  1.00  0.00     0.173 A 
ATOM     77  C   UNL A   1      35.604  31.625  30.057  1.00  0.00     0.173 A 
ATOM     78  F   UNL A   1      37.541  34.683  30.425  1.00  0.00    -0.203 F 
ATOM     79  C   UNL A   1      35.596  34.255  29.169  1.00  0.00     0.198 A 
ATOM     80  C   UNL A   1      34.615  32.062  29.181  1.00  0.00     0.198 A 
ATOM     81  F   UNL A   1      35.581  30.350  30.473  1.00  0.00    -0.203 F 
ATOM     82  F   UNL A   1      35.577  35.532  28.761  1.00  0.00    -0.200 F 
ATOM     83  C   UNL A   1      34.611  33.377  28.739  1.00  0.00     0.200 A 
ATOM     84  F   UNL A   1      33.671  31.210  28.760  1.00  0.00    -0.200 F 
ATOM     85  F   UNL A   1      33.655  33.799  27.900  1.00  0.00    -0.200 F 
ENDBRANCH  61  75
BRANCH  62  86
ATOM     86  C   UNL A   1      44.331  29.170  35.862  1.00  0.00     0.064 A 
ATOM     87  C   UNL A   1      45.563  29.825  35.720  1.00  0.00     0.173 A 
ATOM     88  C   UNL A   1      44.281  28.065  36.725  1.00  0.00     0.173 A 
ATOM     89  F   UNL A   1      45.675  30.864  34.880  1.00  0.00    -0.203 F 
ATOM     90  C   UNL A   1      46.703  29.371  36.383  1.00  0.00     0.198 A 
ATOM     91  C   UNL A   1      45.414  27.632  37.413  1.00  0.00     0.198 A 
ATOM     92  F   UNL A   1      43.132  27.393  36.891  1.00  0.00    -0.203 F 
ATOM     93  F   UNL A   1      47.881  29.974  36.173  1.00  0.00    -0.200 F 
ATOM     94  C   UNL A   1      46.627  28.277  37.231  1.00  0.00     0.200 A 
ATOM     95  F   UNL A   1      45.333  26.579  38.236  1.00  0.00    -0.200 F 
ATOM     96  F   UNL A   1      47.724  27.836  37.860  1.00  0.00    -0.200 F 
ENDBRANCH  62  86
BRANCH  74  97
ATOM     97  C   UNL A   1      39.073  33.561  37.148  1.00  0.00     0.064 A 
ATOM     98  C   UNL A   1      38.334  33.040  38.220  1.00  0.00     0.173 A 
ATOM     99  C   UNL A   1      39.535  34.883  37.249  1.00  0.00     0.173 A 
ATOM    100  F   UNL A   1      37.859  31.786  38.165  1.00  0.00    -0.203 F 
ATOM    101  C   UNL A   1      38.059  33.815  39.343  1.00  0.00     0.198 A 
ATOM    102  C   UNL A   1      39.283  35.645  38.387  1.00  0.00     0.198 A 
ATOM    103  F   UNL A   1      40.254  35.427  36.256  1.00  0.00    -0.203 F 
ATOM    104  F   UNL A   1      37.320  33.307  40.340  1.00  0.00    -0.200 F 
ATOM    105  C   UNL A   1      38.541  35.112  39.430  1.00  0.00     0.200 A 
ATOM    106  F   UNL A   1      39.764  36.893  38.477  1.00  0.00    -0.200 F 
ATOM    107  F   UNL A   1      38.288  35.852  40.519  1.00  0.00    -0.200 F 
ENDBRANCH  74  97
ENDBRANCH  48  49
ENDBRANCH  41  43
ENDBRANCH  40  41
ENDBRANCH  39  40
ENDBRANCH  38  39
ENDBRANCH  37  38
ENDBRANCH  36  37
ENDBRANCH  35  36
ENDBRANCH  34  35
ENDBRANCH   1  34
TORSDOF 24
ENDMDL
MODEL 2
REMARK VINA RESULT:     -10.1      1.451      2.214
REMARK SMILES O=C(OCCOCCOCCOCCOC(=O)c1ccc(-c2c3nc(c(-c4c(F)c(F)c(F)c(F)c4F)c4ccc([nH]4)c(-c4c(F)c(F)c(F)c(F)c4F)c4nc(c(-c5c(F)c(F)c(F)c(F)c5F)c5ccc2[nH]5)C=C4)C=C3)cc1)c1ccc(Oc2cc(-c3ccccc3)nc(-c3cnccn3)n2)cc1
REMARK SMILES IDX 8 1 7 2 6 3 5 4 4 5 3 6 2 7 1 8 81 9 82 10 105 11 83 12
REMARK SMILES IDX 104 13 84 14 85 15 86 16 87 17 103 18 88 19 96 20 95 21
REMARK SMILES IDX 89 22 90 23 94 24 91 25 93 26 92 27 97 28 98 29 102 30 99 31
REMARK SMILES IDX 101 32 100 33 9 34 10 35 11 36 12 37 13 38 14 39 15 40 16 41
REMARK SMILES IDX 17 42 18 43 19 44 80 45 20 46 79 47 21 48 22 49 23 50 73 51
REMARK SMILES IDX 24 52 78 53 72 54 74 55 25 56 77 57 71 58 70 59 26 61 58 62
REMARK SMILES IDX 38 63 57 64 39 65 42 66 56 67 75 68 40 69 41 70 55 72 76 73
REMARK SMILES IDX 43 74 27 75 28 76 36 77 29 78 30 79 34 80 37 81 31 82 32 83
REMARK SMILES IDX 35 84 33 85 59 86 60 87 68 88 61 89 62 90 66 91 69 92 63 93
REMARK SMILES IDX 64 94 67 95 65 96 44 97 45 98 53 99 46 100 47 101 51 102
REMARK SMILES IDX 54 103 48 104 49 105 52 106 50 107
REMARK H PARENT 74 60 42 71
REMARK Flexibility Score: inf
ROOT
ATOM      1  C   UNL A   1      45.602  19.835  24.839  1.00  0.00     0.188 C 
ENDROOT
BRANCH   1   2
ATOM      2  C   UNL A   1      44.536  18.866  24.327  1.00  0.00     0.188 C 
BRANCH   2   3
ATOM      3  O   UNL A   1      44.126  17.959  25.349  1.00  0.00    -0.376 OA
BRANCH   3   4
ATOM      4  C   UNL A   1      43.392  18.472  26.453  1.00  0.00     0.202 C 
BRANCH   4   5
ATOM      5  C   UNL A   1      42.073  19.163  26.137  1.00  0.00     0.261 C 
BRANCH   5   6
ATOM      6  O   UNL A   1      42.167  20.543  25.755  1.00  0.00    -0.460 OA
BRANCH   6   7
ATOM      7  C   UNL A   1      41.868  21.667  26.439  1.00  0.00     0.338 C 
ATOM      8  O   UNL A   1      42.781  22.281  26.989  1.00  0.00    -0.246 OA
BRANCH   7   9
ATOM      9  C   UNL A   1      40.519  22.283  26.453  1.00  0.00     0.060 A 
ATOM     10  C   UNL A   1      40.190  23.580  26.854  1.00  0.00     0.019 A 
ATOM     11  C   UNL A   1      39.527  21.518  25.838  1.00  0.00     0.019 A 
ATOM     12  C   UNL A   1      38.873  24.042  26.818  1.00  0.00     0.048 A 
ATOM     13  C   UNL A   1      38.232  22.007  25.718  1.00  0.00     0.048 A 
ATOM     14  C   UNL A   1      37.878  23.232  26.297  1.00  0.00     0.129 A 
BRANCH  14  15
ATOM     15  O   UNL A   1      36.597  23.729  26.401  1.00  0.00    -0.439 OA
BRANCH  15  16
ATOM     16  C   UNL A   1      35.700  23.288  25.457  1.00  0.00     0.223 A 
ATOM     17  C   UNL A   1      35.161  24.163  24.541  1.00  0.00     0.098 A 
ATOM     18  N   UNL A   1      35.307  22.025  25.619  1.00  0.00    -0.191 NA
ATOM     19  C   UNL A   1      34.016  23.729  23.914  1.00  0.00     0.078 A 
ATOM     20  C   UNL A   1      34.254  21.649  24.884  1.00  0.00     0.184 A 
ATOM     21  N   UNL A   1      33.569  22.459  24.046  1.00  0.00    -0.226 NA
BRANCH  19  22
ATOM     22  C   UNL A   1      33.127  24.673  23.215  1.00  0.00     0.000 A 
ATOM     23  C   UNL A   1      33.314  24.942  21.845  1.00  0.00     0.010 A 
ATOM     24  C   UNL A   1      32.028  25.271  23.853  1.00  0.00     0.010 A 
ATOM     25  C   UNL A   1      32.444  25.783  21.145  1.00  0.00     0.001 A 
ATOM     26  C   UNL A   1      31.160  26.118  23.155  1.00  0.00     0.001 A 
ATOM     27  C   UNL A   1      31.370  26.375  21.803  1.00  0.00     0.000 A 
ENDBRANCH  19  22
BRANCH  20  28
ATOM     28  C   UNL A   1      33.890  20.237  24.950  1.00  0.00     0.126 A 
ATOM     29  C   UNL A   1      32.600  19.860  25.306  1.00  0.00     0.143 A 
ATOM     30  N   UNL A   1      34.808  19.309  24.551  1.00  0.00    -0.250 NA
ATOM     31  N   UNL A   1      32.164  18.575  25.266  1.00  0.00    -0.261 NA
ATOM     32  C   UNL A   1      34.377  18.030  24.515  1.00  0.00     0.132 A 
ATOM     33  C   UNL A   1      33.083  17.673  24.856  1.00  0.00     0.131 A 
ENDBRANCH  20  28
ENDBRANCH  15  16
ENDBRANCH  14  15
ENDBRANCH   7   9
ENDBRANCH   6   7
ENDBRANCH   5   6
ENDBRANCH   4   5
ENDBRANCH   3   4
ENDBRANCH   2   3
ENDBRANCH   1   2
BRANCH   1  34
ATOM     34  O   UNL A   1      45.568  21.135  24.252  1.00  0.00    -0.377 OA
BRANCH  34  35
ATOM     35  C   UNL A   1      46.106  22.189  25.039  1.00  0.00     0.188 C 
BRANCH  35  36
ATOM     36  C   UNL A   1      46.428  23.540  24.358  1.00  0.00     0.188 C 
BRANCH  36  37
ATOM     37  O   UNL A   1      45.325  24.430  24.271  1.00  0.00    -0.376 OA
BRANCH  37  38
ATOM     38  C   UNL A   1      44.673  24.728  25.500  1.00  0.00     0.202 C 
BRANCH  38  39
ATOM     39  C   UNL A   1      44.645  26.205  25.927  1.00  0.00     0.261 C 
BRANCH  39  40
ATOM     40  O   UNL A   1      43.707  27.041  25.227  1.00  0.00    -0.460 OA
BRANCH  40  41
ATOM     41  C   UNL A   1      42.396  26.976  25.572  1.00  0.00     0.338 C 
ATOM     42  O   UNL A   1      41.539  26.300  25.064  1.00  0.00    -0.246 OA
BRANCH  41  43
ATOM     43  C   UNL A   1      42.270  27.696  26.874  1.00  0.00     0.060 A 
ATOM     44  C   UNL A   1      41.890  26.961  28.009  1.00  0.00     0.016 A 
ATOM     45  C   UNL A   1      42.694  29.023  27.012  1.00  0.00     0.016 A 
ATOM     46  C   UNL A   1      41.964  27.543  29.281  1.00  0.00     0.010 A 
ATOM     47  C   UNL A   1      42.735  29.612  28.281  1.00  0.00     0.010 A 
ATOM     48  C   UNL A   1      42.369  28.878  29.423  1.00  0.00    -0.014 A 
BRANCH  48  49
ATOM     49  C   UNL A   1      42.220  29.583  30.722  1.00  0.00     0.031 A 
ATOM     50  C   UNL A   1      40.961  30.374  30.941  1.00  0.00     0.074 A 
ATOM     51  C   UNL A   1      43.181  29.572  31.666  1.00  0.00     0.049 A 
ATOM     52  N   UNL A   1      40.637  31.172  31.925  1.00  0.00    -0.248 NA
ATOM     53  C   UNL A   1      39.927  30.251  29.899  1.00  0.00     0.031 C 
ATOM     54  C   UNL A   1      44.434  28.826  31.596  1.00  0.00     0.029 A 
ATOM     55  N   UNL A   1      43.257  30.242  32.867  1.00  0.00    -0.354 N 
ATOM     56  C   UNL A   1      39.373  31.654  31.614  1.00  0.00     0.074 A 
ATOM     57  C   UNL A   1      38.988  31.068  30.350  1.00  0.00     0.031 C 
ATOM     58  C   UNL A   1      45.170  29.103  32.689  1.00  0.00     0.029 A 
ATOM     59  C   UNL A   1      44.457  30.077  33.518  1.00  0.00     0.049 A 
ATOM     60  H   UNL A   1      42.520  30.787  33.226  1.00  0.00     0.167 HD
ATOM     61  C   UNL A   1      38.603  32.515  32.317  1.00  0.00     0.037 A 
ATOM     62  C   UNL A   1      44.936  30.677  34.628  1.00  0.00     0.037 A 
ATOM     63  C   UNL A   1      38.981  33.104  33.570  1.00  0.00     0.049 A 
ATOM     64  C   UNL A   1      44.085  31.699  35.349  1.00  0.00     0.074 A 
ATOM     65  C   UNL A   1      38.243  33.949  34.381  1.00  0.00     0.029 A 
ATOM     66  N   UNL A   1      40.211  32.930  34.183  1.00  0.00    -0.354 N 
ATOM     67  N   UNL A   1      42.866  32.101  35.084  1.00  0.00    -0.248 NA
ATOM     68  C   UNL A   1      44.684  32.360  36.522  1.00  0.00     0.031 C 
ATOM     69  C   UNL A   1      39.050  34.334  35.455  1.00  0.00     0.029 A 
ATOM     70  C   UNL A   1      40.269  33.687  35.341  1.00  0.00     0.049 A 
ATOM     71  H   UNL A   1      40.935  32.354  33.847  1.00  0.00     0.167 HD
ATOM     72  C   UNL A   1      42.548  33.039  36.061  1.00  0.00     0.074 A 
ATOM     73  C   UNL A   1      43.692  33.132  36.940  1.00  0.00     0.031 C 
ATOM     74  C   UNL A   1      41.412  33.763  36.212  1.00  0.00     0.037 A 
BRANCH  61  75
ATOM     75  C   UNL A   1      37.280  32.901  31.733  1.00  0.00     0.064 A 
ATOM     76  C   UNL A   1      36.072  32.555  32.356  1.00  0.00     0.173 A 
ATOM     77  C   UNL A   1      37.225  33.681  30.570  1.00  0.00     0.173 A 
ATOM     78  F   UNL A   1      36.075  31.794  33.460  1.00  0.00    -0.203 F 
ATOM     79  C   UNL A   1      34.854  32.975  31.829  1.00  0.00     0.198 A 
ATOM     80  C   UNL A   1      36.008  34.119  30.060  1.00  0.00     0.198 A 
ATOM     81  F   UNL A   1      38.355  34.034  29.939  1.00  0.00    -0.203 F 
ATOM     82  F   UNL A   1      33.708  32.612  32.423  1.00  0.00    -0.200 F 
ATOM     83  C   UNL A   1      34.823  33.765  30.689  1.00  0.00     0.200 A 
ATOM     84  F   UNL A   1      35.980  34.890  28.964  1.00  0.00    -0.200 F 
ATOM     85  F   UNL A   1      33.650  34.183  30.194  1.00  0.00    -0.200 F 
ENDBRANCH  61  75
BRANCH  62  86
ATOM     86  C   UNL A   1      46.317  30.392  35.113  1.00  0.00     0.064 A 
ATOM     87  C   UNL A   1      47.430  31.055  34.575  1.00  0.00     0.173 A 
ATOM     88  C   UNL A   1      46.558  29.391  36.066  1.00  0.00     0.173 A 
ATOM     89  F   UNL A   1      47.257  31.995  33.634  1.00  0.00    -0.203 F 
ATOM     90  C   UNL A   1      48.727  30.707  34.947  1.00  0.00     0.198 A 
ATOM     91  C   UNL A   1      47.856  29.066  36.461  1.00  0.00     0.198 A 
ATOM     92  F   UNL A   1      45.533  28.715  36.606  1.00  0.00    -0.203 F 
ATOM     93  F   UNL A   1      49.773  31.309  34.364  1.00  0.00    -0.200 F 
ATOM     94  C   UNL A   1      48.940  29.715  35.892  1.00  0.00     0.200 A 
ATOM     95  F   UNL A   1      48.055  28.111  37.379  1.00  0.00    -0.200 F 
ATOM     96  F   UNL A   1      50.187  29.374  36.241  1.00  0.00    -0.200 F 
ENDBRANCH  62  86
BRANCH  74  97
ATOM     97  C   UNL A   1      41.333  34.705  37.379  1.00  0.00     0.064 A 
ATOM     98  C   UNL A   1      41.948  35.966  37.347  1.00  0.00     0.173 A 
ATOM     99  C   UNL A   1      40.575  34.372  38.512  1.00  0.00     0.173 A 
ATOM    100  F   UNL A   1      42.694  36.325  36.291  1.00  0.00    -0.203 F 
ATOM    101  C   UNL A   1      41.819  36.852  38.413  1.00  0.00     0.198 A 
ATOM    102  C   UNL A   1      40.423  35.273  39.563  1.00  0.00     0.198 A 
ATOM    103  F   UNL A   1      39.958  33.184  38.588  1.00  0.00    -0.203 F 
ATOM    104  F   UNL A   1      42.446  38.036  38.377  1.00  0.00    -0.200 F 
ATOM    105  C   UNL A   1      41.050  36.509  39.515  1.00  0.00     0.200 A 
ATOM    106  F   UNL A   1      39.666  34.947  40.620  1.00  0.00    -0.200 F 
ATOM    107  F   UNL A   1      40.914  37.370  40.534  1.00  0.00    -0.200 F 
ENDBRANCH  74  97
ENDBRANCH  48  49
ENDBRANCH  41  43
ENDBRANCH  40  41
ENDBRANCH  39  40
ENDBRANCH  38  39
ENDBRANCH  37  38
ENDBRANCH  36  37
ENDBRANCH  35  36
ENDBRANCH  34  35
ENDBRANCH   1  34
TORSDOF 24
ENDMDL
MODEL 3
REMARK VINA RESULT:     -10.1      4.511      7.405
REMARK SMILES O=C(OCCOCCOCCOCCOC(=O)c1ccc(-c2c3nc(c(-c4c(F)c(F)c(F)c(F)c4F)c4ccc([nH]4)c(-c4c(F)c(F)c(F)c(F)c4F)c4nc(c(-c5c(F)c(F)c(F)c(F)c5F)c5ccc2[nH]5)C=C4)C=C3)cc1)c1ccc(Oc2cc(-c3ccccc3)nc(-c3cnccn3)n2)cc1
REMARK SMILES IDX 8 1 7 2 6 3 5 4 4 5 3 6 2 7 1 8 81 9 82 10 105 11 83 12
REMARK SMILES IDX 104 13 84 14 85 15 86 16 87 17 103 18 88 19 96 20 95 21
REMARK SMILES IDX 89 22 90 23 94 24 91 25 93 26 92 27 97 28 98 29 102 30 99 31
REMARK SMILES IDX 101 32 100 33 9 34 10 35 11 36 12 37 13 38 14 39 15 40 16 41
REMARK SMILES IDX 17 42 18 43 19 44 80 45 20 46 79 47 21 48 22 49 23 50 73 51
REMARK SMILES IDX 24 52 78 53 72 54 74 55 25 56 77 57 71 58 70 59 26 61 58 62
REMARK SMILES IDX 38 63 57 64 39 65 42 66 56 67 75 68 40 69 41 70 55 72 76 73
REMARK SMILES IDX 43 74 27 75 28 76 36 77 29 78 30 79 34 80 37 81 31 82 32 83
REMARK SMILES IDX 35 84 33 85 59 86 60 87 68 88 61 89 62 90 66 91 69 92 63 93
REMARK SMILES IDX 64 94 67 95 65 96 44 97 45 98 53 99 46 100 47 101 51 102
REMARK SMILES IDX 54 103 48 104 49 105 52 106 50 107
REMARK H PARENT 74 60 42 71
REMARK Flexibility Score: inf
ROOT
ATOM      1  C   UNL A   1      44.784  19.365  25.119  1.00  0.00     0.188 C 
ENDROOT
BRANCH   1   2
ATOM      2  C   UNL A   1      43.520  18.512  25.024  1.00  0.00     0.188 C 
BRANCH   2   3
ATOM      3  O   UNL A   1      43.203  17.909  26.277  1.00  0.00    -0.376 OA
BRANCH   3   4
ATOM      4  C   UNL A   1      42.838  18.756  27.361  1.00  0.00     0.202 C 
BRANCH   4   5
ATOM      5  C   UNL A   1      41.458  19.394  27.295  1.00  0.00     0.261 C 
BRANCH   5   6
ATOM      6  O   UNL A   1      41.181  20.160  26.113  1.00  0.00    -0.460 OA
BRANCH   6   7
ATOM      7  C   UNL A   1      40.894  21.469  25.962  1.00  0.00     0.338 C 
ATOM      8  O   UNL A   1      41.781  22.224  25.565  1.00  0.00    -0.246 OA
BRANCH   7   9
ATOM      9  C   UNL A   1      39.530  22.033  26.115  1.00  0.00     0.060 A 
ATOM     10  C   UNL A   1      39.196  23.347  26.453  1.00  0.00     0.019 A 
ATOM     11  C   UNL A   1      38.503  21.183  25.705  1.00  0.00     0.019 A 
ATOM     12  C   UNL A   1      37.865  23.754  26.564  1.00  0.00     0.048 A 
ATOM     13  C   UNL A   1      37.181  21.611  25.728  1.00  0.00     0.048 A 
ATOM     14  C   UNL A   1      36.850  22.866  26.251  1.00  0.00     0.129 A 
BRANCH  14  15
ATOM     15  O   UNL A   1      35.572  23.322  26.493  1.00  0.00    -0.439 OA
BRANCH  15  16
ATOM     16  C   UNL A   1      34.597  22.866  25.638  1.00  0.00     0.223 A 
ATOM     17  C   UNL A   1      34.286  21.526  25.581  1.00  0.00     0.098 A 
ATOM     18  N   UNL A   1      34.123  23.789  24.801  1.00  0.00    -0.191 NA
ATOM     19  C   UNL A   1      33.603  21.127  24.455  1.00  0.00     0.078 A 
ATOM     20  C   UNL A   1      33.370  23.325  23.797  1.00  0.00     0.184 A 
ATOM     21  N   UNL A   1      33.104  22.020  23.571  1.00  0.00    -0.226 NA
BRANCH  19  22
ATOM     22  C   UNL A   1      33.537  19.707  24.069  1.00  0.00     0.000 A 
ATOM     23  C   UNL A   1      34.433  18.776  24.629  1.00  0.00     0.010 A 
ATOM     24  C   UNL A   1      32.544  19.217  23.204  1.00  0.00     0.010 A 
ATOM     25  C   UNL A   1      34.348  17.414  24.328  1.00  0.00     0.001 A 
ATOM     26  C   UNL A   1      32.461  17.854  22.897  1.00  0.00     0.001 A 
ATOM     27  C   UNL A   1      33.364  16.954  23.457  1.00  0.00     0.000 A 
ENDBRANCH  19  22
BRANCH  20  28
ATOM     28  C   UNL A   1      32.737  24.330  22.946  1.00  0.00     0.126 A 
ATOM     29  C   UNL A   1      31.401  24.666  23.133  1.00  0.00     0.143 A 
ATOM     30  N   UNL A   1      33.512  25.001  22.046  1.00  0.00    -0.250 NA
ATOM     31  N   UNL A   1      30.789  25.675  22.462  1.00  0.00    -0.261 NA
ATOM     32  C   UNL A   1      32.903  26.002  21.374  1.00  0.00     0.132 A 
ATOM     33  C   UNL A   1      31.576  26.337  21.584  1.00  0.00     0.131 A 
ENDBRANCH  20  28
ENDBRANCH  15  16
ENDBRANCH  14  15
ENDBRANCH   7   9
ENDBRANCH   6   7
ENDBRANCH   5   6
ENDBRANCH   4   5
ENDBRANCH   3   4
ENDBRANCH   2   3
ENDBRANCH   1   2
BRANCH   1  34
ATOM     34  O   UNL A   1      44.699  20.645  24.494  1.00  0.00    -0.377 OA
BRANCH  34  35
ATOM     35  C   UNL A   1      45.608  21.631  24.964  1.00  0.00     0.188 C 
BRANCH  35  36
ATOM     36  C   UNL A   1      45.641  23.010  24.264  1.00  0.00     0.188 C 
BRANCH  36  37
ATOM     37  O   UNL A   1      44.470  23.791  24.451  1.00  0.00    -0.376 OA
BRANCH  37  38
ATOM     38  C   UNL A   1      44.511  24.714  25.533  1.00  0.00     0.202 C 
BRANCH  38  39
ATOM     39  C   UNL A   1      43.548  25.911  25.455  1.00  0.00     0.261 C 
BRANCH  39  40
ATOM     40  O   UNL A   1      42.215  25.675  25.939  1.00  0.00    -0.460 OA
BRANCH  40  41
ATOM     41  C   UNL A   1      42.024  25.540  27.277  1.00  0.00     0.338 C 
ATOM     42  O   UNL A   1      41.944  24.516  27.903  1.00  0.00    -0.246 OA
BRANCH  41  43
ATOM     43  C   UNL A   1      42.204  26.901  27.864  1.00  0.00     0.060 A 
ATOM     44  C   UNL A   1      41.455  27.963  27.329  1.00  0.00     0.016 A 
ATOM     45  C   UNL A   1      42.952  27.094  29.030  1.00  0.00     0.016 A 
ATOM     46  C   UNL A   1      41.432  29.203  27.979  1.00  0.00     0.010 A 
ATOM     47  C   UNL A   1      42.953  28.344  29.658  1.00  0.00     0.010 A 
ATOM     48  C   UNL A   1      42.195  29.408  29.137  1.00  0.00    -0.014 A 
BRANCH  48  49
ATOM     49  C   UNL A   1      42.378  30.772  29.697  1.00  0.00     0.031 A 
ATOM     50  C   UNL A   1      43.567  31.561  29.226  1.00  0.00     0.074 A 
ATOM     51  C   UNL A   1      41.553  31.288  30.628  1.00  0.00     0.049 A 
ATOM     52  N   UNL A   1      44.021  32.715  29.642  1.00  0.00    -0.248 NA
ATOM     53  C   UNL A   1      44.357  30.958  28.139  1.00  0.00     0.031 C 
ATOM     54  C   UNL A   1      40.350  30.645  31.150  1.00  0.00     0.029 A 
ATOM     55  N   UNL A   1      41.626  32.475  31.323  1.00  0.00    -0.354 N 
ATOM     56  C   UNL A   1      45.152  32.968  28.879  1.00  0.00     0.074 A 
ATOM     57  C   UNL A   1      45.324  31.849  27.980  1.00  0.00     0.031 C 
ATOM     58  C   UNL A   1      39.815  31.429  32.107  1.00  0.00     0.029 A 
ATOM     59  C   UNL A   1      40.660  32.611  32.291  1.00  0.00     0.049 A 
ATOM     60  H   UNL A   1      42.307  33.162  31.143  1.00  0.00     0.167 HD
ATOM     61  C   UNL A   1      45.980  34.036  28.927  1.00  0.00     0.037 A 
ATOM     62  C   UNL A   1      40.504  33.556  33.242  1.00  0.00     0.037 A 
ATOM     63  C   UNL A   1      45.818  35.148  29.821  1.00  0.00     0.049 A 
ATOM     64  C   UNL A   1      41.493  34.698  33.326  1.00  0.00     0.074 A 
ATOM     65  C   UNL A   1      46.579  36.300  29.906  1.00  0.00     0.029 A 
ATOM     66  N   UNL A   1      44.841  35.236  30.799  1.00  0.00    -0.354 N 
ATOM     67  N   UNL A   1      42.523  34.963  32.559  1.00  0.00    -0.248 NA
ATOM     68  C   UNL A   1      41.303  35.668  34.418  1.00  0.00     0.031 C 
ATOM     69  C   UNL A   1      46.099  37.059  30.978  1.00  0.00     0.029 A 
ATOM     70  C   UNL A   1      45.008  36.405  31.523  1.00  0.00     0.049 A 
ATOM     71  H   UNL A   1      44.135  34.568  30.957  1.00  0.00     0.167 HD
ATOM     72  C   UNL A   1      43.087  36.131  33.061  1.00  0.00     0.074 A 
ATOM     73  C   UNL A   1      42.273  36.540  34.185  1.00  0.00     0.031 C 
ATOM     74  C   UNL A   1      44.184  36.803  32.634  1.00  0.00     0.037 A 
BRANCH  61  75
ATOM     75  C   UNL A   1      47.160  34.044  28.007  1.00  0.00     0.064 A 
ATOM     76  C   UNL A   1      48.366  33.417  28.352  1.00  0.00     0.173 A 
ATOM     77  C   UNL A   1      47.059  34.633  26.739  1.00  0.00     0.173 A 
ATOM     78  F   UNL A   1      48.515  32.857  29.562  1.00  0.00    -0.203 F 
ATOM     79  C   UNL A   1      49.432  33.385  27.458  1.00  0.00     0.198 A 
ATOM     80  C   UNL A   1      48.118  34.578  25.839  1.00  0.00     0.198 A 
ATOM     81  F   UNL A   1      45.926  35.246  26.367  1.00  0.00    -0.203 F 
ATOM     82  F   UNL A   1      50.587  32.804  27.815  1.00  0.00    -0.200 F 
ATOM     83  C   UNL A   1      49.304  33.955  26.200  1.00  0.00     0.200 A 
ATOM     84  F   UNL A   1      47.990  35.121  24.621  1.00  0.00    -0.200 F 
ATOM     85  F   UNL A   1      50.326  33.907  25.334  1.00  0.00    -0.200 F 
ENDBRANCH  61  75
BRANCH  62  86
ATOM     86  C   UNL A   1      39.407  33.454  34.247  1.00  0.00     0.064 A 
ATOM     87  C   UNL A   1      38.136  33.991  33.995  1.00  0.00     0.173 A 
ATOM     88  C   UNL A   1      39.634  32.893  35.513  1.00  0.00     0.173 A 
ATOM     89  F   UNL A   1      37.878  34.572  32.814  1.00  0.00    -0.203 F 
ATOM     90  C   UNL A   1      37.148  33.998  34.978  1.00  0.00     0.198 A 
ATOM     91  C   UNL A   1      38.634  32.872  36.484  1.00  0.00     0.198 A 
ATOM     92  F   UNL A   1      40.835  32.377  35.814  1.00  0.00    -0.203 F 
ATOM     93  F   UNL A   1      35.966  34.580  34.732  1.00  0.00    -0.200 F 
ATOM     94  C   UNL A   1      37.396  33.436  36.221  1.00  0.00     0.200 A 
ATOM     95  F   UNL A   1      38.877  32.322  37.681  1.00  0.00    -0.200 F 
ATOM     96  F   UNL A   1      36.449  33.452  37.168  1.00  0.00    -0.200 F 
ENDBRANCH  62  86
BRANCH  74  97
ATOM     97  C   UNL A   1      44.563  38.060  33.362  1.00  0.00     0.064 A 
ATOM     98  C   UNL A   1      44.042  39.309  32.990  1.00  0.00     0.173 A 
ATOM     99  C   UNL A   1      45.402  38.007  34.486  1.00  0.00     0.173 A 
ATOM    100  F   UNL A   1      43.246  39.414  31.915  1.00  0.00    -0.203 F 
ATOM    101  C   UNL A   1      44.358  40.458  33.709  1.00  0.00     0.198 A 
ATOM    102  C   UNL A   1      45.691  39.154  35.219  1.00  0.00     0.198 A 
ATOM    103  F   UNL A   1      45.919  36.837  34.889  1.00  0.00    -0.203 F 
ATOM    104  F   UNL A   1      43.877  41.646  33.314  1.00  0.00    -0.200 F 
ATOM    105  C   UNL A   1      45.174  40.379  34.828  1.00  0.00     0.200 A 
ATOM    106  F   UNL A   1      46.466  39.073  36.310  1.00  0.00    -0.200 F 
ATOM    107  F   UNL A   1      45.465  41.485  35.527  1.00  0.00    -0.200 F 
ENDBRANCH  74  97
ENDBRANCH  48  49
ENDBRANCH  41  43
ENDBRANCH  40  41
ENDBRANCH  39  40
ENDBRANCH  38  39
ENDBRANCH  37  38
ENDBRANCH  36  37
ENDBRANCH  35  36
ENDBRANCH  34  35
ENDBRANCH   1  34
TORSDOF 24
ENDMDL
