MODEL 1
REMARK VINA RESULT:     -11.6      0.000      0.000
REMARK SMILES O=C(OCCOCCOCCOCCOC(=O)c1cc2c(Cl)c(C(F)(F)F)cnc2n1S(=O)(=O)c1ccccc1)c1ccc(-c2c3nc(c(-c4c(F)c(F)c(F)c(F)c4F)c4ccc([nH]4)c(-c4c(F)c(F)c(F)c(F)c4F)c4nc(c(-c5c(F)c(F)c(F)c(F)c5F)c5ccc2[nH]5)C=C4)C=C3)cc1
REMARK SMILES IDX 9 1 8 2 7 3 6 4 5 5 4 6 3 7 2 8 1 9 41 10 42 11 103 12 43 13
REMARK SMILES IDX 102 14 44 15 45 16 46 17 96 18 47 19 101 20 95 21 97 22
REMARK SMILES IDX 48 23 100 24 94 25 93 26 49 28 81 29 61 30 80 31 62 32 65 33
REMARK SMILES IDX 79 34 98 35 63 36 64 37 78 39 99 40 66 41 50 42 51 43 59 44
REMARK SMILES IDX 52 45 53 46 57 47 60 48 54 49 55 50 58 51 56 52 82 53 83 54
REMARK SMILES IDX 91 55 84 56 85 57 89 58 92 59 86 60 87 61 90 62 88 63 67 64
REMARK SMILES IDX 68 65 76 66 69 67 70 68 74 69 77 70 71 71 72 72 75 73 73 74
REMARK SMILES IDX 10 75 11 76 12 77 13 78 14 79 15 80 16 81 17 82 18 83 19 84
REMARK SMILES IDX 31 85 20 86 30 87 21 88 29 89 22 90 23 91 28 92 32 93 33 94
REMARK SMILES IDX 34 95 35 96 36 97 40 98 37 99 39 100 38 101 24 102 25 103
REMARK SMILES IDX 26 104 27 105
REMARK H PARENT 97 27 65 38
REMARK Flexibility Score: inf
ROOT
ATOM      1  O   UNL A   1      37.672  23.035  25.690  1.00  0.00    -0.377 OA
ENDROOT
BRANCH   1   2
ATOM      2  C   UNL A   1      38.402  21.824  25.676  1.00  0.00     0.188 C 
BRANCH   2   3
ATOM      3  C   UNL A   1      39.815  21.882  26.254  1.00  0.00     0.188 C 
BRANCH   3   4
ATOM      4  O   UNL A   1      40.399  20.690  26.811  1.00  0.00    -0.376 OA
BRANCH   4   5
ATOM      5  C   UNL A   1      41.757  20.667  27.251  1.00  0.00     0.202 C 
BRANCH   5   6
ATOM      6  C   UNL A   1      42.678  19.669  26.559  1.00  0.00     0.261 C 
BRANCH   6   7
ATOM      7  O   UNL A   1      42.901  19.963  25.170  1.00  0.00    -0.460 OA
BRANCH   7   8
ATOM      8  C   UNL A   1      44.130  20.328  24.740  1.00  0.00     0.338 C 
ATOM      9  O   UNL A   1      44.783  19.660  23.949  1.00  0.00    -0.246 OA
BRANCH   8  10
ATOM     10  C   UNL A   1      44.464  21.740  25.000  1.00  0.00     0.060 A 
ATOM     11  C   UNL A   1      45.484  22.145  25.866  1.00  0.00     0.016 A 
ATOM     12  C   UNL A   1      43.595  22.676  24.431  1.00  0.00     0.016 A 
ATOM     13  C   UNL A   1      45.422  23.383  26.433  1.00  0.00     0.010 A 
ATOM     14  C   UNL A   1      43.547  23.936  24.967  1.00  0.00     0.010 A 
ATOM     15  C   UNL A   1      44.377  24.207  26.047  1.00  0.00    -0.014 A 
BRANCH  15  16
ATOM     16  C   UNL A   1      44.182  25.380  26.850  1.00  0.00     0.031 A 
ATOM     17  C   UNL A   1      45.279  26.351  26.701  1.00  0.00     0.074 A 
ATOM     18  C   UNL A   1      43.107  25.446  27.654  1.00  0.00     0.049 A 
ATOM     19  N   UNL A   1      46.162  26.673  27.586  1.00  0.00    -0.248 NA
ATOM     20  C   UNL A   1      45.565  26.849  25.347  1.00  0.00     0.031 C 
ATOM     21  C   UNL A   1      41.940  24.559  27.698  1.00  0.00     0.029 A 
ATOM     22  N   UNL A   1      42.804  26.400  28.567  1.00  0.00    -0.354 N 
ATOM     23  C   UNL A   1      46.995  27.585  26.953  1.00  0.00     0.074 A 
ATOM     24  C   UNL A   1      46.707  27.506  25.545  1.00  0.00     0.031 C 
ATOM     25  C   UNL A   1      40.954  25.158  28.406  1.00  0.00     0.029 A 
ATOM     26  C   UNL A   1      41.472  26.390  28.969  1.00  0.00     0.049 A 
ATOM     27  H   UNL A   1      43.465  27.042  28.914  1.00  0.00     0.167 HD
ATOM     28  C   UNL A   1      47.657  28.531  27.667  1.00  0.00     0.037 A 
ATOM     29  C   UNL A   1      40.867  27.426  29.600  1.00  0.00     0.037 A 
ATOM     30  C   UNL A   1      47.762  28.168  29.054  1.00  0.00     0.049 A 
ATOM     31  C   UNL A   1      41.957  28.237  30.219  1.00  0.00     0.074 A 
ATOM     32  C   UNL A   1      48.405  27.153  29.734  1.00  0.00     0.029 A 
ATOM     33  N   UNL A   1      46.812  28.662  29.915  1.00  0.00    -0.354 N 
ATOM     34  N   UNL A   1      42.709  27.798  31.195  1.00  0.00    -0.248 NA
ATOM     35  C   UNL A   1      42.540  29.305  29.416  1.00  0.00     0.031 C 
ATOM     36  C   UNL A   1      47.517  26.787  30.786  1.00  0.00     0.029 A 
ATOM     37  C   UNL A   1      46.412  27.640  30.739  1.00  0.00     0.049 A 
ATOM     38  H   UNL A   1      46.477  29.588  29.938  1.00  0.00     0.167 HD
ATOM     39  C   UNL A   1      43.992  28.228  30.880  1.00  0.00     0.074 A 
ATOM     40  C   UNL A   1      43.817  29.196  29.800  1.00  0.00     0.031 C 
ATOM     41  C   UNL A   1      45.090  27.542  31.311  1.00  0.00     0.037 A 
BRANCH  28  42
ATOM     42  C   UNL A   1      47.851  29.931  27.167  1.00  0.00     0.064 A 
ATOM     43  C   UNL A   1      49.141  30.488  27.140  1.00  0.00     0.173 A 
ATOM     44  C   UNL A   1      46.785  30.840  26.977  1.00  0.00     0.173 A 
ATOM     45  F   UNL A   1      50.219  29.718  27.357  1.00  0.00    -0.203 F 
ATOM     46  C   UNL A   1      49.342  31.859  26.974  1.00  0.00     0.198 A 
ATOM     47  C   UNL A   1      46.991  32.196  26.750  1.00  0.00     0.198 A 
ATOM     48  F   UNL A   1      45.504  30.475  27.116  1.00  0.00    -0.203 F 
ATOM     49  F   UNL A   1      50.579  32.365  27.066  1.00  0.00    -0.200 F 
ATOM     50  C   UNL A   1      48.268  32.711  26.776  1.00  0.00     0.200 A 
ATOM     51  F   UNL A   1      45.935  33.005  26.590  1.00  0.00    -0.200 F 
ATOM     52  F   UNL A   1      48.457  34.032  26.664  1.00  0.00    -0.200 F 
ENDBRANCH  28  42
BRANCH  29  53
ATOM     53  C   UNL A   1      39.522  27.981  29.310  1.00  0.00     0.064 A 
ATOM     54  C   UNL A   1      38.581  28.144  30.338  1.00  0.00     0.173 A 
ATOM     55  C   UNL A   1      39.230  28.624  28.089  1.00  0.00     0.173 A 
ATOM     56  F   UNL A   1      38.803  27.601  31.545  1.00  0.00    -0.203 F 
ATOM     57  C   UNL A   1      37.435  28.930  30.168  1.00  0.00     0.198 A 
ATOM     58  C   UNL A   1      38.084  29.401  27.918  1.00  0.00     0.198 A 
ATOM     59  F   UNL A   1      40.095  28.595  27.065  1.00  0.00    -0.203 F 
ATOM     60  F   UNL A   1      36.593  29.116  31.195  1.00  0.00    -0.200 F 
ATOM     61  C   UNL A   1      37.194  29.568  28.962  1.00  0.00     0.200 A 
ATOM     62  F   UNL A   1      37.883  30.042  26.757  1.00  0.00    -0.200 F 
ATOM     63  F   UNL A   1      36.133  30.374  28.820  1.00  0.00    -0.200 F 
ENDBRANCH  29  53
BRANCH  41  64
ATOM     64  C   UNL A   1      44.874  26.439  32.312  1.00  0.00     0.064 A 
ATOM     65  C   UNL A   1      44.738  26.652  33.696  1.00  0.00     0.173 A 
ATOM     66  C   UNL A   1      44.618  25.148  31.832  1.00  0.00     0.173 A 
ATOM     67  F   UNL A   1      44.869  27.879  34.218  1.00  0.00    -0.203 F 
ATOM     68  C   UNL A   1      44.391  25.613  34.558  1.00  0.00     0.198 A 
ATOM     69  C   UNL A   1      44.237  24.121  32.690  1.00  0.00     0.198 A 
ATOM     70  F   UNL A   1      44.675  24.901  30.514  1.00  0.00    -0.203 F 
ATOM     71  F   UNL A   1      44.263  25.841  35.873  1.00  0.00    -0.200 F 
ATOM     72  C   UNL A   1      44.130  24.349  34.052  1.00  0.00     0.200 A 
ATOM     73  F   UNL A   1      43.933  22.915  32.188  1.00  0.00    -0.200 F 
ATOM     74  F   UNL A   1      43.743  23.362  34.872  1.00  0.00    -0.200 F 
ENDBRANCH  41  64
ENDBRANCH  15  16
ENDBRANCH   8  10
ENDBRANCH   7   8
ENDBRANCH   6   7
ENDBRANCH   5   6
ENDBRANCH   4   5
ENDBRANCH   3   4
ENDBRANCH   2   3
ENDBRANCH   1   2
BRANCH   1  75
ATOM     75  C   UNL A   1      36.669  23.250  24.729  1.00  0.00     0.188 C 
BRANCH  75  76
ATOM     76  C   UNL A   1      35.797  22.050  24.321  1.00  0.00     0.188 C 
BRANCH  76  77
ATOM     77  O   UNL A   1      34.436  22.176  23.935  1.00  0.00    -0.376 OA
BRANCH  77  78
ATOM     78  C   UNL A   1      34.021  23.186  23.033  1.00  0.00     0.202 C 
BRANCH  78  79
ATOM     79  C   UNL A   1      32.567  23.136  22.544  1.00  0.00     0.261 C 
BRANCH  79  80
ATOM     80  O   UNL A   1      31.845  24.374  22.632  1.00  0.00    -0.459 OA
BRANCH  80  81
ATOM     81  C   UNL A   1      32.483  25.483  22.188  1.00  0.00     0.356 C 
ATOM     82  O   UNL A   1      33.370  25.506  21.341  1.00  0.00    -0.244 OA
BRANCH  81  83
ATOM     83  C   UNL A   1      31.837  26.671  22.696  1.00  0.00     0.145 A 
ATOM     84  C   UNL A   1      30.747  27.329  22.136  1.00  0.00     0.048 A 
ATOM     85  N   UNL A   1      32.156  27.364  23.844  1.00  0.00    -0.209 N 
ATOM     86  C   UNL A   1      30.443  28.466  22.925  1.00  0.00     0.040 A 
ATOM     87  C   UNL A   1      31.387  28.503  23.949  1.00  0.00     0.156 A 
ATOM     88  C   UNL A   1      29.506  29.515  22.889  1.00  0.00     0.065 A 
ATOM     89  N   UNL A   1      31.518  29.505  24.838  1.00  0.00    -0.237 NA
ATOM     90  Cl  UNL A   1      28.249  29.335  21.744  1.00  0.00    -0.083 Cl
ATOM     91  C   UNL A   1      29.650  30.612  23.727  1.00  0.00     0.093 A 
ATOM     92  C   UNL A   1      30.670  30.545  24.661  1.00  0.00     0.128 A 
BRANCH  85  93
ATOM     93  S   UNL A   1      33.127  26.726  25.079  1.00  0.00     0.270 S 
ATOM     94  O   UNL A   1      34.325  26.263  24.405  1.00  0.00    -0.201 OA
ATOM     95  O   UNL A   1      33.171  27.763  26.096  1.00  0.00    -0.201 OA
BRANCH  93  96
ATOM     96  C   UNL A   1      32.293  25.338  25.778  1.00  0.00     0.088 A 
ATOM     97  C   UNL A   1      30.900  25.353  25.875  1.00  0.00     0.022 A 
ATOM     98  C   UNL A   1      33.034  24.250  26.256  1.00  0.00     0.022 A 
ATOM     99  C   UNL A   1      30.241  24.241  26.394  1.00  0.00     0.001 A 
ATOM    100  C   UNL A   1      32.366  23.134  26.753  1.00  0.00     0.001 A 
ATOM    101  C   UNL A   1      30.971  23.129  26.816  1.00  0.00     0.000 A 
ENDBRANCH  93  96
ENDBRANCH  85  93
BRANCH  91 102
ATOM    102  C   UNL A   1      28.796  31.830  23.616  1.00  0.00     0.419 C 
ATOM    103  F   UNL A   1      28.617  32.239  22.331  1.00  0.00    -0.166 F 
ATOM    104  F   UNL A   1      27.555  31.661  24.144  1.00  0.00    -0.166 F 
ATOM    105  F   UNL A   1      29.325  32.909  24.262  1.00  0.00    -0.166 F 
ENDBRANCH  91 102
ENDBRANCH  81  83
ENDBRANCH  80  81
ENDBRANCH  79  80
ENDBRANCH  78  79
ENDBRANCH  77  78
ENDBRANCH  76  77
ENDBRANCH  75  76
ENDBRANCH   1  75
TORSDOF 23
ENDMDL
MODEL 2
REMARK VINA RESULT:     -11.3      1.260      2.078
REMARK SMILES O=C(OCCOCCOCCOCCOC(=O)c1cc2c(Cl)c(C(F)(F)F)cnc2n1S(=O)(=O)c1ccccc1)c1ccc(-c2c3nc(c(-c4c(F)c(F)c(F)c(F)c4F)c4ccc([nH]4)c(-c4c(F)c(F)c(F)c(F)c4F)c4nc(c(-c5c(F)c(F)c(F)c(F)c5F)c5ccc2[nH]5)C=C4)C=C3)cc1
REMARK SMILES IDX 9 1 8 2 7 3 6 4 5 5 4 6 3 7 2 8 1 9 41 10 42 11 103 12 43 13
REMARK SMILES IDX 102 14 44 15 45 16 46 17 96 18 47 19 101 20 95 21 97 22
REMARK SMILES IDX 48 23 100 24 94 25 93 26 49 28 81 29 61 30 80 31 62 32 65 33
REMARK SMILES IDX 79 34 98 35 63 36 64 37 78 39 99 40 66 41 50 42 51 43 59 44
REMARK SMILES IDX 52 45 53 46 57 47 60 48 54 49 55 50 58 51 56 52 82 53 83 54
REMARK SMILES IDX 91 55 84 56 85 57 89 58 92 59 86 60 87 61 90 62 88 63 67 64
REMARK SMILES IDX 68 65 76 66 69 67 70 68 74 69 77 70 71 71 72 72 75 73 73 74
REMARK SMILES IDX 10 75 11 76 12 77 13 78 14 79 15 80 16 81 17 82 18 83 19 84
REMARK SMILES IDX 31 85 20 86 30 87 21 88 29 89 22 90 23 91 28 92 32 93 33 94
REMARK SMILES IDX 34 95 35 96 36 97 40 98 37 99 39 100 38 101 24 102 25 103
REMARK SMILES IDX 26 104 27 105
REMARK H PARENT 97 27 65 38
REMARK Flexibility Score: inf
ROOT
ATOM      1  O   UNL A   1      36.661  23.067  25.644  1.00  0.00    -0.377 OA
ENDROOT
BRANCH   1   2
ATOM      2  C   UNL A   1      37.520  21.944  25.598  1.00  0.00     0.188 C 
BRANCH   2   3
ATOM      3  C   UNL A   1      38.890  22.117  26.250  1.00  0.00     0.188 C 
BRANCH   3   4
ATOM      4  O   UNL A   1      39.865  21.064  26.133  1.00  0.00    -0.376 OA
BRANCH   4   5
ATOM      5  C   UNL A   1      41.094  21.109  26.858  1.00  0.00     0.202 C 
BRANCH   5   6
ATOM      6  C   UNL A   1      42.122  20.036  26.520  1.00  0.00     0.261 C 
BRANCH   6   7
ATOM      7  O   UNL A   1      42.576  20.087  25.157  1.00  0.00    -0.460 OA
BRANCH   7   8
ATOM      8  C   UNL A   1      43.874  20.350  24.882  1.00  0.00     0.338 C 
ATOM      9  O   UNL A   1      44.567  19.619  24.187  1.00  0.00    -0.246 OA
BRANCH   8  10
ATOM     10  C   UNL A   1      44.280  21.739  25.166  1.00  0.00     0.060 A 
ATOM     11  C   UNL A   1      45.261  22.079  26.102  1.00  0.00     0.016 A 
ATOM     12  C   UNL A   1      43.516  22.727  24.537  1.00  0.00     0.016 A 
ATOM     13  C   UNL A   1      45.240  23.321  26.665  1.00  0.00     0.010 A 
ATOM     14  C   UNL A   1      43.513  23.990  25.070  1.00  0.00     0.010 A 
ATOM     15  C   UNL A   1      44.280  24.210  26.207  1.00  0.00    -0.014 A 
BRANCH  15  16
ATOM     16  C   UNL A   1      44.106  25.396  26.995  1.00  0.00     0.031 A 
ATOM     17  C   UNL A   1      45.217  26.349  26.827  1.00  0.00     0.074 A 
ATOM     18  C   UNL A   1      43.037  25.488  27.803  1.00  0.00     0.049 A 
ATOM     19  N   UNL A   1      46.109  26.670  27.704  1.00  0.00    -0.248 NA
ATOM     20  C   UNL A   1      45.502  26.825  25.465  1.00  0.00     0.031 C 
ATOM     21  C   UNL A   1      41.857  24.618  27.865  1.00  0.00     0.029 A 
ATOM     22  N   UNL A   1      42.752  26.458  28.705  1.00  0.00    -0.354 N 
ATOM     23  C   UNL A   1      46.951  27.562  27.054  1.00  0.00     0.074 A 
ATOM     24  C   UNL A   1      46.654  27.468  25.648  1.00  0.00     0.031 C 
ATOM     25  C   UNL A   1      40.884  25.240  28.569  1.00  0.00     0.029 A 
ATOM     26  C   UNL A   1      41.422  26.472  29.113  1.00  0.00     0.049 A 
ATOM     27  H   UNL A   1      43.423  27.095  29.040  1.00  0.00     0.167 HD
ATOM     28  C   UNL A   1      47.630  28.507  27.752  1.00  0.00     0.037 A 
ATOM     29  C   UNL A   1      40.835  27.525  29.734  1.00  0.00     0.037 A 
ATOM     30  C   UNL A   1      47.737  28.162  29.143  1.00  0.00     0.049 A 
ATOM     31  C   UNL A   1      41.940  28.328  30.337  1.00  0.00     0.074 A 
ATOM     32  C   UNL A   1      48.369  27.147  29.833  1.00  0.00     0.029 A 
ATOM     33  N   UNL A   1      46.799  28.680  30.002  1.00  0.00    -0.354 N 
ATOM     34  N   UNL A   1      42.690  27.892  31.315  1.00  0.00    -0.248 NA
ATOM     35  C   UNL A   1      42.534  29.377  29.516  1.00  0.00     0.031 C 
ATOM     36  C   UNL A   1      47.482  26.807  30.894  1.00  0.00     0.029 A 
ATOM     37  C   UNL A   1      46.389  27.675  30.842  1.00  0.00     0.049 A 
ATOM     38  H   UNL A   1      46.477  29.611  30.015  1.00  0.00     0.167 HD
ATOM     39  C   UNL A   1      43.978  28.299  30.987  1.00  0.00     0.074 A 
ATOM     40  C   UNL A   1      43.811  29.256  29.895  1.00  0.00     0.031 C 
ATOM     41  C   UNL A   1      45.068  27.603  31.422  1.00  0.00     0.037 A 
BRANCH  28  42
ATOM     42  C   UNL A   1      47.841  29.898  27.232  1.00  0.00     0.064 A 
ATOM     43  C   UNL A   1      49.138  30.438  27.198  1.00  0.00     0.173 A 
ATOM     44  C   UNL A   1      46.786  30.817  27.030  1.00  0.00     0.173 A 
ATOM     45  F   UNL A   1      50.206  29.659  27.424  1.00  0.00    -0.203 F 
ATOM     46  C   UNL A   1      49.356  31.805  27.012  1.00  0.00     0.198 A 
ATOM     47  C   UNL A   1      47.010  32.168  26.785  1.00  0.00     0.198 A 
ATOM     48  F   UNL A   1      45.501  30.471  27.175  1.00  0.00    -0.203 F 
ATOM     49  F   UNL A   1      50.600  32.297  27.097  1.00  0.00    -0.200 F 
ATOM     50  C   UNL A   1      48.293  32.667  26.803  1.00  0.00     0.200 A 
ATOM     51  F   UNL A   1      45.963  32.987  26.614  1.00  0.00    -0.200 F 
ATOM     52  F   UNL A   1      48.498  33.984  26.672  1.00  0.00    -0.200 F 
ENDBRANCH  28  42
BRANCH  29  53
ATOM     53  C   UNL A   1      39.497  28.095  29.443  1.00  0.00     0.064 A 
ATOM     54  C   UNL A   1      38.582  28.333  30.481  1.00  0.00     0.173 A 
ATOM     55  C   UNL A   1      39.192  28.681  28.197  1.00  0.00     0.173 A 
ATOM     56  F   UNL A   1      38.818  27.848  31.709  1.00  0.00    -0.203 F 
ATOM     57  C   UNL A   1      37.450  29.135  30.294  1.00  0.00     0.198 A 
ATOM     58  C   UNL A   1      38.060  29.475  28.009  1.00  0.00     0.198 A 
ATOM     59  F   UNL A   1      40.034  28.579  27.158  1.00  0.00    -0.203 F 
ATOM     60  F   UNL A   1      36.636  29.393  31.327  1.00  0.00    -0.200 F 
ATOM     61  C   UNL A   1      37.197  29.715  29.062  1.00  0.00     0.200 A 
ATOM     62  F   UNL A   1      37.848  30.059  26.822  1.00  0.00    -0.200 F 
ATOM     63  F   UNL A   1      36.151  30.537  28.900  1.00  0.00    -0.200 F 
ENDBRANCH  29  53
BRANCH  41  64
ATOM     64  C   UNL A   1      44.842  26.517  32.439  1.00  0.00     0.064 A 
ATOM     65  C   UNL A   1      44.550  25.182  32.108  1.00  0.00     0.173 A 
ATOM     66  C   UNL A   1      45.110  26.803  33.784  1.00  0.00     0.173 A 
ATOM     67  F   UNL A   1      44.381  24.812  30.831  1.00  0.00    -0.203 F 
ATOM     68  C   UNL A   1      44.499  24.188  33.084  1.00  0.00     0.198 A 
ATOM     69  C   UNL A   1      45.094  25.802  34.752  1.00  0.00     0.198 A 
ATOM     70  F   UNL A   1      45.452  28.048  34.149  1.00  0.00    -0.203 F 
ATOM     71  F   UNL A   1      44.223  22.921  32.743  1.00  0.00    -0.200 F 
ATOM     72  C   UNL A   1      44.782  24.497  34.405  1.00  0.00     0.200 A 
ATOM     73  F   UNL A   1      45.421  26.098  36.018  1.00  0.00    -0.200 F 
ATOM     74  F   UNL A   1      44.787  23.535  35.337  1.00  0.00    -0.200 F 
ENDBRANCH  41  64
ENDBRANCH  15  16
ENDBRANCH   8  10
ENDBRANCH   7   8
ENDBRANCH   6   7
ENDBRANCH   5   6
ENDBRANCH   4   5
ENDBRANCH   3   4
ENDBRANCH   2   3
ENDBRANCH   1   2
BRANCH   1  75
ATOM     75  C   UNL A   1      35.270  22.872  25.698  1.00  0.00     0.188 C 
BRANCH  75  76
ATOM     76  C   UNL A   1      34.670  22.348  27.014  1.00  0.00     0.188 C 
BRANCH  76  77
ATOM     77  O   UNL A   1      33.322  22.581  27.399  1.00  0.00    -0.376 OA
BRANCH  77  78
ATOM     78  C   UNL A   1      32.297  22.713  26.431  1.00  0.00     0.202 C 
BRANCH  78  79
ATOM     79  C   UNL A   1      31.490  24.019  26.437  1.00  0.00     0.261 C 
BRANCH  79  80
ATOM     80  O   UNL A   1      30.411  24.080  25.492  1.00  0.00    -0.459 OA
BRANCH  80  81
ATOM     81  C   UNL A   1      30.750  24.272  24.194  1.00  0.00     0.356 C 
ATOM     82  O   UNL A   1      31.080  23.393  23.405  1.00  0.00    -0.244 OA
BRANCH  81  83
ATOM     83  C   UNL A   1      30.472  25.633  23.799  1.00  0.00     0.145 A 
ATOM     84  C   UNL A   1      29.219  26.216  23.644  1.00  0.00     0.048 A 
ATOM     85  N   UNL A   1      31.392  26.624  23.527  1.00  0.00    -0.209 N 
ATOM     86  C   UNL A   1      29.385  27.556  23.217  1.00  0.00     0.040 A 
ATOM     87  C   UNL A   1      30.756  27.763  23.083  1.00  0.00     0.156 A 
ATOM     88  C   UNL A   1      28.546  28.633  22.876  1.00  0.00     0.065 A 
ATOM     89  N   UNL A   1      31.319  28.873  22.572  1.00  0.00    -0.237 NA
ATOM     90  Cl  UNL A   1      26.889  28.411  23.238  1.00  0.00    -0.083 Cl
ATOM     91  C   UNL A   1      29.069  29.764  22.267  1.00  0.00     0.093 A 
ATOM     92  C   UNL A   1      30.447  29.815  22.141  1.00  0.00     0.128 A 
BRANCH  85  93
ATOM     93  S   UNL A   1      33.023  26.530  23.978  1.00  0.00     0.270 S 
ATOM     94  O   UNL A   1      33.230  25.139  24.335  1.00  0.00    -0.201 OA
ATOM     95  O   UNL A   1      33.750  27.159  22.888  1.00  0.00    -0.201 OA
BRANCH  93  96
ATOM     96  C   UNL A   1      33.260  27.528  25.413  1.00  0.00     0.088 A 
ATOM     97  C   UNL A   1      34.374  28.367  25.488  1.00  0.00     0.022 A 
ATOM     98  C   UNL A   1      32.348  27.450  26.472  1.00  0.00     0.022 A 
ATOM     99  C   UNL A   1      34.540  29.182  26.606  1.00  0.00     0.001 A 
ATOM    100  C   UNL A   1      32.510  28.284  27.576  1.00  0.00     0.001 A 
ATOM    101  C   UNL A   1      33.601  29.152  27.638  1.00  0.00     0.000 A 
ENDBRANCH  93  96
ENDBRANCH  85  93
BRANCH  91 102
ATOM    102  C   UNL A   1      28.213  30.859  21.725  1.00  0.00     0.419 C 
ATOM    103  F   UNL A   1      28.925  31.959  21.359  1.00  0.00    -0.166 F 
ATOM    104  F   UNL A   1      27.495  30.484  20.634  1.00  0.00    -0.166 F 
ATOM    105  F   UNL A   1      27.297  31.313  22.628  1.00  0.00    -0.166 F 
ENDBRANCH  91 102
ENDBRANCH  81  83
ENDBRANCH  80  81
ENDBRANCH  79  80
ENDBRANCH  78  79
ENDBRANCH  77  78
ENDBRANCH  76  77
ENDBRANCH  75  76
ENDBRANCH   1  75
TORSDOF 23
ENDMDL
MODEL 3
REMARK VINA RESULT:     -11.3      1.691      2.857
REMARK SMILES O=C(OCCOCCOCCOCCOC(=O)c1cc2c(Cl)c(C(F)(F)F)cnc2n1S(=O)(=O)c1ccccc1)c1ccc(-c2c3nc(c(-c4c(F)c(F)c(F)c(F)c4F)c4ccc([nH]4)c(-c4c(F)c(F)c(F)c(F)c4F)c4nc(c(-c5c(F)c(F)c(F)c(F)c5F)c5ccc2[nH]5)C=C4)C=C3)cc1
REMARK SMILES IDX 9 1 8 2 7 3 6 4 5 5 4 6 3 7 2 8 1 9 41 10 42 11 103 12 43 13
REMARK SMILES IDX 102 14 44 15 45 16 46 17 96 18 47 19 101 20 95 21 97 22
REMARK SMILES IDX 48 23 100 24 94 25 93 26 49 28 81 29 61 30 80 31 62 32 65 33
REMARK SMILES IDX 79 34 98 35 63 36 64 37 78 39 99 40 66 41 50 42 51 43 59 44
REMARK SMILES IDX 52 45 53 46 57 47 60 48 54 49 55 50 58 51 56 52 82 53 83 54
REMARK SMILES IDX 91 55 84 56 85 57 89 58 92 59 86 60 87 61 90 62 88 63 67 64
REMARK SMILES IDX 68 65 76 66 69 67 70 68 74 69 77 70 71 71 72 72 75 73 73 74
REMARK SMILES IDX 10 75 11 76 12 77 13 78 14 79 15 80 16 81 17 82 18 83 19 84
REMARK SMILES IDX 31 85 20 86 30 87 21 88 29 89 22 90 23 91 28 92 32 93 33 94
REMARK SMILES IDX 34 95 35 96 36 97 40 98 37 99 39 100 38 101 24 102 25 103
REMARK SMILES IDX 26 104 27 105
REMARK H PARENT 97 27 65 38
REMARK Flexibility Score: inf
ROOT
ATOM      1  O   UNL A   1      41.001  20.776  27.423  1.00  0.00    -0.377 OA
ENDROOT
BRANCH   1   2
ATOM      2  C   UNL A   1      42.289  20.204  27.535  1.00  0.00     0.188 C 
BRANCH   2   3
ATOM      3  C   UNL A   1      42.344  18.681  27.639  1.00  0.00     0.188 C 
BRANCH   3   4
ATOM      4  O   UNL A   1      43.078  17.932  26.653  1.00  0.00    -0.376 OA
BRANCH   4   5
ATOM      5  C   UNL A   1      43.486  18.529  25.422  1.00  0.00     0.202 C 
BRANCH   5   6
ATOM      6  C   UNL A   1      44.959  18.900  25.301  1.00  0.00     0.261 C 
BRANCH   6   7
ATOM      7  O   UNL A   1      45.207  20.310  25.428  1.00  0.00    -0.460 OA
BRANCH   7   8
ATOM      8  C   UNL A   1      45.060  21.125  24.358  1.00  0.00     0.338 C 
ATOM      9  O   UNL A   1      44.587  20.747  23.294  1.00  0.00    -0.246 OA
BRANCH   8  10
ATOM     10  C   UNL A   1      45.163  22.561  24.677  1.00  0.00     0.060 A 
ATOM     11  C   UNL A   1      46.200  23.111  25.435  1.00  0.00     0.016 A 
ATOM     12  C   UNL A   1      44.068  23.340  24.290  1.00  0.00     0.016 A 
ATOM     13  C   UNL A   1      45.991  24.285  26.095  1.00  0.00     0.010 A 
ATOM     14  C   UNL A   1      43.864  24.541  24.919  1.00  0.00     0.010 A 
ATOM     15  C   UNL A   1      44.770  24.912  25.904  1.00  0.00    -0.014 A 
BRANCH  15  16
ATOM     16  C   UNL A   1      44.476  25.987  26.808  1.00  0.00     0.031 A 
ATOM     17  C   UNL A   1      45.504  27.040  26.782  1.00  0.00     0.074 A 
ATOM     18  C   UNL A   1      43.383  25.901  27.585  1.00  0.00     0.049 A 
ATOM     19  N   UNL A   1      46.344  27.336  27.718  1.00  0.00    -0.248 NA
ATOM     20  C   UNL A   1      45.782  27.685  25.490  1.00  0.00     0.031 C 
ATOM     21  C   UNL A   1      42.280  24.936  27.513  1.00  0.00     0.029 A 
ATOM     22  N   UNL A   1      42.994  26.739  28.576  1.00  0.00    -0.354 N 
ATOM     23  C   UNL A   1      47.123  28.359  27.196  1.00  0.00     0.074 A 
ATOM     24  C   UNL A   1      46.870  28.397  25.780  1.00  0.00     0.031 C 
ATOM     25  C   UNL A   1      41.241  25.394  28.247  1.00  0.00     0.029 A 
ATOM     26  C   UNL A   1      41.657  26.599  28.938  1.00  0.00     0.049 A 
ATOM     27  H   UNL A   1      43.600  27.389  28.999  1.00  0.00     0.167 HD
ATOM     28  C   UNL A   1      47.701  29.275  28.015  1.00  0.00     0.037 A 
ATOM     29  C   UNL A   1      40.968  27.526  29.648  1.00  0.00     0.037 A 
ATOM     30  C   UNL A   1      47.802  28.789  29.363  1.00  0.00     0.049 A 
ATOM     31  C   UNL A   1      41.985  28.346  30.370  1.00  0.00     0.074 A 
ATOM     32  C   UNL A   1      48.501  27.760  29.962  1.00  0.00     0.029 A 
ATOM     33  N   UNL A   1      46.802  29.131  30.241  1.00  0.00    -0.354 N 
ATOM     34  N   UNL A   1      42.745  27.869  31.321  1.00  0.00    -0.248 NA
ATOM     35  C   UNL A   1      42.507  29.524  29.688  1.00  0.00     0.031 C 
ATOM     36  C   UNL A   1      47.620  27.234  30.950  1.00  0.00     0.029 A 
ATOM     37  C   UNL A   1      46.459  28.010  30.953  1.00  0.00     0.049 A 
ATOM     38  H   UNL A   1      46.402  30.026  30.342  1.00  0.00     0.167 HD
ATOM     39  C   UNL A   1      44.000  28.414  31.082  1.00  0.00     0.074 A 
ATOM     40  C   UNL A   1      43.779  29.468  30.095  1.00  0.00     0.031 C 
ATOM     41  C   UNL A   1      45.135  27.766  31.477  1.00  0.00     0.037 A 
BRANCH  28  42
ATOM     42  C   UNL A   1      47.805  30.728  27.654  1.00  0.00     0.064 A 
ATOM     43  C   UNL A   1      46.638  31.463  27.387  1.00  0.00     0.173 A 
ATOM     44  C   UNL A   1      49.022  31.349  27.291  1.00  0.00     0.173 A 
ATOM     45  F   UNL A   1      45.430  30.944  27.652  1.00  0.00    -0.203 F 
ATOM     46  C   UNL A   1      46.688  32.712  26.765  1.00  0.00     0.198 A 
ATOM     47  C   UNL A   1      49.072  32.619  26.727  1.00  0.00     0.198 A 
ATOM     48  F   UNL A   1      50.196  30.710  27.358  1.00  0.00    -0.203 F 
ATOM     49  F   UNL A   1      45.550  33.332  26.426  1.00  0.00    -0.200 F 
ATOM     50  C   UNL A   1      47.904  33.291  26.439  1.00  0.00     0.200 A 
ATOM     51  F   UNL A   1      50.258  33.145  26.394  1.00  0.00    -0.200 F 
ATOM     52  F   UNL A   1      47.951  34.466  25.800  1.00  0.00    -0.200 F 
ENDBRANCH  28  42
BRANCH  29  53
ATOM     53  C   UNL A   1      39.593  28.013  29.375  1.00  0.00     0.064 A 
ATOM     54  C   UNL A   1      38.662  28.142  30.417  1.00  0.00     0.173 A 
ATOM     55  C   UNL A   1      39.250  28.627  28.151  1.00  0.00     0.173 A 
ATOM     56  F   UNL A   1      38.930  27.624  31.625  1.00  0.00    -0.203 F 
ATOM     57  C   UNL A   1      37.477  28.870  30.258  1.00  0.00     0.198 A 
ATOM     58  C   UNL A   1      38.066  29.346  27.992  1.00  0.00     0.198 A 
ATOM     59  F   UNL A   1      40.099  28.627  27.114  1.00  0.00    -0.203 F 
ATOM     60  F   UNL A   1      36.645  29.027  31.296  1.00  0.00    -0.200 F 
ATOM     61  C   UNL A   1      37.186  29.482  29.049  1.00  0.00     0.200 A 
ATOM     62  F   UNL A   1      37.815  29.963  26.828  1.00  0.00    -0.200 F 
ATOM     63  F   UNL A   1      36.085  30.234  28.916  1.00  0.00    -0.200 F 
ENDBRANCH  29  53
BRANCH  41  64
ATOM     64  C   UNL A   1      44.978  26.560  32.363  1.00  0.00     0.064 A 
ATOM     65  C   UNL A   1      44.827  26.629  33.760  1.00  0.00     0.173 A 
ATOM     66  C   UNL A   1      44.793  25.312  31.756  1.00  0.00     0.173 A 
ATOM     67  F   UNL A   1      44.891  27.803  34.402  1.00  0.00    -0.203 F 
ATOM     68  C   UNL A   1      44.535  25.492  34.513  1.00  0.00     0.198 A 
ATOM     69  C   UNL A   1      44.466  24.185  32.506  1.00  0.00     0.198 A 
ATOM     70  F   UNL A   1      44.866  25.199  30.421  1.00  0.00    -0.203 F 
ATOM     71  F   UNL A   1      44.392  25.582  35.844  1.00  0.00    -0.200 F 
ATOM     72  C   UNL A   1      44.344  24.272  33.884  1.00  0.00     0.200 A 
ATOM     73  F   UNL A   1      44.230  23.020  31.886  1.00  0.00    -0.200 F 
ATOM     74  F   UNL A   1      44.010  23.189  34.599  1.00  0.00    -0.200 F 
ENDBRANCH  41  64
ENDBRANCH  15  16
ENDBRANCH   8  10
ENDBRANCH   7   8
ENDBRANCH   6   7
ENDBRANCH   5   6
ENDBRANCH   4   5
ENDBRANCH   3   4
ENDBRANCH   2   3
ENDBRANCH   1   2
BRANCH   1  75
ATOM     75  C   UNL A   1      40.702  21.599  26.323  1.00  0.00     0.188 C 
BRANCH  75  76
ATOM     76  C   UNL A   1      39.234  22.005  26.109  1.00  0.00     0.188 C 
BRANCH  76  77
ATOM     77  O   UNL A   1      38.220  21.081  25.741  1.00  0.00    -0.376 OA
BRANCH  77  78
ATOM     78  C   UNL A   1      37.459  21.260  24.560  1.00  0.00     0.202 C 
BRANCH  78  79
ATOM     79  C   UNL A   1      35.933  21.314  24.710  1.00  0.00     0.261 C 
BRANCH  79  80
ATOM     80  O   UNL A   1      35.332  22.589  24.437  1.00  0.00    -0.459 OA
BRANCH  80  81
ATOM     81  C   UNL A   1      34.894  23.297  25.506  1.00  0.00     0.356 C 
ATOM     82  O   UNL A   1      35.431  23.333  26.607  1.00  0.00    -0.244 OA
BRANCH  81  83
ATOM     83  C   UNL A   1      33.814  24.174  25.118  1.00  0.00     0.145 A 
ATOM     84  C   UNL A   1      33.899  25.275  24.272  1.00  0.00     0.048 A 
ATOM     85  N   UNL A   1      32.488  24.075  25.485  1.00  0.00    -0.209 N 
ATOM     86  C   UNL A   1      32.622  25.881  24.177  1.00  0.00     0.040 A 
ATOM     87  C   UNL A   1      31.772  25.149  25.003  1.00  0.00     0.156 A 
ATOM     88  C   UNL A   1      32.065  26.996  23.524  1.00  0.00     0.065 A 
ATOM     89  N   UNL A   1      30.500  25.484  25.288  1.00  0.00    -0.237 NA
ATOM     90  Cl  UNL A   1      33.078  27.751  22.372  1.00  0.00    -0.083 Cl
ATOM     91  C   UNL A   1      30.788  27.432  23.848  1.00  0.00     0.093 A 
ATOM     92  C   UNL A   1      30.072  26.641  24.732  1.00  0.00     0.128 A 
BRANCH  85  93
ATOM     93  S   UNL A   1      31.811  22.673  26.158  1.00  0.00     0.270 S 
ATOM     94  O   UNL A   1      32.514  22.488  27.413  1.00  0.00    -0.201 OA
ATOM     95  O   UNL A   1      30.375  22.890  26.108  1.00  0.00    -0.201 OA
BRANCH  93  96
ATOM     96  C   UNL A   1      32.175  21.315  25.093  1.00  0.00     0.088 A 
ATOM     97  C   UNL A   1      32.657  20.125  25.641  1.00  0.00     0.022 A 
ATOM     98  C   UNL A   1      32.005  21.452  23.710  1.00  0.00     0.022 A 
ATOM     99  C   UNL A   1      32.910  19.041  24.802  1.00  0.00     0.001 A 
ATOM    100  C   UNL A   1      32.238  20.356  22.882  1.00  0.00     0.001 A 
ATOM    101  C   UNL A   1      32.684  19.152  23.429  1.00  0.00     0.000 A 
ENDBRANCH  93  96
ENDBRANCH  85  93
BRANCH  91 102
ATOM    102  C   UNL A   1      30.211  28.703  23.324  1.00  0.00     0.419 C 
ATOM    103  F   UNL A   1      30.449  28.889  21.997  1.00  0.00    -0.166 F 
ATOM    104  F   UNL A   1      28.864  28.786  23.488  1.00  0.00    -0.166 F 
ATOM    105  F   UNL A   1      30.723  29.810  23.935  1.00  0.00    -0.166 F 
ENDBRANCH  91 102
ENDBRANCH  81  83
ENDBRANCH  80  81
ENDBRANCH  79  80
ENDBRANCH  78  79
ENDBRANCH  77  78
ENDBRANCH  76  77
ENDBRANCH  75  76
ENDBRANCH   1  75
TORSDOF 23
ENDMDL
