MODEL 1
REMARK VINA RESULT:     -11.0      0.000      0.000
REMARK SMILES [NH3+][C@H](C(=O)OCCOCCOCCOCCOC(=O)c1ccc(-c2c3nc(c(-c4c(F)c(F)c(F)c(F)c4F)c4ccc([nH]4)c(-c4c(F)c(F)c(F)c(F)c4F)c4nc(c(-c5c(F)c(F)c(F)c(F)c5F)c5ccc2[nH]5)C=C4)C=C3)cc1)c1cc2[nH]ccc2cc1O
REMARK SMILES IDX 11 1 10 2 9 3 8 4 7 5 6 6 5 7 3 8 4 9 2 10 1 11 83 15 84 16
REMARK SMILES IDX 91 17 85 18 90 19 86 20 89 21 87 22 88 24 92 25 12 27 13 28
REMARK SMILES IDX 14 29 15 30 16 31 17 32 18 33 19 34 20 35 21 36 82 37 22 38
REMARK SMILES IDX 81 39 23 40 24 41 25 42 75 43 26 44 80 45 74 46 76 47 27 48
REMARK SMILES IDX 79 49 73 50 72 51 28 53 60 54 40 55 59 56 41 57 44 58 58 59
REMARK SMILES IDX 77 60 42 61 43 62 57 64 78 65 45 66 29 67 30 68 38 69 31 70
REMARK SMILES IDX 32 71 36 72 39 73 33 74 34 75 37 76 35 77 61 78 62 79 70 80
REMARK SMILES IDX 63 81 64 82 68 83 71 84 65 85 66 86 69 87 67 88 46 89 47 90
REMARK SMILES IDX 55 91 48 92 49 93 53 94 56 95 50 96 51 97 54 98 52 99
REMARK H PARENT 1 12 1 13 1 14 86 23 92 26 76 52 44 63
REMARK Flexibility Score: inf
ROOT
ATOM      1  O   UNL A   1      38.383  22.461  25.923  1.00  0.00    -0.377 OA
ENDROOT
BRANCH   1   2
ATOM      2  C   UNL A   1      37.016  22.495  25.525  1.00  0.00     0.188 C 
BRANCH   2   3
ATOM      3  C   UNL A   1      36.450  23.824  24.988  1.00  0.00     0.188 C 
BRANCH   3   4
ATOM      4  O   UNL A   1      35.101  24.021  25.345  1.00  0.00    -0.376 OA
BRANCH   4   5
ATOM      5  C   UNL A   1      34.477  25.286  25.235  1.00  0.00     0.202 C 
BRANCH   5   6
ATOM      6  C   UNL A   1      33.112  25.490  24.559  1.00  0.00     0.261 C 
BRANCH   6   7
ATOM      7  O   UNL A   1      33.047  25.157  23.178  1.00  0.00    -0.459 OA
BRANCH   7   8
ATOM      8  C   UNL A   1      33.082  23.825  22.878  1.00  0.00     0.369 C 
ATOM      9  O   UNL A   1      33.974  23.285  22.231  1.00  0.00    -0.245 OA
BRANCH   8  10
ATOM     10  C   UNL A   1      31.953  23.067  23.600  1.00  0.00     0.327 C 
BRANCH  10  11
ATOM     11  N   UNL A   1      30.630  23.228  22.927  1.00  0.00    -0.342 N 
ATOM     12  H   UNL A   1      30.180  24.082  23.259  1.00  0.00     0.345 HD
ATOM     13  H   UNL A   1      30.038  22.426  23.144  1.00  0.00     0.345 HD
ATOM     14  H   UNL A   1      30.766  23.286  21.917  1.00  0.00     0.345 HD
ENDBRANCH  10  11
BRANCH  10  15
ATOM     15  C   UNL A   1      32.258  21.600  23.728  1.00  0.00     0.065 A 
ATOM     16  C   UNL A   1      32.653  21.081  24.972  1.00  0.00     0.041 A 
ATOM     17  C   UNL A   1      32.105  20.746  22.629  1.00  0.00     0.126 A 
ATOM     18  C   UNL A   1      32.721  19.692  25.089  1.00  0.00     0.046 A 
ATOM     19  C   UNL A   1      32.256  19.370  22.740  1.00  0.00     0.057 A 
ATOM     20  N   UNL A   1      32.976  18.907  26.191  1.00  0.00    -0.361 N 
ATOM     21  C   UNL A   1      32.488  18.830  24.016  1.00  0.00     0.003 A 
ATOM     22  C   UNL A   1      32.729  17.594  25.891  1.00  0.00     0.083 A 
ATOM     23  H   UNL A   1      33.288  19.240  27.062  1.00  0.00     0.166 HD
ATOM     24  C   UNL A   1      32.479  17.511  24.541  1.00  0.00     0.028 A 
BRANCH  17  25
ATOM     25  O   UNL A   1      31.698  21.235  21.414  1.00  0.00    -0.507 OA
ATOM     26  H   UNL A   1      30.829  21.064  21.108  1.00  0.00     0.293 HD
ENDBRANCH  17  25
ENDBRANCH  10  15
ENDBRANCH   8  10
ENDBRANCH   7   8
ENDBRANCH   6   7
ENDBRANCH   5   6
ENDBRANCH   4   5
ENDBRANCH   3   4
ENDBRANCH   2   3
ENDBRANCH   1   2
BRANCH   1  27
ATOM     27  C   UNL A   1      39.086  21.211  25.917  1.00  0.00     0.188 C 
BRANCH  27  28
ATOM     28  C   UNL A   1      40.446  21.046  26.637  1.00  0.00     0.188 C 
BRANCH  28  29
ATOM     29  O   UNL A   1      41.482  20.487  25.850  1.00  0.00    -0.376 OA
BRANCH  29  30
ATOM     30  C   UNL A   1      42.822  20.754  26.234  1.00  0.00     0.202 C 
BRANCH  30  31
ATOM     31  C   UNL A   1      43.633  21.694  25.328  1.00  0.00     0.261 C 
BRANCH  31  32
ATOM     32  O   UNL A   1      42.991  22.931  24.974  1.00  0.00    -0.460 OA
BRANCH  32  33
ATOM     33  C   UNL A   1      43.737  24.057  25.009  1.00  0.00     0.338 C 
ATOM     34  O   UNL A   1      44.714  24.325  24.341  1.00  0.00    -0.246 OA
BRANCH  33  35
ATOM     35  C   UNL A   1      43.043  25.018  25.887  1.00  0.00     0.060 A 
ATOM     36  C   UNL A   1      43.502  26.341  25.947  1.00  0.00     0.016 A 
ATOM     37  C   UNL A   1      41.962  24.602  26.664  1.00  0.00     0.016 A 
ATOM     38  C   UNL A   1      42.901  27.245  26.819  1.00  0.00     0.010 A 
ATOM     39  C   UNL A   1      41.377  25.502  27.556  1.00  0.00     0.010 A 
ATOM     40  C   UNL A   1      41.872  26.814  27.664  1.00  0.00    -0.014 A 
BRANCH  40  41
ATOM     41  C   UNL A   1      41.467  27.660  28.810  1.00  0.00     0.031 A 
ATOM     42  C   UNL A   1      42.262  27.554  30.082  1.00  0.00     0.074 A 
ATOM     43  C   UNL A   1      40.440  28.521  28.717  1.00  0.00     0.049 A 
ATOM     44  N   UNL A   1      42.071  28.138  31.236  1.00  0.00    -0.248 NA
ATOM     45  C   UNL A   1      43.431  26.660  30.045  1.00  0.00     0.031 C 
ATOM     46  C   UNL A   1      39.633  28.747  27.521  1.00  0.00     0.029 A 
ATOM     47  N   UNL A   1      39.897  29.361  29.657  1.00  0.00    -0.354 N 
ATOM     48  C   UNL A   1      43.090  27.680  32.061  1.00  0.00     0.074 A 
ATOM     49  C   UNL A   1      43.876  26.743  31.289  1.00  0.00     0.031 C 
ATOM     50  C   UNL A   1      38.682  29.655  27.804  1.00  0.00     0.029 A 
ATOM     51  C   UNL A   1      38.793  30.044  29.209  1.00  0.00     0.049 A 
ATOM     52  H   UNL A   1      40.264  29.462  30.565  1.00  0.00     0.167 HD
ATOM     53  C   UNL A   1      43.350  28.017  33.346  1.00  0.00     0.037 A 
ATOM     54  C   UNL A   1      37.956  30.864  29.873  1.00  0.00     0.037 A 
ATOM     55  C   UNL A   1      42.559  28.945  34.109  1.00  0.00     0.049 A 
ATOM     56  C   UNL A   1      38.218  31.160  31.330  1.00  0.00     0.074 A 
ATOM     57  C   UNL A   1      42.738  29.361  35.416  1.00  0.00     0.029 A 
ATOM     58  N   UNL A   1      41.429  29.594  33.633  1.00  0.00    -0.354 N 
ATOM     59  N   UNL A   1      39.190  30.737  32.102  1.00  0.00    -0.248 NA
ATOM     60  C   UNL A   1      37.263  32.051  32.007  1.00  0.00     0.031 C 
ATOM     61  C   UNL A   1      41.682  30.216  35.750  1.00  0.00     0.029 A 
ATOM     62  C   UNL A   1      40.884  30.386  34.630  1.00  0.00     0.049 A 
ATOM     63  H   UNL A   1      41.068  29.505  32.721  1.00  0.00     0.167 HD
ATOM     64  C   UNL A   1      38.985  31.333  33.340  1.00  0.00     0.074 A 
ATOM     65  C   UNL A   1      37.802  32.158  33.213  1.00  0.00     0.031 C 
ATOM     66  C   UNL A   1      39.710  31.210  34.481  1.00  0.00     0.037 A 
BRANCH  53  67
ATOM     67  C   UNL A   1      44.519  27.352  34.014  1.00  0.00     0.064 A 
ATOM     68  C   UNL A   1      44.377  26.156  34.737  1.00  0.00     0.173 A 
ATOM     69  C   UNL A   1      45.803  27.908  33.914  1.00  0.00     0.173 A 
ATOM     70  F   UNL A   1      43.169  25.592  34.879  1.00  0.00    -0.203 F 
ATOM     71  C   UNL A   1      45.473  25.559  35.356  1.00  0.00     0.198 A 
ATOM     72  C   UNL A   1      46.901  27.291  34.505  1.00  0.00     0.198 A 
ATOM     73  F   UNL A   1      45.995  29.050  33.235  1.00  0.00    -0.203 F 
ATOM     74  F   UNL A   1      45.306  24.447  36.084  1.00  0.00    -0.200 F 
ATOM     75  C   UNL A   1      46.734  26.123  35.232  1.00  0.00     0.200 A 
ATOM     76  F   UNL A   1      48.121  27.830  34.375  1.00  0.00    -0.200 F 
ATOM     77  F   UNL A   1      47.789  25.542  35.823  1.00  0.00    -0.200 F 
ENDBRANCH  53  67
BRANCH  54  78
ATOM     78  C   UNL A   1      36.780  31.449  29.177  1.00  0.00     0.064 A 
ATOM     79  C   UNL A   1      36.730  32.812  28.853  1.00  0.00     0.173 A 
ATOM     80  C   UNL A   1      35.667  30.662  28.846  1.00  0.00     0.173 A 
ATOM     81  F   UNL A   1      37.756  33.615  29.174  1.00  0.00    -0.203 F 
ATOM     82  C   UNL A   1      35.606  33.368  28.244  1.00  0.00     0.198 A 
ATOM     83  C   UNL A   1      34.557  31.212  28.207  1.00  0.00     0.198 A 
ATOM     84  F   UNL A   1      35.660  29.353  29.137  1.00  0.00    -0.203 F 
ATOM     85  F   UNL A   1      35.565  34.684  27.995  1.00  0.00    -0.200 F 
ATOM     86  C   UNL A   1      34.523  32.567  27.915  1.00  0.00     0.200 A 
ATOM     87  F   UNL A   1      33.519  30.431  27.882  1.00  0.00    -0.200 F 
ATOM     88  F   UNL A   1      33.444  33.102  27.328  1.00  0.00    -0.200 F 
ENDBRANCH  54  78
BRANCH  66  89
ATOM     89  C   UNL A   1      39.274  32.020  35.669  1.00  0.00     0.064 A 
ATOM     90  C   UNL A   1      39.690  33.347  35.854  1.00  0.00     0.173 A 
ATOM     91  C   UNL A   1      38.388  31.474  36.612  1.00  0.00     0.173 A 
ATOM     92  F   UNL A   1      40.545  33.913  34.990  1.00  0.00    -0.203 F 
ATOM     93  C   UNL A   1      39.259  34.086  36.953  1.00  0.00     0.198 A 
ATOM     94  C   UNL A   1      37.931  32.227  37.690  1.00  0.00     0.198 A 
ATOM     95  F   UNL A   1      37.949  30.213  36.477  1.00  0.00    -0.203 F 
ATOM     96  F   UNL A   1      39.712  35.333  37.138  1.00  0.00    -0.200 F 
ATOM     97  C   UNL A   1      38.374  33.528  37.865  1.00  0.00     0.200 A 
ATOM     98  F   UNL A   1      37.062  31.693  38.557  1.00  0.00    -0.200 F 
ATOM     99  F   UNL A   1      37.954  34.245  38.916  1.00  0.00    -0.200 F 
ENDBRANCH  66  89
ENDBRANCH  40  41
ENDBRANCH  33  35
ENDBRANCH  32  33
ENDBRANCH  31  32
ENDBRANCH  30  31
ENDBRANCH  29  30
ENDBRANCH  28  29
ENDBRANCH  27  28
ENDBRANCH   1  27
TORSDOF 23
ENDMDL
MODEL 2
REMARK VINA RESULT:     -10.6      1.838      3.847
REMARK SMILES [NH3+][C@H](C(=O)OCCOCCOCCOCCOC(=O)c1ccc(-c2c3nc(c(-c4c(F)c(F)c(F)c(F)c4F)c4ccc([nH]4)c(-c4c(F)c(F)c(F)c(F)c4F)c4nc(c(-c5c(F)c(F)c(F)c(F)c5F)c5ccc2[nH]5)C=C4)C=C3)cc1)c1cc2[nH]ccc2cc1O
REMARK SMILES IDX 11 1 10 2 9 3 8 4 7 5 6 6 5 7 3 8 4 9 2 10 1 11 83 15 84 16
REMARK SMILES IDX 91 17 85 18 90 19 86 20 89 21 87 22 88 24 92 25 12 27 13 28
REMARK SMILES IDX 14 29 15 30 16 31 17 32 18 33 19 34 20 35 21 36 82 37 22 38
REMARK SMILES IDX 81 39 23 40 24 41 25 42 75 43 26 44 80 45 74 46 76 47 27 48
REMARK SMILES IDX 79 49 73 50 72 51 28 53 60 54 40 55 59 56 41 57 44 58 58 59
REMARK SMILES IDX 77 60 42 61 43 62 57 64 78 65 45 66 29 67 30 68 38 69 31 70
REMARK SMILES IDX 32 71 36 72 39 73 33 74 34 75 37 76 35 77 61 78 62 79 70 80
REMARK SMILES IDX 63 81 64 82 68 83 71 84 65 85 66 86 69 87 67 88 46 89 47 90
REMARK SMILES IDX 55 91 48 92 49 93 53 94 56 95 50 96 51 97 54 98 52 99
REMARK H PARENT 1 12 1 13 1 14 86 23 92 26 76 52 44 63
REMARK Flexibility Score: inf
ROOT
ATOM      1  O   UNL A   1      38.108  23.405  26.291  1.00  0.00    -0.377 OA
ENDROOT
BRANCH   1   2
ATOM      2  C   UNL A   1      36.798  23.655  25.791  1.00  0.00     0.188 C 
BRANCH   2   3
ATOM      3  C   UNL A   1      36.498  23.283  24.326  1.00  0.00     0.188 C 
BRANCH   3   4
ATOM      4  O   UNL A   1      35.589  22.210  24.216  1.00  0.00    -0.376 OA
BRANCH   4   5
ATOM      5  C   UNL A   1      34.200  22.386  24.420  1.00  0.00     0.202 C 
BRANCH   5   6
ATOM      6  C   UNL A   1      33.457  23.679  24.049  1.00  0.00     0.261 C 
BRANCH   6   7
ATOM      7  O   UNL A   1      32.432  24.086  24.946  1.00  0.00    -0.459 OA
BRANCH   7   8
ATOM      8  C   UNL A   1      31.170  24.147  24.431  1.00  0.00     0.369 C 
ATOM      9  O   UNL A   1      30.742  23.397  23.559  1.00  0.00    -0.245 OA
BRANCH   8  10
ATOM     10  C   UNL A   1      30.306  25.160  25.204  1.00  0.00     0.327 C 
BRANCH  10  11
ATOM     11  N   UNL A   1      30.917  25.562  26.506  1.00  0.00    -0.342 N 
ATOM     12  H   UNL A   1      30.614  26.506  26.747  1.00  0.00     0.345 HD
ATOM     13  H   UNL A   1      31.935  25.543  26.424  1.00  0.00     0.345 HD
ATOM     14  H   UNL A   1      30.623  24.913  27.235  1.00  0.00     0.345 HD
ENDBRANCH  10  11
BRANCH  10  15
ATOM     15  C   UNL A   1      30.033  26.396  24.392  1.00  0.00     0.065 A 
ATOM     16  C   UNL A   1      28.734  26.638  23.914  1.00  0.00     0.041 A 
ATOM     17  C   UNL A   1      31.053  27.326  24.152  1.00  0.00     0.126 A 
ATOM     18  C   UNL A   1      28.488  27.891  23.350  1.00  0.00     0.046 A 
ATOM     19  C   UNL A   1      30.811  28.536  23.516  1.00  0.00     0.057 A 
ATOM     20  N   UNL A   1      27.311  28.441  22.896  1.00  0.00    -0.361 N 
ATOM     21  C   UNL A   1      29.483  28.855  23.184  1.00  0.00     0.003 A 
ATOM     22  C   UNL A   1      27.495  29.771  22.626  1.00  0.00     0.083 A 
ATOM     23  H   UNL A   1      26.464  27.952  22.783  1.00  0.00     0.166 HD
ATOM     24  C   UNL A   1      28.839  30.041  22.742  1.00  0.00     0.028 A 
BRANCH  17  25
ATOM     25  O   UNL A   1      32.320  27.114  24.632  1.00  0.00    -0.507 OA
ATOM     26  H   UNL A   1      32.713  27.741  25.207  1.00  0.00     0.293 HD
ENDBRANCH  17  25
ENDBRANCH  10  15
ENDBRANCH   8  10
ENDBRANCH   7   8
ENDBRANCH   6   7
ENDBRANCH   5   6
ENDBRANCH   4   5
ENDBRANCH   3   4
ENDBRANCH   2   3
ENDBRANCH   1   2
BRANCH   1  27
ATOM     27  C   UNL A   1      38.779  22.191  25.929  1.00  0.00     0.188 C 
BRANCH  27  28
ATOM     28  C   UNL A   1      40.006  21.679  26.721  1.00  0.00     0.188 C 
BRANCH  28  29
ATOM     29  O   UNL A   1      40.939  20.924  25.968  1.00  0.00    -0.376 OA
BRANCH  29  30
ATOM     30  C   UNL A   1      42.279  20.873  26.433  1.00  0.00     0.202 C 
BRANCH  30  31
ATOM     31  C   UNL A   1      43.298  21.780  25.727  1.00  0.00     0.261 C 
BRANCH  31  32
ATOM     32  O   UNL A   1      42.760  22.958  25.101  1.00  0.00    -0.460 OA
BRANCH  32  33
ATOM     33  C   UNL A   1      43.529  24.070  25.094  1.00  0.00     0.338 C 
ATOM     34  O   UNL A   1      44.498  24.301  24.400  1.00  0.00    -0.246 OA
BRANCH  33  35
ATOM     35  C   UNL A   1      42.872  25.065  25.962  1.00  0.00     0.060 A 
ATOM     36  C   UNL A   1      43.463  26.325  26.121  1.00  0.00     0.016 A 
ATOM     37  C   UNL A   1      41.693  24.740  26.633  1.00  0.00     0.016 A 
ATOM     38  C   UNL A   1      42.894  27.255  26.988  1.00  0.00     0.010 A 
ATOM     39  C   UNL A   1      41.137  25.662  27.520  1.00  0.00     0.010 A 
ATOM     40  C   UNL A   1      41.759  26.906  27.730  1.00  0.00    -0.014 A 
BRANCH  40  41
ATOM     41  C   UNL A   1      41.355  27.745  28.881  1.00  0.00     0.031 A 
ATOM     42  C   UNL A   1      42.149  27.629  30.153  1.00  0.00     0.074 A 
ATOM     43  C   UNL A   1      40.329  28.608  28.793  1.00  0.00     0.049 A 
ATOM     44  N   UNL A   1      41.958  28.206  31.311  1.00  0.00    -0.248 NA
ATOM     45  C   UNL A   1      43.317  26.735  30.110  1.00  0.00     0.031 C 
ATOM     46  C   UNL A   1      39.522  28.843  27.599  1.00  0.00     0.029 A 
ATOM     47  N   UNL A   1      39.786  29.441  29.739  1.00  0.00    -0.354 N 
ATOM     48  C   UNL A   1      42.976  27.740  32.133  1.00  0.00     0.074 A 
ATOM     49  C   UNL A   1      43.762  26.809  31.355  1.00  0.00     0.031 C 
ATOM     50  C   UNL A   1      38.572  29.750  27.888  1.00  0.00     0.029 A 
ATOM     51  C   UNL A   1      38.683  30.129  29.296  1.00  0.00     0.049 A 
ATOM     52  H   UNL A   1      40.153  29.536  30.648  1.00  0.00     0.167 HD
ATOM     53  C   UNL A   1      43.236  28.069  33.420  1.00  0.00     0.037 A 
ATOM     54  C   UNL A   1      37.847  30.946  29.965  1.00  0.00     0.037 A 
ATOM     55  C   UNL A   1      42.446  28.993  34.189  1.00  0.00     0.049 A 
ATOM     56  C   UNL A   1      38.108  31.231  31.424  1.00  0.00     0.074 A 
ATOM     57  C   UNL A   1      42.625  29.400  35.499  1.00  0.00     0.029 A 
ATOM     58  N   UNL A   1      41.317  29.646  33.717  1.00  0.00    -0.354 N 
ATOM     59  N   UNL A   1      39.080  30.802  32.193  1.00  0.00    -0.248 NA
ATOM     60  C   UNL A   1      37.155  32.118  32.106  1.00  0.00     0.031 C 
ATOM     61  C   UNL A   1      41.570  30.253  35.838  1.00  0.00     0.029 A 
ATOM     62  C   UNL A   1      40.772  30.432  34.719  1.00  0.00     0.049 A 
ATOM     63  H   UNL A   1      40.956  29.563  32.805  1.00  0.00     0.167 HD
ATOM     64  C   UNL A   1      38.875  31.389  33.435  1.00  0.00     0.074 A 
ATOM     65  C   UNL A   1      37.693  32.217  33.313  1.00  0.00     0.031 C 
ATOM     66  C   UNL A   1      39.599  31.258  34.575  1.00  0.00     0.037 A 
BRANCH  53  67
ATOM     67  C   UNL A   1      44.404  27.398  34.084  1.00  0.00     0.064 A 
ATOM     68  C   UNL A   1      45.685  27.975  34.090  1.00  0.00     0.173 A 
ATOM     69  C   UNL A   1      44.236  26.171  34.742  1.00  0.00     0.173 A 
ATOM     70  F   UNL A   1      45.904  29.139  33.460  1.00  0.00    -0.203 F 
ATOM     71  C   UNL A   1      46.757  27.333  34.705  1.00  0.00     0.198 A 
ATOM     72  C   UNL A   1      45.302  25.549  35.385  1.00  0.00     0.198 A 
ATOM     73  F   UNL A   1      43.034  25.576  34.767  1.00  0.00    -0.203 F 
ATOM     74  F   UNL A   1      47.981  27.876  34.652  1.00  0.00    -0.200 F 
ATOM     75  C   UNL A   1      46.563  26.126  35.358  1.00  0.00     0.200 A 
ATOM     76  F   UNL A   1      45.111  24.388  36.025  1.00  0.00    -0.200 F 
ATOM     77  F   UNL A   1      47.594  25.512  35.957  1.00  0.00    -0.200 F 
ENDBRANCH  53  67
BRANCH  54  78
ATOM     78  C   UNL A   1      36.671  31.537  29.272  1.00  0.00     0.064 A 
ATOM     79  C   UNL A   1      35.582  30.744  28.885  1.00  0.00     0.173 A 
ATOM     80  C   UNL A   1      36.625  32.903  28.958  1.00  0.00     0.173 A 
ATOM     81  F   UNL A   1      35.589  29.427  29.137  1.00  0.00    -0.203 F 
ATOM     82  C   UNL A   1      34.502  31.292  28.194  1.00  0.00     0.198 A 
ATOM     83  C   UNL A   1      35.530  33.456  28.295  1.00  0.00     0.198 A 
ATOM     84  F   UNL A   1      37.643  33.706  29.301  1.00  0.00    -0.203 F 
ATOM     85  F   UNL A   1      33.499  30.501  27.789  1.00  0.00    -0.200 F 
ATOM     86  C   UNL A   1      34.474  32.648  27.905  1.00  0.00     0.200 A 
ATOM     87  F   UNL A   1      35.504  34.768  28.029  1.00  0.00    -0.200 F 
ATOM     88  F   UNL A   1      33.435  33.173  27.242  1.00  0.00    -0.200 F 
ENDBRANCH  54  78
BRANCH  66  89
ATOM     89  C   UNL A   1      39.164  32.061  35.769  1.00  0.00     0.064 A 
ATOM     90  C   UNL A   1      38.327  31.525  36.758  1.00  0.00     0.173 A 
ATOM     91  C   UNL A   1      39.634  33.372  35.949  1.00  0.00     0.173 A 
ATOM     92  F   UNL A   1      37.841  30.281  36.630  1.00  0.00    -0.203 F 
ATOM     93  C   UNL A   1      37.951  32.281  37.865  1.00  0.00     0.198 A 
ATOM     94  C   UNL A   1      39.285  34.113  37.074  1.00  0.00     0.198 A 
ATOM     95  F   UNL A   1      40.447  33.930  35.039  1.00  0.00    -0.203 F 
ATOM     96  F   UNL A   1      37.106  31.767  38.770  1.00  0.00    -0.200 F 
ATOM     97  C   UNL A   1      38.437  33.570  38.026  1.00  0.00     0.200 A 
ATOM     98  F   UNL A   1      39.771  35.350  37.237  1.00  0.00    -0.200 F 
ATOM     99  F   UNL A   1      38.081  34.293  39.097  1.00  0.00    -0.200 F 
ENDBRANCH  66  89
ENDBRANCH  40  41
ENDBRANCH  33  35
ENDBRANCH  32  33
ENDBRANCH  31  32
ENDBRANCH  30  31
ENDBRANCH  29  30
ENDBRANCH  28  29
ENDBRANCH  27  28
ENDBRANCH   1  27
TORSDOF 23
ENDMDL
MODEL 3
REMARK VINA RESULT:     -10.1      4.749      7.408
REMARK SMILES [NH3+][C@H](C(=O)OCCOCCOCCOCCOC(=O)c1ccc(-c2c3nc(c(-c4c(F)c(F)c(F)c(F)c4F)c4ccc([nH]4)c(-c4c(F)c(F)c(F)c(F)c4F)c4nc(c(-c5c(F)c(F)c(F)c(F)c5F)c5ccc2[nH]5)C=C4)C=C3)cc1)c1cc2[nH]ccc2cc1O
REMARK SMILES IDX 11 1 10 2 9 3 8 4 7 5 6 6 5 7 3 8 4 9 2 10 1 11 83 15 84 16
REMARK SMILES IDX 91 17 85 18 90 19 86 20 89 21 87 22 88 24 92 25 12 27 13 28
REMARK SMILES IDX 14 29 15 30 16 31 17 32 18 33 19 34 20 35 21 36 82 37 22 38
REMARK SMILES IDX 81 39 23 40 24 41 25 42 75 43 26 44 80 45 74 46 76 47 27 48
REMARK SMILES IDX 79 49 73 50 72 51 28 53 60 54 40 55 59 56 41 57 44 58 58 59
REMARK SMILES IDX 77 60 42 61 43 62 57 64 78 65 45 66 29 67 30 68 38 69 31 70
REMARK SMILES IDX 32 71 36 72 39 73 33 74 34 75 37 76 35 77 61 78 62 79 70 80
REMARK SMILES IDX 63 81 64 82 68 83 71 84 65 85 66 86 69 87 67 88 46 89 47 90
REMARK SMILES IDX 55 91 48 92 49 93 53 94 56 95 50 96 51 97 54 98 52 99
REMARK H PARENT 1 12 1 13 1 14 86 23 92 26 76 52 44 63
REMARK Flexibility Score: inf
ROOT
ATOM      1  O   UNL A   1      34.630  20.747  25.515  1.00  0.00    -0.377 OA
ENDROOT
BRANCH   1   2
ATOM      2  C   UNL A   1      33.239  20.750  25.821  1.00  0.00     0.188 C 
BRANCH   2   3
ATOM      3  C   UNL A   1      32.241  20.565  24.661  1.00  0.00     0.188 C 
BRANCH   3   4
ATOM      4  O   UNL A   1      32.704  21.127  23.454  1.00  0.00    -0.376 OA
BRANCH   4   5
ATOM      5  C   UNL A   1      32.380  22.451  23.076  1.00  0.00     0.202 C 
BRANCH   5   6
ATOM      6  C   UNL A   1      32.797  23.682  23.896  1.00  0.00     0.261 C 
BRANCH   6   7
ATOM      7  O   UNL A   1      32.255  24.925  23.471  1.00  0.00    -0.459 OA
BRANCH   7   8
ATOM      8  C   UNL A   1      30.902  25.066  23.596  1.00  0.00     0.369 C 
ATOM      9  O   UNL A   1      30.079  24.321  23.074  1.00  0.00    -0.245 OA
BRANCH   8  10
ATOM     10  C   UNL A   1      30.553  26.170  24.611  1.00  0.00     0.327 C 
BRANCH  10  11
ATOM     11  N   UNL A   1      31.760  26.729  25.290  1.00  0.00    -0.342 N 
ATOM     12  H   UNL A   1      31.509  27.591  25.775  1.00  0.00     0.345 HD
ATOM     13  H   UNL A   1      32.480  26.927  24.595  1.00  0.00     0.345 HD
ATOM     14  H   UNL A   1      32.115  26.051  25.965  1.00  0.00     0.345 HD
ENDBRANCH  10  11
BRANCH  10  15
ATOM     15  C   UNL A   1      29.790  27.296  23.970  1.00  0.00     0.065 A 
ATOM     16  C   UNL A   1      30.483  28.431  23.517  1.00  0.00     0.041 A 
ATOM     17  C   UNL A   1      28.406  27.197  23.780  1.00  0.00     0.126 A 
ATOM     18  C   UNL A   1      29.765  29.349  22.747  1.00  0.00     0.046 A 
ATOM     19  C   UNL A   1      27.689  28.158  23.080  1.00  0.00     0.057 A 
ATOM     20  N   UNL A   1      30.192  30.482  22.094  1.00  0.00    -0.361 N 
ATOM     21  C   UNL A   1      28.402  29.212  22.484  1.00  0.00     0.003 A 
ATOM     22  C   UNL A   1      29.194  30.955  21.284  1.00  0.00     0.083 A 
ATOM     23  H   UNL A   1      31.082  30.891  22.194  1.00  0.00     0.166 HD
ATOM     24  C   UNL A   1      28.059  30.222  21.546  1.00  0.00     0.028 A 
BRANCH  17  25
ATOM     25  O   UNL A   1      27.721  26.084  24.195  1.00  0.00    -0.507 OA
ATOM     26  H   UNL A   1      28.112  25.237  24.115  1.00  0.00     0.293 HD
ENDBRANCH  17  25
ENDBRANCH  10  15
ENDBRANCH   8  10
ENDBRANCH   7   8
ENDBRANCH   6   7
ENDBRANCH   5   6
ENDBRANCH   4   5
ENDBRANCH   3   4
ENDBRANCH   2   3
ENDBRANCH   1   2
BRANCH   1  27
ATOM     27  C   UNL A   1      35.454  21.825  25.977  1.00  0.00     0.188 C 
BRANCH  27  28
ATOM     28  C   UNL A   1      36.990  21.806  25.789  1.00  0.00     0.188 C 
BRANCH  28  29
ATOM     29  O   UNL A   1      37.444  21.197  24.595  1.00  0.00    -0.376 OA
BRANCH  29  30
ATOM     30  C   UNL A   1      38.029  19.907  24.690  1.00  0.00     0.202 C 
BRANCH  30  31
ATOM     31  C   UNL A   1      38.981  19.658  25.870  1.00  0.00     0.261 C 
BRANCH  31  32
ATOM     32  O   UNL A   1      40.164  20.476  25.904  1.00  0.00    -0.460 OA
BRANCH  32  33
ATOM     33  C   UNL A   1      40.885  20.486  27.047  1.00  0.00     0.338 C 
ATOM     34  O   UNL A   1      41.444  19.552  27.584  1.00  0.00    -0.246 OA
BRANCH  33  35
ATOM     35  C   UNL A   1      41.046  21.895  27.453  1.00  0.00     0.060 A 
ATOM     36  C   UNL A   1      40.291  22.881  26.805  1.00  0.00     0.016 A 
ATOM     37  C   UNL A   1      41.959  22.237  28.452  1.00  0.00     0.016 A 
ATOM     38  C   UNL A   1      40.477  24.223  27.128  1.00  0.00     0.010 A 
ATOM     39  C   UNL A   1      42.163  23.583  28.757  1.00  0.00     0.010 A 
ATOM     40  C   UNL A   1      41.451  24.582  28.068  1.00  0.00    -0.014 A 
BRANCH  40  41
ATOM     41  C   UNL A   1      41.885  25.994  28.166  1.00  0.00     0.031 A 
ATOM     42  C   UNL A   1      43.217  26.367  27.578  1.00  0.00     0.074 A 
ATOM     43  C   UNL A   1      41.105  26.927  28.736  1.00  0.00     0.049 A 
ATOM     44  N   UNL A   1      43.843  27.515  27.590  1.00  0.00    -0.248 NA
ATOM     45  C   UNL A   1      43.944  25.292  26.882  1.00  0.00     0.031 C 
ATOM     46  C   UNL A   1      39.775  26.693  29.291  1.00  0.00     0.029 A 
ATOM     47  N   UNL A   1      41.331  28.264  28.949  1.00  0.00    -0.354 N 
ATOM     48  C   UNL A   1      45.036  27.299  26.913  1.00  0.00     0.074 A 
ATOM     49  C   UNL A   1      45.064  25.904  26.531  1.00  0.00     0.031 C 
ATOM     50  C   UNL A   1      39.308  27.847  29.800  1.00  0.00     0.029 A 
ATOM     51  C   UNL A   1      40.321  28.889  29.637  1.00  0.00     0.049 A 
ATOM     52  H   UNL A   1      42.141  28.730  28.637  1.00  0.00     0.167 HD
ATOM     53  C   UNL A   1      46.015  28.188  26.627  1.00  0.00     0.037 A 
ATOM     54  C   UNL A   1      40.244  30.150  30.105  1.00  0.00     0.037 A 
ATOM     55  C   UNL A   1      45.982  29.573  27.016  1.00  0.00     0.049 A 
ATOM     56  C   UNL A   1      41.387  31.101  29.848  1.00  0.00     0.074 A 
ATOM     57  C   UNL A   1      46.920  30.560  26.773  1.00  0.00     0.029 A 
ATOM     58  N   UNL A   1      44.957  30.163  27.741  1.00  0.00    -0.354 N 
ATOM     59  N   UNL A   1      42.506  30.898  29.193  1.00  0.00    -0.248 NA
ATOM     60  C   UNL A   1      41.254  32.459  30.394  1.00  0.00     0.031 C 
ATOM     61  C   UNL A   1      46.491  31.733  27.402  1.00  0.00     0.029 A 
ATOM     62  C   UNL A   1      45.253  31.495  27.978  1.00  0.00     0.049 A 
ATOM     63  H   UNL A   1      44.140  29.703  28.041  1.00  0.00     0.167 HD
ATOM     64  C   UNL A   1      43.192  32.105  29.221  1.00  0.00     0.074 A 
ATOM     65  C   UNL A   1      42.357  33.041  29.945  1.00  0.00     0.031 C 
ATOM     66  C   UNL A   1      44.403  32.414  28.694  1.00  0.00     0.037 A 
BRANCH  53  67
ATOM     67  C   UNL A   1      47.220  27.679  25.888  1.00  0.00     0.064 A 
ATOM     68  C   UNL A   1      47.297  27.715  24.486  1.00  0.00     0.173 A 
ATOM     69  C   UNL A   1      48.320  27.167  26.592  1.00  0.00     0.173 A 
ATOM     70  F   UNL A   1      46.266  28.177  23.764  1.00  0.00    -0.203 F 
ATOM     71  C   UNL A   1      48.420  27.231  23.818  1.00  0.00     0.198 A 
ATOM     72  C   UNL A   1      49.453  26.716  25.923  1.00  0.00     0.198 A 
ATOM     73  F   UNL A   1      48.298  27.110  27.932  1.00  0.00    -0.203 F 
ATOM     74  F   UNL A   1      48.451  27.225  22.479  1.00  0.00    -0.200 F 
ATOM     75  C   UNL A   1      49.499  26.740  24.537  1.00  0.00     0.200 A 
ATOM     76  F   UNL A   1      50.500  26.253  26.619  1.00  0.00    -0.200 F 
ATOM     77  F   UNL A   1      50.582  26.281  23.893  1.00  0.00    -0.200 F 
ENDBRANCH  53  67
BRANCH  54  78
ATOM     78  C   UNL A   1      39.053  30.584  30.882  1.00  0.00     0.064 A 
ATOM     79  C   UNL A   1      39.021  30.482  32.280  1.00  0.00     0.173 A 
ATOM     80  C   UNL A   1      37.910  31.084  30.241  1.00  0.00     0.173 A 
ATOM     81  F   UNL A   1      40.077  29.983  32.940  1.00  0.00    -0.203 F 
ATOM     82  C   UNL A   1      37.885  30.844  33.003  1.00  0.00     0.198 A 
ATOM     83  C   UNL A   1      36.787  31.477  30.968  1.00  0.00     0.198 A 
ATOM     84  F   UNL A   1      37.885  31.198  28.905  1.00  0.00    -0.203 F 
ATOM     85  F   UNL A   1      37.863  30.686  34.334  1.00  0.00    -0.200 F 
ATOM     86  C   UNL A   1      36.772  31.348  32.348  1.00  0.00     0.200 A 
ATOM     87  F   UNL A   1      35.719  31.973  30.330  1.00  0.00    -0.200 F 
ATOM     88  F   UNL A   1      35.682  31.697  33.044  1.00  0.00    -0.200 F 
ENDBRANCH  54  78
BRANCH  66  89
ATOM     89  C   UNL A   1      44.880  33.832  28.837  1.00  0.00     0.064 A 
ATOM     90  C   UNL A   1      45.686  34.238  29.911  1.00  0.00     0.173 A 
ATOM     91  C   UNL A   1      44.564  34.788  27.858  1.00  0.00     0.173 A 
ATOM     92  F   UNL A   1      46.009  33.369  30.880  1.00  0.00    -0.203 F 
ATOM     93  C   UNL A   1      46.132  35.554  30.015  1.00  0.00     0.198 A 
ATOM     94  C   UNL A   1      45.041  36.092  27.946  1.00  0.00     0.198 A 
ATOM     95  F   UNL A   1      43.806  34.451  26.804  1.00  0.00    -0.203 F 
ATOM     96  F   UNL A   1      46.856  35.931  31.077  1.00  0.00    -0.200 F 
ATOM     97  C   UNL A   1      45.816  36.477  29.029  1.00  0.00     0.200 A 
ATOM     98  F   UNL A   1      44.750  36.977  26.983  1.00  0.00    -0.200 F 
ATOM     99  F   UNL A   1      46.254  37.739  29.126  1.00  0.00    -0.200 F 
ENDBRANCH  66  89
ENDBRANCH  40  41
ENDBRANCH  33  35
ENDBRANCH  32  33
ENDBRANCH  31  32
ENDBRANCH  30  31
ENDBRANCH  29  30
ENDBRANCH  28  29
ENDBRANCH  27  28
ENDBRANCH   1  27
TORSDOF 23
ENDMDL
