MODEL 1
REMARK VINA RESULT:     -10.7      0.000      0.000
REMARK SMILES CN1C(=O)C[C@H](C(=O)OCCOCCOCCOCCOC(=O)c2ccc(-c3c4nc(c(-c5c(F)c(F)c(F)c(F)c5F)c5ccc([nH]5)c(-c5c(F)c(F)c(F)c(F)c5F)c5nc(c(-c6c(F)c(F)c(F)c(F)c6F)c6ccc3[nH]6)C=C5)C=C4)cc2)C12CC[NH+](Cc1ccc(Cl)c(F)c1)CC2
REMARK SMILES IDX 15 1 14 2 13 3 12 4 11 5 10 6 9 7 7 8 8 9 6 10 1 11 2 12
REMARK SMILES IDX 3 13 87 14 4 15 5 16 88 17 101 18 89 19 100 20 90 21 91 23
REMARK SMILES IDX 92 24 93 25 99 26 94 27 97 28 95 29 98 30 96 31 16 32 17 33
REMARK SMILES IDX 18 34 19 35 20 36 21 37 22 38 23 39 24 40 25 41 86 42 26 43
REMARK SMILES IDX 85 44 27 45 28 46 29 47 79 48 30 49 84 50 78 51 80 52 31 53
REMARK SMILES IDX 83 54 77 55 76 56 32 58 64 59 44 60 63 61 45 62 48 63 62 64
REMARK SMILES IDX 81 65 46 66 47 67 61 69 82 70 49 71 33 72 34 73 42 74 35 75
REMARK SMILES IDX 36 76 40 77 43 78 37 79 38 80 41 81 39 82 65 83 66 84 74 85
REMARK SMILES IDX 67 86 68 87 72 88 75 89 69 90 70 91 73 92 71 93 50 94 51 95
REMARK SMILES IDX 59 96 52 97 53 98 57 99 60 100 54 101 55 102 58 103 56 104
REMARK H PARENT 90 22 80 57 48 68
REMARK Flexibility Score: inf
ROOT
ATOM      1  O   UNL A   1      33.338  29.772  27.042  1.00  0.00    -0.377 OA
ENDROOT
BRANCH   1   2
ATOM      2  C   UNL A   1      33.860  29.277  25.822  1.00  0.00     0.188 C 
BRANCH   2   3
ATOM      3  C   UNL A   1      32.881  29.344  24.652  1.00  0.00     0.188 C 
BRANCH   3   4
ATOM      4  O   UNL A   1      33.342  28.816  23.416  1.00  0.00    -0.376 OA
BRANCH   4   5
ATOM      5  C   UNL A   1      34.152  27.639  23.449  1.00  0.00     0.202 C 
BRANCH   5   6
ATOM      6  C   UNL A   1      33.585  26.341  22.857  1.00  0.00     0.261 C 
BRANCH   6   7
ATOM      7  O   UNL A   1      34.139  25.167  23.494  1.00  0.00    -0.463 OA
BRANCH   7   8
ATOM      8  C   UNL A   1      34.032  25.090  24.835  1.00  0.00     0.311 C 
ATOM      9  O   UNL A   1      34.597  25.859  25.607  1.00  0.00    -0.252 OA
BRANCH   8  10
ATOM     10  C   UNL A   1      33.044  24.063  25.344  1.00  0.00     0.134 C 
ATOM     11  C   UNL A   1      29.947  22.834  27.072  1.00  0.00     0.147 C 
ATOM     12  N   UNL A   1      31.267  23.257  26.629  1.00  0.00    -0.339 N 
ATOM     13  C   UNL A   1      32.407  22.840  27.296  1.00  0.00     0.223 C 
ATOM     14  C   UNL A   1      31.525  24.302  25.594  1.00  0.00     0.067 C 
ATOM     15  O   UNL A   1      32.460  22.119  28.280  1.00  0.00    -0.275 OA
ATOM     16  C   UNL A   1      33.600  23.438  26.624  1.00  0.00     0.118 C 
ATOM     17  C   UNL A   1      30.722  24.038  24.306  1.00  0.00     0.091 C 
ATOM     18  C   UNL A   1      31.057  25.649  26.178  1.00  0.00     0.091 C 
ATOM     19  C   UNL A   1      30.747  25.234  23.353  1.00  0.00     0.265 C 
ATOM     20  C   UNL A   1      30.903  26.826  25.209  1.00  0.00     0.265 C 
ATOM     21  N   UNL A   1      30.283  26.487  23.935  1.00  0.00    -0.331 N 
ATOM     22  H   UNL A   1      30.667  27.178  23.292  1.00  0.00     0.348 HD
BRANCH  21  23
ATOM     23  C   UNL A   1      28.859  26.809  23.793  1.00  0.00     0.299 C 
BRANCH  23  24
ATOM     24  C   UNL A   1      28.541  28.142  23.154  1.00  0.00     0.009 A 
ATOM     25  C   UNL A   1      27.363  28.831  23.479  1.00  0.00     0.011 A 
ATOM     26  C   UNL A   1      29.456  28.746  22.278  1.00  0.00     0.050 A 
ATOM     27  C   UNL A   1      27.154  30.134  23.018  1.00  0.00     0.024 A 
ATOM     28  C   UNL A   1      29.257  30.051  21.842  1.00  0.00     0.142 A 
ATOM     29  C   UNL A   1      28.118  30.754  22.222  1.00  0.00     0.076 A 
ATOM     30  F   UNL A   1      30.208  30.628  21.092  1.00  0.00    -0.205 F 
ATOM     31  Cl  UNL A   1      27.904  32.396  21.756  1.00  0.00    -0.081 Cl
ENDBRANCH  23  24
ENDBRANCH  21  23
ENDBRANCH   8  10
ENDBRANCH   7   8
ENDBRANCH   6   7
ENDBRANCH   5   6
ENDBRANCH   4   5
ENDBRANCH   3   4
ENDBRANCH   2   3
ENDBRANCH   1   2
BRANCH   1  32
ATOM     32  C   UNL A   1      33.478  31.155  27.350  1.00  0.00     0.188 C 
BRANCH  32  33
ATOM     33  C   UNL A   1      34.519  31.589  28.385  1.00  0.00     0.188 C 
BRANCH  33  34
ATOM     34  O   UNL A   1      34.377  32.849  29.044  1.00  0.00    -0.376 OA
BRANCH  34  35
ATOM     35  C   UNL A   1      34.271  34.054  28.288  1.00  0.00     0.202 C 
BRANCH  35  36
ATOM     36  C   UNL A   1      33.447  35.145  28.965  1.00  0.00     0.261 C 
BRANCH  36  37
ATOM     37  O   UNL A   1      32.781  34.623  30.120  1.00  0.00    -0.460 OA
BRANCH  37  38
ATOM     38  C   UNL A   1      32.902  35.372  31.231  1.00  0.00     0.338 C 
ATOM     39  O   UNL A   1      32.185  36.295  31.602  1.00  0.00    -0.246 OA
BRANCH  38  40
ATOM     40  C   UNL A   1      33.994  34.836  32.051  1.00  0.00     0.060 A 
ATOM     41  C   UNL A   1      35.227  35.498  32.022  1.00  0.00     0.016 A 
ATOM     42  C   UNL A   1      33.829  33.645  32.765  1.00  0.00     0.016 A 
ATOM     43  C   UNL A   1      36.330  34.923  32.637  1.00  0.00     0.010 A 
ATOM     44  C   UNL A   1      34.938  33.065  33.372  1.00  0.00     0.010 A 
ATOM     45  C   UNL A   1      36.198  33.675  33.257  1.00  0.00    -0.014 A 
BRANCH  45  46
ATOM     46  C   UNL A   1      37.410  32.895  33.572  1.00  0.00     0.031 A 
ATOM     47  C   UNL A   1      38.109  33.171  34.873  1.00  0.00     0.074 A 
ATOM     48  C   UNL A   1      37.856  31.955  32.726  1.00  0.00     0.049 A 
ATOM     49  N   UNL A   1      39.220  32.669  35.343  1.00  0.00    -0.248 NA
ATOM     50  C   UNL A   1      37.467  34.153  35.763  1.00  0.00     0.031 C 
ATOM     51  C   UNL A   1      37.213  31.579  31.469  1.00  0.00     0.029 A 
ATOM     52  N   UNL A   1      38.962  31.152  32.799  1.00  0.00    -0.354 N 
ATOM     53  C   UNL A   1      39.414  33.278  36.577  1.00  0.00     0.074 A 
ATOM     54  C   UNL A   1      38.328  34.213  36.767  1.00  0.00     0.031 C 
ATOM     55  C   UNL A   1      37.946  30.618  30.880  1.00  0.00     0.029 A 
ATOM     56  C   UNL A   1      39.124  30.346  31.702  1.00  0.00     0.049 A 
ATOM     57  H   UNL A   1      39.581  31.154  33.564  1.00  0.00     0.167 HD
ATOM     58  C   UNL A   1      40.404  33.064  37.473  1.00  0.00     0.037 A 
ATOM     59  C   UNL A   1      40.128  29.504  31.396  1.00  0.00     0.037 A 
ATOM     60  C   UNL A   1      41.482  32.135  37.261  1.00  0.00     0.049 A 
ATOM     61  C   UNL A   1      41.269  29.353  32.369  1.00  0.00     0.074 A 
ATOM     62  C   UNL A   1      42.543  31.834  38.095  1.00  0.00     0.029 A 
ATOM     63  N   UNL A   1      41.637  31.361  36.118  1.00  0.00    -0.354 N 
ATOM     64  N   UNL A   1      41.444  29.918  33.540  1.00  0.00    -0.248 NA
ATOM     65  C   UNL A   1      42.352  28.441  31.975  1.00  0.00     0.031 C 
ATOM     66  C   UNL A   1      43.371  30.921  37.434  1.00  0.00     0.029 A 
ATOM     67  C   UNL A   1      42.791  30.602  36.215  1.00  0.00     0.049 A 
ATOM     68  H   UNL A   1      41.018  31.353  35.353  1.00  0.00     0.167 HD
ATOM     69  C   UNL A   1      42.634  29.404  34.040  1.00  0.00     0.074 A 
ATOM     70  C   UNL A   1      43.132  28.474  33.047  1.00  0.00     0.031 C 
ATOM     71  C   UNL A   1      43.258  29.673  35.215  1.00  0.00     0.037 A 
BRANCH  58  72
ATOM     72  C   UNL A   1      40.381  33.873  38.737  1.00  0.00     0.064 A 
ATOM     73  C   UNL A   1      41.106  35.069  38.865  1.00  0.00     0.173 A 
ATOM     74  C   UNL A   1      39.619  33.450  39.838  1.00  0.00     0.173 A 
ATOM     75  F   UNL A   1      41.864  35.510  37.851  1.00  0.00    -0.203 F 
ATOM     76  C   UNL A   1      41.095  35.791  40.056  1.00  0.00     0.198 A 
ATOM     77  C   UNL A   1      39.583  34.194  41.015  1.00  0.00     0.198 A 
ATOM     78  F   UNL A   1      38.907  32.316  39.772  1.00  0.00    -0.203 F 
ATOM     79  F   UNL A   1      41.841  36.899  40.173  1.00  0.00    -0.200 F 
ATOM     80  C   UNL A   1      40.328  35.357  41.127  1.00  0.00     0.200 A 
ATOM     81  F   UNL A   1      38.833  33.779  42.045  1.00  0.00    -0.200 F 
ATOM     82  F   UNL A   1      40.315  36.055  42.271  1.00  0.00    -0.200 F 
ENDBRANCH  58  72
BRANCH  59  83
ATOM     83  C   UNL A   1      40.097  28.743  30.121  1.00  0.00     0.064 A 
ATOM     84  C   UNL A   1      40.678  29.266  28.958  1.00  0.00     0.173 A 
ATOM     85  C   UNL A   1      39.485  27.485  30.035  1.00  0.00     0.173 A 
ATOM     86  F   UNL A   1      41.260  30.474  28.985  1.00  0.00    -0.203 F 
ATOM     87  C   UNL A   1      40.628  28.569  27.752  1.00  0.00     0.198 A 
ATOM     88  C   UNL A   1      39.463  26.774  28.837  1.00  0.00     0.198 A 
ATOM     89  F   UNL A   1      38.920  26.935  31.121  1.00  0.00    -0.203 F 
ATOM     90  F   UNL A   1      41.149  29.114  26.644  1.00  0.00    -0.200 F 
ATOM     91  C   UNL A   1      40.025  27.322  27.694  1.00  0.00     0.200 A 
ATOM     92  F   UNL A   1      38.894  25.562  28.790  1.00  0.00    -0.200 F 
ATOM     93  F   UNL A   1      39.981  26.649  26.536  1.00  0.00    -0.200 F 
ENDBRANCH  59  83
BRANCH  71  94
ATOM     94  C   UNL A   1      44.519  28.912  35.513  1.00  0.00     0.064 A 
ATOM     95  C   UNL A   1      44.499  27.681  36.183  1.00  0.00     0.173 A 
ATOM     96  C   UNL A   1      45.760  29.408  35.083  1.00  0.00     0.173 A 
ATOM     97  F   UNL A   1      43.340  27.171  36.626  1.00  0.00    -0.203 F 
ATOM     98  C   UNL A   1      45.679  26.987  36.439  1.00  0.00     0.198 A 
ATOM     99  C   UNL A   1      46.933  28.695  35.309  1.00  0.00     0.198 A 
ATOM    100  F   UNL A   1      45.832  30.577  34.430  1.00  0.00    -0.203 F 
ATOM    101  F   UNL A   1      45.644  25.840  37.129  1.00  0.00    -0.200 F 
ATOM    102  C   UNL A   1      46.893  27.491  35.995  1.00  0.00     0.200 A 
ATOM    103  F   UNL A   1      48.102  29.174  34.864  1.00  0.00    -0.200 F 
ATOM    104  F   UNL A   1      48.027  26.818  36.234  1.00  0.00    -0.200 F 
ENDBRANCH  71  94
ENDBRANCH  45  46
ENDBRANCH  38  40
ENDBRANCH  37  38
ENDBRANCH  36  37
ENDBRANCH  35  36
ENDBRANCH  34  35
ENDBRANCH  33  34
ENDBRANCH  32  33
ENDBRANCH   1  32
TORSDOF 22
ENDMDL
MODEL 2
REMARK VINA RESULT:     -10.2      4.815      7.361
REMARK SMILES CN1C(=O)C[C@H](C(=O)OCCOCCOCCOCCOC(=O)c2ccc(-c3c4nc(c(-c5c(F)c(F)c(F)c(F)c5F)c5ccc([nH]5)c(-c5c(F)c(F)c(F)c(F)c5F)c5nc(c(-c6c(F)c(F)c(F)c(F)c6F)c6ccc3[nH]6)C=C5)C=C4)cc2)C12CC[NH+](Cc1ccc(Cl)c(F)c1)CC2
REMARK SMILES IDX 15 1 14 2 13 3 12 4 11 5 10 6 9 7 7 8 8 9 6 10 1 11 2 12
REMARK SMILES IDX 3 13 87 14 4 15 5 16 88 17 101 18 89 19 100 20 90 21 91 23
REMARK SMILES IDX 92 24 93 25 99 26 94 27 97 28 95 29 98 30 96 31 16 32 17 33
REMARK SMILES IDX 18 34 19 35 20 36 21 37 22 38 23 39 24 40 25 41 86 42 26 43
REMARK SMILES IDX 85 44 27 45 28 46 29 47 79 48 30 49 84 50 78 51 80 52 31 53
REMARK SMILES IDX 83 54 77 55 76 56 32 58 64 59 44 60 63 61 45 62 48 63 62 64
REMARK SMILES IDX 81 65 46 66 47 67 61 69 82 70 49 71 33 72 34 73 42 74 35 75
REMARK SMILES IDX 36 76 40 77 43 78 37 79 38 80 41 81 39 82 65 83 66 84 74 85
REMARK SMILES IDX 67 86 68 87 72 88 75 89 69 90 70 91 73 92 71 93 50 94 51 95
REMARK SMILES IDX 59 96 52 97 53 98 57 99 60 100 54 101 55 102 58 103 56 104
REMARK H PARENT 90 22 80 57 48 68
REMARK Flexibility Score: inf
ROOT
ATOM      1  O   UNL A   1      35.039  29.939  28.184  1.00  0.00    -0.377 OA
ENDROOT
BRANCH   1   2
ATOM      2  C   UNL A   1      33.994  29.262  27.508  1.00  0.00     0.188 C 
BRANCH   2   3
ATOM      3  C   UNL A   1      34.398  28.684  26.154  1.00  0.00     0.188 C 
BRANCH   3   4
ATOM      4  O   UNL A   1      33.443  28.805  25.110  1.00  0.00    -0.376 OA
BRANCH   4   5
ATOM      5  C   UNL A   1      32.303  29.638  25.334  1.00  0.00     0.202 C 
BRANCH   5   6
ATOM      6  C   UNL A   1      31.031  29.377  24.516  1.00  0.00     0.261 C 
BRANCH   6   7
ATOM      7  O   UNL A   1      31.222  28.335  23.532  1.00  0.00    -0.463 OA
BRANCH   7   8
ATOM      8  C   UNL A   1      30.574  27.172  23.738  1.00  0.00     0.311 C 
ATOM      9  O   UNL A   1      29.581  27.064  24.451  1.00  0.00    -0.252 OA
BRANCH   8  10
ATOM     10  C   UNL A   1      31.072  26.003  22.915  1.00  0.00     0.134 C 
ATOM     11  C   UNL A   1      33.420  23.246  21.929  1.00  0.00     0.147 C 
ATOM     12  N   UNL A   1      32.631  24.453  22.124  1.00  0.00    -0.339 N 
ATOM     13  C   UNL A   1      32.562  25.424  21.139  1.00  0.00     0.223 C 
ATOM     14  C   UNL A   1      32.010  24.866  23.419  1.00  0.00     0.067 C 
ATOM     15  O   UNL A   1      33.118  25.408  20.052  1.00  0.00    -0.275 OA
ATOM     16  C   UNL A   1      31.694  26.539  21.626  1.00  0.00     0.118 C 
ATOM     17  C   UNL A   1      31.183  23.725  24.043  1.00  0.00     0.091 C 
ATOM     18  C   UNL A   1      33.158  25.206  24.388  1.00  0.00     0.091 C 
ATOM     19  C   UNL A   1      30.782  24.025  25.487  1.00  0.00     0.265 C 
ATOM     20  C   UNL A   1      32.813  25.339  25.875  1.00  0.00     0.265 C 
ATOM     21  N   UNL A   1      31.895  24.326  26.379  1.00  0.00    -0.331 N 
ATOM     22  H   UNL A   1      31.428  24.793  27.155  1.00  0.00     0.348 HD
BRANCH  21  23
ATOM     23  C   UNL A   1      32.492  23.206  27.113  1.00  0.00     0.299 C 
BRANCH  23  24
ATOM     24  C   UNL A   1      33.611  22.472  26.408  1.00  0.00     0.009 A 
ATOM     25  C   UNL A   1      34.950  22.835  26.614  1.00  0.00     0.011 A 
ATOM     26  C   UNL A   1      33.330  21.365  25.591  1.00  0.00     0.050 A 
ATOM     27  C   UNL A   1      35.985  22.051  26.097  1.00  0.00     0.024 A 
ATOM     28  C   UNL A   1      34.362  20.573  25.100  1.00  0.00     0.142 A 
ATOM     29  C   UNL A   1      35.688  20.902  25.364  1.00  0.00     0.076 A 
ATOM     30  F   UNL A   1      34.048  19.465  24.413  1.00  0.00    -0.205 F 
ATOM     31  Cl  UNL A   1      36.967  19.882  24.831  1.00  0.00    -0.081 Cl
ENDBRANCH  23  24
ENDBRANCH  21  23
ENDBRANCH   8  10
ENDBRANCH   7   8
ENDBRANCH   6   7
ENDBRANCH   5   6
ENDBRANCH   4   5
ENDBRANCH   3   4
ENDBRANCH   2   3
ENDBRANCH   1   2
BRANCH   1  32
ATOM     32  C   UNL A   1      35.447  31.225  27.730  1.00  0.00     0.188 C 
BRANCH  32  33
ATOM     33  C   UNL A   1      34.469  32.398  27.829  1.00  0.00     0.188 C 
BRANCH  33  34
ATOM     34  O   UNL A   1      34.958  33.736  27.717  1.00  0.00    -0.376 OA
BRANCH  34  35
ATOM     35  C   UNL A   1      35.171  34.530  28.882  1.00  0.00     0.202 C 
BRANCH  35  36
ATOM     36  C   UNL A   1      34.063  34.421  29.923  1.00  0.00     0.261 C 
BRANCH  36  37
ATOM     37  O   UNL A   1      34.621  34.325  31.238  1.00  0.00    -0.460 OA
BRANCH  37  38
ATOM     38  C   UNL A   1      34.720  33.073  31.722  1.00  0.00     0.338 C 
ATOM     39  O   UNL A   1      34.322  32.032  31.212  1.00  0.00    -0.246 OA
BRANCH  38  40
ATOM     40  C   UNL A   1      35.519  33.099  32.952  1.00  0.00     0.060 A 
ATOM     41  C   UNL A   1      35.412  34.220  33.784  1.00  0.00     0.016 A 
ATOM     42  C   UNL A   1      36.429  32.075  33.231  1.00  0.00     0.016 A 
ATOM     43  C   UNL A   1      36.281  34.364  34.857  1.00  0.00     0.010 A 
ATOM     44  C   UNL A   1      37.305  32.225  34.301  1.00  0.00     0.010 A 
ATOM     45  C   UNL A   1      37.269  33.396  35.075  1.00  0.00    -0.014 A 
BRANCH  45  46
ATOM     46  C   UNL A   1      38.410  33.718  35.954  1.00  0.00     0.031 A 
ATOM     47  C   UNL A   1      38.271  33.438  37.423  1.00  0.00     0.074 A 
ATOM     48  C   UNL A   1      39.541  34.225  35.443  1.00  0.00     0.049 A 
ATOM     49  N   UNL A   1      39.101  33.692  38.400  1.00  0.00    -0.248 NA
ATOM     50  C   UNL A   1      37.020  32.787  37.848  1.00  0.00     0.031 C 
ATOM     51  C   UNL A   1      39.789  34.476  34.025  1.00  0.00     0.029 A 
ATOM     52  N   UNL A   1      40.692  34.624  36.068  1.00  0.00    -0.354 N 
ATOM     53  C   UNL A   1      38.471  33.239  39.553  1.00  0.00     0.074 A 
ATOM     54  C   UNL A   1      37.176  32.730  39.162  1.00  0.00     0.031 C 
ATOM     55  C   UNL A   1      41.019  35.000  33.888  1.00  0.00     0.029 A 
ATOM     56  C   UNL A   1      41.622  35.153  35.211  1.00  0.00     0.049 A 
ATOM     57  H   UNL A   1      40.837  34.540  37.038  1.00  0.00     0.167 HD
ATOM     58  C   UNL A   1      38.941  33.240  40.822  1.00  0.00     0.037 A 
ATOM     59  C   UNL A   1      42.814  35.717  35.480  1.00  0.00     0.037 A 
ATOM     60  C   UNL A   1      40.230  33.761  41.193  1.00  0.00     0.049 A 
ATOM     61  C   UNL A   1      43.275  35.792  36.913  1.00  0.00     0.074 A 
ATOM     62  C   UNL A   1      40.812  33.818  42.446  1.00  0.00     0.029 A 
ATOM     63  N   UNL A   1      41.133  34.327  40.303  1.00  0.00    -0.354 N 
ATOM     64  N   UNL A   1      42.686  35.352  37.999  1.00  0.00    -0.248 NA
ATOM     65  C   UNL A   1      44.571  36.439  37.154  1.00  0.00     0.031 C 
ATOM     66  C   UNL A   1      42.045  34.469  42.323  1.00  0.00     0.029 A 
ATOM     67  C   UNL A   1      42.259  34.759  40.983  1.00  0.00     0.049 A 
ATOM     68  H   UNL A   1      40.993  34.409  39.332  1.00  0.00     0.167 HD
ATOM     69  C   UNL A   1      43.553  35.635  39.047  1.00  0.00     0.074 A 
ATOM     70  C   UNL A   1      44.712  36.275  38.462  1.00  0.00     0.031 C 
ATOM     71  C   UNL A   1      43.406  35.384  40.373  1.00  0.00     0.037 A 
BRANCH  58  72
ATOM     72  C   UNL A   1      38.041  32.696  41.894  1.00  0.00     0.064 A 
ATOM     73  C   UNL A   1      37.014  33.467  42.461  1.00  0.00     0.173 A 
ATOM     74  C   UNL A   1      38.204  31.381  42.359  1.00  0.00     0.173 A 
ATOM     75  F   UNL A   1      36.824  34.734  42.066  1.00  0.00    -0.203 F 
ATOM     76  C   UNL A   1      36.207  32.954  43.475  1.00  0.00     0.198 A 
ATOM     77  C   UNL A   1      37.373  30.861  43.348  1.00  0.00     0.198 A 
ATOM     78  F   UNL A   1      39.170  30.600  41.852  1.00  0.00    -0.203 F 
ATOM     79  F   UNL A   1      35.271  33.729  44.041  1.00  0.00    -0.200 F 
ATOM     80  C   UNL A   1      36.383  31.650  43.912  1.00  0.00     0.200 A 
ATOM     81  F   UNL A   1      37.538  29.597  43.761  1.00  0.00    -0.200 F 
ATOM     82  F   UNL A   1      35.604  31.157  44.885  1.00  0.00    -0.200 F 
ENDBRANCH  58  72
BRANCH  59  83
ATOM     83  C   UNL A   1      43.650  36.250  34.374  1.00  0.00     0.064 A 
ATOM     84  C   UNL A   1      44.648  35.464  33.783  1.00  0.00     0.173 A 
ATOM     85  C   UNL A   1      43.476  37.555  33.890  1.00  0.00     0.173 A 
ATOM     86  F   UNL A   1      44.865  34.215  34.223  1.00  0.00    -0.203 F 
ATOM     87  C   UNL A   1      45.454  35.968  32.764  1.00  0.00     0.198 A 
ATOM     88  C   UNL A   1      44.261  38.048  32.850  1.00  0.00     0.198 A 
ATOM     89  F   UNL A   1      42.531  38.348  34.416  1.00  0.00    -0.203 F 
ATOM     90  F   UNL A   1      46.431  35.210  32.249  1.00  0.00    -0.200 F 
ATOM     91  C   UNL A   1      45.256  37.258  32.295  1.00  0.00     0.200 A 
ATOM     92  F   UNL A   1      44.054  39.289  32.389  1.00  0.00    -0.200 F 
ATOM     93  F   UNL A   1      46.028  37.742  31.312  1.00  0.00    -0.200 F 
ENDBRANCH  59  83
BRANCH  71  94
ATOM     94  C   UNL A   1      44.551  35.756  41.273  1.00  0.00     0.064 A 
ATOM     95  C   UNL A   1      45.607  34.871  41.532  1.00  0.00     0.173 A 
ATOM     96  C   UNL A   1      44.608  37.035  41.850  1.00  0.00     0.173 A 
ATOM     97  F   UNL A   1      45.592  33.632  41.015  1.00  0.00    -0.203 F 
ATOM     98  C   UNL A   1      46.663  35.241  42.360  1.00  0.00     0.198 A 
ATOM     99  C   UNL A   1      45.683  37.413  42.648  1.00  0.00     0.198 A 
ATOM    100  F   UNL A   1      43.627  37.922  41.627  1.00  0.00    -0.203 F 
ATOM    101  F   UNL A   1      47.634  34.360  42.639  1.00  0.00    -0.200 F 
ATOM    102  C   UNL A   1      46.704  36.513  42.911  1.00  0.00     0.200 A 
ATOM    103  F   UNL A   1      45.729  38.649  43.164  1.00  0.00    -0.200 F 
ATOM    104  F   UNL A   1      47.726  36.871  43.701  1.00  0.00    -0.200 F 
ENDBRANCH  71  94
ENDBRANCH  45  46
ENDBRANCH  38  40
ENDBRANCH  37  38
ENDBRANCH  36  37
ENDBRANCH  35  36
ENDBRANCH  34  35
ENDBRANCH  33  34
ENDBRANCH  32  33
ENDBRANCH   1  32
TORSDOF 22
ENDMDL
MODEL 3
REMARK VINA RESULT:     -10.2      5.126      7.640
REMARK SMILES CN1C(=O)C[C@H](C(=O)OCCOCCOCCOCCOC(=O)c2ccc(-c3c4nc(c(-c5c(F)c(F)c(F)c(F)c5F)c5ccc([nH]5)c(-c5c(F)c(F)c(F)c(F)c5F)c5nc(c(-c6c(F)c(F)c(F)c(F)c6F)c6ccc3[nH]6)C=C5)C=C4)cc2)C12CC[NH+](Cc1ccc(Cl)c(F)c1)CC2
REMARK SMILES IDX 15 1 14 2 13 3 12 4 11 5 10 6 9 7 7 8 8 9 6 10 1 11 2 12
REMARK SMILES IDX 3 13 87 14 4 15 5 16 88 17 101 18 89 19 100 20 90 21 91 23
REMARK SMILES IDX 92 24 93 25 99 26 94 27 97 28 95 29 98 30 96 31 16 32 17 33
REMARK SMILES IDX 18 34 19 35 20 36 21 37 22 38 23 39 24 40 25 41 86 42 26 43
REMARK SMILES IDX 85 44 27 45 28 46 29 47 79 48 30 49 84 50 78 51 80 52 31 53
REMARK SMILES IDX 83 54 77 55 76 56 32 58 64 59 44 60 63 61 45 62 48 63 62 64
REMARK SMILES IDX 81 65 46 66 47 67 61 69 82 70 49 71 33 72 34 73 42 74 35 75
REMARK SMILES IDX 36 76 40 77 43 78 37 79 38 80 41 81 39 82 65 83 66 84 74 85
REMARK SMILES IDX 67 86 68 87 72 88 75 89 69 90 70 91 73 92 71 93 50 94 51 95
REMARK SMILES IDX 59 96 52 97 53 98 57 99 60 100 54 101 55 102 58 103 56 104
REMARK H PARENT 90 22 80 57 48 68
REMARK Flexibility Score: inf
ROOT
ATOM      1  O   UNL A   1      34.898  30.522  27.589  1.00  0.00    -0.377 OA
ENDROOT
BRANCH   1   2
ATOM      2  C   UNL A   1      33.666  29.889  27.293  1.00  0.00     0.188 C 
BRANCH   2   3
ATOM      3  C   UNL A   1      33.773  28.762  26.270  1.00  0.00     0.188 C 
BRANCH   3   4
ATOM      4  O   UNL A   1      33.034  28.931  25.069  1.00  0.00    -0.376 OA
BRANCH   4   5
ATOM      5  C   UNL A   1      31.836  29.710  25.121  1.00  0.00     0.202 C 
BRANCH   5   6
ATOM      6  C   UNL A   1      30.609  29.222  24.339  1.00  0.00     0.261 C 
BRANCH   6   7
ATOM      7  O   UNL A   1      30.941  28.163  23.412  1.00  0.00    -0.463 OA
BRANCH   7   8
ATOM      8  C   UNL A   1      30.367  26.963  23.622  1.00  0.00     0.311 C 
ATOM      9  O   UNL A   1      29.352  26.803  24.294  1.00  0.00    -0.252 OA
BRANCH   8  10
ATOM     10  C   UNL A   1      30.982  25.812  22.855  1.00  0.00     0.134 C 
ATOM     11  C   UNL A   1      33.548  23.190  22.063  1.00  0.00     0.147 C 
ATOM     12  N   UNL A   1      32.676  24.348  22.187  1.00  0.00    -0.339 N 
ATOM     13  C   UNL A   1      32.603  25.293  21.178  1.00  0.00     0.223 C 
ATOM     14  C   UNL A   1      31.959  24.746  23.436  1.00  0.00     0.067 C 
ATOM     15  O   UNL A   1      33.218  25.291  20.123  1.00  0.00    -0.275 OA
ATOM     16  C   UNL A   1      31.642  26.361  21.590  1.00  0.00     0.118 C 
ATOM     17  C   UNL A   1      31.169  23.568  24.039  1.00  0.00     0.091 C 
ATOM     18  C   UNL A   1      33.027  25.176  24.458  1.00  0.00     0.091 C 
ATOM     19  C   UNL A   1      30.670  23.870  25.452  1.00  0.00     0.265 C 
ATOM     20  C   UNL A   1      32.591  25.316  25.921  1.00  0.00     0.265 C 
ATOM     21  N   UNL A   1      31.710  24.258  26.397  1.00  0.00    -0.331 N 
ATOM     22  H   UNL A   1      31.172  24.710  27.135  1.00  0.00     0.348 HD
BRANCH  21  23
ATOM     23  C   UNL A   1      32.333  23.193  27.187  1.00  0.00     0.299 C 
BRANCH  23  24
ATOM     24  C   UNL A   1      33.593  22.587  26.610  1.00  0.00     0.009 A 
ATOM     25  C   UNL A   1      33.533  21.446  25.797  1.00  0.00     0.011 A 
ATOM     26  C   UNL A   1      34.838  23.202  26.820  1.00  0.00     0.050 A 
ATOM     27  C   UNL A   1      34.675  20.990  25.130  1.00  0.00     0.024 A 
ATOM     28  C   UNL A   1      35.965  22.762  26.135  1.00  0.00     0.142 A 
ATOM     29  C   UNL A   1      35.885  21.669  25.278  1.00  0.00     0.076 A 
ATOM     30  F   UNL A   1      37.111  23.443  26.283  1.00  0.00    -0.205 F 
ATOM     31  Cl  UNL A   1      37.254  21.169  24.363  1.00  0.00    -0.081 Cl
ENDBRANCH  23  24
ENDBRANCH  21  23
ENDBRANCH   8  10
ENDBRANCH   7   8
ENDBRANCH   6   7
ENDBRANCH   5   6
ENDBRANCH   4   5
ENDBRANCH   3   4
ENDBRANCH   2   3
ENDBRANCH   1   2
BRANCH   1  32
ATOM     32  C   UNL A   1      34.960  31.943  27.636  1.00  0.00     0.188 C 
BRANCH  32  33
ATOM     33  C   UNL A   1      33.712  32.733  28.038  1.00  0.00     0.188 C 
BRANCH  33  34
ATOM     34  O   UNL A   1      33.707  34.157  27.914  1.00  0.00    -0.376 OA
BRANCH  34  35
ATOM     35  C   UNL A   1      34.288  34.974  28.928  1.00  0.00     0.202 C 
BRANCH  35  36
ATOM     36  C   UNL A   1      33.857  34.612  30.345  1.00  0.00     0.261 C 
BRANCH  36  37
ATOM     37  O   UNL A   1      35.001  34.318  31.155  1.00  0.00    -0.460 OA
BRANCH  37  38
ATOM     38  C   UNL A   1      35.015  33.084  31.691  1.00  0.00     0.338 C 
ATOM     39  O   UNL A   1      34.074  32.453  32.160  1.00  0.00    -0.246 OA
BRANCH  38  40
ATOM     40  C   UNL A   1      36.353  32.506  31.526  1.00  0.00     0.060 A 
ATOM     41  C   UNL A   1      37.229  32.548  32.618  1.00  0.00     0.016 A 
ATOM     42  C   UNL A   1      36.768  32.017  30.284  1.00  0.00     0.016 A 
ATOM     43  C   UNL A   1      38.556  32.179  32.448  1.00  0.00     0.010 A 
ATOM     44  C   UNL A   1      38.101  31.657  30.113  1.00  0.00     0.010 A 
ATOM     45  C   UNL A   1      39.005  31.795  31.179  1.00  0.00    -0.014 A 
BRANCH  45  46
ATOM     46  C   UNL A   1      40.455  31.769  30.905  1.00  0.00     0.031 A 
ATOM     47  C   UNL A   1      41.100  33.025  30.393  1.00  0.00     0.074 A 
ATOM     48  C   UNL A   1      41.171  30.658  31.131  1.00  0.00     0.049 A 
ATOM     49  N   UNL A   1      42.334  33.233  30.018  1.00  0.00    -0.248 NA
ATOM     50  C   UNL A   1      40.228  34.207  30.282  1.00  0.00     0.031 C 
ATOM     51  C   UNL A   1      40.644  29.411  31.680  1.00  0.00     0.029 A 
ATOM     52  N   UNL A   1      42.499  30.405  30.917  1.00  0.00    -0.354 N 
ATOM     53  C   UNL A   1      42.386  34.564  29.623  1.00  0.00     0.074 A 
ATOM     54  C   UNL A   1      41.053  35.105  29.765  1.00  0.00     0.031 C 
ATOM     55  C   UNL A   1      41.643  28.515  31.751  1.00  0.00     0.029 A 
ATOM     56  C   UNL A   1      42.863  29.117  31.217  1.00  0.00     0.049 A 
ATOM     57  H   UNL A   1      43.131  31.080  30.579  1.00  0.00     0.167 HD
ATOM     58  C   UNL A   1      43.456  35.271  29.190  1.00  0.00     0.037 A 
ATOM     59  C   UNL A   1      44.047  28.499  31.051  1.00  0.00     0.037 A 
ATOM     60  C   UNL A   1      44.773  34.712  29.045  1.00  0.00     0.049 A 
ATOM     61  C   UNL A   1      45.200  29.282  30.479  1.00  0.00     0.074 A 
ATOM     62  C   UNL A   1      45.933  35.329  28.615  1.00  0.00     0.029 A 
ATOM     63  N   UNL A   1      45.099  33.390  29.322  1.00  0.00    -0.354 N 
ATOM     64  N   UNL A   1      45.252  30.542  30.118  1.00  0.00    -0.248 NA
ATOM     65  C   UNL A   1      46.462  28.554  30.294  1.00  0.00     0.031 C 
ATOM     66  C   UNL A   1      46.948  34.367  28.577  1.00  0.00     0.029 A 
ATOM     67  C   UNL A   1      46.437  33.166  29.046  1.00  0.00     0.049 A 
ATOM     68  H   UNL A   1      44.471  32.713  29.663  1.00  0.00     0.167 HD
ATOM     69  C   UNL A   1      46.557  30.769  29.700  1.00  0.00     0.074 A 
ATOM     70  C   UNL A   1      47.266  29.516  29.862  1.00  0.00     0.031 C 
ATOM     71  C   UNL A   1      47.121  31.909  29.228  1.00  0.00     0.037 A 
BRANCH  58  72
ATOM     72  C   UNL A   1      43.230  36.707  28.812  1.00  0.00     0.064 A 
ATOM     73  C   UNL A   1      43.616  37.764  29.651  1.00  0.00     0.173 A 
ATOM     74  C   UNL A   1      42.623  37.032  27.588  1.00  0.00     0.173 A 
ATOM     75  F   UNL A   1      44.185  37.509  30.839  1.00  0.00    -0.203 F 
ATOM     76  C   UNL A   1      43.373  39.089  29.296  1.00  0.00     0.198 A 
ATOM     77  C   UNL A   1      42.414  38.359  27.221  1.00  0.00     0.198 A 
ATOM     78  F   UNL A   1      42.234  36.063  26.747  1.00  0.00    -0.203 F 
ATOM     79  F   UNL A   1      43.698  40.078  30.141  1.00  0.00    -0.200 F 
ATOM     80  C   UNL A   1      42.779  39.385  28.079  1.00  0.00     0.200 A 
ATOM     81  F   UNL A   1      41.849  38.644  26.040  1.00  0.00    -0.200 F 
ATOM     82  F   UNL A   1      42.549  40.661  27.737  1.00  0.00    -0.200 F 
ENDBRANCH  58  72
BRANCH  59  83
ATOM     83  C   UNL A   1      44.199  27.071  31.432  1.00  0.00     0.064 A 
ATOM     84  C   UNL A   1      44.070  26.055  30.476  1.00  0.00     0.173 A 
ATOM     85  C   UNL A   1      44.470  26.693  32.755  1.00  0.00     0.173 A 
ATOM     86  F   UNL A   1      43.793  26.365  29.201  1.00  0.00    -0.203 F 
ATOM     87  C   UNL A   1      44.184  24.712  30.833  1.00  0.00     0.198 A 
ATOM     88  C   UNL A   1      44.616  25.352  33.104  1.00  0.00     0.198 A 
ATOM     89  F   UNL A   1      44.610  27.627  33.707  1.00  0.00    -0.203 F 
ATOM     90  F   UNL A   1      44.009  23.759  29.908  1.00  0.00    -0.200 F 
ATOM     91  C   UNL A   1      44.463  24.363  32.145  1.00  0.00     0.200 A 
ATOM     92  F   UNL A   1      44.901  25.020  34.371  1.00  0.00    -0.200 F 
ATOM     93  F   UNL A   1      44.577  23.072  32.488  1.00  0.00    -0.200 F 
ENDBRANCH  59  83
BRANCH  71  94
ATOM     94  C   UNL A   1      48.588  31.867  28.905  1.00  0.00     0.064 A 
ATOM     95  C   UNL A   1      49.053  31.601  27.610  1.00  0.00     0.173 A 
ATOM     96  C   UNL A   1      49.538  32.139  29.903  1.00  0.00     0.173 A 
ATOM     97  F   UNL A   1      48.186  31.321  26.624  1.00  0.00    -0.203 F 
ATOM     98  C   UNL A   1      50.417  31.578  27.331  1.00  0.00     0.198 A 
ATOM     99  C   UNL A   1      50.898  32.150  29.612  1.00  0.00     0.198 A 
ATOM    100  F   UNL A   1      49.144  32.408  31.156  1.00  0.00    -0.203 F 
ATOM    101  F   UNL A   1      50.842  31.267  26.099  1.00  0.00    -0.200 F 
ATOM    102  C   UNL A   1      51.337  31.860  28.330  1.00  0.00     0.200 A 
ATOM    103  F   UNL A   1      51.785  32.441  30.574  1.00  0.00    -0.200 F 
ATOM    104  F   UNL A   1      52.649  31.846  28.058  1.00  0.00    -0.200 F 
ENDBRANCH  71  94
ENDBRANCH  45  46
ENDBRANCH  38  40
ENDBRANCH  37  38
ENDBRANCH  36  37
ENDBRANCH  35  36
ENDBRANCH  34  35
ENDBRANCH  33  34
ENDBRANCH  32  33
ENDBRANCH   1  32
TORSDOF 22
ENDMDL
