MODEL 1
REMARK VINA RESULT:     -11.1      0.000      0.000
REMARK SMILES O=C(OCCOCCOCCOCCOC(=O)[C@H]1[C@H]2CC[C@H](C2)[C@@H]1C(=O)N1CCN(c2cccc(Cl)c2)CC1)c1ccc(-c2c3nc(c(-c4c(F)c(F)c(F)c(F)c4F)c4ccc([nH]4)c(-c4c(F)c(F)c(F)c(F)c4F)c4nc(c(-c5c(F)c(F)c(F)c(F)c5F)c5ccc2[nH]5)C=C4)C=C3)cc1
REMARK SMILES IDX 9 1 8 2 7 3 6 4 5 5 4 6 3 7 2 8 1 9 40 10 41 11 102 12 42 13
REMARK SMILES IDX 101 14 43 15 44 16 45 17 95 18 46 19 100 20 94 21 96 22
REMARK SMILES IDX 47 23 99 24 93 25 92 26 48 28 80 29 60 30 79 31 61 32 64 33
REMARK SMILES IDX 78 34 97 35 62 36 63 37 77 39 98 40 65 41 49 42 50 43 58 44
REMARK SMILES IDX 51 45 52 46 56 47 59 48 53 49 54 50 57 51 55 52 81 53 82 54
REMARK SMILES IDX 90 55 83 56 84 57 88 58 91 59 85 60 86 61 89 62 87 63 66 64
REMARK SMILES IDX 67 65 75 66 68 67 69 68 73 69 76 70 70 71 71 72 74 73 72 74
REMARK SMILES IDX 10 75 11 76 12 77 13 78 14 79 15 80 16 81 17 82 18 83 19 84
REMARK SMILES IDX 24 85 20 86 23 87 22 88 21 89 25 90 26 91 27 92 28 93 39 94
REMARK SMILES IDX 29 95 38 96 30 97 31 98 32 99 37 100 33 101 35 102 34 103
REMARK SMILES IDX 36 104
REMARK H PARENT 96 27 64 38
REMARK Flexibility Score: inf
ROOT
ATOM      1  O   UNL A   1      40.125  21.811  27.596  1.00  0.00    -0.377 OA
ENDROOT
BRANCH   1   2
ATOM      2  C   UNL A   1      40.981  20.680  27.393  1.00  0.00     0.188 C 
BRANCH   2   3
ATOM      3  C   UNL A   1      41.993  20.789  26.239  1.00  0.00     0.188 C 
BRANCH   3   4
ATOM      4  O   UNL A   1      42.067  19.583  25.478  1.00  0.00    -0.376 OA
BRANCH   4   5
ATOM      5  C   UNL A   1      42.601  18.403  26.078  1.00  0.00     0.202 C 
BRANCH   5   6
ATOM      6  C   UNL A   1      44.051  18.093  25.753  1.00  0.00     0.261 C 
BRANCH   6   7
ATOM      7  O   UNL A   1      44.486  18.574  24.476  1.00  0.00    -0.460 OA
BRANCH   7   8
ATOM      8  C   UNL A   1      45.391  19.530  24.175  1.00  0.00     0.338 C 
ATOM      9  O   UNL A   1      46.365  19.207  23.495  1.00  0.00    -0.246 OA
BRANCH   8  10
ATOM     10  C   UNL A   1      45.295  20.962  24.586  1.00  0.00     0.060 A 
ATOM     11  C   UNL A   1      44.786  22.007  23.818  1.00  0.00     0.016 A 
ATOM     12  C   UNL A   1      45.654  21.246  25.913  1.00  0.00     0.016 A 
ATOM     13  C   UNL A   1      44.660  23.292  24.306  1.00  0.00     0.010 A 
ATOM     14  C   UNL A   1      45.535  22.537  26.426  1.00  0.00     0.010 A 
ATOM     15  C   UNL A   1      45.057  23.562  25.604  1.00  0.00    -0.014 A 
BRANCH  15  16
ATOM     16  C   UNL A   1      45.190  24.973  25.963  1.00  0.00     0.031 A 
ATOM     17  C   UNL A   1      46.512  25.607  25.696  1.00  0.00     0.074 A 
ATOM     18  C   UNL A   1      44.111  25.672  26.346  1.00  0.00     0.049 A 
ATOM     19  N   UNL A   1      46.958  26.778  26.045  1.00  0.00    -0.248 NA
ATOM     20  C   UNL A   1      47.470  24.801  24.916  1.00  0.00     0.031 C 
ATOM     21  C   UNL A   1      42.746  25.145  26.419  1.00  0.00     0.029 A 
ATOM     22  N   UNL A   1      43.992  26.977  26.729  1.00  0.00    -0.354 N 
ATOM     23  C   UNL A   1      48.265  26.823  25.585  1.00  0.00     0.074 A 
ATOM     24  C   UNL A   1      48.541  25.574  24.918  1.00  0.00     0.031 C 
ATOM     25  C   UNL A   1      41.926  26.119  26.847  1.00  0.00     0.029 A 
ATOM     26  C   UNL A   1      42.730  27.294  27.161  1.00  0.00     0.049 A 
ATOM     27  H   UNL A   1      44.735  27.622  26.697  1.00  0.00     0.167 HD
ATOM     28  C   UNL A   1      49.152  27.829  25.745  1.00  0.00     0.037 A 
ATOM     29  C   UNL A   1      42.312  28.393  27.814  1.00  0.00     0.037 A 
ATOM     30  C   UNL A   1      48.805  29.048  26.422  1.00  0.00     0.049 A 
ATOM     31  C   UNL A   1      43.338  29.458  28.089  1.00  0.00     0.074 A 
ATOM     32  C   UNL A   1      49.600  30.134  26.722  1.00  0.00     0.029 A 
ATOM     33  N   UNL A   1      47.532  29.326  26.911  1.00  0.00    -0.354 N 
ATOM     34  N   UNL A   1      44.610  29.481  27.755  1.00  0.00    -0.248 NA
ATOM     35  C   UNL A   1      42.891  30.634  28.840  1.00  0.00     0.031 C 
ATOM     36  C   UNL A   1      48.821  31.041  27.450  1.00  0.00     0.029 A 
ATOM     37  C   UNL A   1      47.523  30.555  27.540  1.00  0.00     0.049 A 
ATOM     38  H   UNL A   1      46.752  28.732  26.823  1.00  0.00     0.167 HD
ATOM     39  C   UNL A   1      45.114  30.680  28.235  1.00  0.00     0.074 A 
ATOM     40  C   UNL A   1      44.002  31.358  28.879  1.00  0.00     0.031 C 
ATOM     41  C   UNL A   1      46.372  31.180  28.153  1.00  0.00     0.037 A 
BRANCH  28  42
ATOM     42  C   UNL A   1      50.560  27.568  25.300  1.00  0.00     0.064 A 
ATOM     43  C   UNL A   1      50.976  27.731  23.969  1.00  0.00     0.173 A 
ATOM     44  C   UNL A   1      51.489  27.041  26.212  1.00  0.00     0.173 A 
ATOM     45  F   UNL A   1      50.119  28.195  23.045  1.00  0.00    -0.203 F 
ATOM     46  C   UNL A   1      52.246  27.329  23.559  1.00  0.00     0.198 A 
ATOM     47  C   UNL A   1      52.769  26.673  25.805  1.00  0.00     0.198 A 
ATOM     48  F   UNL A   1      51.144  26.849  27.494  1.00  0.00    -0.203 F 
ATOM     49  F   UNL A   1      52.586  27.406  22.265  1.00  0.00    -0.200 F 
ATOM     50  C   UNL A   1      53.141  26.802  24.477  1.00  0.00     0.200 A 
ATOM     51  F   UNL A   1      53.632  26.166  26.697  1.00  0.00    -0.200 F 
ATOM     52  F   UNL A   1      54.354  26.394  24.077  1.00  0.00    -0.200 F 
ENDBRANCH  28  42
BRANCH  29  53
ATOM     53  C   UNL A   1      40.913  28.469  28.308  1.00  0.00     0.064 A 
ATOM     54  C   UNL A   1      40.577  28.104  29.617  1.00  0.00     0.173 A 
ATOM     55  C   UNL A   1      39.882  28.957  27.486  1.00  0.00     0.173 A 
ATOM     56  F   UNL A   1      41.518  27.618  30.439  1.00  0.00    -0.203 F 
ATOM     57  C   UNL A   1      39.266  28.219  30.083  1.00  0.00     0.198 A 
ATOM     58  C   UNL A   1      38.580  29.101  27.962  1.00  0.00     0.198 A 
ATOM     59  F   UNL A   1      40.145  29.325  26.224  1.00  0.00    -0.203 F 
ATOM     60  F   UNL A   1      38.966  27.835  31.332  1.00  0.00    -0.200 F 
ATOM     61  C   UNL A   1      38.272  28.726  29.259  1.00  0.00     0.200 A 
ATOM     62  F   UNL A   1      37.631  29.610  27.166  1.00  0.00    -0.200 F 
ATOM     63  F   UNL A   1      37.018  28.851  29.714  1.00  0.00    -0.200 F 
ENDBRANCH  29  53
BRANCH  41  64
ATOM     64  C   UNL A   1      46.597  32.543  28.732  1.00  0.00     0.064 A 
ATOM     65  C   UNL A   1      47.045  32.718  30.048  1.00  0.00     0.173 A 
ATOM     66  C   UNL A   1      46.461  33.676  27.917  1.00  0.00     0.173 A 
ATOM     67  F   UNL A   1      47.175  31.663  30.865  1.00  0.00    -0.203 F 
ATOM     68  C   UNL A   1      47.343  33.988  30.530  1.00  0.00     0.198 A 
ATOM     69  C   UNL A   1      46.793  34.939  28.392  1.00  0.00     0.198 A 
ATOM     70  F   UNL A   1      46.044  33.551  26.647  1.00  0.00    -0.203 F 
ATOM     71  F   UNL A   1      47.741  34.142  31.800  1.00  0.00    -0.200 F 
ATOM     72  C   UNL A   1      47.231  35.093  29.698  1.00  0.00     0.200 A 
ATOM     73  F   UNL A   1      46.705  36.002  27.581  1.00  0.00    -0.200 F 
ATOM     74  F   UNL A   1      47.548  36.311  30.158  1.00  0.00    -0.200 F 
ENDBRANCH  41  64
ENDBRANCH  15  16
ENDBRANCH   8  10
ENDBRANCH   7   8
ENDBRANCH   6   7
ENDBRANCH   5   6
ENDBRANCH   4   5
ENDBRANCH   3   4
ENDBRANCH   2   3
ENDBRANCH   1   2
BRANCH   1  75
ATOM     75  C   UNL A   1      39.808  22.531  26.414  1.00  0.00     0.188 C 
BRANCH  75  76
ATOM     76  C   UNL A   1      39.105  23.911  26.557  1.00  0.00     0.188 C 
BRANCH  76  77
ATOM     77  O   UNL A   1      37.732  23.892  26.203  1.00  0.00    -0.376 OA
BRANCH  77  78
ATOM     78  C   UNL A   1      37.274  23.169  25.066  1.00  0.00     0.202 C 
BRANCH  78  79
ATOM     79  C   UNL A   1      35.867  23.317  24.450  1.00  0.00     0.261 C 
BRANCH  79  80
ATOM     80  O   UNL A   1      35.087  24.403  24.933  1.00  0.00    -0.463 OA
BRANCH  80  81
ATOM     81  C   UNL A   1      34.018  24.126  25.738  1.00  0.00     0.310 C 
ATOM     82  O   UNL A   1      34.065  23.718  26.876  1.00  0.00    -0.252 OA
BRANCH  81  83
ATOM     83  C   UNL A   1      32.785  24.567  24.976  1.00  0.00     0.115 C 
ATOM     84  C   UNL A   1      31.913  23.409  24.474  1.00  0.00     0.004 C 
ATOM     85  C   UNL A   1      31.833  25.579  25.640  1.00  0.00     0.096 C 
ATOM     86  C   UNL A   1      31.486  22.546  25.649  1.00  0.00     0.005 C 
ATOM     87  C   UNL A   1      30.614  24.134  24.156  1.00  0.00     0.009 C 
ATOM     88  C   UNL A   1      30.520  24.786  25.539  1.00  0.00     0.003 C 
ATOM     89  C   UNL A   1      30.634  23.534  26.462  1.00  0.00     0.005 C 
BRANCH  85  90
ATOM     90  C   UNL A   1      32.071  26.960  24.938  1.00  0.00     0.226 C 
ATOM     91  O   UNL A   1      31.472  27.149  23.868  1.00  0.00    -0.275 OA
ATOM     92  N   UNL A   1      32.670  28.045  25.563  1.00  0.00    -0.339 N 
ATOM     93  C   UNL A   1      32.321  29.411  25.104  1.00  0.00     0.141 C 
ATOM     94  C   UNL A   1      33.962  28.015  26.258  1.00  0.00     0.141 C 
ATOM     95  C   UNL A   1      32.377  30.458  26.248  1.00  0.00     0.138 C 
ATOM     96  C   UNL A   1      34.033  29.029  27.417  1.00  0.00     0.138 C 
ATOM     97  N   UNL A   1      33.669  30.375  26.941  1.00  0.00    -0.368 N 
BRANCH  97  98
ATOM     98  C   UNL A   1      34.182  31.438  27.668  1.00  0.00     0.038 A 
ATOM     99  C   UNL A   1      35.509  31.364  28.129  1.00  0.00     0.026 A 
ATOM    100  C   UNL A   1      33.446  32.584  27.991  1.00  0.00     0.046 A 
ATOM    101  C   UNL A   1      36.086  32.386  28.886  1.00  0.00     0.004 A 
ATOM    102  C   UNL A   1      34.019  33.603  28.763  1.00  0.00     0.043 A 
ATOM    103  C   UNL A   1      35.335  33.510  29.211  1.00  0.00     0.020 A 
ATOM    104  Cl  UNL A   1      33.085  34.988  29.182  1.00  0.00    -0.084 Cl
ENDBRANCH  97  98
ENDBRANCH  85  90
ENDBRANCH  81  83
ENDBRANCH  80  81
ENDBRANCH  79  80
ENDBRANCH  78  79
ENDBRANCH  77  78
ENDBRANCH  76  77
ENDBRANCH  75  76
ENDBRANCH   1  75
TORSDOF 22
ENDMDL
MODEL 2
REMARK VINA RESULT:     -11.1      1.693      2.840
REMARK SMILES O=C(OCCOCCOCCOCCOC(=O)[C@H]1[C@H]2CC[C@H](C2)[C@@H]1C(=O)N1CCN(c2cccc(Cl)c2)CC1)c1ccc(-c2c3nc(c(-c4c(F)c(F)c(F)c(F)c4F)c4ccc([nH]4)c(-c4c(F)c(F)c(F)c(F)c4F)c4nc(c(-c5c(F)c(F)c(F)c(F)c5F)c5ccc2[nH]5)C=C4)C=C3)cc1
REMARK SMILES IDX 9 1 8 2 7 3 6 4 5 5 4 6 3 7 2 8 1 9 40 10 41 11 102 12 42 13
REMARK SMILES IDX 101 14 43 15 44 16 45 17 95 18 46 19 100 20 94 21 96 22
REMARK SMILES IDX 47 23 99 24 93 25 92 26 48 28 80 29 60 30 79 31 61 32 64 33
REMARK SMILES IDX 78 34 97 35 62 36 63 37 77 39 98 40 65 41 49 42 50 43 58 44
REMARK SMILES IDX 51 45 52 46 56 47 59 48 53 49 54 50 57 51 55 52 81 53 82 54
REMARK SMILES IDX 90 55 83 56 84 57 88 58 91 59 85 60 86 61 89 62 87 63 66 64
REMARK SMILES IDX 67 65 75 66 68 67 69 68 73 69 76 70 70 71 71 72 74 73 72 74
REMARK SMILES IDX 10 75 11 76 12 77 13 78 14 79 15 80 16 81 17 82 18 83 19 84
REMARK SMILES IDX 24 85 20 86 23 87 22 88 21 89 25 90 26 91 27 92 28 93 39 94
REMARK SMILES IDX 29 95 38 96 30 97 31 98 32 99 37 100 33 101 35 102 34 103
REMARK SMILES IDX 36 104
REMARK H PARENT 96 27 64 38
REMARK Flexibility Score: inf
ROOT
ATOM      1  O   UNL A   1      40.159  22.141  27.642  1.00  0.00    -0.377 OA
ENDROOT
BRANCH   1   2
ATOM      2  C   UNL A   1      41.232  21.233  27.365  1.00  0.00     0.188 C 
BRANCH   2   3
ATOM      3  C   UNL A   1      41.548  20.983  25.880  1.00  0.00     0.188 C 
BRANCH   3   4
ATOM      4  O   UNL A   1      41.761  19.598  25.606  1.00  0.00    -0.376 OA
BRANCH   4   5
ATOM      5  C   UNL A   1      42.569  18.820  26.489  1.00  0.00     0.202 C 
BRANCH   5   6
ATOM      6  C   UNL A   1      43.669  18.005  25.834  1.00  0.00     0.261 C 
BRANCH   6   7
ATOM      7  O   UNL A   1      44.117  18.520  24.576  1.00  0.00    -0.460 OA
BRANCH   7   8
ATOM      8  C   UNL A   1      45.065  19.444  24.309  1.00  0.00     0.338 C 
ATOM      9  O   UNL A   1      46.058  19.084  23.675  1.00  0.00    -0.246 OA
BRANCH   8  10
ATOM     10  C   UNL A   1      44.999  20.881  24.706  1.00  0.00     0.060 A 
ATOM     11  C   UNL A   1      44.594  21.942  23.898  1.00  0.00     0.016 A 
ATOM     12  C   UNL A   1      45.268  21.160  26.055  1.00  0.00     0.016 A 
ATOM     13  C   UNL A   1      44.486  23.235  24.370  1.00  0.00     0.010 A 
ATOM     14  C   UNL A   1      45.164  22.458  26.553  1.00  0.00     0.010 A 
ATOM     15  C   UNL A   1      44.794  23.496  25.693  1.00  0.00    -0.014 A 
BRANCH  15  16
ATOM     16  C   UNL A   1      44.958  24.903  26.056  1.00  0.00     0.031 A 
ATOM     17  C   UNL A   1      46.297  25.505  25.798  1.00  0.00     0.074 A 
ATOM     18  C   UNL A   1      43.895  25.626  26.435  1.00  0.00     0.049 A 
ATOM     19  N   UNL A   1      46.769  26.665  26.153  1.00  0.00    -0.248 NA
ATOM     20  C   UNL A   1      47.240  24.679  25.021  1.00  0.00     0.031 C 
ATOM     21  C   UNL A   1      42.517  25.133  26.500  1.00  0.00     0.029 A 
ATOM     22  N   UNL A   1      43.805  26.933  26.821  1.00  0.00    -0.354 N 
ATOM     23  C   UNL A   1      48.079  26.680  25.699  1.00  0.00     0.074 A 
ATOM     24  C   UNL A   1      48.329  25.426  25.031  1.00  0.00     0.031 C 
ATOM     25  C   UNL A   1      41.719  26.125  26.926  1.00  0.00     0.029 A 
ATOM     26  C   UNL A   1      42.549  27.279  27.247  1.00  0.00     0.049 A 
ATOM     27  H   UNL A   1      44.563  27.560  26.794  1.00  0.00     0.167 HD
ATOM     28  C   UNL A   1      48.989  27.664  25.866  1.00  0.00     0.037 A 
ATOM     29  C   UNL A   1      42.153  28.386  27.900  1.00  0.00     0.037 A 
ATOM     30  C   UNL A   1      48.668  28.890  26.544  1.00  0.00     0.049 A 
ATOM     31  C   UNL A   1      43.203  29.427  28.183  1.00  0.00     0.074 A 
ATOM     32  C   UNL A   1      49.487  29.956  26.851  1.00  0.00     0.029 A 
ATOM     33  N   UNL A   1      47.399  29.197  27.027  1.00  0.00    -0.354 N 
ATOM     34  N   UNL A   1      44.477  29.420  27.856  1.00  0.00    -0.248 NA
ATOM     35  C   UNL A   1      42.780  30.611  28.934  1.00  0.00     0.031 C 
ATOM     36  C   UNL A   1      48.726  30.879  27.577  1.00  0.00     0.029 A 
ATOM     37  C   UNL A   1      47.416  30.424  27.659  1.00  0.00     0.049 A 
ATOM     38  H   UNL A   1      46.605  28.622  26.933  1.00  0.00     0.167 HD
ATOM     39  C   UNL A   1      45.007  30.605  28.341  1.00  0.00     0.074 A 
ATOM     40  C   UNL A   1      43.908  31.308  28.981  1.00  0.00     0.031 C 
ATOM     41  C   UNL A   1      46.277  31.076  28.268  1.00  0.00     0.037 A 
BRANCH  28  42
ATOM     42  C   UNL A   1      50.393  27.370  25.428  1.00  0.00     0.064 A 
ATOM     43  C   UNL A   1      51.398  26.969  26.324  1.00  0.00     0.173 A 
ATOM     44  C   UNL A   1      50.764  27.598  24.093  1.00  0.00     0.173 A 
ATOM     45  F   UNL A   1      51.108  26.775  27.620  1.00  0.00    -0.203 F 
ATOM     46  C   UNL A   1      52.724  26.859  25.913  1.00  0.00     0.198 A 
ATOM     47  C   UNL A   1      52.086  27.452  23.678  1.00  0.00     0.198 A 
ATOM     48  F   UNL A   1      49.851  27.997  23.196  1.00  0.00    -0.203 F 
ATOM     49  F   UNL A   1      53.679  26.568  26.807  1.00  0.00    -0.200 F 
ATOM     50  C   UNL A   1      53.067  27.099  24.591  1.00  0.00     0.200 A 
ATOM     51  F   UNL A   1      52.412  27.684  22.399  1.00  0.00    -0.200 F 
ATOM     52  F   UNL A   1      54.347  27.016  24.201  1.00  0.00    -0.200 F 
ENDBRANCH  28  42
BRANCH  29  53
ATOM     53  C   UNL A   1      40.754  28.495  28.387  1.00  0.00     0.064 A 
ATOM     54  C   UNL A   1      40.396  28.107  29.683  1.00  0.00     0.173 A 
ATOM     55  C   UNL A   1      39.745  29.038  27.571  1.00  0.00     0.173 A 
ATOM     56  F   UNL A   1      41.315  27.568  30.498  1.00  0.00    -0.203 F 
ATOM     57  C   UNL A   1      39.087  28.252  30.144  1.00  0.00     0.198 A 
ATOM     58  C   UNL A   1      38.446  29.211  28.043  1.00  0.00     0.198 A 
ATOM     59  F   UNL A   1      40.030  29.431  26.321  1.00  0.00    -0.203 F 
ATOM     60  F   UNL A   1      38.765  27.844  31.379  1.00  0.00    -0.200 F 
ATOM     61  C   UNL A   1      38.116  28.812  29.327  1.00  0.00     0.200 A 
ATOM     62  F   UNL A   1      37.519  29.772  27.254  1.00  0.00    -0.200 F 
ATOM     63  F   UNL A   1      36.863  28.966  29.777  1.00  0.00    -0.200 F 
ENDBRANCH  29  53
BRANCH  41  64
ATOM     64  C   UNL A   1      46.531  32.431  28.850  1.00  0.00     0.064 A 
ATOM     65  C   UNL A   1      46.335  33.601  28.104  1.00  0.00     0.173 A 
ATOM     66  C   UNL A   1      46.874  32.554  30.204  1.00  0.00     0.173 A 
ATOM     67  F   UNL A   1      46.021  33.528  26.802  1.00  0.00    -0.203 F 
ATOM     68  C   UNL A   1      46.481  34.850  28.696  1.00  0.00     0.198 A 
ATOM     69  C   UNL A   1      46.984  33.803  30.801  1.00  0.00     0.198 A 
ATOM     70  F   UNL A   1      47.062  31.458  30.957  1.00  0.00    -0.203 F 
ATOM     71  F   UNL A   1      46.319  35.959  27.962  1.00  0.00    -0.200 F 
ATOM     72  C   UNL A   1      46.790  34.950  30.046  1.00  0.00     0.200 A 
ATOM     73  F   UNL A   1      47.261  33.898  32.108  1.00  0.00    -0.200 F 
ATOM     74  F   UNL A   1      46.900  36.155  30.620  1.00  0.00    -0.200 F 
ENDBRANCH  41  64
ENDBRANCH  15  16
ENDBRANCH   8  10
ENDBRANCH   7   8
ENDBRANCH   6   7
ENDBRANCH   5   6
ENDBRANCH   4   5
ENDBRANCH   3   4
ENDBRANCH   2   3
ENDBRANCH   1   2
BRANCH   1  75
ATOM     75  C   UNL A   1      39.688  22.861  26.512  1.00  0.00     0.188 C 
BRANCH  75  76
ATOM     76  C   UNL A   1      38.176  22.777  26.161  1.00  0.00     0.188 C 
BRANCH  76  77
ATOM     77  O   UNL A   1      37.908  22.083  24.953  1.00  0.00    -0.376 OA
BRANCH  77  78
ATOM     78  C   UNL A   1      37.561  20.704  24.957  1.00  0.00     0.202 C 
BRANCH  78  79
ATOM     79  C   UNL A   1      36.113  20.171  24.974  1.00  0.00     0.261 C 
BRANCH  79  80
ATOM     80  O   UNL A   1      35.132  21.018  24.392  1.00  0.00    -0.463 OA
BRANCH  80  81
ATOM     81  C   UNL A   1      33.815  20.760  24.649  1.00  0.00     0.310 C 
ATOM     82  O   UNL A   1      33.291  19.669  24.671  1.00  0.00    -0.252 OA
BRANCH  81  83
ATOM     83  C   UNL A   1      33.187  22.082  25.037  1.00  0.00     0.115 C 
ATOM     84  C   UNL A   1      32.614  22.108  26.460  1.00  0.00     0.004 C 
ATOM     85  C   UNL A   1      34.018  23.368  24.874  1.00  0.00     0.096 C 
ATOM     86  C   UNL A   1      33.709  21.770  27.457  1.00  0.00     0.005 C 
ATOM     87  C   UNL A   1      32.461  23.604  26.689  1.00  0.00     0.009 C 
ATOM     88  C   UNL A   1      33.912  23.914  26.307  1.00  0.00     0.003 C 
ATOM     89  C   UNL A   1      34.680  22.945  27.258  1.00  0.00     0.005 C 
BRANCH  85  90
ATOM     90  C   UNL A   1      33.463  24.116  23.614  1.00  0.00     0.226 C 
ATOM     91  O   UNL A   1      33.327  23.439  22.583  1.00  0.00    -0.275 OA
ATOM     92  N   UNL A   1      32.875  25.372  23.665  1.00  0.00    -0.339 N 
ATOM     93  C   UNL A   1      31.872  25.730  22.633  1.00  0.00     0.141 C 
ATOM     94  C   UNL A   1      33.471  26.562  24.283  1.00  0.00     0.141 C 
ATOM     95  C   UNL A   1      30.784  26.699  23.167  1.00  0.00     0.138 C 
ATOM     96  C   UNL A   1      32.411  27.529  24.846  1.00  0.00     0.138 C 
ATOM     97  N   UNL A   1      31.418  27.859  23.808  1.00  0.00    -0.368 N 
BRANCH  97  98
ATOM     98  C   UNL A   1      30.755  29.067  23.961  1.00  0.00     0.038 A 
ATOM     99  C   UNL A   1      29.671  29.355  23.112  1.00  0.00     0.026 A 
ATOM    100  C   UNL A   1      31.115  30.035  24.905  1.00  0.00     0.046 A 
ATOM    101  C   UNL A   1      28.971  30.561  23.191  1.00  0.00     0.004 A 
ATOM    102  C   UNL A   1      30.423  31.251  24.976  1.00  0.00     0.043 A 
ATOM    103  C   UNL A   1      29.352  31.517  24.125  1.00  0.00     0.020 A 
ATOM    104  Cl  UNL A   1      30.905  32.445  26.119  1.00  0.00    -0.084 Cl
ENDBRANCH  97  98
ENDBRANCH  85  90
ENDBRANCH  81  83
ENDBRANCH  80  81
ENDBRANCH  79  80
ENDBRANCH  78  79
ENDBRANCH  77  78
ENDBRANCH  76  77
ENDBRANCH  75  76
ENDBRANCH   1  75
TORSDOF 22
ENDMDL
MODEL 3
REMARK VINA RESULT:     -10.8      1.983      7.564
REMARK SMILES O=C(OCCOCCOCCOCCOC(=O)[C@H]1[C@H]2CC[C@H](C2)[C@@H]1C(=O)N1CCN(c2cccc(Cl)c2)CC1)c1ccc(-c2c3nc(c(-c4c(F)c(F)c(F)c(F)c4F)c4ccc([nH]4)c(-c4c(F)c(F)c(F)c(F)c4F)c4nc(c(-c5c(F)c(F)c(F)c(F)c5F)c5ccc2[nH]5)C=C4)C=C3)cc1
REMARK SMILES IDX 9 1 8 2 7 3 6 4 5 5 4 6 3 7 2 8 1 9 40 10 41 11 102 12 42 13
REMARK SMILES IDX 101 14 43 15 44 16 45 17 95 18 46 19 100 20 94 21 96 22
REMARK SMILES IDX 47 23 99 24 93 25 92 26 48 28 80 29 60 30 79 31 61 32 64 33
REMARK SMILES IDX 78 34 97 35 62 36 63 37 77 39 98 40 65 41 49 42 50 43 58 44
REMARK SMILES IDX 51 45 52 46 56 47 59 48 53 49 54 50 57 51 55 52 81 53 82 54
REMARK SMILES IDX 90 55 83 56 84 57 88 58 91 59 85 60 86 61 89 62 87 63 66 64
REMARK SMILES IDX 67 65 75 66 68 67 69 68 73 69 76 70 70 71 71 72 74 73 72 74
REMARK SMILES IDX 10 75 11 76 12 77 13 78 14 79 15 80 16 81 17 82 18 83 19 84
REMARK SMILES IDX 24 85 20 86 23 87 22 88 21 89 25 90 26 91 27 92 28 93 39 94
REMARK SMILES IDX 29 95 38 96 30 97 31 98 32 99 37 100 33 101 35 102 34 103
REMARK SMILES IDX 36 104
REMARK H PARENT 96 27 64 38
REMARK Flexibility Score: inf
ROOT
ATOM      1  O   UNL A   1      38.796  22.390  26.195  1.00  0.00    -0.377 OA
ENDROOT
BRANCH   1   2
ATOM      2  C   UNL A   1      39.735  21.313  26.095  1.00  0.00     0.188 C 
BRANCH   2   3
ATOM      3  C   UNL A   1      41.128  21.563  26.700  1.00  0.00     0.188 C 
BRANCH   3   4
ATOM      4  O   UNL A   1      41.780  20.345  27.062  1.00  0.00    -0.376 OA
BRANCH   4   5
ATOM      5  C   UNL A   1      41.784  19.250  26.146  1.00  0.00     0.202 C 
BRANCH   5   6
ATOM      6  C   UNL A   1      43.143  18.643  25.847  1.00  0.00     0.261 C 
BRANCH   6   7
ATOM      7  O   UNL A   1      43.685  19.005  24.572  1.00  0.00    -0.460 OA
BRANCH   7   8
ATOM      8  C   UNL A   1      44.684  19.862  24.270  1.00  0.00     0.338 C 
ATOM      9  O   UNL A   1      45.570  19.469  23.510  1.00  0.00    -0.246 OA
BRANCH   8  10
ATOM     10  C   UNL A   1      44.794  21.264  24.771  1.00  0.00     0.060 A 
ATOM     11  C   UNL A   1      44.490  22.421  24.056  1.00  0.00     0.016 A 
ATOM     12  C   UNL A   1      45.131  21.408  26.126  1.00  0.00     0.016 A 
ATOM     13  C   UNL A   1      44.543  23.678  24.623  1.00  0.00     0.010 A 
ATOM     14  C   UNL A   1      45.190  22.669  26.718  1.00  0.00     0.010 A 
ATOM     15  C   UNL A   1      44.916  23.803  25.949  1.00  0.00    -0.014 A 
BRANCH  15  16
ATOM     16  C   UNL A   1      45.251  25.152  26.405  1.00  0.00     0.031 A 
ATOM     17  C   UNL A   1      44.152  25.930  27.045  1.00  0.00     0.074 A 
ATOM     18  C   UNL A   1      46.526  25.568  26.390  1.00  0.00     0.049 A 
ATOM     19  N   UNL A   1      44.119  27.182  27.400  1.00  0.00    -0.248 NA
ATOM     20  C   UNL A   1      42.913  25.185  27.332  1.00  0.00     0.031 C 
ATOM     21  C   UNL A   1      47.673  24.760  25.968  1.00  0.00     0.029 A 
ATOM     22  N   UNL A   1      47.070  26.765  26.754  1.00  0.00    -0.354 N 
ATOM     23  C   UNL A   1      42.838  27.387  27.889  1.00  0.00     0.074 A 
ATOM     24  C   UNL A   1      42.126  26.136  27.804  1.00  0.00     0.031 C 
ATOM     25  C   UNL A   1      48.789  25.499  26.076  1.00  0.00     0.029 A 
ATOM     26  C   UNL A   1      48.412  26.847  26.484  1.00  0.00     0.049 A 
ATOM     27  H   UNL A   1      46.553  27.494  27.168  1.00  0.00     0.167 HD
ATOM     28  C   UNL A   1      42.314  28.547  28.342  1.00  0.00     0.037 A 
ATOM     29  C   UNL A   1      49.212  27.928  26.493  1.00  0.00     0.037 A 
ATOM     30  C   UNL A   1      43.084  29.759  28.398  1.00  0.00     0.049 A 
ATOM     31  C   UNL A   1      48.587  29.239  26.888  1.00  0.00     0.074 A 
ATOM     32  C   UNL A   1      42.688  31.027  28.770  1.00  0.00     0.029 A 
ATOM     33  N   UNL A   1      44.432  29.835  28.058  1.00  0.00    -0.354 N 
ATOM     34  N   UNL A   1      47.349  29.482  27.256  1.00  0.00    -0.248 NA
ATOM     35  C   UNL A   1      49.449  30.423  26.853  1.00  0.00     0.031 C 
ATOM     36  C   UNL A   1      43.782  31.882  28.591  1.00  0.00     0.029 A 
ATOM     37  C   UNL A   1      44.879  31.135  28.181  1.00  0.00     0.049 A 
ATOM     38  H   UNL A   1      44.985  29.073  27.771  1.00  0.00     0.167 HD
ATOM     39  C   UNL A   1      47.283  30.841  27.519  1.00  0.00     0.074 A 
ATOM     40  C   UNL A   1      48.614  31.367  27.271  1.00  0.00     0.031 C 
ATOM     41  C   UNL A   1      46.229  31.590  27.928  1.00  0.00     0.037 A 
BRANCH  28  42
ATOM     42  C   UNL A   1      40.848  28.550  28.661  1.00  0.00     0.064 A 
ATOM     43  C   UNL A   1      39.873  28.967  27.740  1.00  0.00     0.173 A 
ATOM     44  C   UNL A   1      40.421  28.224  29.959  1.00  0.00     0.173 A 
ATOM     45  F   UNL A   1      40.229  29.327  26.497  1.00  0.00    -0.203 F 
ATOM     46  C   UNL A   1      38.540  29.108  28.121  1.00  0.00     0.198 A 
ATOM     47  C   UNL A   1      39.082  28.332  30.325  1.00  0.00     0.198 A 
ATOM     48  F   UNL A   1      41.310  27.834  30.885  1.00  0.00    -0.203 F 
ATOM     49  F   UNL A   1      37.645  29.598  27.252  1.00  0.00    -0.200 F 
ATOM     50  C   UNL A   1      38.146  28.789  29.412  1.00  0.00     0.200 A 
ATOM     51  F   UNL A   1      38.705  28.022  31.573  1.00  0.00    -0.200 F 
ATOM     52  F   UNL A   1      36.867  28.947  29.784  1.00  0.00    -0.200 F 
ENDBRANCH  28  42
BRANCH  29  53
ATOM     53  C   UNL A   1      50.620  27.808  26.034  1.00  0.00     0.064 A 
ATOM     54  C   UNL A   1      50.954  27.849  24.675  1.00  0.00     0.173 A 
ATOM     55  C   UNL A   1      51.674  27.694  26.958  1.00  0.00     0.173 A 
ATOM     56  F   UNL A   1      49.987  27.941  23.750  1.00  0.00    -0.203 F 
ATOM     57  C   UNL A   1      52.284  27.776  24.258  1.00  0.00     0.198 A 
ATOM     58  C   UNL A   1      53.002  27.653  26.542  1.00  0.00     0.198 A 
ATOM     59  F   UNL A   1      51.413  27.653  28.273  1.00  0.00    -0.203 F 
ATOM     60  F   UNL A   1      52.575  27.788  22.950  1.00  0.00    -0.200 F 
ATOM     61  C   UNL A   1      53.306  27.688  25.191  1.00  0.00     0.200 A 
ATOM     62  F   UNL A   1      53.985  27.588  27.450  1.00  0.00    -0.200 F 
ATOM     63  F   UNL A   1      54.583  27.635  24.789  1.00  0.00    -0.200 F 
ENDBRANCH  29  53
BRANCH  41  64
ATOM     64  C   UNL A   1      46.488  33.043  28.178  1.00  0.00     0.064 A 
ATOM     65  C   UNL A   1      46.262  34.011  27.190  1.00  0.00     0.173 A 
ATOM     66  C   UNL A   1      46.866  33.473  29.458  1.00  0.00     0.173 A 
ATOM     67  F   UNL A   1      45.914  33.642  25.948  1.00  0.00    -0.203 F 
ATOM     68  C   UNL A   1      46.414  35.363  27.476  1.00  0.00     0.198 A 
ATOM     69  C   UNL A   1      46.981  34.827  29.750  1.00  0.00     0.198 A 
ATOM     70  F   UNL A   1      47.082  32.579  30.436  1.00  0.00    -0.203 F 
ATOM     71  F   UNL A   1      46.224  36.275  26.513  1.00  0.00    -0.200 F 
ATOM     72  C   UNL A   1      46.759  35.769  28.758  1.00  0.00     0.200 A 
ATOM     73  F   UNL A   1      47.293  35.218  30.993  1.00  0.00    -0.200 F 
ATOM     74  F   UNL A   1      46.874  37.075  29.038  1.00  0.00    -0.200 F 
ENDBRANCH  41  64
ENDBRANCH  15  16
ENDBRANCH   8  10
ENDBRANCH   7   8
ENDBRANCH   6   7
ENDBRANCH   5   6
ENDBRANCH   4   5
ENDBRANCH   3   4
ENDBRANCH   2   3
ENDBRANCH   1   2
BRANCH   1  75
ATOM     75  C   UNL A   1      37.690  22.294  25.310  1.00  0.00     0.188 C 
BRANCH  75  76
ATOM     76  C   UNL A   1      37.120  20.883  24.990  1.00  0.00     0.188 C 
BRANCH  76  77
ATOM     77  O   UNL A   1      35.778  20.700  25.412  1.00  0.00    -0.376 OA
BRANCH  77  78
ATOM     78  C   UNL A   1      35.230  21.466  26.478  1.00  0.00     0.202 C 
BRANCH  78  79
ATOM     79  C   UNL A   1      33.884  21.160  27.167  1.00  0.00     0.261 C 
BRANCH  79  80
ATOM     80  O   UNL A   1      32.887  22.166  27.060  1.00  0.00    -0.463 OA
BRANCH  80  81
ATOM     81  C   UNL A   1      32.078  22.163  25.959  1.00  0.00     0.310 C 
ATOM     82  O   UNL A   1      31.115  21.452  25.780  1.00  0.00    -0.252 OA
BRANCH  81  83
ATOM     83  C   UNL A   1      32.537  23.314  25.088  1.00  0.00     0.115 C 
ATOM     84  C   UNL A   1      33.555  22.916  24.011  1.00  0.00     0.004 C 
ATOM     85  C   UNL A   1      31.471  24.178  24.388  1.00  0.00     0.096 C 
ATOM     86  C   UNL A   1      32.963  21.832  23.126  1.00  0.00     0.005 C 
ATOM     87  C   UNL A   1      33.489  24.120  23.083  1.00  0.00     0.009 C 
ATOM     88  C   UNL A   1      31.965  24.052  22.938  1.00  0.00     0.003 C 
ATOM     89  C   UNL A   1      31.778  22.571  22.484  1.00  0.00     0.005 C 
BRANCH  85  90
ATOM     90  C   UNL A   1      31.398  25.535  25.168  1.00  0.00     0.226 C 
ATOM     91  O   UNL A   1      32.137  25.646  26.158  1.00  0.00    -0.275 OA
ATOM     92  N   UNL A   1      30.784  26.676  24.667  1.00  0.00    -0.339 N 
ATOM     93  C   UNL A   1      31.260  28.001  25.131  1.00  0.00     0.141 C 
ATOM     94  C   UNL A   1      29.415  26.739  24.144  1.00  0.00     0.141 C 
ATOM     95  C   UNL A   1      31.117  29.100  24.045  1.00  0.00     0.138 C 
ATOM     96  C   UNL A   1      29.252  27.807  23.044  1.00  0.00     0.138 C 
ATOM     97  N   UNL A   1      29.745  29.111  23.521  1.00  0.00    -0.368 N 
BRANCH  97  98
ATOM     98  C   UNL A   1      29.202  30.230  22.908  1.00  0.00     0.038 A 
ATOM     99  C   UNL A   1      28.576  30.078  21.658  1.00  0.00     0.026 A 
ATOM    100  C   UNL A   1      29.256  31.517  23.454  1.00  0.00     0.046 A 
ATOM    101  C   UNL A   1      28.027  31.163  20.970  1.00  0.00     0.004 A 
ATOM    102  C   UNL A   1      28.719  32.608  22.760  1.00  0.00     0.043 A 
ATOM    103  C   UNL A   1      28.103  32.436  21.521  1.00  0.00     0.020 A 
ATOM    104  Cl  UNL A   1      28.829  34.190  23.431  1.00  0.00    -0.084 Cl
ENDBRANCH  97  98
ENDBRANCH  85  90
ENDBRANCH  81  83
ENDBRANCH  80  81
ENDBRANCH  79  80
ENDBRANCH  78  79
ENDBRANCH  77  78
ENDBRANCH  76  77
ENDBRANCH  75  76
ENDBRANCH   1  75
TORSDOF 22
ENDMDL
