MODEL 1
REMARK VINA RESULT:     -11.0      0.000      0.000
REMARK SMILES Cc1ccc(C)c(/C=C2\SC(=S)N(CC(=O)OCCOCCOCCOCCOC(=O)c3ccc(-c4c5nc(c(-c6c(F)c(F)c(F)c(F)c6F)c6ccc([nH]6)c(-c6c(F)c(F)c(F)c(F)c6F)c6nc(c(-c7c(F)c(F)c(F)c(F)c7F)c7ccc4[nH]7)C=C6)C=C5)cc3)C2=O)c1
REMARK SMILES IDX 23 1 22 2 21 3 20 4 19 5 18 6 17 7 15 8 16 9 14 10 13 11
REMARK SMILES IDX 8 12 9 13 10 14 95 15 11 16 96 17 12 18 7 19 1 20 2 21 3 22
REMARK SMILES IDX 97 23 4 24 5 25 6 26 24 27 25 28 26 29 27 30 28 31 29 32
REMARK SMILES IDX 30 33 31 34 32 35 33 36 94 37 34 38 93 39 35 40 36 41 37 42
REMARK SMILES IDX 87 43 38 44 92 45 86 46 88 47 39 48 91 49 85 50 84 51 40 53
REMARK SMILES IDX 72 54 52 55 71 56 53 57 56 58 70 59 89 60 54 61 55 62 69 64
REMARK SMILES IDX 90 65 57 66 41 67 42 68 50 69 43 70 44 71 48 72 51 73 45 74
REMARK SMILES IDX 46 75 49 76 47 77 73 78 74 79 82 80 75 81 76 82 80 83 83 84
REMARK SMILES IDX 77 85 78 86 81 87 79 88 58 89 59 90 67 91 60 92 61 93 65 94
REMARK SMILES IDX 68 95 62 96 63 97 66 98 64 99
REMARK H PARENT 88 52 56 63
REMARK Flexibility Score: inf
ROOT
ATOM      1  O   UNL A   1      40.834  21.418  25.943  1.00  0.00    -0.377 OA
ENDROOT
BRANCH   1   2
ATOM      2  C   UNL A   1      39.764  22.081  26.594  1.00  0.00     0.188 C 
BRANCH   2   3
ATOM      3  C   UNL A   1      38.421  22.369  25.942  1.00  0.00     0.188 C 
BRANCH   3   4
ATOM      4  O   UNL A   1      37.906  21.465  24.990  1.00  0.00    -0.376 OA
BRANCH   4   5
ATOM      5  C   UNL A   1      37.055  21.977  23.975  1.00  0.00     0.202 C 
BRANCH   5   6
ATOM      6  C   UNL A   1      36.227  23.220  24.319  1.00  0.00     0.261 C 
BRANCH   6   7
ATOM      7  O   UNL A   1      35.177  22.922  25.280  1.00  0.00    -0.462 OA
BRANCH   7   8
ATOM      8  C   UNL A   1      34.204  22.073  24.844  1.00  0.00     0.326 C 
ATOM      9  O   UNL A   1      34.067  20.942  25.291  1.00  0.00    -0.250 OA
BRANCH   8  10
ATOM     10  C   UNL A   1      33.358  22.614  23.686  1.00  0.00     0.250 C 
BRANCH  10  11
ATOM     11  N   UNL A   1      32.562  23.823  23.950  1.00  0.00    -0.282 N 
ATOM     12  C   UNL A   1      31.852  27.231  22.913  1.00  0.00     0.029 C 
ATOM     13  C   UNL A   1      31.914  26.075  23.599  1.00  0.00     0.081 C 
ATOM     14  S   UNL A   1      30.901  25.559  24.890  1.00  0.00    -0.054 SA
ATOM     15  C   UNL A   1      32.896  24.999  23.295  1.00  0.00     0.266 C 
ATOM     16  C   UNL A   1      31.518  23.910  24.845  1.00  0.00     0.148 C 
ATOM     17  O   UNL A   1      33.851  25.166  22.552  1.00  0.00    -0.268 OA
ATOM     18  S   UNL A   1      30.880  22.705  25.804  1.00  0.00    -0.052 S 
BRANCH  12  19
ATOM     19  C   UNL A   1      31.017  28.361  23.351  1.00  0.00    -0.021 A 
ATOM     20  C   UNL A   1      27.919  29.890  21.790  1.00  0.00     0.044 C 
ATOM     21  C   UNL A   1      29.059  29.671  22.731  1.00  0.00    -0.051 A 
ATOM     22  C   UNL A   1      29.411  30.634  23.677  1.00  0.00     0.004 A 
ATOM     23  C   UNL A   1      29.838  28.522  22.614  1.00  0.00     0.011 A 
ATOM     24  C   UNL A   1      30.532  30.447  24.483  1.00  0.00     0.004 A 
ATOM     25  C   UNL A   1      31.358  29.323  24.319  1.00  0.00    -0.044 A 
ATOM     26  C   UNL A   1      32.566  29.234  25.195  1.00  0.00     0.045 C 
ENDBRANCH  12  19
ENDBRANCH  10  11
ENDBRANCH   8  10
ENDBRANCH   7   8
ENDBRANCH   6   7
ENDBRANCH   5   6
ENDBRANCH   4   5
ENDBRANCH   3   4
ENDBRANCH   2   3
ENDBRANCH   1   2
BRANCH   1  27
ATOM     27  C   UNL A   1      41.934  21.008  26.730  1.00  0.00     0.188 C 
BRANCH  27  28
ATOM     28  C   UNL A   1      41.772  19.666  27.454  1.00  0.00     0.188 C 
BRANCH  28  29
ATOM     29  O   UNL A   1      42.649  18.668  26.953  1.00  0.00    -0.376 OA
BRANCH  29  30
ATOM     30  C   UNL A   1      43.153  18.833  25.638  1.00  0.00     0.202 C 
BRANCH  30  31
ATOM     31  C   UNL A   1      44.652  18.551  25.479  1.00  0.00     0.261 C 
BRANCH  31  32
ATOM     32  O   UNL A   1      45.494  19.652  25.072  1.00  0.00    -0.460 OA
BRANCH  32  33
ATOM     33  C   UNL A   1      44.996  20.539  24.167  1.00  0.00     0.338 C 
ATOM     34  O   UNL A   1      44.682  20.272  23.036  1.00  0.00    -0.246 OA
BRANCH  33  35
ATOM     35  C   UNL A   1      44.930  21.894  24.784  1.00  0.00     0.060 A 
ATOM     36  C   UNL A   1      45.560  22.086  26.009  1.00  0.00     0.016 A 
ATOM     37  C   UNL A   1      44.065  22.872  24.264  1.00  0.00     0.016 A 
ATOM     38  C   UNL A   1      45.189  23.188  26.768  1.00  0.00     0.010 A 
ATOM     39  C   UNL A   1      43.636  23.928  25.061  1.00  0.00     0.010 A 
ATOM     40  C   UNL A   1      44.150  24.052  26.345  1.00  0.00    -0.014 A 
BRANCH  40  41
ATOM     41  C   UNL A   1      43.900  25.249  27.164  1.00  0.00     0.031 A 
ATOM     42  C   UNL A   1      45.108  26.090  27.128  1.00  0.00     0.074 A 
ATOM     43  C   UNL A   1      42.775  25.650  27.802  1.00  0.00     0.049 A 
ATOM     44  N   UNL A   1      45.893  26.354  28.117  1.00  0.00    -0.248 NA
ATOM     45  C   UNL A   1      45.636  26.464  25.799  1.00  0.00     0.031 C 
ATOM     46  C   UNL A   1      41.482  24.981  27.742  1.00  0.00     0.029 A 
ATOM     47  N   UNL A   1      42.517  26.752  28.611  1.00  0.00    -0.354 N 
ATOM     48  C   UNL A   1      46.849  27.184  27.563  1.00  0.00     0.074 A 
ATOM     49  C   UNL A   1      46.796  27.024  26.132  1.00  0.00     0.031 C 
ATOM     50  C   UNL A   1      40.546  25.744  28.344  1.00  0.00     0.029 A 
ATOM     51  C   UNL A   1      41.155  26.950  28.882  1.00  0.00     0.049 A 
ATOM     52  H   UNL A   1      43.226  27.339  28.961  1.00  0.00     0.167 HD
ATOM     53  C   UNL A   1      47.236  28.274  28.268  1.00  0.00     0.037 A 
ATOM     54  C   UNL A   1      40.534  28.015  29.469  1.00  0.00     0.037 A 
ATOM     55  C   UNL A   1      47.032  28.121  29.678  1.00  0.00     0.049 A 
ATOM     56  C   UNL A   1      41.539  28.796  30.231  1.00  0.00     0.074 A 
ATOM     57  C   UNL A   1      47.630  27.388  30.678  1.00  0.00     0.029 A 
ATOM     58  N   UNL A   1      45.794  28.488  30.129  1.00  0.00    -0.354 N 
ATOM     59  N   UNL A   1      41.970  28.475  31.418  1.00  0.00    -0.248 NA
ATOM     60  C   UNL A   1      42.284  29.862  29.569  1.00  0.00     0.031 C 
ATOM     61  C   UNL A   1      46.702  27.335  31.756  1.00  0.00     0.029 A 
ATOM     62  C   UNL A   1      45.565  28.063  31.414  1.00  0.00     0.049 A 
ATOM     63  H   UNL A   1      45.143  28.998  29.595  1.00  0.00     0.167 HD
ATOM     64  C   UNL A   1      43.266  28.936  31.437  1.00  0.00     0.074 A 
ATOM     65  C   UNL A   1      43.344  29.928  30.378  1.00  0.00     0.031 C 
ATOM     66  C   UNL A   1      44.252  28.201  32.021  1.00  0.00     0.037 A 
BRANCH  53  67
ATOM     67  C   UNL A   1      47.250  29.609  27.595  1.00  0.00     0.064 A 
ATOM     68  C   UNL A   1      48.397  30.403  27.620  1.00  0.00     0.173 A 
ATOM     69  C   UNL A   1      46.068  30.221  27.111  1.00  0.00     0.173 A 
ATOM     70  F   UNL A   1      49.532  29.932  28.154  1.00  0.00    -0.203 F 
ATOM     71  C   UNL A   1      48.371  31.716  27.144  1.00  0.00     0.198 A 
ATOM     72  C   UNL A   1      46.061  31.498  26.571  1.00  0.00     0.198 A 
ATOM     73  F   UNL A   1      44.870  29.633  27.244  1.00  0.00    -0.203 F 
ATOM     74  F   UNL A   1      49.466  32.480  27.249  1.00  0.00    -0.200 F 
ATOM     75  C   UNL A   1      47.213  32.252  26.598  1.00  0.00     0.200 A 
ATOM     76  F   UNL A   1      44.921  32.006  26.084  1.00  0.00    -0.200 F 
ATOM     77  F   UNL A   1      47.193  33.513  26.147  1.00  0.00    -0.200 F 
ENDBRANCH  53  67
BRANCH  54  78
ATOM     78  C   UNL A   1      39.112  28.489  29.395  1.00  0.00     0.064 A 
ATOM     79  C   UNL A   1      38.310  28.609  30.554  1.00  0.00     0.173 A 
ATOM     80  C   UNL A   1      38.563  29.060  28.230  1.00  0.00     0.173 A 
ATOM     81  F   UNL A   1      38.738  28.141  31.736  1.00  0.00    -0.203 F 
ATOM     82  C   UNL A   1      37.075  29.274  30.547  1.00  0.00     0.198 A 
ATOM     83  C   UNL A   1      37.319  29.698  28.217  1.00  0.00     0.198 A 
ATOM     84  F   UNL A   1      39.250  29.099  27.083  1.00  0.00    -0.203 F 
ATOM     85  F   UNL A   1      36.388  29.425  31.688  1.00  0.00    -0.200 F 
ATOM     86  C   UNL A   1      36.584  29.824  29.378  1.00  0.00     0.200 A 
ATOM     87  F   UNL A   1      36.867  30.244  27.079  1.00  0.00    -0.200 F 
ATOM     88  F   UNL A   1      35.430  30.507  29.377  1.00  0.00    -0.200 F 
ENDBRANCH  54  78
BRANCH  66  89
ATOM     89  C   UNL A   1      43.932  27.393  33.248  1.00  0.00     0.064 A 
ATOM     90  C   UNL A   1      43.853  25.995  33.321  1.00  0.00     0.173 A 
ATOM     91  C   UNL A   1      43.773  28.097  34.455  1.00  0.00     0.173 A 
ATOM     92  F   UNL A   1      43.912  25.223  32.230  1.00  0.00    -0.203 F 
ATOM     93  C   UNL A   1      43.715  25.337  34.543  1.00  0.00     0.198 A 
ATOM     94  C   UNL A   1      43.630  27.440  35.674  1.00  0.00     0.198 A 
ATOM     95  F   UNL A   1      43.784  29.440  34.459  1.00  0.00    -0.203 F 
ATOM     96  F   UNL A   1      43.700  23.997  34.577  1.00  0.00    -0.200 F 
ATOM     97  C   UNL A   1      43.619  26.058  35.719  1.00  0.00     0.200 A 
ATOM     98  F   UNL A   1      43.531  28.151  36.805  1.00  0.00    -0.200 F 
ATOM     99  F   UNL A   1      43.515  25.423  36.894  1.00  0.00    -0.200 F 
ENDBRANCH  66  89
ENDBRANCH  40  41
ENDBRANCH  33  35
ENDBRANCH  32  33
ENDBRANCH  31  32
ENDBRANCH  30  31
ENDBRANCH  29  30
ENDBRANCH  28  29
ENDBRANCH  27  28
ENDBRANCH   1  27
TORSDOF 22
ENDMDL
MODEL 2
REMARK VINA RESULT:     -10.1      3.620      9.582
REMARK SMILES Cc1ccc(C)c(/C=C2\SC(=S)N(CC(=O)OCCOCCOCCOCCOC(=O)c3ccc(-c4c5nc(c(-c6c(F)c(F)c(F)c(F)c6F)c6ccc([nH]6)c(-c6c(F)c(F)c(F)c(F)c6F)c6nc(c(-c7c(F)c(F)c(F)c(F)c7F)c7ccc4[nH]7)C=C6)C=C5)cc3)C2=O)c1
REMARK SMILES IDX 23 1 22 2 21 3 20 4 19 5 18 6 17 7 15 8 16 9 14 10 13 11
REMARK SMILES IDX 8 12 9 13 10 14 95 15 11 16 96 17 12 18 7 19 1 20 2 21 3 22
REMARK SMILES IDX 97 23 4 24 5 25 6 26 24 27 25 28 26 29 27 30 28 31 29 32
REMARK SMILES IDX 30 33 31 34 32 35 33 36 94 37 34 38 93 39 35 40 36 41 37 42
REMARK SMILES IDX 87 43 38 44 92 45 86 46 88 47 39 48 91 49 85 50 84 51 40 53
REMARK SMILES IDX 72 54 52 55 71 56 53 57 56 58 70 59 89 60 54 61 55 62 69 64
REMARK SMILES IDX 90 65 57 66 41 67 42 68 50 69 43 70 44 71 48 72 51 73 45 74
REMARK SMILES IDX 46 75 49 76 47 77 73 78 74 79 82 80 75 81 76 82 80 83 83 84
REMARK SMILES IDX 77 85 78 86 81 87 79 88 58 89 59 90 67 91 60 92 61 93 65 94
REMARK SMILES IDX 68 95 62 96 63 97 66 98 64 99
REMARK H PARENT 88 52 56 63
REMARK Flexibility Score: inf
ROOT
ATOM      1  O   UNL A   1      31.203  27.835  21.701  1.00  0.00    -0.377 OA
ENDROOT
BRANCH   1   2
ATOM      2  C   UNL A   1      31.285  26.435  21.498  1.00  0.00     0.188 C 
BRANCH   2   3
ATOM      3  C   UNL A   1      32.532  25.721  20.999  1.00  0.00     0.188 C 
BRANCH   3   4
ATOM      4  O   UNL A   1      33.771  25.973  21.626  1.00  0.00    -0.376 OA
BRANCH   4   5
ATOM      5  C   UNL A   1      34.051  25.300  22.845  1.00  0.00     0.202 C 
BRANCH   5   6
ATOM      6  C   UNL A   1      33.650  26.010  24.142  1.00  0.00     0.261 C 
BRANCH   6   7
ATOM      7  O   UNL A   1      32.406  25.486  24.683  1.00  0.00    -0.462 OA
BRANCH   7   8
ATOM      8  C   UNL A   1      32.351  25.384  26.041  1.00  0.00     0.326 C 
ATOM      9  O   UNL A   1      31.542  26.006  26.716  1.00  0.00    -0.250 OA
BRANCH   8  10
ATOM     10  C   UNL A   1      33.442  24.503  26.659  1.00  0.00     0.250 C 
BRANCH  10  11
ATOM     11  N   UNL A   1      33.691  23.201  26.019  1.00  0.00    -0.282 N 
ATOM     12  C   UNL A   1      32.194  20.127  24.793  1.00  0.00     0.029 C 
ATOM     13  C   UNL A   1      33.067  21.068  25.198  1.00  0.00     0.081 C 
ATOM     14  S   UNL A   1      34.757  21.143  24.885  1.00  0.00    -0.054 SA
ATOM     15  C   UNL A   1      32.666  22.268  25.981  1.00  0.00     0.266 C 
ATOM     16  C   UNL A   1      34.892  22.795  25.480  1.00  0.00     0.148 C 
ATOM     17  O   UNL A   1      31.565  22.383  26.499  1.00  0.00    -0.268 OA
ATOM     18  S   UNL A   1      36.319  23.651  25.381  1.00  0.00    -0.052 S 
BRANCH  12  19
ATOM     19  C   UNL A   1      32.630  18.853  24.199  1.00  0.00    -0.021 A 
ATOM     20  C   UNL A   1      34.620  15.990  25.690  1.00  0.00     0.044 C 
ATOM     21  C   UNL A   1      33.871  16.816  24.694  1.00  0.00    -0.051 A 
ATOM     22  C   UNL A   1      33.903  16.512  23.333  1.00  0.00     0.004 A 
ATOM     23  C   UNL A   1      33.191  17.956  25.117  1.00  0.00     0.011 A 
ATOM     24  C   UNL A   1      33.271  17.347  22.413  1.00  0.00     0.004 A 
ATOM     25  C   UNL A   1      32.645  18.534  22.830  1.00  0.00    -0.044 A 
ATOM     26  C   UNL A   1      32.038  19.390  21.766  1.00  0.00     0.045 C 
ENDBRANCH  12  19
ENDBRANCH  10  11
ENDBRANCH   8  10
ENDBRANCH   7   8
ENDBRANCH   6   7
ENDBRANCH   5   6
ENDBRANCH   4   5
ENDBRANCH   3   4
ENDBRANCH   2   3
ENDBRANCH   1   2
BRANCH   1  27
ATOM     27  C   UNL A   1      30.672  28.294  22.928  1.00  0.00     0.188 C 
BRANCH  27  28
ATOM     28  C   UNL A   1      31.666  28.990  23.865  1.00  0.00     0.188 C 
BRANCH  28  29
ATOM     29  O   UNL A   1      31.024  29.650  24.945  1.00  0.00    -0.376 OA
BRANCH  29  30
ATOM     30  C   UNL A   1      31.636  29.577  26.222  1.00  0.00     0.202 C 
BRANCH  30  31
ATOM     31  C   UNL A   1      32.386  30.842  26.655  1.00  0.00     0.261 C 
BRANCH  31  32
ATOM     32  O   UNL A   1      33.736  30.678  27.144  1.00  0.00    -0.460 OA
BRANCH  32  33
ATOM     33  C   UNL A   1      34.290  31.702  27.851  1.00  0.00     0.338 C 
ATOM     34  O   UNL A   1      33.828  32.810  27.940  1.00  0.00    -0.246 OA
BRANCH  33  35
ATOM     35  C   UNL A   1      35.567  31.245  28.467  1.00  0.00     0.060 A 
ATOM     36  C   UNL A   1      36.603  32.164  28.584  1.00  0.00     0.016 A 
ATOM     37  C   UNL A   1      35.795  29.877  28.702  1.00  0.00     0.016 A 
ATOM     38  C   UNL A   1      37.889  31.678  28.780  1.00  0.00     0.010 A 
ATOM     39  C   UNL A   1      37.092  29.389  28.817  1.00  0.00     0.010 A 
ATOM     40  C   UNL A   1      38.152  30.286  28.790  1.00  0.00    -0.014 A 
BRANCH  40  41
ATOM     41  C   UNL A   1      39.526  29.867  29.108  1.00  0.00     0.031 A 
ATOM     42  C   UNL A   1      39.822  30.278  30.491  1.00  0.00     0.074 A 
ATOM     43  C   UNL A   1      40.412  29.151  28.376  1.00  0.00     0.049 A 
ATOM     44  N   UNL A   1      40.682  31.164  30.865  1.00  0.00    -0.248 NA
ATOM     45  C   UNL A   1      38.883  29.842  31.546  1.00  0.00     0.031 C 
ATOM     46  C   UNL A   1      40.144  28.545  27.078  1.00  0.00     0.029 A 
ATOM     47  N   UNL A   1      41.725  28.771  28.631  1.00  0.00    -0.354 N 
ATOM     48  C   UNL A   1      40.580  31.159  32.243  1.00  0.00     0.074 A 
ATOM     49  C   UNL A   1      39.328  30.537  32.589  1.00  0.00     0.031 C 
ATOM     50  C   UNL A   1      41.181  27.759  26.720  1.00  0.00     0.029 A 
ATOM     51  C   UNL A   1      42.225  27.819  27.730  1.00  0.00     0.049 A 
ATOM     52  H   UNL A   1      42.254  29.136  29.377  1.00  0.00     0.167 HD
ATOM     53  C   UNL A   1      41.723  31.198  32.969  1.00  0.00     0.037 A 
ATOM     54  C   UNL A   1      43.381  27.094  27.788  1.00  0.00     0.037 A 
ATOM     55  C   UNL A   1      42.813  31.789  32.252  1.00  0.00     0.049 A 
ATOM     56  C   UNL A   1      44.321  27.764  28.721  1.00  0.00     0.074 A 
ATOM     57  C   UNL A   1      43.144  33.065  31.852  1.00  0.00     0.029 A 
ATOM     58  N   UNL A   1      43.541  30.923  31.483  1.00  0.00    -0.354 N 
ATOM     59  N   UNL A   1      45.056  28.792  28.408  1.00  0.00    -0.248 NA
ATOM     60  C   UNL A   1      44.289  27.434  30.143  1.00  0.00     0.031 C 
ATOM     61  C   UNL A   1      44.108  32.930  30.814  1.00  0.00     0.029 A 
ATOM     62  C   UNL A   1      44.379  31.578  30.616  1.00  0.00     0.049 A 
ATOM     63  H   UNL A   1      43.472  29.942  31.544  1.00  0.00     0.167 HD
ATOM     64  C   UNL A   1      45.173  29.489  29.589  1.00  0.00     0.074 A 
ATOM     65  C   UNL A   1      44.857  28.535  30.639  1.00  0.00     0.031 C 
ATOM     66  C   UNL A   1      45.114  30.849  29.596  1.00  0.00     0.037 A 
BRANCH  53  67
ATOM     67  C   UNL A   1      41.924  30.200  34.064  1.00  0.00     0.064 A 
ATOM     68  C   UNL A   1      42.295  30.617  35.343  1.00  0.00     0.173 A 
ATOM     69  C   UNL A   1      41.974  28.807  33.814  1.00  0.00     0.173 A 
ATOM     70  F   UNL A   1      42.370  31.924  35.631  1.00  0.00    -0.203 F 
ATOM     71  C   UNL A   1      42.649  29.690  36.326  1.00  0.00     0.198 A 
ATOM     72  C   UNL A   1      42.252  27.884  34.810  1.00  0.00     0.198 A 
ATOM     73  F   UNL A   1      41.852  28.313  32.573  1.00  0.00    -0.203 F 
ATOM     74  F   UNL A   1      43.074  30.120  37.521  1.00  0.00    -0.200 F 
ATOM     75  C   UNL A   1      42.603  28.327  36.066  1.00  0.00     0.200 A 
ATOM     76  F   UNL A   1      42.238  26.575  34.525  1.00  0.00    -0.200 F 
ATOM     77  F   UNL A   1      42.946  27.442  37.011  1.00  0.00    -0.200 F 
ENDBRANCH  53  67
BRANCH  54  78
ATOM     78  C   UNL A   1      43.763  25.795  27.140  1.00  0.00     0.064 A 
ATOM     79  C   UNL A   1      42.938  24.650  27.238  1.00  0.00     0.173 A 
ATOM     80  C   UNL A   1      44.819  25.691  26.215  1.00  0.00     0.173 A 
ATOM     81  F   UNL A   1      41.874  24.637  28.054  1.00  0.00    -0.203 F 
ATOM     82  C   UNL A   1      43.143  23.509  26.448  1.00  0.00     0.198 A 
ATOM     83  C   UNL A   1      45.039  24.543  25.448  1.00  0.00     0.198 A 
ATOM     84  F   UNL A   1      45.622  26.729  25.955  1.00  0.00    -0.203 F 
ATOM     85  F   UNL A   1      42.289  22.478  26.524  1.00  0.00    -0.200 F 
ATOM     86  C   UNL A   1      44.191  23.460  25.548  1.00  0.00     0.200 A 
ATOM     87  F   UNL A   1      46.049  24.520  24.566  1.00  0.00    -0.200 F 
ATOM     88  F   UNL A   1      44.359  22.394  24.753  1.00  0.00    -0.200 F 
ENDBRANCH  54  78
BRANCH  66  89
ATOM     89  C   UNL A   1      45.700  31.612  28.441  1.00  0.00     0.064 A 
ATOM     90  C   UNL A   1      44.994  32.123  27.342  1.00  0.00     0.173 A 
ATOM     91  C   UNL A   1      47.073  31.912  28.502  1.00  0.00     0.173 A 
ATOM     92  F   UNL A   1      43.703  31.840  27.135  1.00  0.00    -0.203 F 
ATOM     93  C   UNL A   1      45.606  32.959  26.409  1.00  0.00     0.198 A 
ATOM     94  C   UNL A   1      47.685  32.744  27.568  1.00  0.00     0.198 A 
ATOM     95  F   UNL A   1      47.828  31.417  29.496  1.00  0.00    -0.203 F 
ATOM     96  F   UNL A   1      44.883  33.473  25.404  1.00  0.00    -0.200 F 
ATOM     97  C   UNL A   1      46.945  33.281  26.531  1.00  0.00     0.200 A 
ATOM     98  F   UNL A   1      48.984  33.043  27.693  1.00  0.00    -0.200 F 
ATOM     99  F   UNL A   1      47.523  34.109  25.649  1.00  0.00    -0.200 F 
ENDBRANCH  66  89
ENDBRANCH  40  41
ENDBRANCH  33  35
ENDBRANCH  32  33
ENDBRANCH  31  32
ENDBRANCH  30  31
ENDBRANCH  29  30
ENDBRANCH  28  29
ENDBRANCH  27  28
ENDBRANCH   1  27
TORSDOF 22
ENDMDL
MODEL 3
REMARK VINA RESULT:      -9.9      3.699      5.366
REMARK SMILES Cc1ccc(C)c(/C=C2\SC(=S)N(CC(=O)OCCOCCOCCOCCOC(=O)c3ccc(-c4c5nc(c(-c6c(F)c(F)c(F)c(F)c6F)c6ccc([nH]6)c(-c6c(F)c(F)c(F)c(F)c6F)c6nc(c(-c7c(F)c(F)c(F)c(F)c7F)c7ccc4[nH]7)C=C6)C=C5)cc3)C2=O)c1
REMARK SMILES IDX 23 1 22 2 21 3 20 4 19 5 18 6 17 7 15 8 16 9 14 10 13 11
REMARK SMILES IDX 8 12 9 13 10 14 95 15 11 16 96 17 12 18 7 19 1 20 2 21 3 22
REMARK SMILES IDX 97 23 4 24 5 25 6 26 24 27 25 28 26 29 27 30 28 31 29 32
REMARK SMILES IDX 30 33 31 34 32 35 33 36 94 37 34 38 93 39 35 40 36 41 37 42
REMARK SMILES IDX 87 43 38 44 92 45 86 46 88 47 39 48 91 49 85 50 84 51 40 53
REMARK SMILES IDX 72 54 52 55 71 56 53 57 56 58 70 59 89 60 54 61 55 62 69 64
REMARK SMILES IDX 90 65 57 66 41 67 42 68 50 69 43 70 44 71 48 72 51 73 45 74
REMARK SMILES IDX 46 75 49 76 47 77 73 78 74 79 82 80 75 81 76 82 80 83 83 84
REMARK SMILES IDX 77 85 78 86 81 87 79 88 58 89 59 90 67 91 60 92 61 93 65 94
REMARK SMILES IDX 68 95 62 96 63 97 66 98 64 99
REMARK H PARENT 88 52 56 63
REMARK Flexibility Score: inf
ROOT
ATOM      1  O   UNL A   1      39.291  22.719  26.356  1.00  0.00    -0.377 OA
ENDROOT
BRANCH   1   2
ATOM      2  C   UNL A   1      38.624  21.628  25.744  1.00  0.00     0.188 C 
BRANCH   2   3
ATOM      3  C   UNL A   1      37.342  21.761  24.938  1.00  0.00     0.188 C 
BRANCH   3   4
ATOM      4  O   UNL A   1      36.321  22.620  25.399  1.00  0.00    -0.376 OA
BRANCH   4   5
ATOM      5  C   UNL A   1      35.124  22.032  25.886  1.00  0.00     0.202 C 
BRANCH   5   6
ATOM      6  C   UNL A   1      34.647  20.748  25.201  1.00  0.00     0.261 C 
BRANCH   6   7
ATOM      7  O   UNL A   1      33.670  21.021  24.159  1.00  0.00    -0.462 OA
BRANCH   7   8
ATOM      8  C   UNL A   1      32.365  20.962  24.547  1.00  0.00     0.326 C 
ATOM      9  O   UNL A   1      31.931  20.075  25.270  1.00  0.00    -0.250 OA
BRANCH   8  10
ATOM     10  C   UNL A   1      31.467  22.040  23.930  1.00  0.00     0.250 C 
BRANCH  10  11
ATOM     11  N   UNL A   1      31.920  23.435  24.051  1.00  0.00    -0.282 N 
ATOM     12  C   UNL A   1      32.121  26.346  26.214  1.00  0.00     0.029 C 
ATOM     13  C   UNL A   1      32.151  25.521  25.152  1.00  0.00     0.081 C 
ATOM     14  S   UNL A   1      32.944  25.769  23.645  1.00  0.00    -0.054 SA
ATOM     15  C   UNL A   1      31.502  24.181  25.142  1.00  0.00     0.266 C 
ATOM     16  C   UNL A   1      32.704  24.101  23.134  1.00  0.00     0.148 C 
ATOM     17  O   UNL A   1      30.717  23.821  26.006  1.00  0.00    -0.268 OA
ATOM     18  S   UNL A   1      33.353  23.514  21.715  1.00  0.00    -0.052 S 
BRANCH  12  19
ATOM     19  C   UNL A   1      32.589  27.740  26.141  1.00  0.00    -0.021 A 
ATOM     20  C   UNL A   1      35.308  29.534  28.081  1.00  0.00     0.044 C 
ATOM     21  C   UNL A   1      34.185  29.296  27.123  1.00  0.00    -0.051 A 
ATOM     22  C   UNL A   1      33.511  30.358  26.521  1.00  0.00     0.004 A 
ATOM     23  C   UNL A   1      33.747  27.995  26.886  1.00  0.00     0.011 A 
ATOM     24  C   UNL A   1      32.410  30.116  25.702  1.00  0.00     0.004 A 
ATOM     25  C   UNL A   1      31.924  28.811  25.517  1.00  0.00    -0.044 A 
ATOM     26  C   UNL A   1      30.708  28.654  24.661  1.00  0.00     0.045 C 
ENDBRANCH  12  19
ENDBRANCH  10  11
ENDBRANCH   8  10
ENDBRANCH   7   8
ENDBRANCH   6   7
ENDBRANCH   5   6
ENDBRANCH   4   5
ENDBRANCH   3   4
ENDBRANCH   2   3
ENDBRANCH   1   2
BRANCH   1  27
ATOM     27  C   UNL A   1      40.497  22.453  27.045  1.00  0.00     0.188 C 
BRANCH  27  28
ATOM     28  C   UNL A   1      41.428  21.428  26.386  1.00  0.00     0.188 C 
BRANCH  28  29
ATOM     29  O   UNL A   1      42.227  21.999  25.362  1.00  0.00    -0.376 OA
BRANCH  29  30
ATOM     30  C   UNL A   1      43.073  23.083  25.711  1.00  0.00     0.202 C 
BRANCH  30  31
ATOM     31  C   UNL A   1      44.035  22.807  26.872  1.00  0.00     0.261 C 
BRANCH  31  32
ATOM     32  O   UNL A   1      44.242  23.868  27.830  1.00  0.00    -0.460 OA
BRANCH  32  33
ATOM     33  C   UNL A   1      43.245  24.129  28.721  1.00  0.00     0.338 C 
ATOM     34  O   UNL A   1      42.622  23.295  29.325  1.00  0.00    -0.246 OA
BRANCH  33  35
ATOM     35  C   UNL A   1      43.029  25.601  28.806  1.00  0.00     0.060 A 
ATOM     36  C   UNL A   1      43.650  26.295  29.837  1.00  0.00     0.016 A 
ATOM     37  C   UNL A   1      42.044  26.222  28.018  1.00  0.00     0.016 A 
ATOM     38  C   UNL A   1      43.163  27.554  30.164  1.00  0.00     0.010 A 
ATOM     39  C   UNL A   1      41.505  27.446  28.399  1.00  0.00     0.010 A 
ATOM     40  C   UNL A   1      42.021  28.087  29.517  1.00  0.00    -0.014 A 
BRANCH  40  41
ATOM     41  C   UNL A   1      41.643  29.468  29.858  1.00  0.00     0.031 A 
ATOM     42  C   UNL A   1      42.823  30.327  29.665  1.00  0.00     0.074 A 
ATOM     43  C   UNL A   1      40.440  29.983  30.207  1.00  0.00     0.049 A 
ATOM     44  N   UNL A   1      43.479  30.954  30.582  1.00  0.00    -0.248 NA
ATOM     45  C   UNL A   1      43.493  30.276  28.348  1.00  0.00     0.031 C 
ATOM     46  C   UNL A   1      39.182  29.248  30.243  1.00  0.00     0.029 A 
ATOM     47  N   UNL A   1      40.058  31.270  30.569  1.00  0.00    -0.354 N 
ATOM     48  C   UNL A   1      44.470  31.615  29.883  1.00  0.00     0.074 A 
ATOM     49  C   UNL A   1      44.591  30.989  28.591  1.00  0.00     0.031 C 
ATOM     50  C   UNL A   1      38.161  30.104  30.456  1.00  0.00     0.029 A 
ATOM     51  C   UNL A   1      38.668  31.457  30.617  1.00  0.00     0.049 A 
ATOM     52  H   UNL A   1      40.705  31.985  30.771  1.00  0.00     0.167 HD
ATOM     53  C   UNL A   1      44.741  32.899  30.217  1.00  0.00     0.037 A 
ATOM     54  C   UNL A   1      37.954  32.613  30.747  1.00  0.00     0.037 A 
ATOM     55  C   UNL A   1      44.377  33.207  31.568  1.00  0.00     0.049 A 
ATOM     56  C   UNL A   1      38.840  33.666  31.302  1.00  0.00     0.074 A 
ATOM     57  C   UNL A   1      44.873  32.886  32.812  1.00  0.00     0.029 A 
ATOM     58  N   UNL A   1      43.085  33.621  31.742  1.00  0.00    -0.354 N 
ATOM     59  N   UNL A   1      39.136  33.783  32.565  1.00  0.00    -0.248 NA
ATOM     60  C   UNL A   1      39.628  34.500  30.399  1.00  0.00     0.031 C 
ATOM     61  C   UNL A   1      43.826  33.131  33.745  1.00  0.00     0.029 A 
ATOM     62  C   UNL A   1      42.717  33.629  33.065  1.00  0.00     0.049 A 
ATOM     63  H   UNL A   1      42.487  33.882  31.005  1.00  0.00     0.167 HD
ATOM     64  C   UNL A   1      40.408  34.309  32.560  1.00  0.00     0.074 A 
ATOM     65  C   UNL A   1      40.583  34.899  31.243  1.00  0.00     0.031 C 
ATOM     66  C   UNL A   1      41.338  33.873  33.453  1.00  0.00     0.037 A 
BRANCH  53  67
ATOM     67  C   UNL A   1      44.796  33.936  29.140  1.00  0.00     0.064 A 
ATOM     68  C   UNL A   1      45.950  34.697  28.950  1.00  0.00     0.173 A 
ATOM     69  C   UNL A   1      43.642  34.347  28.431  1.00  0.00     0.173 A 
ATOM     70  F   UNL A   1      47.057  34.435  29.659  1.00  0.00    -0.203 F 
ATOM     71  C   UNL A   1      45.958  35.778  28.065  1.00  0.00     0.198 A 
ATOM     72  C   UNL A   1      43.671  35.373  27.498  1.00  0.00     0.198 A 
ATOM     73  F   UNL A   1      42.434  33.832  28.699  1.00  0.00    -0.203 F 
ATOM     74  F   UNL A   1      47.055  36.539  27.958  1.00  0.00    -0.200 F 
ATOM     75  C   UNL A   1      44.829  36.098  27.323  1.00  0.00     0.200 A 
ATOM     76  F   UNL A   1      42.558  35.686  26.822  1.00  0.00    -0.200 F 
ATOM     77  F   UNL A   1      44.841  37.137  26.479  1.00  0.00    -0.200 F 
ENDBRANCH  53  67
BRANCH  54  78
ATOM     78  C   UNL A   1      36.537  32.942  30.374  1.00  0.00     0.064 A 
ATOM     79  C   UNL A   1      35.635  33.495  31.312  1.00  0.00     0.173 A 
ATOM     80  C   UNL A   1      36.087  32.946  29.039  1.00  0.00     0.173 A 
ATOM     81  F   UNL A   1      35.962  33.585  32.609  1.00  0.00    -0.203 F 
ATOM     82  C   UNL A   1      34.397  34.035  30.932  1.00  0.00     0.198 A 
ATOM     83  C   UNL A   1      34.841  33.459  28.666  1.00  0.00     0.198 A 
ATOM     84  F   UNL A   1      36.873  32.537  28.038  1.00  0.00    -0.203 F 
ATOM     85  F   UNL A   1      33.608  34.614  31.850  1.00  0.00    -0.200 F 
ATOM     86  C   UNL A   1      34.004  34.021  29.607  1.00  0.00     0.200 A 
ATOM     87  F   UNL A   1      34.484  33.456  27.374  1.00  0.00    -0.200 F 
ATOM     88  F   UNL A   1      32.846  34.583  29.233  1.00  0.00    -0.200 F 
ENDBRANCH  54  78
BRANCH  66  89
ATOM     89  C   UNL A   1      40.899  33.496  34.841  1.00  0.00     0.064 A 
ATOM     90  C   UNL A   1      40.875  34.340  35.960  1.00  0.00     0.173 A 
ATOM     91  C   UNL A   1      40.390  32.196  35.020  1.00  0.00     0.173 A 
ATOM     92  F   UNL A   1      41.401  35.569  35.932  1.00  0.00    -0.203 F 
ATOM     93  C   UNL A   1      40.293  33.938  37.162  1.00  0.00     0.198 A 
ATOM     94  C   UNL A   1      39.813  31.794  36.221  1.00  0.00     0.198 A 
ATOM     95  F   UNL A   1      40.426  31.313  34.009  1.00  0.00    -0.203 F 
ATOM     96  F   UNL A   1      40.239  34.794  38.192  1.00  0.00    -0.200 F 
ATOM     97  C   UNL A   1      39.749  32.673  37.287  1.00  0.00     0.200 A 
ATOM     98  F   UNL A   1      39.297  30.563  36.332  1.00  0.00    -0.200 F 
ATOM     99  F   UNL A   1      39.164  32.300  38.434  1.00  0.00    -0.200 F 
ENDBRANCH  66  89
ENDBRANCH  40  41
ENDBRANCH  33  35
ENDBRANCH  32  33
ENDBRANCH  31  32
ENDBRANCH  30  31
ENDBRANCH  29  30
ENDBRANCH  28  29
ENDBRANCH  27  28
ENDBRANCH   1  27
TORSDOF 22
ENDMDL
