MODEL 1
REMARK VINA RESULT:     -10.5      0.000      0.000
REMARK SMILES O=C(OCCOCCOCCOCCOC(=O)c1cccnc1C(=O)Nc1ccc([N+](=O)[O-])cc1)c1ccc(-c2c3nc(c(-c4c(F)c(F)c(F)c(F)c4F)c4ccc([nH]4)c(-c4c(F)c(F)c(F)c(F)c4F)c4nc(c(-c5c(F)c(F)c(F)c(F)c5F)c5ccc2[nH]5)C=C4)C=C3)cc1
REMARK SMILES IDX 10 1 9 2 8 3 7 4 6 5 5 6 4 7 3 8 2 9 1 10 36 11 37 12 98 13
REMARK SMILES IDX 38 14 97 15 39 16 40 17 41 18 91 19 42 20 96 21 90 22 92 23
REMARK SMILES IDX 43 24 95 25 89 26 88 27 44 29 76 30 56 31 75 32 57 33 60 34
REMARK SMILES IDX 74 35 93 36 58 37 59 38 73 40 94 41 61 42 45 43 46 44 54 45
REMARK SMILES IDX 47 46 48 47 52 48 55 49 49 50 50 51 53 52 51 53 77 54 78 55
REMARK SMILES IDX 86 56 79 57 80 58 84 59 87 60 81 61 82 62 85 63 83 64 62 65
REMARK SMILES IDX 63 66 71 67 64 68 65 69 69 70 72 71 66 72 67 73 70 74 68 75
REMARK SMILES IDX 11 76 12 77 13 78 14 79 15 80 16 81 17 82 18 83 19 84 23 85
REMARK SMILES IDX 20 86 22 87 21 88 24 89 25 90 26 91 27 93 28 94 35 95 29 96
REMARK SMILES IDX 34 97 30 98 31 99 32 100 33 101
REMARK H PARENT 92 28 60 39 26 92
REMARK Flexibility Score: inf
ROOT
ATOM      1  C   UNL A   1      30.756  29.670  24.276  1.00  0.00     0.188 C 
ENDROOT
BRANCH   1   2
ATOM      2  O   UNL A   1      32.074  29.303  24.705  1.00  0.00    -0.377 OA
BRANCH   2   3
ATOM      3  C   UNL A   1      32.396  29.316  26.091  1.00  0.00     0.188 C 
BRANCH   3   4
ATOM      4  C   UNL A   1      33.859  29.074  26.448  1.00  0.00     0.188 C 
BRANCH   4   5
ATOM      5  O   UNL A   1      34.503  30.275  26.841  1.00  0.00    -0.376 OA
BRANCH   5   6
ATOM      6  C   UNL A   1      33.923  30.994  27.922  1.00  0.00     0.202 C 
BRANCH   6   7
ATOM      7  C   UNL A   1      34.098  32.496  27.734  1.00  0.00     0.261 C 
BRANCH   7   8
ATOM      8  O   UNL A   1      34.873  33.057  28.802  1.00  0.00    -0.460 OA
BRANCH   8   9
ATOM      9  C   UNL A   1      35.172  32.432  29.968  1.00  0.00     0.338 C 
ATOM     10  O   UNL A   1      34.364  32.467  30.894  1.00  0.00    -0.246 OA
BRANCH   9  11
ATOM     11  C   UNL A   1      36.382  31.576  30.143  1.00  0.00     0.060 A 
ATOM     12  C   UNL A   1      36.436  30.365  30.840  1.00  0.00     0.016 A 
ATOM     13  C   UNL A   1      37.528  31.993  29.455  1.00  0.00     0.016 A 
ATOM     14  C   UNL A   1      37.586  29.594  30.883  1.00  0.00     0.010 A 
ATOM     15  C   UNL A   1      38.698  31.235  29.499  1.00  0.00     0.010 A 
ATOM     16  C   UNL A   1      38.729  30.047  30.240  1.00  0.00    -0.014 A 
BRANCH  16  17
ATOM     17  C   UNL A   1      40.003  29.409  30.596  1.00  0.00     0.031 A 
ATOM     18  C   UNL A   1      40.683  29.913  31.829  1.00  0.00     0.074 A 
ATOM     19  C   UNL A   1      40.450  28.340  29.921  1.00  0.00     0.049 A 
ATOM     20  N   UNL A   1      41.872  29.654  32.293  1.00  0.00    -0.248 NA
ATOM     21  C   UNL A   1      39.899  30.846  32.661  1.00  0.00     0.031 C 
ATOM     22  C   UNL A   1      39.745  27.676  28.822  1.00  0.00     0.029 A 
ATOM     23  N   UNL A   1      41.597  27.613  30.073  1.00  0.00    -0.354 N 
ATOM     24  C   UNL A   1      42.001  30.438  33.432  1.00  0.00     0.074 A 
ATOM     25  C   UNL A   1      40.772  31.178  33.595  1.00  0.00     0.031 C 
ATOM     26  C   UNL A   1      40.480  26.636  28.398  1.00  0.00     0.029 A 
ATOM     27  C   UNL A   1      41.738  26.618  29.137  1.00  0.00     0.049 A 
ATOM     28  H   UNL A   1      42.257  27.784  30.782  1.00  0.00     0.167 HD
ATOM     29  C   UNL A   1      43.070  30.532  34.254  1.00  0.00     0.037 A 
ATOM     30  C   UNL A   1      42.801  25.833  28.888  1.00  0.00     0.037 A 
ATOM     31  C   UNL A   1      44.266  29.763  34.049  1.00  0.00     0.049 A 
ATOM     32  C   UNL A   1      44.030  26.035  29.738  1.00  0.00     0.074 A 
ATOM     33  C   UNL A   1      45.453  29.792  34.753  1.00  0.00     0.029 A 
ATOM     34  N   UNL A   1      44.415  28.814  33.041  1.00  0.00    -0.354 N 
ATOM     35  N   UNL A   1      44.206  26.846  30.757  1.00  0.00    -0.248 NA
ATOM     36  C   UNL A   1      45.210  25.236  29.395  1.00  0.00     0.031 C 
ATOM     37  C   UNL A   1      46.339  28.904  34.132  1.00  0.00     0.029 A 
ATOM     38  C   UNL A   1      45.683  28.266  33.089  1.00  0.00     0.049 A 
ATOM     39  H   UNL A   1      43.718  28.569  32.390  1.00  0.00     0.167 HD
ATOM     40  C   UNL A   1      45.505  26.638  31.195  1.00  0.00     0.074 A 
ATOM     41  C   UNL A   1      46.066  25.611  30.335  1.00  0.00     0.031 C 
ATOM     42  C   UNL A   1      46.182  27.234  32.211  1.00  0.00     0.037 A 
BRANCH  29  43
ATOM     43  C   UNL A   1      43.003  31.564  35.342  1.00  0.00     0.064 A 
ATOM     44  C   UNL A   1      42.571  31.263  36.644  1.00  0.00     0.173 A 
ATOM     45  C   UNL A   1      43.294  32.906  35.048  1.00  0.00     0.173 A 
ATOM     46  F   UNL A   1      42.245  30.003  36.971  1.00  0.00    -0.203 F 
ATOM     47  C   UNL A   1      42.379  32.270  37.589  1.00  0.00     0.198 A 
ATOM     48  C   UNL A   1      43.139  33.904  36.006  1.00  0.00     0.198 A 
ATOM     49  F   UNL A   1      43.701  33.256  33.819  1.00  0.00    -0.203 F 
ATOM     50  F   UNL A   1      41.875  31.967  38.793  1.00  0.00    -0.200 F 
ATOM     51  C   UNL A   1      42.666  33.588  37.270  1.00  0.00     0.200 A 
ATOM     52  F   UNL A   1      43.419  35.177  35.695  1.00  0.00    -0.200 F 
ATOM     53  F   UNL A   1      42.463  34.558  38.173  1.00  0.00    -0.200 F 
ENDBRANCH  29  43
BRANCH  30  54
ATOM     54  C   UNL A   1      42.768  24.847  27.773  1.00  0.00     0.064 A 
ATOM     55  C   UNL A   1      43.308  25.153  26.518  1.00  0.00     0.173 A 
ATOM     56  C   UNL A   1      42.199  23.573  27.939  1.00  0.00     0.173 A 
ATOM     57  F   UNL A   1      43.849  26.361  26.299  1.00  0.00    -0.203 F 
ATOM     58  C   UNL A   1      43.270  24.233  25.471  1.00  0.00     0.198 A 
ATOM     59  C   UNL A   1      42.189  22.643  26.902  1.00  0.00     0.198 A 
ATOM     60  F   UNL A   1      41.668  23.223  29.120  1.00  0.00    -0.203 F 
ATOM     61  F   UNL A   1      43.760  24.568  24.269  1.00  0.00    -0.200 F 
ATOM     62  C   UNL A   1      42.717  22.976  25.665  1.00  0.00     0.200 A 
ATOM     63  F   UNL A   1      41.672  21.423  27.104  1.00  0.00    -0.200 F 
ATOM     64  F   UNL A   1      42.691  22.089  24.661  1.00  0.00    -0.200 F 
ENDBRANCH  30  54
BRANCH  42  65
ATOM     65  C   UNL A   1      47.575  26.744  32.474  1.00  0.00     0.064 A 
ATOM     66  C   UNL A   1      47.825  25.588  33.224  1.00  0.00     0.173 A 
ATOM     67  C   UNL A   1      48.670  27.418  31.909  1.00  0.00     0.173 A 
ATOM     68  F   UNL A   1      46.810  24.920  33.796  1.00  0.00    -0.203 F 
ATOM     69  C   UNL A   1      49.125  25.137  33.423  1.00  0.00     0.198 A 
ATOM     70  C   UNL A   1      49.964  26.941  32.076  1.00  0.00     0.198 A 
ATOM     71  F   UNL A   1      48.479  28.523  31.174  1.00  0.00    -0.203 F 
ATOM     72  F   UNL A   1      49.348  24.058  34.188  1.00  0.00    -0.200 F 
ATOM     73  C   UNL A   1      50.192  25.806  32.840  1.00  0.00     0.200 A 
ATOM     74  F   UNL A   1      50.990  27.576  31.495  1.00  0.00    -0.200 F 
ATOM     75  F   UNL A   1      51.442  25.360  33.020  1.00  0.00    -0.200 F 
ENDBRANCH  42  65
ENDBRANCH  16  17
ENDBRANCH   9  11
ENDBRANCH   8   9
ENDBRANCH   7   8
ENDBRANCH   6   7
ENDBRANCH   5   6
ENDBRANCH   4   5
ENDBRANCH   3   4
ENDBRANCH   2   3
ENDBRANCH   1   2
BRANCH   1  76
ATOM     76  C   UNL A   1      30.170  29.240  22.900  1.00  0.00     0.188 C 
BRANCH  76  77
ATOM     77  O   UNL A   1      30.208  27.846  22.633  1.00  0.00    -0.376 OA
BRANCH  77  78
ATOM     78  C   UNL A   1      29.482  26.968  23.495  1.00  0.00     0.202 C 
BRANCH  78  79
ATOM     79  C   UNL A   1      30.052  25.419  23.454  1.00  0.00     0.261 C 
BRANCH  79  80
ATOM     80  O   UNL A   1      31.853  24.713  22.852  1.00  0.00    -0.460 OA
BRANCH  80  81
ATOM     81  C   UNL A   1      33.174  24.096  22.899  1.00  0.00     0.340 C 
ATOM     82  O   UNL A   1      33.629  23.577  21.881  1.00  0.00    -0.246 OA
BRANCH  81  83
ATOM     83  C   UNL A   1      33.990  23.927  24.185  1.00  0.00     0.091 A 
ATOM     84  C   UNL A   1      35.377  24.104  24.042  1.00  0.00     0.020 A 
ATOM     85  C   UNL A   1      33.552  23.514  25.460  1.00  0.00     0.142 A 
ATOM     86  C   UNL A   1      36.249  23.835  25.104  1.00  0.00     0.021 A 
ATOM     87  N   UNL A   1      34.403  23.264  26.507  1.00  0.00    -0.250 NA
ATOM     88  C   UNL A   1      35.721  23.417  26.308  1.00  0.00     0.112 A 
BRANCH  85  89
ATOM     89  C   UNL A   1      32.139  23.193  25.854  1.00  0.00     0.275 C 
ATOM     90  O   UNL A   1      31.447  23.976  26.502  1.00  0.00    -0.267 OA
ATOM     91  N   UNL A   1      31.593  22.003  25.480  1.00  0.00    -0.321 N 
ATOM     92  H   UNL A   1      30.619  21.896  25.580  1.00  0.00     0.170 HD
BRANCH  91  93
ATOM     93  C   UNL A   1      32.308  20.935  24.970  1.00  0.00     0.042 A 
ATOM     94  C   UNL A   1      32.900  19.810  26.247  1.00  0.00     0.033 A 
ATOM     95  C   UNL A   1      32.151  20.359  23.234  1.00  0.00     0.033 A 
ATOM     96  C   UNL A   1      33.216  18.105  25.840  1.00  0.00     0.088 A 
ATOM     97  C   UNL A   1      32.444  18.616  22.847  1.00  0.00     0.088 A 
ATOM     98  C   UNL A   1      33.000  17.531  24.156  1.00  0.00     0.269 A 
BRANCH  98  99
ATOM     99  N   UNL A   1      33.508  16.222  23.815  1.00  0.00     0.062 N 
ATOM    100  O   UNL A   1      33.257  15.300  24.600  1.00  0.00    -0.258 OA
ATOM    101  O   UNL A   1      34.214  16.137  22.804  1.00  0.00    -0.258 OA
ENDBRANCH  98  99
ENDBRANCH  91  93
ENDBRANCH  85  89
ENDBRANCH  81  83
ENDBRANCH  80  81
ENDBRANCH  79  80
ENDBRANCH  78  79
ENDBRANCH  77  78
ENDBRANCH  76  77
ENDBRANCH   1  76
TORSDOF 23
ENDMDL
MODEL 2
REMARK VINA RESULT:      -9.9      5.458      9.368
REMARK SMILES O=C(OCCOCCOCCOCCOC(=O)c1cccnc1C(=O)Nc1ccc([N+](=O)[O-])cc1)c1ccc(-c2c3nc(c(-c4c(F)c(F)c(F)c(F)c4F)c4ccc([nH]4)c(-c4c(F)c(F)c(F)c(F)c4F)c4nc(c(-c5c(F)c(F)c(F)c(F)c5F)c5ccc2[nH]5)C=C4)C=C3)cc1
REMARK SMILES IDX 10 1 9 2 8 3 7 4 6 5 5 6 4 7 3 8 2 9 1 10 36 11 37 12 98 13
REMARK SMILES IDX 38 14 97 15 39 16 40 17 41 18 91 19 42 20 96 21 90 22 92 23
REMARK SMILES IDX 43 24 95 25 89 26 88 27 44 29 76 30 56 31 75 32 57 33 60 34
REMARK SMILES IDX 74 35 93 36 58 37 59 38 73 40 94 41 61 42 45 43 46 44 54 45
REMARK SMILES IDX 47 46 48 47 52 48 55 49 49 50 50 51 53 52 51 53 77 54 78 55
REMARK SMILES IDX 86 56 79 57 80 58 84 59 87 60 81 61 82 62 85 63 83 64 62 65
REMARK SMILES IDX 63 66 71 67 64 68 65 69 69 70 72 71 66 72 67 73 70 74 68 75
REMARK SMILES IDX 11 76 12 77 13 78 14 79 15 80 16 81 17 82 18 83 19 84 23 85
REMARK SMILES IDX 20 86 22 87 21 88 24 89 25 90 26 91 27 93 28 94 35 95 29 96
REMARK SMILES IDX 34 97 30 98 31 99 32 100 33 101
REMARK H PARENT 92 28 60 39 26 92
REMARK Flexibility Score: inf
ROOT
ATOM      1  C   UNL A   1      33.751  34.598  33.053  1.00  0.00     0.188 C 
ENDROOT
BRANCH   1   2
ATOM      2  O   UNL A   1      32.820  35.424  32.340  1.00  0.00    -0.377 OA
BRANCH   2   3
ATOM      3  C   UNL A   1      33.240  36.685  31.831  1.00  0.00     0.188 C 
BRANCH   3   4
ATOM      4  C   UNL A   1      33.023  36.918  30.340  1.00  0.00     0.188 C 
BRANCH   4   5
ATOM      5  O   UNL A   1      32.421  35.793  29.720  1.00  0.00    -0.376 OA
BRANCH   5   6
ATOM      6  C   UNL A   1      32.870  35.462  28.411  1.00  0.00     0.202 C 
BRANCH   6   7
ATOM      7  C   UNL A   1      34.335  35.044  28.426  1.00  0.00     0.261 C 
BRANCH   7   8
ATOM      8  O   UNL A   1      34.564  33.950  27.528  1.00  0.00    -0.460 OA
BRANCH   8   9
ATOM      9  C   UNL A   1      34.441  32.636  27.844  1.00  0.00     0.338 C 
ATOM     10  O   UNL A   1      33.372  32.065  27.638  1.00  0.00    -0.246 OA
BRANCH   9  11
ATOM     11  C   UNL A   1      35.590  31.801  28.303  1.00  0.00     0.060 A 
ATOM     12  C   UNL A   1      35.593  30.407  28.426  1.00  0.00     0.016 A 
ATOM     13  C   UNL A   1      36.790  32.486  28.528  1.00  0.00     0.016 A 
ATOM     14  C   UNL A   1      36.733  29.706  28.784  1.00  0.00     0.010 A 
ATOM     15  C   UNL A   1      37.943  31.796  28.902  1.00  0.00     0.010 A 
ATOM     16  C   UNL A   1      37.901  30.404  29.056  1.00  0.00    -0.014 A 
BRANCH  16  17
ATOM     17  C   UNL A   1      38.967  29.687  29.766  1.00  0.00     0.031 A 
ATOM     18  C   UNL A   1      39.162  30.036  31.208  1.00  0.00     0.074 A 
ATOM     19  C   UNL A   1      39.629  28.679  29.180  1.00  0.00     0.049 A 
ATOM     20  N   UNL A   1      40.110  29.688  32.031  1.00  0.00    -0.248 NA
ATOM     21  C   UNL A   1      38.131  30.905  31.805  1.00  0.00     0.031 C 
ATOM     22  C   UNL A   1      39.363  28.159  27.837  1.00  0.00     0.029 A 
ATOM     23  N   UNL A   1      40.650  27.900  29.647  1.00  0.00    -0.354 N 
ATOM     24  C   UNL A   1      39.822  30.344  33.221  1.00  0.00     0.074 A 
ATOM     25  C   UNL A   1      38.613  31.107  33.019  1.00  0.00     0.031 C 
ATOM     26  C   UNL A   1      40.205  27.143  27.589  1.00  0.00     0.029 A 
ATOM     27  C   UNL A   1      41.118  27.004  28.718  1.00  0.00     0.049 A 
ATOM     28  H   UNL A   1      41.014  27.973  30.559  1.00  0.00     0.167 HD
ATOM     29  C   UNL A   1      40.529  30.314  34.373  1.00  0.00     0.037 A 
ATOM     30  C   UNL A   1      42.203  26.211  28.777  1.00  0.00     0.037 A 
ATOM     31  C   UNL A   1      41.723  29.528  34.520  1.00  0.00     0.049 A 
ATOM     32  C   UNL A   1      43.048  26.280  30.023  1.00  0.00     0.074 A 
ATOM     33  C   UNL A   1      42.581  29.441  35.597  1.00  0.00     0.029 A 
ATOM     34  N   UNL A   1      42.224  28.684  33.533  1.00  0.00    -0.354 N 
ATOM     35  N   UNL A   1      42.848  26.974  31.121  1.00  0.00    -0.248 NA
ATOM     36  C   UNL A   1      44.276  25.479  30.034  1.00  0.00     0.031 C 
ATOM     37  C   UNL A   1      43.634  28.592  35.237  1.00  0.00     0.029 A 
ATOM     38  C   UNL A   1      43.394  28.090  33.965  1.00  0.00     0.049 A 
ATOM     39  H   UNL A   1      41.805  28.534  32.655  1.00  0.00     0.167 HD
ATOM     40  C   UNL A   1      43.907  26.674  31.965  1.00  0.00     0.074 A 
ATOM     41  C   UNL A   1      44.740  25.724  31.252  1.00  0.00     0.031 C 
ATOM     42  C   UNL A   1      44.176  27.137  33.214  1.00  0.00     0.037 A 
BRANCH  29  43
ATOM     43  C   UNL A   1      40.076  31.229  35.473  1.00  0.00     0.064 A 
ATOM     44  C   UNL A   1      38.891  31.014  36.195  1.00  0.00     0.173 A 
ATOM     45  C   UNL A   1      40.802  32.399  35.749  1.00  0.00     0.173 A 
ATOM     46  F   UNL A   1      38.137  29.931  35.947  1.00  0.00    -0.203 F 
ATOM     47  C   UNL A   1      38.423  31.959  37.106  1.00  0.00     0.198 A 
ATOM     48  C   UNL A   1      40.351  33.322  36.689  1.00  0.00     0.198 A 
ATOM     49  F   UNL A   1      41.936  32.664  35.085  1.00  0.00    -0.203 F 
ATOM     50  F   UNL A   1      37.240  31.775  37.711  1.00  0.00    -0.200 F 
ATOM     51  C   UNL A   1      39.155  33.110  37.355  1.00  0.00     0.200 A 
ATOM     52  F   UNL A   1      41.063  34.432  36.928  1.00  0.00    -0.200 F 
ATOM     53  F   UNL A   1      38.694  34.027  38.217  1.00  0.00    -0.200 F 
ENDBRANCH  29  43
BRANCH  30  54
ATOM     54  C   UNL A   1      42.572  25.348  27.622  1.00  0.00     0.064 A 
ATOM     55  C   UNL A   1      42.006  24.078  27.455  1.00  0.00     0.173 A 
ATOM     56  C   UNL A   1      43.495  25.776  26.653  1.00  0.00     0.173 A 
ATOM     57  F   UNL A   1      41.130  23.613  28.358  1.00  0.00    -0.203 F 
ATOM     58  C   UNL A   1      42.356  23.266  26.377  1.00  0.00     0.198 A 
ATOM     59  C   UNL A   1      43.822  24.978  25.559  1.00  0.00     0.198 A 
ATOM     60  F   UNL A   1      44.069  26.984  26.759  1.00  0.00    -0.203 F 
ATOM     61  F   UNL A   1      41.827  22.040  26.264  1.00  0.00    -0.200 F 
ATOM     62  C   UNL A   1      43.258  23.719  25.426  1.00  0.00     0.200 A 
ATOM     63  F   UNL A   1      44.679  25.430  24.633  1.00  0.00    -0.200 F 
ATOM     64  F   UNL A   1      43.586  22.942  24.384  1.00  0.00    -0.200 F 
ENDBRANCH  30  54
BRANCH  42  65
ATOM     65  C   UNL A   1      45.386  26.574  33.897  1.00  0.00     0.064 A 
ATOM     66  C   UNL A   1      46.630  27.218  33.852  1.00  0.00     0.173 A 
ATOM     67  C   UNL A   1      45.275  25.399  34.658  1.00  0.00     0.173 A 
ATOM     68  F   UNL A   1      46.787  28.335  33.125  1.00  0.00    -0.203 F 
ATOM     69  C   UNL A   1      47.728  26.691  34.524  1.00  0.00     0.198 A 
ATOM     70  C   UNL A   1      46.365  24.899  35.360  1.00  0.00     0.198 A 
ATOM     71  F   UNL A   1      44.102  24.753  34.739  1.00  0.00    -0.203 F 
ATOM     72  F   UNL A   1      48.922  27.293  34.425  1.00  0.00    -0.200 F 
ATOM     73  C   UNL A   1      47.593  25.540  35.286  1.00  0.00     0.200 A 
ATOM     74  F   UNL A   1      46.226  23.799  36.112  1.00  0.00    -0.200 F 
ATOM     75  F   UNL A   1      48.647  25.043  35.944  1.00  0.00    -0.200 F 
ENDBRANCH  42  65
ENDBRANCH  16  17
ENDBRANCH   9  11
ENDBRANCH   8   9
ENDBRANCH   7   8
ENDBRANCH   6   7
ENDBRANCH   5   6
ENDBRANCH   4   5
ENDBRANCH   3   4
ENDBRANCH   2   3
ENDBRANCH   1   2
BRANCH   1  76
ATOM     76  C   UNL A   1      35.155  34.236  32.489  1.00  0.00     0.188 C 
BRANCH  76  77
ATOM     77  O   UNL A   1      36.066  33.689  33.431  1.00  0.00    -0.376 OA
BRANCH  77  78
ATOM     78  C   UNL A   1      37.290  34.385  33.676  1.00  0.00     0.202 C 
BRANCH  78  79
ATOM     79  C   UNL A   1      38.199  34.577  32.311  1.00  0.00     0.261 C 
BRANCH  79  80
ATOM     80  O   UNL A   1      40.208  34.727  32.099  1.00  0.00    -0.460 OA
BRANCH  80  81
ATOM     81  C   UNL A   1      41.620  34.865  32.438  1.00  0.00     0.340 C 
ATOM     82  O   UNL A   1      41.931  35.257  33.561  1.00  0.00    -0.246 OA
BRANCH  81  83
ATOM     83  C   UNL A   1      42.759  34.683  31.428  1.00  0.00     0.091 A 
ATOM     84  C   UNL A   1      43.675  35.747  31.361  1.00  0.00     0.020 A 
ATOM     85  C   UNL A   1      42.949  33.649  30.489  1.00  0.00     0.142 A 
ATOM     86  C   UNL A   1      44.676  35.773  30.381  1.00  0.00     0.021 A 
ATOM     87  N   UNL A   1      43.938  33.665  29.537  1.00  0.00    -0.250 NA
ATOM     88  C   UNL A   1      44.765  34.719  29.496  1.00  0.00     0.112 A 
BRANCH  85  89
ATOM     89  C   UNL A   1      42.076  32.441  30.309  1.00  0.00     0.275 C 
ATOM     90  O   UNL A   1      40.926  32.523  29.881  1.00  0.00    -0.267 OA
ATOM     91  N   UNL A   1      42.565  31.208  30.617  1.00  0.00    -0.321 N 
ATOM     92  H   UNL A   1      42.053  30.424  30.314  1.00  0.00     0.170 HD
BRANCH  91  93
ATOM     93  C   UNL A   1      43.731  30.979  31.326  1.00  0.00     0.042 A 
ATOM     94  C   UNL A   1      45.103  30.470  30.275  1.00  0.00     0.033 A 
ATOM     95  C   UNL A   1      44.055  31.697  32.984  1.00  0.00     0.033 A 
ATOM     96  C   UNL A   1      46.777  30.776  30.804  1.00  0.00     0.088 A 
ATOM     97  C   UNL A   1      45.760  32.031  33.489  1.00  0.00     0.088 A 
ATOM     98  C   UNL A   1      47.088  31.535  32.397  1.00  0.00     0.269 A 
BRANCH  98  99
ATOM     99  N   UNL A   1      48.443  31.532  32.898  1.00  0.00     0.062 N 
ATOM    100  O   UNL A   1      49.234  32.333  32.384  1.00  0.00    -0.258 OA
ATOM    101  O   UNL A   1      48.728  30.681  33.748  1.00  0.00    -0.258 OA
ENDBRANCH  98  99
ENDBRANCH  91  93
ENDBRANCH  85  89
ENDBRANCH  81  83
ENDBRANCH  80  81
ENDBRANCH  79  80
ENDBRANCH  78  79
ENDBRANCH  77  78
ENDBRANCH  76  77
ENDBRANCH   1  76
TORSDOF 23
ENDMDL
MODEL 3
REMARK VINA RESULT:      -9.9      2.862      4.262
REMARK SMILES O=C(OCCOCCOCCOCCOC(=O)c1cccnc1C(=O)Nc1ccc([N+](=O)[O-])cc1)c1ccc(-c2c3nc(c(-c4c(F)c(F)c(F)c(F)c4F)c4ccc([nH]4)c(-c4c(F)c(F)c(F)c(F)c4F)c4nc(c(-c5c(F)c(F)c(F)c(F)c5F)c5ccc2[nH]5)C=C4)C=C3)cc1
REMARK SMILES IDX 10 1 9 2 8 3 7 4 6 5 5 6 4 7 3 8 2 9 1 10 36 11 37 12 98 13
REMARK SMILES IDX 38 14 97 15 39 16 40 17 41 18 91 19 42 20 96 21 90 22 92 23
REMARK SMILES IDX 43 24 95 25 89 26 88 27 44 29 76 30 56 31 75 32 57 33 60 34
REMARK SMILES IDX 74 35 93 36 58 37 59 38 73 40 94 41 61 42 45 43 46 44 54 45
REMARK SMILES IDX 47 46 48 47 52 48 55 49 49 50 50 51 53 52 51 53 77 54 78 55
REMARK SMILES IDX 86 56 79 57 80 58 84 59 87 60 81 61 82 62 85 63 83 64 62 65
REMARK SMILES IDX 63 66 71 67 64 68 65 69 69 70 72 71 66 72 67 73 70 74 68 75
REMARK SMILES IDX 11 76 12 77 13 78 14 79 15 80 16 81 17 82 18 83 19 84 23 85
REMARK SMILES IDX 20 86 22 87 21 88 24 89 25 90 26 91 27 93 28 94 35 95 29 96
REMARK SMILES IDX 34 97 30 98 31 99 32 100 33 101
REMARK H PARENT 92 28 60 39 26 92
REMARK Flexibility Score: inf
ROOT
ATOM      1  C   UNL A   1      31.548  29.513  24.251  1.00  0.00     0.188 C 
ENDROOT
BRANCH   1   2
ATOM      2  O   UNL A   1      32.737  29.587  25.050  1.00  0.00    -0.377 OA
BRANCH   2   3
ATOM      3  C   UNL A   1      32.644  29.932  26.427  1.00  0.00     0.188 C 
BRANCH   3   4
ATOM      4  C   UNL A   1      33.956  30.249  27.136  1.00  0.00     0.188 C 
BRANCH   4   5
ATOM      5  O   UNL A   1      34.163  31.647  27.247  1.00  0.00    -0.376 OA
BRANCH   5   6
ATOM      6  C   UNL A   1      33.541  32.305  28.344  1.00  0.00     0.202 C 
BRANCH   6   7
ATOM      7  C   UNL A   1      33.372  33.793  28.064  1.00  0.00     0.261 C 
BRANCH   7   8
ATOM      8  O   UNL A   1      34.059  34.580  29.045  1.00  0.00    -0.460 OA
BRANCH   8   9
ATOM      9  C   UNL A   1      34.583  34.107  30.204  1.00  0.00     0.338 C 
ATOM     10  O   UNL A   1      33.884  34.085  31.215  1.00  0.00    -0.246 OA
BRANCH   9  11
ATOM     11  C   UNL A   1      35.933  33.476  30.287  1.00  0.00     0.060 A 
ATOM     12  C   UNL A   1      36.384  32.635  31.309  1.00  0.00     0.016 A 
ATOM     13  C   UNL A   1      36.769  33.679  29.182  1.00  0.00     0.016 A 
ATOM     14  C   UNL A   1      37.627  32.027  31.264  1.00  0.00     0.010 A 
ATOM     15  C   UNL A   1      38.030  33.085  29.127  1.00  0.00     0.010 A 
ATOM     16  C   UNL A   1      38.466  32.280  30.187  1.00  0.00    -0.014 A 
BRANCH  16  17
ATOM     17  C   UNL A   1      39.883  31.923  30.335  1.00  0.00     0.031 A 
ATOM     18  C   UNL A   1      40.732  32.870  31.122  1.00  0.00     0.074 A 
ATOM     19  C   UNL A   1      40.344  30.741  29.901  1.00  0.00     0.049 A 
ATOM     20  N   UNL A   1      42.025  32.897  31.283  1.00  0.00    -0.248 NA
ATOM     21  C   UNL A   1      40.012  33.942  31.834  1.00  0.00     0.031 C 
ATOM     22  C   UNL A   1      39.532  29.687  29.291  1.00  0.00     0.029 A 
ATOM     23  N   UNL A   1      41.608  30.222  29.925  1.00  0.00    -0.354 N 
ATOM     24  C   UNL A   1      42.275  34.020  32.060  1.00  0.00     0.074 A 
ATOM     25  C   UNL A   1      41.006  34.648  32.343  1.00  0.00     0.031 C 
ATOM     26  C   UNL A   1      40.323  28.643  28.996  1.00  0.00     0.029 A 
ATOM     27  C   UNL A   1      41.702  28.994  29.319  1.00  0.00     0.049 A 
ATOM     28  H   UNL A   1      42.375  30.682  30.336  1.00  0.00     0.167 HD
ATOM     29  C   UNL A   1      43.473  34.485  32.479  1.00  0.00     0.037 A 
ATOM     30  C   UNL A   1      42.801  28.279  29.017  1.00  0.00     0.037 A 
ATOM     31  C   UNL A   1      44.706  33.813  32.174  1.00  0.00     0.049 A 
ATOM     32  C   UNL A   1      44.138  28.870  29.385  1.00  0.00     0.074 A 
ATOM     33  C   UNL A   1      46.000  34.189  32.472  1.00  0.00     0.029 A 
ATOM     34  N   UNL A   1      44.783  32.605  31.487  1.00  0.00    -0.354 N 
ATOM     35  N   UNL A   1      44.400  29.985  30.031  1.00  0.00    -0.248 NA
ATOM     36  C   UNL A   1      45.328  28.123  28.968  1.00  0.00     0.031 C 
ATOM     37  C   UNL A   1      46.861  33.240  31.910  1.00  0.00     0.029 A 
ATOM     38  C   UNL A   1      46.103  32.231  31.329  1.00  0.00     0.049 A 
ATOM     39  H   UNL A   1      44.008  32.093  31.161  1.00  0.00     0.167 HD
ATOM     40  C   UNL A   1      45.782  30.061  30.122  1.00  0.00     0.074 A 
ATOM     41  C   UNL A   1      46.300  28.870  29.475  1.00  0.00     0.031 C 
ATOM     42  C   UNL A   1      46.560  31.023  30.685  1.00  0.00     0.037 A 
BRANCH  29  43
ATOM     43  C   UNL A   1      43.479  35.806  33.192  1.00  0.00     0.064 A 
ATOM     44  C   UNL A   1      43.636  37.028  32.519  1.00  0.00     0.173 A 
ATOM     45  C   UNL A   1      43.417  35.839  34.595  1.00  0.00     0.173 A 
ATOM     46  F   UNL A   1      43.737  37.053  31.181  1.00  0.00    -0.203 F 
ATOM     47  C   UNL A   1      43.785  38.222  33.223  1.00  0.00     0.198 A 
ATOM     48  C   UNL A   1      43.529  37.039  35.293  1.00  0.00     0.198 A 
ATOM     49  F   UNL A   1      43.279  34.703  35.293  1.00  0.00    -0.203 F 
ATOM     50  F   UNL A   1      44.029  39.362  32.560  1.00  0.00    -0.200 F 
ATOM     51  C   UNL A   1      43.729  38.227  34.608  1.00  0.00     0.200 A 
ATOM     52  F   UNL A   1      43.471  37.040  36.632  1.00  0.00    -0.200 F 
ATOM     53  F   UNL A   1      43.892  39.373  35.284  1.00  0.00    -0.200 F 
ENDBRANCH  29  43
BRANCH  30  54
ATOM     54  C   UNL A   1      42.685  26.983  28.294  1.00  0.00     0.064 A 
ATOM     55  C   UNL A   1      42.847  25.763  28.962  1.00  0.00     0.173 A 
ATOM     56  C   UNL A   1      42.403  26.935  26.919  1.00  0.00     0.173 A 
ATOM     57  F   UNL A   1      43.133  25.751  30.273  1.00  0.00    -0.203 F 
ATOM     58  C   UNL A   1      42.746  24.548  28.284  1.00  0.00     0.198 A 
ATOM     59  C   UNL A   1      42.271  25.721  26.248  1.00  0.00     0.198 A 
ATOM     60  F   UNL A   1      42.235  28.071  26.226  1.00  0.00    -0.203 F 
ATOM     61  F   UNL A   1      42.944  23.398  28.942  1.00  0.00    -0.200 F 
ATOM     62  C   UNL A   1      42.450  24.527  26.930  1.00  0.00     0.200 A 
ATOM     63  F   UNL A   1      41.964  25.707  24.943  1.00  0.00    -0.200 F 
ATOM     64  F   UNL A   1      42.342  23.360  26.282  1.00  0.00    -0.200 F 
ENDBRANCH  30  54
BRANCH  42  65
ATOM     65  C   UNL A   1      48.041  30.787  30.671  1.00  0.00     0.064 A 
ATOM     66  C   UNL A   1      48.686  30.064  31.683  1.00  0.00     0.173 A 
ATOM     67  C   UNL A   1      48.810  31.245  29.589  1.00  0.00     0.173 A 
ATOM     68  F   UNL A   1      47.993  29.620  32.743  1.00  0.00    -0.203 F 
ATOM     69  C   UNL A   1      50.056  29.830  31.626  1.00  0.00     0.198 A 
ATOM     70  C   UNL A   1      50.171  30.974  29.517  1.00  0.00     0.198 A 
ATOM     71  F   UNL A   1      48.235  31.933  28.591  1.00  0.00    -0.203 F 
ATOM     72  F   UNL A   1      50.664  29.182  32.630  1.00  0.00    -0.200 F 
ATOM     73  C   UNL A   1      50.795  30.275  30.539  1.00  0.00     0.200 A 
ATOM     74  F   UNL A   1      50.879  31.386  28.457  1.00  0.00    -0.200 F 
ATOM     75  F   UNL A   1      52.111  30.035  30.480  1.00  0.00    -0.200 F 
ENDBRANCH  42  65
ENDBRANCH  16  17
ENDBRANCH   9  11
ENDBRANCH   8   9
ENDBRANCH   7   8
ENDBRANCH   6   7
ENDBRANCH   5   6
ENDBRANCH   4   5
ENDBRANCH   3   4
ENDBRANCH   2   3
ENDBRANCH   1   2
BRANCH   1  76
ATOM     76  C   UNL A   1      31.291  28.366  23.232  1.00  0.00     0.188 C 
BRANCH  76  77
ATOM     77  O   UNL A   1      31.253  27.059  23.785  1.00  0.00    -0.376 OA
BRANCH  77  78
ATOM     78  C   UNL A   1      30.162  26.714  24.641  1.00  0.00     0.202 C 
BRANCH  78  79
ATOM     79  C   UNL A   1      30.657  26.164  26.117  1.00  0.00     0.261 C 
BRANCH  79  80
ATOM     80  O   UNL A   1      31.119  24.284  26.714  1.00  0.00    -0.460 OA
BRANCH  80  81
ATOM     81  C   UNL A   1      31.860  23.040  26.890  1.00  0.00     0.340 C 
ATOM     82  O   UNL A   1      32.409  22.817  27.967  1.00  0.00    -0.246 OA
BRANCH  81  83
ATOM     83  C   UNL A   1      32.118  22.036  25.761  1.00  0.00     0.091 A 
ATOM     84  C   UNL A   1      32.568  20.770  26.177  1.00  0.00     0.020 A 
ATOM     85  C   UNL A   1      32.071  22.244  24.367  1.00  0.00     0.142 A 
ATOM     86  C   UNL A   1      32.979  19.812  25.242  1.00  0.00     0.021 A 
ATOM     87  N   UNL A   1      32.460  21.300  23.449  1.00  0.00    -0.250 NA
ATOM     88  C   UNL A   1      32.911  20.120  23.900  1.00  0.00     0.112 A 
BRANCH  85  89
ATOM     89  C   UNL A   1      31.693  23.518  23.671  1.00  0.00     0.275 C 
ATOM     90  O   UNL A   1      30.569  23.702  23.206  1.00  0.00    -0.267 OA
ATOM     91  N   UNL A   1      32.613  24.515  23.551  1.00  0.00    -0.321 N 
ATOM     92  H   UNL A   1      32.291  25.402  23.268  1.00  0.00     0.170 HD
BRANCH  91  93
ATOM     93  C   UNL A   1      33.965  24.371  23.800  1.00  0.00     0.042 A 
ATOM     94  C   UNL A   1      34.416  24.786  25.495  1.00  0.00     0.033 A 
ATOM     95  C   UNL A   1      35.065  23.305  22.788  1.00  0.00     0.033 A 
ATOM     96  C   UNL A   1      35.872  24.060  26.221  1.00  0.00     0.088 A 
ATOM     97  C   UNL A   1      36.520  22.550  23.553  1.00  0.00     0.088 A 
ATOM     98  C   UNL A   1      36.909  22.968  25.248  1.00  0.00     0.269 A 
BRANCH  98  99
ATOM     99  N   UNL A   1      38.203  22.609  25.781  1.00  0.00     0.062 N 
ATOM    100  O   UNL A   1      38.464  21.402  25.854  1.00  0.00    -0.258 OA
ATOM    101  O   UNL A   1      38.921  23.529  26.189  1.00  0.00    -0.258 OA
ENDBRANCH  98  99
ENDBRANCH  91  93
ENDBRANCH  85  89
ENDBRANCH  81  83
ENDBRANCH  80  81
ENDBRANCH  79  80
ENDBRANCH  78  79
ENDBRANCH  77  78
ENDBRANCH  76  77
ENDBRANCH   1  76
TORSDOF 23
ENDMDL
