MODEL 1
REMARK VINA RESULT:      -9.7      0.000      0.000
REMARK SMILES O=C(OCCOCCOCCOCCOC(=O)c1sccc1NS(=O)(=O)N1CCCC1)c1ccc(-c2c3nc(c(-c4c(F)c(F)c(F)c(F)c4F)c4ccc([nH]4)c(-c4c(F)c(F)c(F)c(F)c4F)c4nc(c(-c5c(F)c(F)c(F)c(F)c5F)c5ccc2[nH]5)C=C4)C=C3)cc1
REMARK SMILES IDX 10 1 9 2 8 3 7 4 6 5 5 6 4 7 3 8 2 9 1 10 32 11 33 12 94 13
REMARK SMILES IDX 34 14 93 15 35 16 36 17 37 18 87 19 38 20 92 21 86 22 88 23
REMARK SMILES IDX 39 24 91 25 85 26 84 27 40 29 72 30 52 31 71 32 53 33 56 34
REMARK SMILES IDX 70 35 89 36 54 37 55 38 69 40 90 41 57 42 41 43 42 44 50 45
REMARK SMILES IDX 43 46 44 47 48 48 51 49 45 50 46 51 49 52 47 53 73 54 74 55
REMARK SMILES IDX 82 56 75 57 76 58 80 59 83 60 77 61 78 62 81 63 79 64 58 65
REMARK SMILES IDX 59 66 67 67 60 68 61 69 65 70 68 71 62 72 63 73 66 74 64 75
REMARK SMILES IDX 11 76 12 77 13 78 14 79 15 80 16 81 17 82 18 83 19 84 22 85
REMARK SMILES IDX 20 86 21 87 23 88 24 90 25 91 26 92 27 93 28 94 31 95 29 96
REMARK SMILES IDX 30 97
REMARK H PARENT 88 28 56 39 23 89
REMARK Flexibility Score: inf
ROOT
ATOM      1  C   UNL A   1      35.329  31.085  27.699  1.00  0.00     0.188 C 
ENDROOT
BRANCH   1   2
ATOM      2  O   UNL A   1      35.443  32.502  27.644  1.00  0.00    -0.377 OA
BRANCH   2   3
ATOM      3  C   UNL A   1      34.715  33.268  28.598  1.00  0.00     0.188 C 
BRANCH   3   4
ATOM      4  C   UNL A   1      34.755  34.793  28.458  1.00  0.00     0.188 C 
BRANCH   4   5
ATOM      5  O   UNL A   1      33.474  35.402  28.628  1.00  0.00    -0.376 OA
BRANCH   5   6
ATOM      6  C   UNL A   1      33.516  36.817  28.831  1.00  0.00     0.202 C 
BRANCH   6   7
ATOM      7  C   UNL A   1      33.295  37.234  30.287  1.00  0.00     0.261 C 
BRANCH   7   8
ATOM      8  O   UNL A   1      32.285  36.432  30.917  1.00  0.00    -0.460 OA
BRANCH   8   9
ATOM      9  C   UNL A   1      32.401  35.636  32.007  1.00  0.00     0.338 C 
ATOM     10  O   UNL A   1      31.381  35.391  32.651  1.00  0.00    -0.246 OA
BRANCH   9  11
ATOM     11  C   UNL A   1      33.683  35.016  32.481  1.00  0.00     0.060 A 
ATOM     12  C   UNL A   1      34.950  35.604  32.437  1.00  0.00     0.016 A 
ATOM     13  C   UNL A   1      33.577  33.748  33.082  1.00  0.00     0.016 A 
ATOM     14  C   UNL A   1      36.081  34.943  32.904  1.00  0.00     0.010 A 
ATOM     15  C   UNL A   1      34.704  33.082  33.575  1.00  0.00     0.010 A 
ATOM     16  C   UNL A   1      35.966  33.672  33.458  1.00  0.00    -0.014 A 
BRANCH  16  17
ATOM     17  C   UNL A   1      37.194  32.919  33.759  1.00  0.00     0.031 A 
ATOM     18  C   UNL A   1      37.865  33.171  35.073  1.00  0.00     0.074 A 
ATOM     19  C   UNL A   1      37.632  31.969  32.914  1.00  0.00     0.049 A 
ATOM     20  N   UNL A   1      38.990  32.699  35.537  1.00  0.00    -0.248 NA
ATOM     21  C   UNL A   1      37.160  34.074  36.000  1.00  0.00     0.031 C 
ATOM     22  C   UNL A   1      36.969  31.576  31.671  1.00  0.00     0.029 A 
ATOM     23  N   UNL A   1      38.733  31.156  32.981  1.00  0.00    -0.354 N 
ATOM     24  C   UNL A   1      39.142  33.271  36.792  1.00  0.00     0.074 A 
ATOM     25  C   UNL A   1      37.996  34.118  37.025  1.00  0.00     0.031 C 
ATOM     26  C   UNL A   1      37.682  30.598  31.087  1.00  0.00     0.029 A 
ATOM     27  C   UNL A   1      38.878  30.342  31.885  1.00  0.00     0.049 A 
ATOM     28  H   UNL A   1      39.358  31.156  33.741  1.00  0.00     0.167 HD
ATOM     29  C   UNL A   1      40.164  33.105  37.663  1.00  0.00     0.037 A 
ATOM     30  C   UNL A   1      39.892  29.521  31.555  1.00  0.00     0.037 A 
ATOM     31  C   UNL A   1      41.291  32.254  37.403  1.00  0.00     0.049 A 
ATOM     32  C   UNL A   1      41.064  29.426  32.500  1.00  0.00     0.074 A 
ATOM     33  C   UNL A   1      42.407  32.029  38.184  1.00  0.00     0.029 A 
ATOM     34  N   UNL A   1      41.438  31.486  36.255  1.00  0.00    -0.354 N 
ATOM     35  N   UNL A   1      41.232  29.999  33.668  1.00  0.00    -0.248 NA
ATOM     36  C   UNL A   1      42.194  28.591  32.073  1.00  0.00     0.031 C 
ATOM     37  C   UNL A   1      43.252  31.159  37.488  1.00  0.00     0.029 A 
ATOM     38  C   UNL A   1      42.642  30.807  36.293  1.00  0.00     0.049 A 
ATOM     39  H   UNL A   1      40.782  31.433  35.522  1.00  0.00     0.167 HD
ATOM     40  C   UNL A   1      42.477  29.590  34.122  1.00  0.00     0.074 A 
ATOM     41  C   UNL A   1      43.013  28.700  33.111  1.00  0.00     0.031 C 
ATOM     42  C   UNL A   1      43.129  29.923  35.264  1.00  0.00     0.037 A 
BRANCH  29  43
ATOM     43  C   UNL A   1      40.130  33.918  38.921  1.00  0.00     0.064 A 
ATOM     44  C   UNL A   1      39.486  33.466  40.083  1.00  0.00     0.173 A 
ATOM     45  C   UNL A   1      40.725  35.188  38.951  1.00  0.00     0.173 A 
ATOM     46  F   UNL A   1      38.875  32.272  40.096  1.00  0.00    -0.203 F 
ATOM     47  C   UNL A   1      39.419  34.268  41.220  1.00  0.00     0.198 A 
ATOM     48  C   UNL A   1      40.675  35.977  40.096  1.00  0.00     0.198 A 
ATOM     49  F   UNL A   1      41.343  35.670  37.863  1.00  0.00    -0.203 F 
ATOM     50  F   UNL A   1      38.750  33.840  42.301  1.00  0.00    -0.200 F 
ATOM     51  C   UNL A   1      40.015  35.520  41.227  1.00  0.00     0.200 A 
ATOM     52  F   UNL A   1      41.253  37.186  40.100  1.00  0.00    -0.200 F 
ATOM     53  F   UNL A   1      39.940  36.294  42.319  1.00  0.00    -0.200 F 
ENDBRANCH  29  43
BRANCH  30  54
ATOM     54  C   UNL A   1      39.877  28.785  30.262  1.00  0.00     0.064 A 
ATOM     55  C   UNL A   1      39.336  27.496  30.160  1.00  0.00     0.173 A 
ATOM     56  C   UNL A   1      40.425  29.351  29.098  1.00  0.00     0.173 A 
ATOM     57  F   UNL A   1      38.824  26.898  31.245  1.00  0.00    -0.203 F 
ATOM     58  C   UNL A   1      39.358  26.797  28.953  1.00  0.00     0.198 A 
ATOM     59  C   UNL A   1      40.418  28.664  27.887  1.00  0.00     0.198 A 
ATOM     60  F   UNL A   1      40.962  30.579  29.138  1.00  0.00    -0.203 F 
ATOM     61  F   UNL A   1      38.878  25.547  28.896  1.00  0.00    -0.200 F 
ATOM     62  C   UNL A   1      39.893  27.384  27.816  1.00  0.00     0.200 A 
ATOM     63  F   UNL A   1      40.925  29.242  26.789  1.00  0.00    -0.200 F 
ATOM     64  F   UNL A   1      39.912  26.713  26.656  1.00  0.00    -0.200 F 
ENDBRANCH  30  54
BRANCH  42  65
ATOM     65  C   UNL A   1      44.479  29.310  35.480  1.00  0.00     0.064 A 
ATOM     66  C   UNL A   1      45.651  29.981  35.104  1.00  0.00     0.173 A 
ATOM     67  C   UNL A   1      44.600  28.077  36.136  1.00  0.00     0.173 A 
ATOM     68  F   UNL A   1      45.581  31.156  34.460  1.00  0.00    -0.203 F 
ATOM     69  C   UNL A   1      46.901  29.430  35.368  1.00  0.00     0.198 A 
ATOM     70  C   UNL A   1      45.852  27.543  36.422  1.00  0.00     0.198 A 
ATOM     71  F   UNL A   1      43.505  27.405  36.521  1.00  0.00    -0.203 F 
ATOM     72  F   UNL A   1      48.010  30.070  34.973  1.00  0.00    -0.200 F 
ATOM     73  C   UNL A   1      47.000  28.217  36.035  1.00  0.00     0.200 A 
ATOM     74  F   UNL A   1      45.946  26.378  37.079  1.00  0.00    -0.200 F 
ATOM     75  F   UNL A   1      48.205  27.697  36.304  1.00  0.00    -0.200 F 
ENDBRANCH  42  65
ENDBRANCH  16  17
ENDBRANCH   9  11
ENDBRANCH   8   9
ENDBRANCH   7   8
ENDBRANCH   6   7
ENDBRANCH   5   6
ENDBRANCH   4   5
ENDBRANCH   3   4
ENDBRANCH   2   3
ENDBRANCH   1   2
BRANCH   1  76
ATOM     76  C   UNL A   1      33.943  30.411  27.595  1.00  0.00     0.188 C 
BRANCH  76  77
ATOM     77  O   UNL A   1      33.087  30.915  26.577  1.00  0.00    -0.376 OA
BRANCH  77  78
ATOM     78  C   UNL A   1      31.873  30.197  26.382  1.00  0.00     0.202 C 
BRANCH  78  79
ATOM     79  C   UNL A   1      31.809  29.452  25.041  1.00  0.00     0.261 C 
BRANCH  79  80
ATOM     80  O   UNL A   1      31.549  28.042  25.161  1.00  0.00    -0.459 OA
BRANCH  80  81
ATOM     81  C   UNL A   1      32.609  27.252  25.500  1.00  0.00     0.350 C 
ATOM     82  O   UNL A   1      33.156  27.279  26.597  1.00  0.00    -0.245 OA
BRANCH  81  83
ATOM     83  C   UNL A   1      32.842  26.296  24.436  1.00  0.00     0.136 A 
ATOM     84  S   UNL A   1      32.875  26.883  22.821  1.00  0.00    -0.135 S 
ATOM     85  C   UNL A   1      33.125  24.940  24.495  1.00  0.00     0.075 A 
ATOM     86  C   UNL A   1      33.375  25.373  22.211  1.00  0.00     0.068 A 
ATOM     87  C   UNL A   1      33.428  24.417  23.199  1.00  0.00     0.039 A 
BRANCH  85  88
ATOM     88  N   UNL A   1      33.222  24.155  25.667  1.00  0.00    -0.269 N 
ATOM     89  H   UNL A   1      34.056  24.145  26.189  1.00  0.00     0.181 HD
BRANCH  88  90
ATOM     90  S   UNL A   1      31.899  23.238  26.167  1.00  0.00     0.301 S 
ATOM     91  O   UNL A   1      31.635  23.580  27.545  1.00  0.00    -0.189 OA
ATOM     92  O   UNL A   1      30.864  23.358  25.166  1.00  0.00    -0.189 OA
BRANCH  90  93
ATOM     93  N   UNL A   1      32.518  21.665  26.119  1.00  0.00    -0.185 NA
ATOM     94  C   UNL A   1      33.998  21.590  26.270  1.00  0.00     0.104 C 
ATOM     95  C   UNL A   1      32.143  20.853  24.923  1.00  0.00     0.104 C 
ATOM     96  C   UNL A   1      34.504  21.162  24.905  1.00  0.00     0.018 C 
ATOM     97  C   UNL A   1      33.434  20.190  24.458  1.00  0.00     0.018 C 
ENDBRANCH  90  93
ENDBRANCH  88  90
ENDBRANCH  85  88
ENDBRANCH  81  83
ENDBRANCH  80  81
ENDBRANCH  79  80
ENDBRANCH  78  79
ENDBRANCH  77  78
ENDBRANCH  76  77
ENDBRANCH   1  76
TORSDOF 23
ENDMDL
MODEL 2
REMARK VINA RESULT:      -9.4      1.326      7.332
REMARK SMILES O=C(OCCOCCOCCOCCOC(=O)c1sccc1NS(=O)(=O)N1CCCC1)c1ccc(-c2c3nc(c(-c4c(F)c(F)c(F)c(F)c4F)c4ccc([nH]4)c(-c4c(F)c(F)c(F)c(F)c4F)c4nc(c(-c5c(F)c(F)c(F)c(F)c5F)c5ccc2[nH]5)C=C4)C=C3)cc1
REMARK SMILES IDX 10 1 9 2 8 3 7 4 6 5 5 6 4 7 3 8 2 9 1 10 32 11 33 12 94 13
REMARK SMILES IDX 34 14 93 15 35 16 36 17 37 18 87 19 38 20 92 21 86 22 88 23
REMARK SMILES IDX 39 24 91 25 85 26 84 27 40 29 72 30 52 31 71 32 53 33 56 34
REMARK SMILES IDX 70 35 89 36 54 37 55 38 69 40 90 41 57 42 41 43 42 44 50 45
REMARK SMILES IDX 43 46 44 47 48 48 51 49 45 50 46 51 49 52 47 53 73 54 74 55
REMARK SMILES IDX 82 56 75 57 76 58 80 59 83 60 77 61 78 62 81 63 79 64 58 65
REMARK SMILES IDX 59 66 67 67 60 68 61 69 65 70 68 71 62 72 63 73 66 74 64 75
REMARK SMILES IDX 11 76 12 77 13 78 14 79 15 80 16 81 17 82 18 83 19 84 22 85
REMARK SMILES IDX 20 86 21 87 23 88 24 90 25 91 26 92 27 93 28 94 31 95 29 96
REMARK SMILES IDX 30 97
REMARK H PARENT 88 28 56 39 23 89
REMARK Flexibility Score: inf
ROOT
ATOM      1  C   UNL A   1      35.396  31.144  28.242  1.00  0.00     0.188 C 
ENDROOT
BRANCH   1   2
ATOM      2  O   UNL A   1      34.868  32.159  29.087  1.00  0.00    -0.377 OA
BRANCH   2   3
ATOM      3  C   UNL A   1      34.639  33.446  28.524  1.00  0.00     0.188 C 
BRANCH   3   4
ATOM      4  C   UNL A   1      33.233  33.747  27.998  1.00  0.00     0.188 C 
BRANCH   4   5
ATOM      5  O   UNL A   1      32.529  34.698  28.799  1.00  0.00    -0.376 OA
BRANCH   5   6
ATOM      6  C   UNL A   1      33.299  35.847  29.165  1.00  0.00     0.202 C 
BRANCH   6   7
ATOM      7  C   UNL A   1      32.537  36.841  30.044  1.00  0.00     0.261 C 
BRANCH   7   8
ATOM      8  O   UNL A   1      32.803  36.622  31.438  1.00  0.00    -0.460 OA
BRANCH   8   9
ATOM      9  C   UNL A   1      32.822  35.450  32.117  1.00  0.00     0.338 C 
ATOM     10  O   UNL A   1      31.747  34.995  32.509  1.00  0.00    -0.246 OA
BRANCH   9  11
ATOM     11  C   UNL A   1      34.059  34.652  32.414  1.00  0.00     0.060 A 
ATOM     12  C   UNL A   1      34.101  33.358  32.939  1.00  0.00     0.016 A 
ATOM     13  C   UNL A   1      35.284  35.252  32.067  1.00  0.00     0.016 A 
ATOM     14  C   UNL A   1      35.305  32.703  33.178  1.00  0.00     0.010 A 
ATOM     15  C   UNL A   1      36.501  34.595  32.282  1.00  0.00     0.010 A 
ATOM     16  C   UNL A   1      36.509  33.326  32.869  1.00  0.00    -0.014 A 
BRANCH  16  17
ATOM     17  C   UNL A   1      37.764  32.697  33.313  1.00  0.00     0.031 A 
ATOM     18  C   UNL A   1      38.402  31.691  32.407  1.00  0.00     0.074 A 
ATOM     19  C   UNL A   1      38.355  33.094  34.453  1.00  0.00     0.049 A 
ATOM     20  N   UNL A   1      39.456  30.946  32.600  1.00  0.00    -0.248 NA
ATOM     21  C   UNL A   1      37.768  31.510  31.088  1.00  0.00     0.031 C 
ATOM     22  C   UNL A   1      37.863  34.154  35.333  1.00  0.00     0.029 A 
ATOM     23  N   UNL A   1      39.504  32.659  35.059  1.00  0.00    -0.354 N 
ATOM     24  C   UNL A   1      39.592  30.188  31.446  1.00  0.00     0.074 A 
ATOM     25  C   UNL A   1      38.522  30.564  30.552  1.00  0.00     0.031 C 
ATOM     26  C   UNL A   1      38.704  34.283  36.373  1.00  0.00     0.029 A 
ATOM     27  C   UNL A   1      39.756  33.277  36.259  1.00  0.00     0.049 A 
ATOM     28  H   UNL A   1      40.091  31.971  34.672  1.00  0.00     0.167 HD
ATOM     29  C   UNL A   1      40.528  29.250  31.173  1.00  0.00     0.037 A 
ATOM     30  C   UNL A   1      40.708  33.015  37.175  1.00  0.00     0.037 A 
ATOM     31  C   UNL A   1      41.580  28.899  32.084  1.00  0.00     0.049 A 
ATOM     32  C   UNL A   1      41.682  31.901  36.887  1.00  0.00     0.074 A 
ATOM     33  C   UNL A   1      42.567  27.942  31.943  1.00  0.00     0.029 A 
ATOM     34  N   UNL A   1      41.775  29.502  33.320  1.00  0.00    -0.354 N 
ATOM     35  N   UNL A   1      41.787  31.151  35.815  1.00  0.00    -0.248 NA
ATOM     36  C   UNL A   1      42.654  31.580  37.940  1.00  0.00     0.031 C 
ATOM     37  C   UNL A   1      43.331  27.936  33.114  1.00  0.00     0.029 A 
ATOM     38  C   UNL A   1      42.849  28.919  33.966  1.00  0.00     0.049 A 
ATOM     39  H   UNL A   1      41.228  30.237  33.683  1.00  0.00     0.167 HD
ATOM     40  C   UNL A   1      42.838  30.279  36.057  1.00  0.00     0.074 A 
ATOM     41  C   UNL A   1      43.354  30.608  37.371  1.00  0.00     0.031 C 
ATOM     42  C   UNL A   1      43.330  29.287  35.274  1.00  0.00     0.037 A 
BRANCH  29  43
ATOM     43  C   UNL A   1      40.392  28.505  29.881  1.00  0.00     0.064 A 
ATOM     44  C   UNL A   1      39.641  27.324  29.777  1.00  0.00     0.173 A 
ATOM     45  C   UNL A   1      41.055  28.965  28.733  1.00  0.00     0.173 A 
ATOM     46  F   UNL A   1      39.014  26.826  30.852  1.00  0.00    -0.203 F 
ATOM     47  C   UNL A   1      39.581  26.619  28.577  1.00  0.00     0.198 A 
ATOM     48  C   UNL A   1      40.974  28.270  27.530  1.00  0.00     0.198 A 
ATOM     49  F   UNL A   1      41.794  30.083  28.784  1.00  0.00    -0.203 F 
ATOM     50  F   UNL A   1      38.904  25.464  28.514  1.00  0.00    -0.200 F 
ATOM     51  C   UNL A   1      40.244  27.094  27.455  1.00  0.00     0.200 A 
ATOM     52  F   UNL A   1      41.615  28.732  26.448  1.00  0.00    -0.200 F 
ATOM     53  F   UNL A   1      40.193  26.409  26.304  1.00  0.00    -0.200 F 
ENDBRANCH  29  43
BRANCH  30  54
ATOM     54  C   UNL A   1      40.746  33.766  38.459  1.00  0.00     0.064 A 
ATOM     55  C   UNL A   1      39.930  33.407  39.540  1.00  0.00     0.173 A 
ATOM     56  C   UNL A   1      41.589  34.878  38.625  1.00  0.00     0.173 A 
ATOM     57  F   UNL A   1      39.087  32.370  39.427  1.00  0.00    -0.203 F 
ATOM     58  C   UNL A   1      39.944  34.138  40.729  1.00  0.00     0.198 A 
ATOM     59  C   UNL A   1      41.624  35.588  39.823  1.00  0.00     0.198 A 
ATOM     60  F   UNL A   1      42.386  35.272  37.621  1.00  0.00    -0.203 F 
ATOM     61  F   UNL A   1      39.117  33.801  41.729  1.00  0.00    -0.200 F 
ATOM     62  C   UNL A   1      40.795  35.224  40.871  1.00  0.00     0.200 A 
ATOM     63  F   UNL A   1      42.458  36.629  39.958  1.00  0.00    -0.200 F 
ATOM     64  F   UNL A   1      40.809  35.924  42.013  1.00  0.00    -0.200 F 
ENDBRANCH  30  54
BRANCH  42  65
ATOM     65  C   UNL A   1      44.489  28.506  35.814  1.00  0.00     0.064 A 
ATOM     66  C   UNL A   1      44.292  27.337  36.563  1.00  0.00     0.173 A 
ATOM     67  C   UNL A   1      45.804  28.890  35.515  1.00  0.00     0.173 A 
ATOM     68  F   UNL A   1      43.051  26.941  36.884  1.00  0.00    -0.203 F 
ATOM     69  C   UNL A   1      45.376  26.585  37.004  1.00  0.00     0.198 A 
ATOM     70  C   UNL A   1      46.883  28.121  35.936  1.00  0.00     0.198 A 
ATOM     71  F   UNL A   1      46.038  29.997  34.794  1.00  0.00    -0.203 F 
ATOM     72  F   UNL A   1      45.170  25.488  37.746  1.00  0.00    -0.200 F 
ATOM     73  C   UNL A   1      46.669  26.972  36.683  1.00  0.00     0.200 A 
ATOM     74  F   UNL A   1      48.131  28.488  35.612  1.00  0.00    -0.200 F 
ATOM     75  F   UNL A   1      47.711  26.237  37.094  1.00  0.00    -0.200 F 
ENDBRANCH  42  65
ENDBRANCH  16  17
ENDBRANCH   9  11
ENDBRANCH   8   9
ENDBRANCH   7   8
ENDBRANCH   6   7
ENDBRANCH   5   6
ENDBRANCH   4   5
ENDBRANCH   3   4
ENDBRANCH   2   3
ENDBRANCH   1   2
BRANCH   1  76
ATOM     76  C   UNL A   1      34.463  30.360  27.292  1.00  0.00     0.188 C 
BRANCH  76  77
ATOM     77  O   UNL A   1      34.405  28.956  27.506  1.00  0.00    -0.376 OA
BRANCH  77  78
ATOM     78  C   UNL A   1      33.379  28.267  26.797  1.00  0.00     0.202 C 
BRANCH  78  79
ATOM     79  C   UNL A   1      33.888  27.516  25.558  1.00  0.00     0.261 C 
BRANCH  79  80
ATOM     80  O   UNL A   1      33.532  28.133  24.308  1.00  0.00    -0.459 OA
BRANCH  80  81
ATOM     81  C   UNL A   1      33.218  27.291  23.279  1.00  0.00     0.350 C 
ATOM     82  O   UNL A   1      33.968  27.057  22.338  1.00  0.00    -0.245 OA
BRANCH  81  83
ATOM     83  C   UNL A   1      31.971  26.622  23.584  1.00  0.00     0.136 A 
ATOM     84  S   UNL A   1      30.563  27.590  23.772  1.00  0.00    -0.135 S 
ATOM     85  C   UNL A   1      31.680  25.269  23.686  1.00  0.00     0.075 A 
ATOM     86  C   UNL A   1      29.554  26.222  23.876  1.00  0.00     0.068 A 
ATOM     87  C   UNL A   1      30.277  25.053  23.860  1.00  0.00     0.039 A 
BRANCH  85  88
ATOM     88  N   UNL A   1      32.597  24.203  23.538  1.00  0.00    -0.269 N 
ATOM     89  H   UNL A   1      33.047  24.054  22.676  1.00  0.00     0.181 HD
BRANCH  88  90
ATOM     90  S   UNL A   1      32.915  23.189  24.846  1.00  0.00     0.301 S 
ATOM     91  O   UNL A   1      33.224  24.031  25.978  1.00  0.00    -0.189 OA
ATOM     92  O   UNL A   1      31.855  22.209  24.923  1.00  0.00    -0.189 OA
BRANCH  90  93
ATOM     93  N   UNL A   1      34.335  22.412  24.358  1.00  0.00    -0.185 NA
ATOM     94  C   UNL A   1      35.364  22.298  25.429  1.00  0.00     0.104 C 
ATOM     95  C   UNL A   1      35.003  22.975  23.147  1.00  0.00     0.104 C 
ATOM     96  C   UNL A   1      36.473  23.242  25.001  1.00  0.00     0.018 C 
ATOM     97  C   UNL A   1      36.483  23.061  23.498  1.00  0.00     0.018 C 
ENDBRANCH  90  93
ENDBRANCH  88  90
ENDBRANCH  85  88
ENDBRANCH  81  83
ENDBRANCH  80  81
ENDBRANCH  79  80
ENDBRANCH  78  79
ENDBRANCH  77  78
ENDBRANCH  76  77
ENDBRANCH   1  76
TORSDOF 23
ENDMDL
MODEL 3
REMARK VINA RESULT:      -9.1      5.339     11.785
REMARK SMILES O=C(OCCOCCOCCOCCOC(=O)c1sccc1NS(=O)(=O)N1CCCC1)c1ccc(-c2c3nc(c(-c4c(F)c(F)c(F)c(F)c4F)c4ccc([nH]4)c(-c4c(F)c(F)c(F)c(F)c4F)c4nc(c(-c5c(F)c(F)c(F)c(F)c5F)c5ccc2[nH]5)C=C4)C=C3)cc1
REMARK SMILES IDX 10 1 9 2 8 3 7 4 6 5 5 6 4 7 3 8 2 9 1 10 32 11 33 12 94 13
REMARK SMILES IDX 34 14 93 15 35 16 36 17 37 18 87 19 38 20 92 21 86 22 88 23
REMARK SMILES IDX 39 24 91 25 85 26 84 27 40 29 72 30 52 31 71 32 53 33 56 34
REMARK SMILES IDX 70 35 89 36 54 37 55 38 69 40 90 41 57 42 41 43 42 44 50 45
REMARK SMILES IDX 43 46 44 47 48 48 51 49 45 50 46 51 49 52 47 53 73 54 74 55
REMARK SMILES IDX 82 56 75 57 76 58 80 59 83 60 77 61 78 62 81 63 79 64 58 65
REMARK SMILES IDX 59 66 67 67 60 68 61 69 65 70 68 71 62 72 63 73 66 74 64 75
REMARK SMILES IDX 11 76 12 77 13 78 14 79 15 80 16 81 17 82 18 83 19 84 22 85
REMARK SMILES IDX 20 86 21 87 23 88 24 90 25 91 26 92 27 93 28 94 31 95 29 96
REMARK SMILES IDX 30 97
REMARK H PARENT 88 28 56 39 23 89
REMARK Flexibility Score: inf
ROOT
ATOM      1  C   UNL A   1      33.291  23.878  26.156  1.00  0.00     0.188 C 
ENDROOT
BRANCH   1   2
ATOM      2  O   UNL A   1      33.094  22.514  25.804  1.00  0.00    -0.377 OA
BRANCH   2   3
ATOM      3  C   UNL A   1      33.775  22.015  24.658  1.00  0.00     0.188 C 
BRANCH   3   4
ATOM      4  C   UNL A   1      34.473  20.657  24.788  1.00  0.00     0.188 C 
BRANCH   4   5
ATOM      5  O   UNL A   1      35.631  20.703  25.623  1.00  0.00    -0.376 OA
BRANCH   5   6
ATOM      6  C   UNL A   1      36.869  20.789  24.913  1.00  0.00     0.202 C 
BRANCH   6   7
ATOM      7  C   UNL A   1      37.866  21.768  25.535  1.00  0.00     0.261 C 
BRANCH   7   8
ATOM      8  O   UNL A   1      39.110  21.124  25.850  1.00  0.00    -0.460 OA
BRANCH   8   9
ATOM      9  C   UNL A   1      40.022  21.469  26.790  1.00  0.00     0.338 C 
ATOM     10  O   UNL A   1      40.550  20.566  27.439  1.00  0.00    -0.246 OA
BRANCH   9  11
ATOM     11  C   UNL A   1      40.452  22.876  27.088  1.00  0.00     0.060 A 
ATOM     12  C   UNL A   1      39.950  24.037  26.493  1.00  0.00     0.016 A 
ATOM     13  C   UNL A   1      41.406  23.033  28.112  1.00  0.00     0.016 A 
ATOM     14  C   UNL A   1      40.418  25.300  26.841  1.00  0.00     0.010 A 
ATOM     15  C   UNL A   1      41.867  24.299  28.487  1.00  0.00     0.010 A 
ATOM     16  C   UNL A   1      41.391  25.435  27.826  1.00  0.00    -0.014 A 
BRANCH  16  17
ATOM     17  C   UNL A   1      42.007  26.756  28.033  1.00  0.00     0.031 A 
ATOM     18  C   UNL A   1      43.332  27.019  27.388  1.00  0.00     0.074 A 
ATOM     19  C   UNL A   1      41.345  27.716  28.700  1.00  0.00     0.049 A 
ATOM     20  N   UNL A   1      44.111  28.062  27.481  1.00  0.00    -0.248 NA
ATOM     21  C   UNL A   1      43.845  25.959  26.500  1.00  0.00     0.031 C 
ATOM     22  C   UNL A   1      39.998  27.581  29.255  1.00  0.00     0.029 A 
ATOM     23  N   UNL A   1      41.712  28.998  29.014  1.00  0.00    -0.354 N 
ATOM     24  C   UNL A   1      45.216  27.771  26.694  1.00  0.00     0.074 A 
ATOM     25  C   UNL A   1      45.009  26.461  26.122  1.00  0.00     0.031 C 
ATOM     26  C   UNL A   1      39.654  28.736  29.849  1.00  0.00     0.029 A 
ATOM     27  C   UNL A   1      40.777  29.665  29.766  1.00  0.00     0.049 A 
ATOM     28  H   UNL A   1      42.563  29.401  28.728  1.00  0.00     0.167 HD
ATOM     29  C   UNL A   1      46.311  28.537  26.484  1.00  0.00     0.037 A 
ATOM     30  C   UNL A   1      40.853  30.875  30.353  1.00  0.00     0.037 A 
ATOM     31  C   UNL A   1      46.487  29.837  27.066  1.00  0.00     0.049 A 
ATOM     32  C   UNL A   1      42.124  31.667  30.181  1.00  0.00     0.074 A 
ATOM     33  C   UNL A   1      47.564  30.696  26.963  1.00  0.00     0.029 A 
ATOM     34  N   UNL A   1      45.546  30.463  27.873  1.00  0.00    -0.354 N 
ATOM     35  N   UNL A   1      43.190  31.377  29.473  1.00  0.00    -0.248 NA
ATOM     36  C   UNL A   1      42.214  32.943  30.904  1.00  0.00     0.031 C 
ATOM     37  C   UNL A   1      47.293  31.823  27.745  1.00  0.00     0.029 A 
ATOM     38  C   UNL A   1      46.028  31.687  28.300  1.00  0.00     0.049 A 
ATOM     39  H   UNL A   1      44.665  30.090  28.108  1.00  0.00     0.167 HD
ATOM     40  C   UNL A   1      44.071  32.433  29.655  1.00  0.00     0.074 A 
ATOM     41  C   UNL A   1      43.405  33.383  30.524  1.00  0.00     0.031 C 
ATOM     42  C   UNL A   1      45.323  32.603  29.160  1.00  0.00     0.037 A 
BRANCH  29  43
ATOM     43  C   UNL A   1      47.412  27.944  25.658  1.00  0.00     0.064 A 
ATOM     44  C   UNL A   1      47.400  27.991  24.256  1.00  0.00     0.173 A 
ATOM     45  C   UNL A   1      48.482  27.288  26.285  1.00  0.00     0.173 A 
ATOM     46  F   UNL A   1      46.384  28.579  23.609  1.00  0.00    -0.203 F 
ATOM     47  C   UNL A   1      48.407  27.379  23.513  1.00  0.00     0.198 A 
ATOM     48  C   UNL A   1      49.498  26.698  25.540  1.00  0.00     0.198 A 
ATOM     49  F   UNL A   1      48.534  27.207  27.623  1.00  0.00    -0.203 F 
ATOM     50  F   UNL A   1      48.347  27.387  22.174  1.00  0.00    -0.200 F 
ATOM     51  C   UNL A   1      49.456  26.737  24.154  1.00  0.00     0.200 A 
ATOM     52  F   UNL A   1      50.510  26.079  26.162  1.00  0.00    -0.200 F 
ATOM     53  F   UNL A   1      50.418  26.141  23.437  1.00  0.00    -0.200 F 
ENDBRANCH  29  43
BRANCH  30  54
ATOM     54  C   UNL A   1      39.736  31.373  31.201  1.00  0.00     0.064 A 
ATOM     55  C   UNL A   1      38.839  32.342  30.733  1.00  0.00     0.173 A 
ATOM     56  C   UNL A   1      39.555  30.902  32.513  1.00  0.00     0.173 A 
ATOM     57  F   UNL A   1      38.982  32.845  29.498  1.00  0.00    -0.203 F 
ATOM     58  C   UNL A   1      37.816  32.832  31.546  1.00  0.00     0.198 A 
ATOM     59  C   UNL A   1      38.514  31.370  33.312  1.00  0.00     0.198 A 
ATOM     60  F   UNL A   1      40.387  29.979  33.016  1.00  0.00    -0.203 F 
ATOM     61  F   UNL A   1      37.003  33.794  31.088  1.00  0.00    -0.200 F 
ATOM     62  C   UNL A   1      37.651  32.341  32.832  1.00  0.00     0.200 A 
ATOM     63  F   UNL A   1      38.353  30.881  34.550  1.00  0.00    -0.200 F 
ATOM     64  F   UNL A   1      36.667  32.810  33.611  1.00  0.00    -0.200 F 
ENDBRANCH  30  54
BRANCH  42  65
ATOM     65  C   UNL A   1      46.037  33.865  29.536  1.00  0.00     0.064 A 
ATOM     66  C   UNL A   1      46.874  33.921  30.659  1.00  0.00     0.173 A 
ATOM     67  C   UNL A   1      45.940  35.003  28.723  1.00  0.00     0.173 A 
ATOM     68  F   UNL A   1      46.984  32.859  31.473  1.00  0.00    -0.203 F 
ATOM     69  C   UNL A   1      47.582  35.080  30.962  1.00  0.00     0.198 A 
ATOM     70  C   UNL A   1      46.670  36.151  29.014  1.00  0.00     0.198 A 
ATOM     71  F   UNL A   1      45.157  34.992  27.634  1.00  0.00    -0.203 F 
ATOM     72  F   UNL A   1      48.353  35.125  32.057  1.00  0.00    -0.200 F 
ATOM     73  C   UNL A   1      47.486  36.189  30.134  1.00  0.00     0.200 A 
ATOM     74  F   UNL A   1      46.588  37.217  28.206  1.00  0.00    -0.200 F 
ATOM     75  F   UNL A   1      48.183  37.298  30.418  1.00  0.00    -0.200 F 
ENDBRANCH  42  65
ENDBRANCH  16  17
ENDBRANCH   9  11
ENDBRANCH   8   9
ENDBRANCH   7   8
ENDBRANCH   6   7
ENDBRANCH   5   6
ENDBRANCH   4   5
ENDBRANCH   3   4
ENDBRANCH   2   3
ENDBRANCH   1   2
BRANCH   1  76
ATOM     76  C   UNL A   1      32.848  25.003  25.194  1.00  0.00     0.188 C 
BRANCH  76  77
ATOM     77  O   UNL A   1      33.135  26.328  25.621  1.00  0.00    -0.376 OA
BRANCH  77  78
ATOM     78  C   UNL A   1      32.113  26.965  26.382  1.00  0.00     0.202 C 
BRANCH  78  79
ATOM     79  C   UNL A   1      31.942  28.455  26.052  1.00  0.00     0.261 C 
BRANCH  79  80
ATOM     80  O   UNL A   1      33.152  29.226  26.164  1.00  0.00    -0.459 OA
BRANCH  80  81
ATOM     81  C   UNL A   1      33.079  30.373  26.901  1.00  0.00     0.350 C 
ATOM     82  O   UNL A   1      32.063  31.051  27.008  1.00  0.00    -0.245 OA
BRANCH  81  83
ATOM     83  C   UNL A   1      34.315  30.536  27.639  1.00  0.00     0.136 A 
ATOM     84  S   UNL A   1      35.626  29.494  27.254  1.00  0.00    -0.135 S 
ATOM     85  C   UNL A   1      34.669  31.472  28.599  1.00  0.00     0.075 A 
ATOM     86  C   UNL A   1      36.692  30.349  28.270  1.00  0.00     0.068 A 
ATOM     87  C   UNL A   1      36.048  31.350  28.958  1.00  0.00     0.039 A 
BRANCH  85  88
ATOM     88  N   UNL A   1      33.844  32.502  29.109  1.00  0.00    -0.269 N 
ATOM     89  H   UNL A   1      33.348  32.368  29.948  1.00  0.00     0.181 HD
BRANCH  88  90
ATOM     90  S   UNL A   1      33.715  33.959  28.271  1.00  0.00     0.301 S 
ATOM     91  O   UNL A   1      34.737  33.958  27.250  1.00  0.00    -0.189 OA
ATOM     92  O   UNL A   1      32.326  34.156  27.925  1.00  0.00    -0.189 OA
BRANCH  90  93
ATOM     93  N   UNL A   1      34.145  35.088  29.452  1.00  0.00    -0.185 NA
ATOM     94  C   UNL A   1      33.734  34.709  30.833  1.00  0.00     0.104 C 
ATOM     95  C   UNL A   1      33.686  36.489  29.213  1.00  0.00     0.104 C 
ATOM     96  C   UNL A   1      32.630  35.687  31.189  1.00  0.00     0.018 C 
ATOM     97  C   UNL A   1      33.115  36.966  30.542  1.00  0.00     0.018 C 
ENDBRANCH  90  93
ENDBRANCH  88  90
ENDBRANCH  85  88
ENDBRANCH  81  83
ENDBRANCH  80  81
ENDBRANCH  79  80
ENDBRANCH  78  79
ENDBRANCH  77  78
ENDBRANCH  76  77
ENDBRANCH   1  76
TORSDOF 23
ENDMDL
