MODEL 1
REMARK VINA RESULT:     -10.4      0.000      0.000
REMARK SMILES Cc1nsc(NCCn2cccn2)c1C(=O)OCCOCCOCCOCCOC(=O)c1ccc(-c2c3nc(c(-c4c(F)c(F)c(F)c(F)c4F)c4ccc([nH]4)c(-c4c(F)c(F)c(F)c(F)c4F)c4nc(c(-c5c(F)c(F)c(F)c(F)c5F)c5ccc2[nH]5)C=C4)C=C3)cc1
REMARK SMILES IDX 22 1 21 2 20 3 19 4 18 5 17 6 15 7 16 8 14 9 1 10 2 11 3 12
REMARK SMILES IDX 4 13 5 14 6 15 7 17 8 18 9 19 10 20 13 21 11 22 12 23 23 24
REMARK SMILES IDX 24 25 25 26 26 27 27 28 28 29 29 30 30 31 31 32 32 33 33 34
REMARK SMILES IDX 94 35 34 36 93 37 35 38 36 39 37 40 87 41 38 42 92 43 86 44
REMARK SMILES IDX 88 45 39 46 91 47 85 48 84 49 40 51 72 52 52 53 71 54 53 55
REMARK SMILES IDX 56 56 70 57 89 58 54 59 55 60 69 62 90 63 57 64 41 65 42 66
REMARK SMILES IDX 50 67 43 68 44 69 48 70 51 71 45 72 46 73 49 74 47 75 73 76
REMARK SMILES IDX 74 77 82 78 75 79 76 80 80 81 83 82 77 83 78 84 81 85 79 86
REMARK SMILES IDX 58 87 59 88 67 89 60 90 61 91 65 92 68 93 62 94 63 95 66 96
REMARK SMILES IDX 64 97
REMARK H PARENT 6 16 88 50 56 61
REMARK Flexibility Score: inf
ROOT
ATOM      1  C   UNL A   1      40.113  21.395  26.385  1.00  0.00     0.188 C 
ENDROOT
BRANCH   1   2
ATOM      2  C   UNL A   1      38.825  22.202  26.091  1.00  0.00     0.188 C 
BRANCH   2   3
ATOM      3  O   UNL A   1      37.760  21.423  25.580  1.00  0.00    -0.376 OA
BRANCH   3   4
ATOM      4  C   UNL A   1      36.570  22.063  25.182  1.00  0.00     0.202 C 
BRANCH   4   5
ATOM      5  C   UNL A   1      36.154  23.297  25.995  1.00  0.00     0.261 C 
BRANCH   5   6
ATOM      6  O   UNL A   1      34.769  23.356  26.358  1.00  0.00    -0.460 OA
BRANCH   6   7
ATOM      7  C   UNL A   1      33.958  24.123  25.579  1.00  0.00     0.343 C 
ATOM      8  O   UNL A   1      34.340  24.718  24.575  1.00  0.00    -0.246 OA
BRANCH   7   9
ATOM      9  C   UNL A   1      32.565  24.017  25.991  1.00  0.00     0.117 A 
ATOM     10  C   UNL A   1      32.083  26.549  26.429  1.00  0.00     0.069 C 
ATOM     11  C   UNL A   1      31.703  25.109  26.374  1.00  0.00     0.068 A 
ATOM     12  N   UNL A   1      30.469  24.778  26.753  1.00  0.00    -0.195 NA
ATOM     13  S   UNL A   1      30.326  23.136  26.733  1.00  0.00    -0.018 S 
ATOM     14  C   UNL A   1      31.932  22.798  26.223  1.00  0.00     0.124 A 
BRANCH  14  15
ATOM     15  N   UNL A   1      32.496  21.569  26.120  1.00  0.00    -0.373 N 
ATOM     16  H   UNL A   1      33.004  21.250  26.901  1.00  0.00     0.161 HD
BRANCH  15  17
ATOM     17  C   UNL A   1      32.429  20.673  24.977  1.00  0.00     0.137 C 
BRANCH  17  18
ATOM     18  C   UNL A   1      33.704  19.825  24.910  1.00  0.00     0.165 C 
BRANCH  18  19
ATOM     19  N   UNL A   1      33.427  18.400  24.877  1.00  0.00    -0.271 N 
ATOM     20  C   UNL A   1      33.960  17.477  24.024  1.00  0.00     0.108 A 
ATOM     21  N   UNL A   1      32.568  17.862  25.769  1.00  0.00    -0.181 NA
ATOM     22  C   UNL A   1      33.411  16.267  24.382  1.00  0.00     0.042 A 
ATOM     23  C   UNL A   1      32.562  16.563  25.463  1.00  0.00     0.135 A 
ENDBRANCH  18  19
ENDBRANCH  17  18
ENDBRANCH  15  17
ENDBRANCH  14  15
ENDBRANCH   7   9
ENDBRANCH   6   7
ENDBRANCH   5   6
ENDBRANCH   4   5
ENDBRANCH   3   4
ENDBRANCH   2   3
ENDBRANCH   1   2
BRANCH   1  24
ATOM     24  O   UNL A   1      40.256  20.015  26.064  1.00  0.00    -0.377 OA
BRANCH  24  25
ATOM     25  C   UNL A   1      41.527  19.395  26.135  1.00  0.00     0.188 C 
BRANCH  25  26
ATOM     26  C   UNL A   1      42.801  20.275  26.186  1.00  0.00     0.188 C 
BRANCH  26  27
ATOM     27  O   UNL A   1      43.573  20.408  25.008  1.00  0.00    -0.376 OA
BRANCH  27  28
ATOM     28  C   UNL A   1      44.479  21.450  24.696  1.00  0.00     0.202 C 
BRANCH  28  29
ATOM     29  C   UNL A   1      44.107  22.857  24.241  1.00  0.00     0.261 C 
BRANCH  29  30
ATOM     30  O   UNL A   1      43.157  23.502  25.042  1.00  0.00    -0.460 OA
BRANCH  30  31
ATOM     31  C   UNL A   1      43.474  24.765  25.347  1.00  0.00     0.338 C 
ATOM     32  O   UNL A   1      44.432  25.420  24.941  1.00  0.00    -0.246 OA
BRANCH  31  33
ATOM     33  C   UNL A   1      42.495  25.243  26.314  1.00  0.00     0.060 A 
ATOM     34  C   UNL A   1      41.482  26.058  25.811  1.00  0.00     0.016 A 
ATOM     35  C   UNL A   1      42.838  25.192  27.674  1.00  0.00     0.016 A 
ATOM     36  C   UNL A   1      41.055  27.080  26.613  1.00  0.00     0.010 A 
ATOM     37  C   UNL A   1      42.420  26.217  28.470  1.00  0.00     0.010 A 
ATOM     38  C   UNL A   1      41.651  27.209  27.872  1.00  0.00    -0.014 A 
BRANCH  38  39
ATOM     39  C   UNL A   1      41.511  28.468  28.551  1.00  0.00     0.031 A 
ATOM     40  C   UNL A   1      42.618  29.390  28.268  1.00  0.00     0.074 A 
ATOM     41  C   UNL A   1      40.415  28.731  29.287  1.00  0.00     0.049 A 
ATOM     42  N   UNL A   1      43.532  29.793  29.083  1.00  0.00    -0.248 NA
ATOM     43  C   UNL A   1      42.849  29.751  26.860  1.00  0.00     0.031 C 
ATOM     44  C   UNL A   1      39.178  27.949  29.405  1.00  0.00     0.029 A 
ATOM     45  N   UNL A   1      40.152  29.832  30.034  1.00  0.00    -0.354 N 
ATOM     46  C   UNL A   1      44.339  30.632  28.330  1.00  0.00     0.074 A 
ATOM     47  C   UNL A   1      44.004  30.406  26.949  1.00  0.00     0.031 C 
ATOM     48  C   UNL A   1      38.224  28.710  29.990  1.00  0.00     0.029 A 
ATOM     49  C   UNL A   1      38.822  29.968  30.402  1.00  0.00     0.049 A 
ATOM     50  H   UNL A   1      40.846  30.480  30.292  1.00  0.00     0.167 HD
ATOM     51  C   UNL A   1      45.001  31.661  28.916  1.00  0.00     0.037 A 
ATOM     52  C   UNL A   1      38.265  31.093  30.911  1.00  0.00     0.037 A 
ATOM     53  C   UNL A   1      45.125  31.471  30.338  1.00  0.00     0.049 A 
ATOM     54  C   UNL A   1      39.377  31.920  31.457  1.00  0.00     0.074 A 
ATOM     55  C   UNL A   1      45.744  30.531  31.138  1.00  0.00     0.029 A 
ATOM     56  N   UNL A   1      44.228  32.121  31.149  1.00  0.00    -0.354 N 
ATOM     57  N   UNL A   1      40.098  31.561  32.487  1.00  0.00    -0.248 NA
ATOM     58  C   UNL A   1      40.002  32.888  30.569  1.00  0.00     0.031 C 
ATOM     59  C   UNL A   1      44.874  30.357  32.255  1.00  0.00     0.029 A 
ATOM     60  C   UNL A   1      43.797  31.232  32.101  1.00  0.00     0.049 A 
ATOM     61  H   UNL A   1      43.945  33.061  31.064  1.00  0.00     0.167 HD
ATOM     62  C   UNL A   1      41.398  31.924  32.157  1.00  0.00     0.074 A 
ATOM     63  C   UNL A   1      41.265  32.804  30.999  1.00  0.00     0.031 C 
ATOM     64  C   UNL A   1      42.468  31.246  32.669  1.00  0.00     0.037 A 
BRANCH  51  65
ATOM     65  C   UNL A   1      45.153  33.003  28.257  1.00  0.00     0.064 A 
ATOM     66  C   UNL A   1      46.443  33.503  28.017  1.00  0.00     0.173 A 
ATOM     67  C   UNL A   1      44.097  33.934  28.124  1.00  0.00     0.173 A 
ATOM     68  F   UNL A   1      47.516  32.706  28.147  1.00  0.00    -0.203 F 
ATOM     69  C   UNL A   1      46.663  34.850  27.729  1.00  0.00     0.198 A 
ATOM     70  C   UNL A   1      44.315  35.262  27.777  1.00  0.00     0.198 A 
ATOM     71  F   UNL A   1      42.831  33.632  28.439  1.00  0.00    -0.203 F 
ATOM     72  F   UNL A   1      47.917  35.312  27.631  1.00  0.00    -0.200 F 
ATOM     73  C   UNL A   1      45.600  35.729  27.612  1.00  0.00     0.200 A 
ATOM     74  F   UNL A   1      43.272  36.100  27.692  1.00  0.00    -0.200 F 
ATOM     75  F   UNL A   1      45.814  37.033  27.396  1.00  0.00    -0.200 F 
ENDBRANCH  51  65
BRANCH  52  76
ATOM     76  C   UNL A   1      36.934  31.645  30.564  1.00  0.00     0.064 A 
ATOM     77  C   UNL A   1      35.982  31.944  31.549  1.00  0.00     0.173 A 
ATOM     78  C   UNL A   1      36.661  32.124  29.266  1.00  0.00     0.173 A 
ATOM     79  F   UNL A   1      36.194  31.578  32.823  1.00  0.00    -0.203 F 
ATOM     80  C   UNL A   1      34.825  32.677  31.254  1.00  0.00     0.198 A 
ATOM     81  C   UNL A   1      35.506  32.849  28.970  1.00  0.00     0.198 A 
ATOM     82  F   UNL A   1      37.554  31.979  28.277  1.00  0.00    -0.203 F 
ATOM     83  F   UNL A   1      33.960  32.984  32.229  1.00  0.00    -0.200 F 
ATOM     84  C   UNL A   1      34.591  33.131  29.966  1.00  0.00     0.200 A 
ATOM     85  F   UNL A   1      35.316  33.317  27.729  1.00  0.00    -0.200 F 
ATOM     86  F   UNL A   1      33.509  33.874  29.691  1.00  0.00    -0.200 F 
ENDBRANCH  52  76
BRANCH  64  87
ATOM     87  C   UNL A   1      42.192  30.253  33.767  1.00  0.00     0.064 A 
ATOM     88  C   UNL A   1      41.817  28.918  33.533  1.00  0.00     0.173 A 
ATOM     89  C   UNL A   1      42.460  30.622  35.090  1.00  0.00     0.173 A 
ATOM     90  F   UNL A   1      41.644  28.462  32.287  1.00  0.00    -0.203 F 
ATOM     91  C   UNL A   1      41.674  28.010  34.580  1.00  0.00     0.198 A 
ATOM     92  C   UNL A   1      42.350  29.704  36.132  1.00  0.00     0.198 A 
ATOM     93  F   UNL A   1      42.881  31.866  35.367  1.00  0.00    -0.203 F 
ATOM     94  F   UNL A   1      41.306  26.744  34.328  1.00  0.00    -0.200 F 
ATOM     95  C   UNL A   1      41.948  28.402  35.879  1.00  0.00     0.200 A 
ATOM     96  F   UNL A   1      42.666  30.074  37.381  1.00  0.00    -0.200 F 
ATOM     97  F   UNL A   1      41.853  27.520  36.883  1.00  0.00    -0.200 F 
ENDBRANCH  64  87
ENDBRANCH  38  39
ENDBRANCH  31  33
ENDBRANCH  30  31
ENDBRANCH  29  30
ENDBRANCH  28  29
ENDBRANCH  27  28
ENDBRANCH  26  27
ENDBRANCH  25  26
ENDBRANCH  24  25
ENDBRANCH   1  24
TORSDOF 24
ENDMDL
MODEL 2
REMARK VINA RESULT:     -10.1      2.127      2.647
REMARK SMILES Cc1nsc(NCCn2cccn2)c1C(=O)OCCOCCOCCOCCOC(=O)c1ccc(-c2c3nc(c(-c4c(F)c(F)c(F)c(F)c4F)c4ccc([nH]4)c(-c4c(F)c(F)c(F)c(F)c4F)c4nc(c(-c5c(F)c(F)c(F)c(F)c5F)c5ccc2[nH]5)C=C4)C=C3)cc1
REMARK SMILES IDX 22 1 21 2 20 3 19 4 18 5 17 6 15 7 16 8 14 9 1 10 2 11 3 12
REMARK SMILES IDX 4 13 5 14 6 15 7 17 8 18 9 19 10 20 13 21 11 22 12 23 23 24
REMARK SMILES IDX 24 25 25 26 26 27 27 28 28 29 29 30 30 31 31 32 32 33 33 34
REMARK SMILES IDX 94 35 34 36 93 37 35 38 36 39 37 40 87 41 38 42 92 43 86 44
REMARK SMILES IDX 88 45 39 46 91 47 85 48 84 49 40 51 72 52 52 53 71 54 53 55
REMARK SMILES IDX 56 56 70 57 89 58 54 59 55 60 69 62 90 63 57 64 41 65 42 66
REMARK SMILES IDX 50 67 43 68 44 69 48 70 51 71 45 72 46 73 49 74 47 75 73 76
REMARK SMILES IDX 74 77 82 78 75 79 76 80 80 81 83 82 77 83 78 84 81 85 79 86
REMARK SMILES IDX 58 87 59 88 67 89 60 90 61 91 65 92 68 93 62 94 63 95 66 96
REMARK SMILES IDX 64 97
REMARK H PARENT 6 16 88 50 56 61
REMARK Flexibility Score: inf
ROOT
ATOM      1  C   UNL A   1      40.622  21.867  27.327  1.00  0.00     0.188 C 
ENDROOT
BRANCH   1   2
ATOM      2  C   UNL A   1      39.568  22.204  26.244  1.00  0.00     0.188 C 
BRANCH   2   3
ATOM      3  O   UNL A   1      38.843  23.393  26.495  1.00  0.00    -0.376 OA
BRANCH   3   4
ATOM      4  C   UNL A   1      37.749  23.717  25.669  1.00  0.00     0.202 C 
BRANCH   4   5
ATOM      5  C   UNL A   1      36.648  22.655  25.547  1.00  0.00     0.261 C 
BRANCH   5   6
ATOM      6  O   UNL A   1      35.315  23.163  25.415  1.00  0.00    -0.460 OA
BRANCH   6   7
ATOM      7  C   UNL A   1      34.920  23.550  24.171  1.00  0.00     0.343 C 
ATOM      8  O   UNL A   1      35.594  23.381  23.159  1.00  0.00    -0.246 OA
BRANCH   7   9
ATOM      9  C   UNL A   1      33.548  24.038  24.172  1.00  0.00     0.117 A 
ATOM     10  C   UNL A   1      33.954  26.376  25.269  1.00  0.00     0.069 C 
ATOM     11  C   UNL A   1      33.097  25.318  24.662  1.00  0.00     0.068 A 
ATOM     12  N   UNL A   1      31.785  25.541  24.600  1.00  0.00    -0.195 NA
ATOM     13  S   UNL A   1      31.040  24.191  24.019  1.00  0.00    -0.018 S 
ATOM     14  C   UNL A   1      32.458  23.237  23.838  1.00  0.00     0.124 A 
BRANCH  14  15
ATOM     15  N   UNL A   1      32.501  21.928  23.487  1.00  0.00    -0.373 N 
ATOM     16  H   UNL A   1      32.783  21.728  22.565  1.00  0.00     0.161 HD
BRANCH  15  17
ATOM     17  C   UNL A   1      32.175  20.789  24.330  1.00  0.00     0.137 C 
BRANCH  17  18
ATOM     18  C   UNL A   1      33.464  20.150  24.856  1.00  0.00     0.165 C 
BRANCH  18  19
ATOM     19  N   UNL A   1      33.685  18.817  24.324  1.00  0.00    -0.271 N 
ATOM     20  C   UNL A   1      32.829  18.086  23.552  1.00  0.00     0.108 A 
ATOM     21  N   UNL A   1      34.848  18.178  24.573  1.00  0.00    -0.181 NA
ATOM     22  C   UNL A   1      33.474  16.901  23.285  1.00  0.00     0.042 A 
ATOM     23  C   UNL A   1      34.715  17.012  23.938  1.00  0.00     0.135 A 
ENDBRANCH  18  19
ENDBRANCH  17  18
ENDBRANCH  15  17
ENDBRANCH  14  15
ENDBRANCH   7   9
ENDBRANCH   6   7
ENDBRANCH   5   6
ENDBRANCH   4   5
ENDBRANCH   3   4
ENDBRANCH   2   3
ENDBRANCH   1   2
BRANCH   1  24
ATOM     24  O   UNL A   1      41.381  20.662  27.325  1.00  0.00    -0.377 OA
BRANCH  24  25
ATOM     25  C   UNL A   1      41.547  19.926  26.127  1.00  0.00     0.188 C 
BRANCH  25  26
ATOM     26  C   UNL A   1      42.907  19.242  25.836  1.00  0.00     0.188 C 
BRANCH  26  27
ATOM     27  O   UNL A   1      43.570  19.554  24.627  1.00  0.00    -0.376 OA
BRANCH  27  28
ATOM     28  C   UNL A   1      44.929  19.313  24.313  1.00  0.00     0.202 C 
BRANCH  28  29
ATOM     29  C   UNL A   1      46.083  20.292  24.504  1.00  0.00     0.261 C 
BRANCH  29  30
ATOM     30  O   UNL A   1      45.785  21.403  25.303  1.00  0.00    -0.460 OA
BRANCH  30  31
ATOM     31  C   UNL A   1      45.102  22.360  24.667  1.00  0.00     0.338 C 
ATOM     32  O   UNL A   1      45.293  22.794  23.532  1.00  0.00    -0.246 OA
BRANCH  31  33
ATOM     33  C   UNL A   1      44.090  22.864  25.585  1.00  0.00     0.060 A 
ATOM     34  C   UNL A   1      43.095  23.663  25.026  1.00  0.00     0.016 A 
ATOM     35  C   UNL A   1      44.385  22.850  26.958  1.00  0.00     0.016 A 
ATOM     36  C   UNL A   1      42.640  24.707  25.784  1.00  0.00     0.010 A 
ATOM     37  C   UNL A   1      43.940  23.897  27.710  1.00  0.00     0.010 A 
ATOM     38  C   UNL A   1      43.192  24.871  27.058  1.00  0.00    -0.014 A 
BRANCH  38  39
ATOM     39  C   UNL A   1      43.028  26.148  27.698  1.00  0.00     0.031 A 
ATOM     40  C   UNL A   1      44.079  27.104  27.328  1.00  0.00     0.074 A 
ATOM     41  C   UNL A   1      41.957  26.392  28.475  1.00  0.00     0.049 A 
ATOM     42  N   UNL A   1      45.011  27.576  28.083  1.00  0.00    -0.248 NA
ATOM     43  C   UNL A   1      44.227  27.420  25.898  1.00  0.00     0.031 C 
ATOM     44  C   UNL A   1      40.762  25.564  28.681  1.00  0.00     0.029 A 
ATOM     45  N   UNL A   1      41.681  27.509  29.193  1.00  0.00    -0.354 N 
ATOM     46  C   UNL A   1      45.744  28.420  27.262  1.00  0.00     0.074 A 
ATOM     47  C   UNL A   1      45.356  28.127  25.908  1.00  0.00     0.031 C 
ATOM     48  C   UNL A   1      39.804  26.305  29.283  1.00  0.00     0.029 A 
ATOM     49  C   UNL A   1      40.364  27.602  29.620  1.00  0.00     0.049 A 
ATOM     50  H   UNL A   1      42.357  28.195  29.395  1.00  0.00     0.167 HD
ATOM     51  C   UNL A   1      46.387  29.498  27.778  1.00  0.00     0.037 A 
ATOM     52  C   UNL A   1      39.782  28.722  30.115  1.00  0.00     0.037 A 
ATOM     53  C   UNL A   1      46.585  29.368  29.198  1.00  0.00     0.049 A 
ATOM     54  C   UNL A   1      40.881  29.615  30.576  1.00  0.00     0.074 A 
ATOM     55  C   UNL A   1      47.281  28.486  30.001  1.00  0.00     0.029 A 
ATOM     56  N   UNL A   1      45.699  30.010  30.028  1.00  0.00    -0.354 N 
ATOM     57  N   UNL A   1      41.665  29.326  31.582  1.00  0.00    -0.248 NA
ATOM     58  C   UNL A   1      41.421  30.574  29.624  1.00  0.00     0.031 C 
ATOM     59  C   UNL A   1      46.473  28.318  31.164  1.00  0.00     0.029 A 
ATOM     60  C   UNL A   1      45.353  29.140  31.031  1.00  0.00     0.049 A 
ATOM     61  H   UNL A   1      45.371  30.933  29.922  1.00  0.00     0.167 HD
ATOM     62  C   UNL A   1      42.930  29.732  31.177  1.00  0.00     0.074 A 
ATOM     63  C   UNL A   1      42.705  30.560  29.996  1.00  0.00     0.031 C 
ATOM     64  C   UNL A   1      44.052  29.120  31.661  1.00  0.00     0.037 A 
BRANCH  51  65
ATOM     65  C   UNL A   1      46.448  30.819  27.064  1.00  0.00     0.064 A 
ATOM     66  C   UNL A   1      47.675  31.498  26.990  1.00  0.00     0.173 A 
ATOM     67  C   UNL A   1      45.305  31.573  26.712  1.00  0.00     0.173 A 
ATOM     68  F   UNL A   1      48.816  30.879  27.333  1.00  0.00    -0.203 F 
ATOM     69  C   UNL A   1      47.743  32.850  26.653  1.00  0.00     0.198 A 
ATOM     70  C   UNL A   1      45.383  32.903  26.318  1.00  0.00     0.198 A 
ATOM     71  F   UNL A   1      44.062  31.096  26.851  1.00  0.00    -0.203 F 
ATOM     72  F   UNL A   1      48.917  33.492  26.717  1.00  0.00    -0.200 F 
ATOM     73  C   UNL A   1      46.597  33.552  26.319  1.00  0.00     0.200 A 
ATOM     74  F   UNL A   1      44.257  33.569  26.021  1.00  0.00    -0.200 F 
ATOM     75  F   UNL A   1      46.654  34.863  26.054  1.00  0.00    -0.200 F 
ENDBRANCH  51  65
BRANCH  52  76
ATOM     76  C   UNL A   1      38.413  29.203  29.812  1.00  0.00     0.064 A 
ATOM     77  C   UNL A   1      37.545  29.634  30.826  1.00  0.00     0.173 A 
ATOM     78  C   UNL A   1      38.017  29.482  28.488  1.00  0.00     0.173 A 
ATOM     79  F   UNL A   1      37.877  29.462  32.115  1.00  0.00    -0.203 F 
ATOM     80  C   UNL A   1      36.350  30.304  30.532  1.00  0.00     0.198 A 
ATOM     81  C   UNL A   1      36.823  30.143  28.195  1.00  0.00     0.198 A 
ATOM     82  F   UNL A   1      38.823  29.201  27.454  1.00  0.00    -0.203 F 
ATOM     83  F   UNL A   1      35.567  30.743  31.526  1.00  0.00    -0.200 F 
ATOM     84  C   UNL A   1      35.993  30.561  29.218  1.00  0.00     0.200 A 
ATOM     85  F   UNL A   1      36.514  30.422  26.921  1.00  0.00    -0.200 F 
ATOM     86  F   UNL A   1      34.875  31.243  28.936  1.00  0.00    -0.200 F 
ENDBRANCH  52  76
BRANCH  64  87
ATOM     87  C   UNL A   1      43.872  28.159  32.807  1.00  0.00     0.064 A 
ATOM     88  C   UNL A   1      43.782  26.764  32.646  1.00  0.00     0.173 A 
ATOM     89  C   UNL A   1      43.941  28.651  34.114  1.00  0.00     0.173 A 
ATOM     90  F   UNL A   1      43.815  26.210  31.428  1.00  0.00    -0.203 F 
ATOM     91  C   UNL A   1      43.720  25.909  33.745  1.00  0.00     0.198 A 
ATOM     92  C   UNL A   1      43.914  27.793  35.212  1.00  0.00     0.198 A 
ATOM     93  F   UNL A   1      44.089  29.968  34.328  1.00  0.00    -0.203 F 
ATOM     94  F   UNL A   1      43.627  24.583  33.562  1.00  0.00    -0.200 F 
ATOM     95  C   UNL A   1      43.794  26.424  35.027  1.00  0.00     0.200 A 
ATOM     96  F   UNL A   1      44.036  28.292  36.450  1.00  0.00    -0.200 F 
ATOM     97  F   UNL A   1      43.778  25.602  36.086  1.00  0.00    -0.200 F 
ENDBRANCH  64  87
ENDBRANCH  38  39
ENDBRANCH  31  33
ENDBRANCH  30  31
ENDBRANCH  29  30
ENDBRANCH  28  29
ENDBRANCH  27  28
ENDBRANCH  26  27
ENDBRANCH  25  26
ENDBRANCH  24  25
ENDBRANCH   1  24
TORSDOF 24
ENDMDL
MODEL 3
REMARK VINA RESULT:      -9.9      2.849      5.265
REMARK SMILES Cc1nsc(NCCn2cccn2)c1C(=O)OCCOCCOCCOCCOC(=O)c1ccc(-c2c3nc(c(-c4c(F)c(F)c(F)c(F)c4F)c4ccc([nH]4)c(-c4c(F)c(F)c(F)c(F)c4F)c4nc(c(-c5c(F)c(F)c(F)c(F)c5F)c5ccc2[nH]5)C=C4)C=C3)cc1
REMARK SMILES IDX 22 1 21 2 20 3 19 4 18 5 17 6 15 7 16 8 14 9 1 10 2 11 3 12
REMARK SMILES IDX 4 13 5 14 6 15 7 17 8 18 9 19 10 20 13 21 11 22 12 23 23 24
REMARK SMILES IDX 24 25 25 26 26 27 27 28 28 29 29 30 30 31 31 32 32 33 33 34
REMARK SMILES IDX 94 35 34 36 93 37 35 38 36 39 37 40 87 41 38 42 92 43 86 44
REMARK SMILES IDX 88 45 39 46 91 47 85 48 84 49 40 51 72 52 52 53 71 54 53 55
REMARK SMILES IDX 56 56 70 57 89 58 54 59 55 60 69 62 90 63 57 64 41 65 42 66
REMARK SMILES IDX 50 67 43 68 44 69 48 70 51 71 45 72 46 73 49 74 47 75 73 76
REMARK SMILES IDX 74 77 82 78 75 79 76 80 80 81 83 82 77 83 78 84 81 85 79 86
REMARK SMILES IDX 58 87 59 88 67 89 60 90 61 91 65 92 68 93 62 94 63 95 66 96
REMARK SMILES IDX 64 97
REMARK H PARENT 6 16 88 50 56 61
REMARK Flexibility Score: inf
ROOT
ATOM      1  C   UNL A   1      33.055  22.621  26.415  1.00  0.00     0.188 C 
ENDROOT
BRANCH   1   2
ATOM      2  C   UNL A   1      33.877  23.927  26.287  1.00  0.00     0.188 C 
BRANCH   2   3
ATOM      3  O   UNL A   1      34.092  24.343  24.952  1.00  0.00    -0.376 OA
BRANCH   3   4
ATOM      4  C   UNL A   1      34.062  25.719  24.648  1.00  0.00     0.202 C 
BRANCH   4   5
ATOM      5  C   UNL A   1      32.675  26.344  24.447  1.00  0.00     0.261 C 
BRANCH   5   6
ATOM      6  O   UNL A   1      32.639  27.500  23.601  1.00  0.00    -0.460 OA
BRANCH   6   7
ATOM      7  C   UNL A   1      33.472  28.528  23.923  1.00  0.00     0.343 C 
ATOM      8  O   UNL A   1      34.510  28.778  23.318  1.00  0.00    -0.246 OA
BRANCH   7   9
ATOM      9  C   UNL A   1      32.899  29.377  24.958  1.00  0.00     0.117 A 
ATOM     10  C   UNL A   1      34.561  28.819  26.898  1.00  0.00     0.069 C 
ATOM     11  C   UNL A   1      33.386  29.522  26.309  1.00  0.00     0.068 A 
ATOM     12  N   UNL A   1      32.682  30.328  27.103  1.00  0.00    -0.195 NA
ATOM     13  S   UNL A   1      31.369  30.882  26.275  1.00  0.00    -0.018 S 
ATOM     14  C   UNL A   1      31.686  30.044  24.808  1.00  0.00     0.124 A 
BRANCH  14  15
ATOM     15  N   UNL A   1      30.874  29.998  23.722  1.00  0.00    -0.373 N 
ATOM     16  H   UNL A   1      31.314  30.006  22.842  1.00  0.00     0.161 HD
BRANCH  15  17
ATOM     17  C   UNL A   1      29.421  29.939  23.723  1.00  0.00     0.137 C 
BRANCH  17  18
ATOM     18  C   UNL A   1      28.847  31.356  23.624  1.00  0.00     0.165 C 
BRANCH  18  19
ATOM     19  N   UNL A   1      28.433  31.700  22.275  1.00  0.00    -0.271 N 
ATOM     20  C   UNL A   1      28.252  30.844  21.227  1.00  0.00     0.108 A 
ATOM     21  N   UNL A   1      28.172  32.986  21.959  1.00  0.00    -0.181 NA
ATOM     22  C   UNL A   1      27.851  31.623  20.166  1.00  0.00     0.042 A 
ATOM     23  C   UNL A   1      27.818  32.933  20.674  1.00  0.00     0.135 A 
ENDBRANCH  18  19
ENDBRANCH  17  18
ENDBRANCH  15  17
ENDBRANCH  14  15
ENDBRANCH   7   9
ENDBRANCH   6   7
ENDBRANCH   5   6
ENDBRANCH   4   5
ENDBRANCH   3   4
ENDBRANCH   2   3
ENDBRANCH   1   2
BRANCH   1  24
ATOM     24  O   UNL A   1      32.943  21.666  25.364  1.00  0.00    -0.377 OA
BRANCH  24  25
ATOM     25  C   UNL A   1      33.892  20.622  25.246  1.00  0.00     0.188 C 
BRANCH  25  26
ATOM     26  C   UNL A   1      35.335  20.954  24.791  1.00  0.00     0.188 C 
BRANCH  26  27
ATOM     27  O   UNL A   1      36.257  21.409  25.761  1.00  0.00    -0.376 OA
BRANCH  27  28
ATOM     28  C   UNL A   1      37.355  22.278  25.552  1.00  0.00     0.202 C 
BRANCH  28  29
ATOM     29  C   UNL A   1      37.722  23.484  26.411  1.00  0.00     0.261 C 
BRANCH  29  30
ATOM     30  O   UNL A   1      38.955  24.073  26.100  1.00  0.00    -0.460 OA
BRANCH  30  31
ATOM     31  C   UNL A   1      39.946  23.719  26.924  1.00  0.00     0.338 C 
ATOM     32  O   UNL A   1      40.059  22.674  27.562  1.00  0.00    -0.246 OA
BRANCH  31  33
ATOM     33  C   UNL A   1      40.882  24.833  26.989  1.00  0.00     0.060 A 
ATOM     34  C   UNL A   1      41.614  24.953  28.169  1.00  0.00     0.016 A 
ATOM     35  C   UNL A   1      40.709  25.889  26.080  1.00  0.00     0.016 A 
ATOM     36  C   UNL A   1      41.872  26.221  28.612  1.00  0.00     0.010 A 
ATOM     37  C   UNL A   1      40.956  27.154  26.527  1.00  0.00     0.010 A 
ATOM     38  C   UNL A   1      41.400  27.286  27.838  1.00  0.00    -0.014 A 
BRANCH  38  39
ATOM     39  C   UNL A   1      41.310  28.578  28.463  1.00  0.00     0.031 A 
ATOM     40  C   UNL A   1      42.409  29.471  28.075  1.00  0.00     0.074 A 
ATOM     41  C   UNL A   1      40.260  28.889  29.244  1.00  0.00     0.049 A 
ATOM     42  N   UNL A   1      43.371  29.901  28.818  1.00  0.00    -0.248 NA
ATOM     43  C   UNL A   1      42.564  29.762  26.640  1.00  0.00     0.031 C 
ATOM     44  C   UNL A   1      39.023  28.129  29.469  1.00  0.00     0.029 A 
ATOM     45  N   UNL A   1      40.050  30.027  29.951  1.00  0.00    -0.354 N 
ATOM     46  C   UNL A   1      44.143  30.694  27.981  1.00  0.00     0.074 A 
ATOM     47  C   UNL A   1      43.729  30.406  26.633  1.00  0.00     0.031 C 
ATOM     48  C   UNL A   1      38.111  28.929  30.068  1.00  0.00     0.029 A 
ATOM     49  C   UNL A   1      38.743  30.197  30.385  1.00  0.00     0.049 A 
ATOM     50  H   UNL A   1      40.764  30.678  30.139  1.00  0.00     0.167 HD
ATOM     51  C   UNL A   1      44.846  31.741  28.480  1.00  0.00     0.037 A 
ATOM     52  C   UNL A   1      38.227  31.352  30.870  1.00  0.00     0.037 A 
ATOM     53  C   UNL A   1      45.047  31.617  29.900  1.00  0.00     0.049 A 
ATOM     54  C   UNL A   1      39.375  32.190  31.313  1.00  0.00     0.074 A 
ATOM     55  C   UNL A   1      45.701  30.708  30.709  1.00  0.00     0.029 A 
ATOM     56  N   UNL A   1      44.204  32.317  30.728  1.00  0.00    -0.354 N 
ATOM     57  N   UNL A   1      40.150  31.871  32.317  1.00  0.00    -0.248 NA
ATOM     58  C   UNL A   1      39.960  33.107  30.346  1.00  0.00     0.031 C 
ATOM     59  C   UNL A   1      44.893  30.599  31.879  1.00  0.00     0.029 A 
ATOM     60  C   UNL A   1      43.818  31.479  31.744  1.00  0.00     0.049 A 
ATOM     61  H   UNL A   1      43.925  33.254  30.613  1.00  0.00     0.167 HD
ATOM     62  C   UNL A   1      41.433  32.203  31.899  1.00  0.00     0.074 A 
ATOM     63  C   UNL A   1      41.244  33.028  30.709  1.00  0.00     0.031 C 
ATOM     64  C   UNL A   1      42.523  31.537  32.383  1.00  0.00     0.037 A 
BRANCH  51  65
ATOM     65  C   UNL A   1      44.974  33.048  27.749  1.00  0.00     0.064 A 
ATOM     66  C   UNL A   1      46.222  33.413  27.219  1.00  0.00     0.173 A 
ATOM     67  C   UNL A   1      44.004  34.076  27.807  1.00  0.00     0.173 A 
ATOM     68  F   UNL A   1      47.220  32.518  27.149  1.00  0.00    -0.203 F 
ATOM     69  C   UNL A   1      46.497  34.727  26.836  1.00  0.00     0.198 A 
ATOM     70  C   UNL A   1      44.263  35.369  27.369  1.00  0.00     0.198 A 
ATOM     71  F   UNL A   1      42.815  33.906  28.397  1.00  0.00    -0.203 F 
ATOM     72  F   UNL A   1      47.737  35.061  26.454  1.00  0.00    -0.200 F 
ATOM     73  C   UNL A   1      45.519  35.704  26.914  1.00  0.00     0.200 A 
ATOM     74  F   UNL A   1      43.307  36.303  27.474  1.00  0.00    -0.200 F 
ATOM     75  F   UNL A   1      45.799  36.975  26.604  1.00  0.00    -0.200 F 
ENDBRANCH  51  65
BRANCH  52  76
ATOM     76  C   UNL A   1      36.884  31.903  30.571  1.00  0.00     0.064 A 
ATOM     77  C   UNL A   1      36.021  32.331  31.590  1.00  0.00     0.173 A 
ATOM     78  C   UNL A   1      36.518  32.252  29.254  1.00  0.00     0.173 A 
ATOM     79  F   UNL A   1      36.327  32.094  32.875  1.00  0.00    -0.203 F 
ATOM     80  C   UNL A   1      34.860  33.062  31.309  1.00  0.00     0.198 A 
ATOM     81  C   UNL A   1      35.357  32.975  28.974  1.00  0.00     0.198 A 
ATOM     82  F   UNL A   1      37.325  31.978  28.219  1.00  0.00    -0.203 F 
ATOM     83  F   UNL A   1      34.082  33.495  32.311  1.00  0.00    -0.200 F 
ATOM     84  C   UNL A   1      34.532  33.387  30.002  1.00  0.00     0.200 A 
ATOM     85  F   UNL A   1      35.078  33.317  27.708  1.00  0.00    -0.200 F 
ATOM     86  F   UNL A   1      33.447  34.127  29.735  1.00  0.00    -0.200 F 
ENDBRANCH  52  76
BRANCH  64  87
ATOM     87  C   UNL A   1      42.299  30.600  33.541  1.00  0.00     0.064 A 
ATOM     88  C   UNL A   1      42.316  31.008  34.887  1.00  0.00     0.173 A 
ATOM     89  C   UNL A   1      41.911  29.283  33.274  1.00  0.00     0.173 A 
ATOM     90  F   UNL A   1      42.577  32.279  35.215  1.00  0.00    -0.203 F 
ATOM     91  C   UNL A   1      42.001  30.125  35.918  1.00  0.00     0.198 A 
ATOM     92  C   UNL A   1      41.562  28.410  34.304  1.00  0.00     0.198 A 
ATOM     93  F   UNL A   1      41.817  28.855  32.006  1.00  0.00    -0.203 F 
ATOM     94  F   UNL A   1      42.032  30.539  37.194  1.00  0.00    -0.200 F 
ATOM     95  C   UNL A   1      41.616  28.828  35.624  1.00  0.00     0.200 A 
ATOM     96  F   UNL A   1      41.142  27.171  34.012  1.00  0.00    -0.200 F 
ATOM     97  F   UNL A   1      41.271  27.988  36.610  1.00  0.00    -0.200 F 
ENDBRANCH  64  87
ENDBRANCH  38  39
ENDBRANCH  31  33
ENDBRANCH  30  31
ENDBRANCH  29  30
ENDBRANCH  28  29
ENDBRANCH  27  28
ENDBRANCH  26  27
ENDBRANCH  25  26
ENDBRANCH  24  25
ENDBRANCH   1  24
TORSDOF 24
ENDMDL
