MODEL 1
REMARK VINA RESULT:     -11.2      0.000      0.000
REMARK SMILES CC(C)Cc1cc2c(cc1Cl)C=C(C(=O)OCCOCCOCCOCCOC(=O)c1ccc(-c3c4nc(c(-c5c(F)c(F)c(F)c(F)c5F)c5ccc([nH]5)c(-c5c(F)c(F)c(F)c(F)c5F)c5nc(c(-c6c(F)c(F)c(F)c(F)c6F)c6ccc3[nH]6)C=C5)C=C4)cc1)[C@@H](C(F)(F)F)O2
REMARK SMILES IDX 22 1 21 2 20 3 19 4 18 5 17 6 16 7 14 8 15 9 13 10 5 11 6 12
REMARK SMILES IDX 10 13 7 14 9 15 11 16 8 17 99 18 12 19 94 20 4 21 2 22 1 23
REMARK SMILES IDX 3 24 95 25 96 26 97 27 98 28 23 29 24 30 25 31 26 32 27 33
REMARK SMILES IDX 28 34 29 35 30 36 31 37 32 38 93 39 33 40 92 41 34 42 35 43
REMARK SMILES IDX 36 44 86 45 37 46 91 47 85 48 87 49 38 50 90 51 84 52 83 53
REMARK SMILES IDX 39 55 71 56 51 57 70 58 52 59 55 60 69 61 88 62 53 63 54 64
REMARK SMILES IDX 68 66 89 67 56 68 40 69 41 70 49 71 42 72 43 73 47 74 50 75
REMARK SMILES IDX 44 76 45 77 48 78 46 79 72 80 73 81 81 82 74 83 75 84 79 85
REMARK SMILES IDX 82 86 76 87 77 88 80 89 78 90 57 91 58 92 66 93 59 94 60 95
REMARK SMILES IDX 64 96 67 97 61 98 62 99 65 100 63 101
REMARK H PARENT 87 54 55 65
REMARK Flexibility Score: inf
ROOT
ATOM      1  O   UNL A   1      32.822  34.878  29.823  1.00  0.00    -0.377 OA
ENDROOT
BRANCH   1   2
ATOM      2  C   UNL A   1      34.045  34.541  29.192  1.00  0.00     0.188 C 
BRANCH   2   3
ATOM      3  C   UNL A   1      33.881  33.600  27.986  1.00  0.00     0.188 C 
BRANCH   3   4
ATOM      4  O   UNL A   1      34.031  32.220  28.318  1.00  0.00    -0.376 OA
BRANCH   4   5
ATOM      5  C   UNL A   1      33.527  31.280  27.375  1.00  0.00     0.202 C 
BRANCH   5   6
ATOM      6  C   UNL A   1      34.208  29.905  27.394  1.00  0.00     0.261 C 
BRANCH   6   7
ATOM      7  O   UNL A   1      34.151  29.200  26.146  1.00  0.00    -0.460 OA
BRANCH   7   8
ATOM      8  C   UNL A   1      32.933  28.868  25.675  1.00  0.00     0.338 C 
ATOM      9  O   UNL A   1      31.981  29.609  25.514  1.00  0.00    -0.246 OA
BRANCH   8  10
ATOM     10  C   UNL A   1      32.992  27.458  25.237  1.00  0.00     0.087 C 
ATOM     11  C   UNL A   1      33.552  22.470  24.866  1.00  0.00    -0.025 A 
ATOM     12  C   UNL A   1      33.316  23.520  23.964  1.00  0.00     0.052 A 
ATOM     13  C   UNL A   1      33.586  22.777  26.236  1.00  0.00     0.045 A 
ATOM     14  C   UNL A   1      33.147  24.832  24.405  1.00  0.00     0.128 A 
ATOM     15  C   UNL A   1      33.461  24.104  26.675  1.00  0.00     0.032 A 
ATOM     16  Cl  UNL A   1      33.816  21.561  27.442  1.00  0.00    -0.084 Cl
ATOM     17  C   UNL A   1      33.269  25.139  25.755  1.00  0.00     0.019 A 
ATOM     18  O   UNL A   1      32.902  25.749  23.428  1.00  0.00    -0.475 OA
ATOM     19  C   UNL A   1      33.254  26.534  26.172  1.00  0.00     0.027 C 
ATOM     20  C   UNL A   1      32.665  27.131  23.802  1.00  0.00     0.316 C 
BRANCH  11  21
ATOM     21  C   UNL A   1      33.819  21.091  24.303  1.00  0.00     0.040 C 
BRANCH  21  22
ATOM     22  C   UNL A   1      32.614  20.128  24.278  1.00  0.00    -0.013 C 
ATOM     23  C   UNL A   1      32.217  19.698  22.863  1.00  0.00     0.008 C 
ATOM     24  C   UNL A   1      32.955  18.877  25.096  1.00  0.00     0.008 C 
ENDBRANCH  21  22
ENDBRANCH  11  21
BRANCH  20  25
ATOM     25  C   UNL A   1      33.430  28.002  22.792  1.00  0.00     0.430 C 
ATOM     26  F   UNL A   1      32.721  29.114  22.473  1.00  0.00    -0.167 F 
ATOM     27  F   UNL A   1      34.620  28.432  23.269  1.00  0.00    -0.167 F 
ATOM     28  F   UNL A   1      33.675  27.334  21.641  1.00  0.00    -0.167 F 
ENDBRANCH  20  25
ENDBRANCH   8  10
ENDBRANCH   7   8
ENDBRANCH   6   7
ENDBRANCH   5   6
ENDBRANCH   4   5
ENDBRANCH   3   4
ENDBRANCH   2   3
ENDBRANCH   1   2
BRANCH   1  29
ATOM     29  C   UNL A   1      32.828  35.941  30.775  1.00  0.00     0.188 C 
BRANCH  29  30
ATOM     30  C   UNL A   1      32.728  35.690  32.297  1.00  0.00     0.188 C 
BRANCH  30  31
ATOM     31  O   UNL A   1      33.919  35.166  32.876  1.00  0.00    -0.376 OA
BRANCH  31  32
ATOM     32  C   UNL A   1      33.990  33.751  33.005  1.00  0.00     0.202 C 
BRANCH  32  33
ATOM     33  C   UNL A   1      34.970  33.108  32.018  1.00  0.00     0.261 C 
BRANCH  33  34
ATOM     34  O   UNL A   1      35.446  31.810  32.405  1.00  0.00    -0.460 OA
BRANCH  34  35
ATOM     35  C   UNL A   1      36.582  31.751  33.134  1.00  0.00     0.338 C 
ATOM     36  O   UNL A   1      36.716  31.992  34.320  1.00  0.00    -0.246 OA
BRANCH  35  37
ATOM     37  C   UNL A   1      37.616  31.134  32.278  1.00  0.00     0.060 A 
ATOM     38  C   UNL A   1      37.529  31.232  30.886  1.00  0.00     0.016 A 
ATOM     39  C   UNL A   1      38.654  30.412  32.878  1.00  0.00     0.016 A 
ATOM     40  C   UNL A   1      38.503  30.626  30.092  1.00  0.00     0.010 A 
ATOM     41  C   UNL A   1      39.618  29.793  32.082  1.00  0.00     0.010 A 
ATOM     42  C   UNL A   1      39.562  29.918  30.685  1.00  0.00    -0.014 A 
BRANCH  42  43
ATOM     43  C   UNL A   1      40.712  29.487  29.859  1.00  0.00     0.031 A 
ATOM     44  C   UNL A   1      40.823  28.105  29.299  1.00  0.00     0.074 A 
ATOM     45  C   UNL A   1      41.681  30.394  29.631  1.00  0.00     0.049 A 
ATOM     46  N   UNL A   1      41.760  27.605  28.532  1.00  0.00    -0.248 NA
ATOM     47  C   UNL A   1      39.752  27.159  29.642  1.00  0.00     0.031 C 
ATOM     48  C   UNL A   1      41.674  31.767  30.137  1.00  0.00     0.029 A 
ATOM     49  N   UNL A   1      42.851  30.301  28.924  1.00  0.00    -0.354 N 
ATOM     50  C   UNL A   1      41.384  26.294  28.277  1.00  0.00     0.074 A 
ATOM     51  C   UNL A   1      40.152  26.063  29.006  1.00  0.00     0.031 C 
ATOM     52  C   UNL A   1      42.785  32.392  29.719  1.00  0.00     0.029 A 
ATOM     53  C   UNL A   1      43.587  31.458  28.936  1.00  0.00     0.049 A 
ATOM     54  H   UNL A   1      43.135  29.484  28.453  1.00  0.00     0.167 HD
ATOM     55  C   UNL A   1      42.008  25.380  27.494  1.00  0.00     0.037 A 
ATOM     56  C   UNL A   1      44.779  31.739  28.378  1.00  0.00     0.037 A 
ATOM     57  C   UNL A   1      43.248  25.614  26.793  1.00  0.00     0.049 A 
ATOM     58  C   UNL A   1      45.473  30.688  27.561  1.00  0.00     0.074 A 
ATOM     59  C   UNL A   1      43.944  24.753  25.960  1.00  0.00     0.029 A 
ATOM     60  N   UNL A   1      43.986  26.788  26.850  1.00  0.00    -0.354 N 
ATOM     61  N   UNL A   1      45.082  29.469  27.283  1.00  0.00    -0.248 NA
ATOM     62  C   UNL A   1      46.765  31.058  26.971  1.00  0.00     0.031 C 
ATOM     63  C   UNL A   1      45.123  25.386  25.554  1.00  0.00     0.029 A 
ATOM     64  C   UNL A   1      45.139  26.665  26.088  1.00  0.00     0.049 A 
ATOM     65  H   UNL A   1      43.729  27.591  27.358  1.00  0.00     0.167 HD
ATOM     66  C   UNL A   1      46.066  28.932  26.465  1.00  0.00     0.074 A 
ATOM     67  C   UNL A   1      47.065  29.966  26.282  1.00  0.00     0.031 C 
ATOM     68  C   UNL A   1      46.131  27.696  25.916  1.00  0.00     0.037 A 
BRANCH  55  69
ATOM     69  C   UNL A   1      41.364  24.033  27.338  1.00  0.00     0.064 A 
ATOM     70  C   UNL A   1      40.200  23.867  26.573  1.00  0.00     0.173 A 
ATOM     71  C   UNL A   1      41.969  22.883  27.870  1.00  0.00     0.173 A 
ATOM     72  F   UNL A   1      39.582  24.934  26.044  1.00  0.00    -0.203 F 
ATOM     73  C   UNL A   1      39.659  22.602  26.356  1.00  0.00     0.198 A 
ATOM     74  C   UNL A   1      41.439  21.618  27.630  1.00  0.00     0.198 A 
ATOM     75  F   UNL A   1      43.090  22.986  28.599  1.00  0.00    -0.203 F 
ATOM     76  F   UNL A   1      38.535  22.470  25.638  1.00  0.00    -0.200 F 
ATOM     77  C   UNL A   1      40.284  21.479  26.875  1.00  0.00     0.200 A 
ATOM     78  F   UNL A   1      42.053  20.531  28.119  1.00  0.00    -0.200 F 
ATOM     79  F   UNL A   1      39.775  20.260  26.647  1.00  0.00    -0.200 F 
ENDBRANCH  55  69
BRANCH  56  80
ATOM     80  C   UNL A   1      45.357  33.093  28.547  1.00  0.00     0.064 A 
ATOM     81  C   UNL A   1      44.995  34.139  27.687  1.00  0.00     0.173 A 
ATOM     82  C   UNL A   1      46.245  33.381  29.594  1.00  0.00     0.173 A 
ATOM     83  F   UNL A   1      44.161  33.904  26.664  1.00  0.00    -0.203 F 
ATOM     84  C   UNL A   1      45.505  35.422  27.865  1.00  0.00     0.198 A 
ATOM     85  C   UNL A   1      46.733  34.671  29.786  1.00  0.00     0.198 A 
ATOM     86  F   UNL A   1      46.612  32.414  30.448  1.00  0.00    -0.203 F 
ATOM     87  F   UNL A   1      45.165  36.398  27.013  1.00  0.00    -0.200 F 
ATOM     88  C   UNL A   1      46.367  35.688  28.920  1.00  0.00     0.200 A 
ATOM     89  F   UNL A   1      47.551  34.928  30.816  1.00  0.00    -0.200 F 
ATOM     90  F   UNL A   1      46.845  36.927  29.098  1.00  0.00    -0.200 F 
ENDBRANCH  56  80
BRANCH  68  91
ATOM     91  C   UNL A   1      47.315  27.395  25.042  1.00  0.00     0.064 A 
ATOM     92  C   UNL A   1      47.350  27.776  23.692  1.00  0.00     0.173 A 
ATOM     93  C   UNL A   1      48.441  26.743  25.568  1.00  0.00     0.173 A 
ATOM     94  F   UNL A   1      46.293  28.388  23.136  1.00  0.00    -0.203 F 
ATOM     95  C   UNL A   1      48.457  27.493  22.895  1.00  0.00     0.198 A 
ATOM     96  C   UNL A   1      49.557  26.487  24.777  1.00  0.00     0.198 A 
ATOM     97  F   UNL A   1      48.461  26.360  26.854  1.00  0.00    -0.203 F 
ATOM     98  F   UNL A   1      48.447  27.823  21.597  1.00  0.00    -0.200 F 
ATOM     99  C   UNL A   1      49.561  26.855  23.440  1.00  0.00     0.200 A 
ATOM    100  F   UNL A   1      50.629  25.881  25.307  1.00  0.00    -0.200 F 
ATOM    101  F   UNL A   1      50.627  26.588  22.673  1.00  0.00    -0.200 F 
ENDBRANCH  68  91
ENDBRANCH  42  43
ENDBRANCH  35  37
ENDBRANCH  34  35
ENDBRANCH  33  34
ENDBRANCH  32  33
ENDBRANCH  31  32
ENDBRANCH  30  31
ENDBRANCH  29  30
ENDBRANCH   1  29
TORSDOF 23
ENDMDL
MODEL 2
REMARK VINA RESULT:     -10.7      3.317      9.204
REMARK SMILES CC(C)Cc1cc2c(cc1Cl)C=C(C(=O)OCCOCCOCCOCCOC(=O)c1ccc(-c3c4nc(c(-c5c(F)c(F)c(F)c(F)c5F)c5ccc([nH]5)c(-c5c(F)c(F)c(F)c(F)c5F)c5nc(c(-c6c(F)c(F)c(F)c(F)c6F)c6ccc3[nH]6)C=C5)C=C4)cc1)[C@@H](C(F)(F)F)O2
REMARK SMILES IDX 22 1 21 2 20 3 19 4 18 5 17 6 16 7 14 8 15 9 13 10 5 11 6 12
REMARK SMILES IDX 10 13 7 14 9 15 11 16 8 17 99 18 12 19 94 20 4 21 2 22 1 23
REMARK SMILES IDX 3 24 95 25 96 26 97 27 98 28 23 29 24 30 25 31 26 32 27 33
REMARK SMILES IDX 28 34 29 35 30 36 31 37 32 38 93 39 33 40 92 41 34 42 35 43
REMARK SMILES IDX 36 44 86 45 37 46 91 47 85 48 87 49 38 50 90 51 84 52 83 53
REMARK SMILES IDX 39 55 71 56 51 57 70 58 52 59 55 60 69 61 88 62 53 63 54 64
REMARK SMILES IDX 68 66 89 67 56 68 40 69 41 70 49 71 42 72 43 73 47 74 50 75
REMARK SMILES IDX 44 76 45 77 48 78 46 79 72 80 73 81 81 82 74 83 75 84 79 85
REMARK SMILES IDX 82 86 76 87 77 88 80 89 78 90 57 91 58 92 66 93 59 94 60 95
REMARK SMILES IDX 64 96 67 97 61 98 62 99 65 100 63 101
REMARK H PARENT 87 54 55 65
REMARK Flexibility Score: inf
ROOT
ATOM      1  O   UNL A   1      33.027  21.765  25.824  1.00  0.00    -0.377 OA
ENDROOT
BRANCH   1   2
ATOM      2  C   UNL A   1      31.625  21.958  25.758  1.00  0.00     0.188 C 
BRANCH   2   3
ATOM      3  C   UNL A   1      31.135  23.200  26.525  1.00  0.00     0.188 C 
BRANCH   3   4
ATOM      4  O   UNL A   1      30.831  24.307  25.678  1.00  0.00    -0.376 OA
BRANCH   4   5
ATOM      5  C   UNL A   1      30.325  24.000  24.384  1.00  0.00     0.202 C 
BRANCH   5   6
ATOM      6  C   UNL A   1      31.213  24.435  23.213  1.00  0.00     0.261 C 
BRANCH   6   7
ATOM      7  O   UNL A   1      32.371  25.192  23.597  1.00  0.00    -0.460 OA
BRANCH   7   8
ATOM      8  C   UNL A   1      32.688  26.267  22.849  1.00  0.00     0.338 C 
ATOM      9  O   UNL A   1      32.731  26.327  21.634  1.00  0.00    -0.246 OA
BRANCH   8  10
ATOM     10  C   UNL A   1      32.831  27.420  23.761  1.00  0.00     0.087 C 
ATOM     11  C   UNL A   1      34.111  30.643  27.408  1.00  0.00    -0.025 A 
ATOM     12  C   UNL A   1      33.116  30.596  26.418  1.00  0.00     0.052 A 
ATOM     13  C   UNL A   1      35.074  29.621  27.420  1.00  0.00     0.045 A 
ATOM     14  C   UNL A   1      33.064  29.557  25.490  1.00  0.00     0.128 A 
ATOM     15  C   UNL A   1      34.994  28.553  26.514  1.00  0.00     0.032 A 
ATOM     16  Cl  UNL A   1      36.375  29.601  28.556  1.00  0.00    -0.084 Cl
ATOM     17  C   UNL A   1      33.969  28.505  25.563  1.00  0.00     0.019 A 
ATOM     18  O   UNL A   1      32.062  29.646  24.571  1.00  0.00    -0.475 OA
ATOM     19  C   UNL A   1      33.793  27.353  24.692  1.00  0.00     0.027 C 
ATOM     20  C   UNL A   1      31.963  28.632  23.537  1.00  0.00     0.316 C 
BRANCH  11  21
ATOM     21  C   UNL A   1      34.044  31.751  28.437  1.00  0.00     0.040 C 
BRANCH  21  22
ATOM     22  C   UNL A   1      34.203  33.186  27.893  1.00  0.00    -0.013 C 
ATOM     23  C   UNL A   1      33.270  34.193  28.571  1.00  0.00     0.008 C 
ATOM     24  C   UNL A   1      35.653  33.642  28.098  1.00  0.00     0.008 C 
ENDBRANCH  21  22
ENDBRANCH  11  21
BRANCH  20  25
ATOM     25  C   UNL A   1      30.471  28.292  23.391  1.00  0.00     0.430 C 
ATOM     26  F   UNL A   1      30.096  27.350  24.292  1.00  0.00    -0.167 F 
ATOM     27  F   UNL A   1      29.669  29.360  23.601  1.00  0.00    -0.167 F 
ATOM     28  F   UNL A   1      30.186  27.809  22.159  1.00  0.00    -0.167 F 
ENDBRANCH  20  25
ENDBRANCH   8  10
ENDBRANCH   7   8
ENDBRANCH   6   7
ENDBRANCH   5   6
ENDBRANCH   4   5
ENDBRANCH   3   4
ENDBRANCH   2   3
ENDBRANCH   1   2
BRANCH   1  29
ATOM     29  C   UNL A   1      33.785  21.930  24.625  1.00  0.00     0.188 C 
BRANCH  29  30
ATOM     30  C   UNL A   1      35.292  21.598  24.547  1.00  0.00     0.188 C 
BRANCH  30  31
ATOM     31  O   UNL A   1      35.601  20.239  24.842  1.00  0.00    -0.376 OA
BRANCH  31  32
ATOM     32  C   UNL A   1      36.981  19.912  24.945  1.00  0.00     0.202 C 
BRANCH  32  33
ATOM     33  C   UNL A   1      37.885  21.147  25.020  1.00  0.00     0.261 C 
BRANCH  33  34
ATOM     34  O   UNL A   1      38.438  21.409  26.319  1.00  0.00    -0.460 OA
BRANCH  34  35
ATOM     35  C   UNL A   1      39.775  21.278  26.468  1.00  0.00     0.338 C 
ATOM     36  O   UNL A   1      40.467  20.329  26.149  1.00  0.00    -0.246 OA
BRANCH  35  37
ATOM     37  C   UNL A   1      40.292  22.590  26.906  1.00  0.00     0.060 A 
ATOM     38  C   UNL A   1      41.222  22.669  27.947  1.00  0.00     0.016 A 
ATOM     39  C   UNL A   1      39.802  23.752  26.299  1.00  0.00     0.016 A 
ATOM     40  C   UNL A   1      41.685  23.918  28.362  1.00  0.00     0.010 A 
ATOM     41  C   UNL A   1      40.255  25.001  26.726  1.00  0.00     0.010 A 
ATOM     42  C   UNL A   1      41.218  25.089  27.744  1.00  0.00    -0.014 A 
BRANCH  42  43
ATOM     43  C   UNL A   1      41.884  26.383  28.019  1.00  0.00     0.031 A 
ATOM     44  C   UNL A   1      43.256  26.699  27.518  1.00  0.00     0.074 A 
ATOM     45  C   UNL A   1      41.205  27.280  28.758  1.00  0.00     0.049 A 
ATOM     46  N   UNL A   1      43.944  27.806  27.657  1.00  0.00    -0.248 NA
ATOM     47  C   UNL A   1      43.952  25.645  26.768  1.00  0.00     0.031 C 
ATOM     48  C   UNL A   1      39.863  27.068  29.301  1.00  0.00     0.029 A 
ATOM     49  N   UNL A   1      41.544  28.539  29.179  1.00  0.00    -0.354 N 
ATOM     50  C   UNL A   1      45.144  27.595  26.993  1.00  0.00     0.074 A 
ATOM     51  C   UNL A   1      45.107  26.237  26.486  1.00  0.00     0.031 C 
ATOM     52  C   UNL A   1      39.489  28.163  29.980  1.00  0.00     0.029 A 
ATOM     53  C   UNL A   1      40.571  29.140  29.935  1.00  0.00     0.049 A 
ATOM     54  H   UNL A   1      42.402  28.970  28.959  1.00  0.00     0.167 HD
ATOM     55  C   UNL A   1      46.168  28.465  26.817  1.00  0.00     0.037 A 
ATOM     56  C   UNL A   1      40.550  30.347  30.530  1.00  0.00     0.037 A 
ATOM     57  C   UNL A   1      46.204  29.806  27.349  1.00  0.00     0.049 A 
ATOM     58  C   UNL A   1      41.723  31.268  30.362  1.00  0.00     0.074 A 
ATOM     59  C   UNL A   1      47.192  30.766  27.204  1.00  0.00     0.029 A 
ATOM     60  N   UNL A   1      45.215  30.376  28.139  1.00  0.00    -0.354 N 
ATOM     61  N   UNL A   1      42.830  31.079  29.687  1.00  0.00    -0.248 NA
ATOM     62  C   UNL A   1      41.637  32.574  31.027  1.00  0.00     0.031 C 
ATOM     63  C   UNL A   1      46.825  31.895  27.944  1.00  0.00     0.029 A 
ATOM     64  C   UNL A   1      45.580  31.662  28.507  1.00  0.00     0.049 A 
ATOM     65  H   UNL A   1      44.376  29.931  28.400  1.00  0.00     0.167 HD
ATOM     66  C   UNL A   1      43.564  32.248  29.824  1.00  0.00     0.074 A 
ATOM     67  C   UNL A   1      42.767  33.147  30.635  1.00  0.00     0.031 C 
ATOM     68  C   UNL A   1      44.785  32.548  29.319  1.00  0.00     0.037 A 
BRANCH  55  69
ATOM     69  C   UNL A   1      47.347  28.007  26.007  1.00  0.00     0.064 A 
ATOM     70  C   UNL A   1      48.515  27.535  26.625  1.00  0.00     0.173 A 
ATOM     71  C   UNL A   1      47.274  27.943  24.607  1.00  0.00     0.173 A 
ATOM     72  F   UNL A   1      48.636  27.577  27.961  1.00  0.00    -0.203 F 
ATOM     73  C   UNL A   1      49.569  27.026  25.871  1.00  0.00     0.198 A 
ATOM     74  C   UNL A   1      48.320  27.410  23.858  1.00  0.00     0.198 A 
ATOM     75  F   UNL A   1      46.175  28.369  23.968  1.00  0.00    -0.203 F 
ATOM     76  F   UNL A   1      50.683  26.598  26.483  1.00  0.00    -0.200 F 
ATOM     77  C   UNL A   1      49.467  26.954  24.490  1.00  0.00     0.200 A 
ATOM     78  F   UNL A   1      48.213  27.326  22.525  1.00  0.00    -0.200 F 
ATOM     79  F   UNL A   1      50.474  26.443  23.767  1.00  0.00    -0.200 F 
ENDBRANCH  55  69
BRANCH  56  80
ATOM     80  C   UNL A   1      39.351  30.755  31.299  1.00  0.00     0.064 A 
ATOM     81  C   UNL A   1      39.205  30.389  32.644  1.00  0.00     0.173 A 
ATOM     82  C   UNL A   1      38.352  31.552  30.723  1.00  0.00     0.173 A 
ATOM     83  F   UNL A   1      40.129  29.615  33.230  1.00  0.00    -0.203 F 
ATOM     84  C   UNL A   1      38.099  30.802  33.383  1.00  0.00     0.198 A 
ATOM     85  C   UNL A   1      37.260  31.986  31.470  1.00  0.00     0.198 A 
ATOM     86  F   UNL A   1      38.453  31.935  29.442  1.00  0.00    -0.203 F 
ATOM     87  F   UNL A   1      37.969  30.416  34.659  1.00  0.00    -0.200 F 
ATOM     88  C   UNL A   1      37.133  31.607  32.798  1.00  0.00     0.200 A 
ATOM     89  F   UNL A   1      36.337  32.778  30.907  1.00  0.00    -0.200 F 
ATOM     90  F   UNL A   1      36.077  32.015  33.514  1.00  0.00    -0.200 F 
ENDBRANCH  56  80
BRANCH  68  91
ATOM     91  C   UNL A   1      45.330  33.917  29.611  1.00  0.00     0.064 A 
ATOM     92  C   UNL A   1      46.210  34.147  30.679  1.00  0.00     0.173 A 
ATOM     93  C   UNL A   1      44.991  35.007  28.794  1.00  0.00     0.173 A 
ATOM     94  F   UNL A   1      46.554  33.142  31.499  1.00  0.00    -0.203 F 
ATOM     95  C   UNL A   1      46.710  35.422  30.934  1.00  0.00     0.198 A 
ATOM     96  C   UNL A   1      45.515  36.274  29.035  1.00  0.00     0.198 A 
ATOM     97  F   UNL A   1      44.156  34.841  27.757  1.00  0.00    -0.203 F 
ATOM     98  F   UNL A   1      47.510  35.627  31.989  1.00  0.00    -0.200 F 
ATOM     99  C   UNL A   1      46.367  36.482  30.108  1.00  0.00     0.200 A 
ATOM    100  F   UNL A   1      45.192  37.295  28.228  1.00  0.00    -0.200 F 
ATOM    101  F   UNL A   1      46.853  37.707  30.352  1.00  0.00    -0.200 F 
ENDBRANCH  68  91
ENDBRANCH  42  43
ENDBRANCH  35  37
ENDBRANCH  34  35
ENDBRANCH  33  34
ENDBRANCH  32  33
ENDBRANCH  31  32
ENDBRANCH  30  31
ENDBRANCH  29  30
ENDBRANCH   1  29
TORSDOF 23
ENDMDL
MODEL 3
REMARK VINA RESULT:     -10.5      4.181      9.312
REMARK SMILES CC(C)Cc1cc2c(cc1Cl)C=C(C(=O)OCCOCCOCCOCCOC(=O)c1ccc(-c3c4nc(c(-c5c(F)c(F)c(F)c(F)c5F)c5ccc([nH]5)c(-c5c(F)c(F)c(F)c(F)c5F)c5nc(c(-c6c(F)c(F)c(F)c(F)c6F)c6ccc3[nH]6)C=C5)C=C4)cc1)[C@@H](C(F)(F)F)O2
REMARK SMILES IDX 22 1 21 2 20 3 19 4 18 5 17 6 16 7 14 8 15 9 13 10 5 11 6 12
REMARK SMILES IDX 10 13 7 14 9 15 11 16 8 17 99 18 12 19 94 20 4 21 2 22 1 23
REMARK SMILES IDX 3 24 95 25 96 26 97 27 98 28 23 29 24 30 25 31 26 32 27 33
REMARK SMILES IDX 28 34 29 35 30 36 31 37 32 38 93 39 33 40 92 41 34 42 35 43
REMARK SMILES IDX 36 44 86 45 37 46 91 47 85 48 87 49 38 50 90 51 84 52 83 53
REMARK SMILES IDX 39 55 71 56 51 57 70 58 52 59 55 60 69 61 88 62 53 63 54 64
REMARK SMILES IDX 68 66 89 67 56 68 40 69 41 70 49 71 42 72 43 73 47 74 50 75
REMARK SMILES IDX 44 76 45 77 48 78 46 79 72 80 73 81 81 82 74 83 75 84 79 85
REMARK SMILES IDX 82 86 76 87 77 88 80 89 78 90 57 91 58 92 66 93 59 94 60 95
REMARK SMILES IDX 64 96 67 97 61 98 62 99 65 100 63 101
REMARK H PARENT 87 54 55 65
REMARK Flexibility Score: inf
ROOT
ATOM      1  O   UNL A   1      36.311  24.438  25.328  1.00  0.00    -0.377 OA
ENDROOT
BRANCH   1   2
ATOM      2  C   UNL A   1      36.457  23.268  26.112  1.00  0.00     0.188 C 
BRANCH   2   3
ATOM      3  C   UNL A   1      37.144  22.107  25.369  1.00  0.00     0.188 C 
BRANCH   3   4
ATOM      4  O   UNL A   1      36.460  20.862  25.505  1.00  0.00    -0.376 OA
BRANCH   4   5
ATOM      5  C   UNL A   1      35.050  20.927  25.691  1.00  0.00     0.202 C 
BRANCH   5   6
ATOM      6  C   UNL A   1      34.213  20.752  24.419  1.00  0.00     0.261 C 
BRANCH   6   7
ATOM      7  O   UNL A   1      33.791  21.983  23.814  1.00  0.00    -0.460 OA
BRANCH   7   8
ATOM      8  C   UNL A   1      32.607  21.987  23.171  1.00  0.00     0.338 C 
ATOM      9  O   UNL A   1      32.092  21.058  22.577  1.00  0.00    -0.246 OA
BRANCH   8  10
ATOM     10  C   UNL A   1      31.957  23.286  23.440  1.00  0.00     0.087 C 
ATOM     11  C   UNL A   1      30.610  28.130  23.657  1.00  0.00    -0.025 A 
ATOM     12  C   UNL A   1      30.230  26.955  24.325  1.00  0.00     0.052 A 
ATOM     13  C   UNL A   1      31.534  28.018  22.606  1.00  0.00     0.045 A 
ATOM     14  C   UNL A   1      30.769  25.717  23.981  1.00  0.00     0.128 A 
ATOM     15  C   UNL A   1      32.110  26.778  22.290  1.00  0.00     0.032 A 
ATOM     16  Cl  UNL A   1      32.037  29.385  21.677  1.00  0.00    -0.084 Cl
ATOM     17  C   UNL A   1      31.748  25.627  22.998  1.00  0.00     0.019 A 
ATOM     18  O   UNL A   1      30.297  24.656  24.694  1.00  0.00    -0.475 OA
ATOM     19  C   UNL A   1      32.414  24.353  22.771  1.00  0.00     0.027 C 
ATOM     20  C   UNL A   1      30.768  23.322  24.368  1.00  0.00     0.316 C 
BRANCH  11  21
ATOM     21  C   UNL A   1      30.051  29.447  24.152  1.00  0.00     0.040 C 
BRANCH  21  22
ATOM     22  C   UNL A   1      29.090  30.175  23.190  1.00  0.00    -0.013 C 
ATOM     23  C   UNL A   1      27.818  29.376  22.892  1.00  0.00     0.008 C 
ATOM     24  C   UNL A   1      28.693  31.523  23.804  1.00  0.00     0.008 C 
ENDBRANCH  21  22
ENDBRANCH  11  21
BRANCH  20  25
ATOM     25  C   UNL A   1      31.018  22.601  25.702  1.00  0.00     0.430 C 
ATOM     26  F   UNL A   1      29.964  22.754  26.542  1.00  0.00    -0.167 F 
ATOM     27  F   UNL A   1      31.194  21.269  25.551  1.00  0.00    -0.167 F 
ATOM     28  F   UNL A   1      32.112  23.083  26.334  1.00  0.00    -0.167 F 
ENDBRANCH  20  25
ENDBRANCH   8  10
ENDBRANCH   7   8
ENDBRANCH   6   7
ENDBRANCH   5   6
ENDBRANCH   4   5
ENDBRANCH   3   4
ENDBRANCH   2   3
ENDBRANCH   1   2
BRANCH   1  29
ATOM     29  C   UNL A   1      34.992  24.826  24.940  1.00  0.00     0.188 C 
BRANCH  29  30
ATOM     30  C   UNL A   1      34.040  25.587  25.891  1.00  0.00     0.188 C 
BRANCH  30  31
ATOM     31  O   UNL A   1      33.896  26.969  25.580  1.00  0.00    -0.376 OA
BRANCH  31  32
ATOM     32  C   UNL A   1      33.032  27.721  26.423  1.00  0.00     0.202 C 
BRANCH  32  33
ATOM     33  C   UNL A   1      33.349  29.220  26.421  1.00  0.00     0.261 C 
BRANCH  33  34
ATOM     34  O   UNL A   1      33.653  29.772  27.712  1.00  0.00    -0.460 OA
BRANCH  34  35
ATOM     35  C   UNL A   1      34.507  30.818  27.760  1.00  0.00     0.338 C 
ATOM     36  O   UNL A   1      34.238  32.000  27.649  1.00  0.00    -0.246 OA
BRANCH  35  37
ATOM     37  C   UNL A   1      35.819  30.288  28.183  1.00  0.00     0.060 A 
ATOM     38  C   UNL A   1      36.902  30.299  27.300  1.00  0.00     0.016 A 
ATOM     39  C   UNL A   1      35.947  29.733  29.462  1.00  0.00     0.016 A 
ATOM     40  C   UNL A   1      38.129  29.776  27.709  1.00  0.00     0.010 A 
ATOM     41  C   UNL A   1      37.171  29.195  29.864  1.00  0.00     0.010 A 
ATOM     42  C   UNL A   1      38.275  29.237  28.998  1.00  0.00    -0.014 A 
BRANCH  42  43
ATOM     43  C   UNL A   1      39.625  28.907  29.508  1.00  0.00     0.031 A 
ATOM     44  C   UNL A   1      40.339  29.769  30.500  1.00  0.00     0.074 A 
ATOM     45  C   UNL A   1      40.207  27.790  29.035  1.00  0.00     0.049 A 
ATOM     46  N   UNL A   1      41.510  29.580  31.056  1.00  0.00    -0.248 NA
ATOM     47  C   UNL A   1      39.660  31.001  30.924  1.00  0.00     0.031 C 
ATOM     48  C   UNL A   1      39.601  26.883  28.059  1.00  0.00     0.029 A 
ATOM     49  N   UNL A   1      41.428  27.228  29.303  1.00  0.00    -0.354 N 
ATOM     50  C   UNL A   1      41.702  30.653  31.914  1.00  0.00     0.074 A 
ATOM     51  C   UNL A   1      40.543  31.513  31.775  1.00  0.00     0.031 C 
ATOM     52  C   UNL A   1      40.449  25.874  27.814  1.00  0.00     0.029 A 
ATOM     53  C   UNL A   1      41.662  26.075  28.599  1.00  0.00     0.049 A 
ATOM     54  H   UNL A   1      42.072  27.614  29.940  1.00  0.00     0.167 HD
ATOM     55  C   UNL A   1      42.746  30.883  32.748  1.00  0.00     0.037 A 
ATOM     56  C   UNL A   1      42.738  25.266  28.584  1.00  0.00     0.037 A 
ATOM     57  C   UNL A   1      43.907  30.033  32.860  1.00  0.00     0.049 A 
ATOM     58  C   UNL A   1      43.902  25.577  29.479  1.00  0.00     0.074 A 
ATOM     59  C   UNL A   1      45.005  30.176  33.693  1.00  0.00     0.029 A 
ATOM     60  N   UNL A   1      44.129  28.887  32.110  1.00  0.00    -0.354 N 
ATOM     61  N   UNL A   1      44.050  26.565  30.326  1.00  0.00    -0.248 NA
ATOM     62  C   UNL A   1      45.041  24.652  29.425  1.00  0.00     0.031 C 
ATOM     63  C   UNL A   1      45.910  29.148  33.413  1.00  0.00     0.029 A 
ATOM     64  C   UNL A   1      45.355  28.329  32.443  1.00  0.00     0.049 A 
ATOM     65  H   UNL A   1      43.508  28.523  31.438  1.00  0.00     0.167 HD
ATOM     66  C   UNL A   1      45.286  26.371  30.924  1.00  0.00     0.074 A 
ATOM     67  C   UNL A   1      45.841  25.160  30.353  1.00  0.00     0.031 C 
ATOM     68  C   UNL A   1      45.902  27.127  31.865  1.00  0.00     0.037 A 
BRANCH  55  69
ATOM     69  C   UNL A   1      42.691  32.103  33.622  1.00  0.00     0.064 A 
ATOM     70  C   UNL A   1      42.110  32.058  34.898  1.00  0.00     0.173 A 
ATOM     71  C   UNL A   1      43.311  33.298  33.226  1.00  0.00     0.173 A 
ATOM     72  F   UNL A   1      41.502  30.941  35.324  1.00  0.00    -0.203 F 
ATOM     73  C   UNL A   1      42.143  33.166  35.741  1.00  0.00     0.198 A 
ATOM     74  C   UNL A   1      43.364  34.396  34.080  1.00  0.00     0.198 A 
ATOM     75  F   UNL A   1      43.892  33.390  32.020  1.00  0.00    -0.203 F 
ATOM     76  F   UNL A   1      41.564  33.106  36.949  1.00  0.00    -0.200 F 
ATOM     77  C   UNL A   1      42.778  34.330  35.335  1.00  0.00     0.200 A 
ATOM     78  F   UNL A   1      43.993  35.515  33.694  1.00  0.00    -0.200 F 
ATOM     79  F   UNL A   1      42.830  35.390  36.156  1.00  0.00    -0.200 F 
ENDBRANCH  55  69
BRANCH  56  80
ATOM     80  C   UNL A   1      42.728  24.064  27.717  1.00  0.00     0.064 A 
ATOM     81  C   UNL A   1      42.353  22.815  28.230  1.00  0.00     0.173 A 
ATOM     82  C   UNL A   1      43.049  24.146  26.355  1.00  0.00     0.173 A 
ATOM     83  F   UNL A   1      42.053  22.688  29.531  1.00  0.00    -0.203 F 
ATOM     84  C   UNL A   1      42.305  21.690  27.412  1.00  0.00     0.198 A 
ATOM     85  C   UNL A   1      42.975  23.024  25.532  1.00  0.00     0.198 A 
ATOM     86  F   UNL A   1      43.405  25.322  25.818  1.00  0.00    -0.203 F 
ATOM     87  F   UNL A   1      41.970  20.501  27.931  1.00  0.00    -0.200 F 
ATOM     88  C   UNL A   1      42.608  21.797  26.062  1.00  0.00     0.200 A 
ATOM     89  F   UNL A   1      43.252  23.136  24.225  1.00  0.00    -0.200 F 
ATOM     90  F   UNL A   1      42.547  20.717  25.272  1.00  0.00    -0.200 F 
ENDBRANCH  56  80
BRANCH  68  91
ATOM     91  C   UNL A   1      47.242  26.656  32.355  1.00  0.00     0.064 A 
ATOM     92  C   UNL A   1      47.359  25.714  33.388  1.00  0.00     0.173 A 
ATOM     93  C   UNL A   1      48.422  27.131  31.764  1.00  0.00     0.173 A 
ATOM     94  F   UNL A   1      46.260  25.240  33.997  1.00  0.00    -0.203 F 
ATOM     95  C   UNL A   1      48.608  25.285  33.829  1.00  0.00     0.198 A 
ATOM     96  C   UNL A   1      49.669  26.678  32.187  1.00  0.00     0.198 A 
ATOM     97  F   UNL A   1      48.368  28.030  30.770  1.00  0.00    -0.203 F 
ATOM     98  F   UNL A   1      48.696  24.422  34.849  1.00  0.00    -0.200 F 
ATOM     99  C   UNL A   1      49.761  25.762  33.224  1.00  0.00     0.200 A 
ATOM    100  F   UNL A   1      50.782  27.131  31.593  1.00  0.00    -0.200 F 
ATOM    101  F   UNL A   1      50.962  25.344  33.646  1.00  0.00    -0.200 F 
ENDBRANCH  68  91
ENDBRANCH  42  43
ENDBRANCH  35  37
ENDBRANCH  34  35
ENDBRANCH  33  34
ENDBRANCH  32  33
ENDBRANCH  31  32
ENDBRANCH  30  31
ENDBRANCH  29  30
ENDBRANCH   1  29
TORSDOF 23
ENDMDL
