MODEL 1
REMARK VINA RESULT:     -11.2      0.000      0.000
REMARK SMILES Cn1ccc(-c2n[nH]c(=O)n2-c2ccc(C(=O)OCCOCCOCCOCCOC(=O)c3ccc(-c4c5nc(c(-c6c(F)c(F)c(F)c(F)c6F)c6ccc([nH]6)c(-c6c(F)c(F)c(F)c(F)c6F)c6nc(c(-c7c(F)c(F)c(F)c(F)c7F)c7ccc4[nH]7)C=C6)C=C5)cc3)cc2)n1
REMARK SMILES IDX 24 1 23 2 22 3 21 4 20 5 19 6 18 7 16 8 17 9 15 10 12 11
REMARK SMILES IDX 13 12 97 13 14 14 96 15 11 16 6 17 7 18 8 19 9 20 10 22 5 23
REMARK SMILES IDX 1 24 2 25 3 26 98 27 4 28 25 29 26 30 27 31 28 32 29 33
REMARK SMILES IDX 30 34 31 35 32 36 33 37 34 38 95 39 35 40 94 41 36 42 37 43
REMARK SMILES IDX 38 44 88 45 39 46 93 47 87 48 89 49 40 50 92 51 86 52 85 53
REMARK SMILES IDX 41 55 73 56 53 57 72 58 54 59 57 60 71 61 90 62 55 63 56 64
REMARK SMILES IDX 70 66 91 67 58 68 42 69 43 70 51 71 44 72 45 73 49 74 52 75
REMARK SMILES IDX 46 76 47 77 50 78 48 79 74 80 75 81 83 82 76 83 77 84 81 85
REMARK SMILES IDX 84 86 78 87 79 88 82 89 80 90 59 91 60 92 68 93 61 94 62 95
REMARK SMILES IDX 66 96 69 97 63 98 64 99 67 100 65 101
REMARK H PARENT 8 21 89 54 57 65
REMARK Flexibility Score: inf
ROOT
ATOM      1  O   UNL A   1      42.158  18.659  25.599  1.00  0.00    -0.377 OA
ENDROOT
BRANCH   1   2
ATOM      2  C   UNL A   1      41.172  19.424  26.283  1.00  0.00     0.188 C 
BRANCH   2   3
ATOM      3  C   UNL A   1      41.502  20.783  26.946  1.00  0.00     0.188 C 
BRANCH   3   4
ATOM      4  O   UNL A   1      40.392  21.405  27.561  1.00  0.00    -0.376 OA
BRANCH   4   5
ATOM      5  C   UNL A   1      39.858  22.594  27.029  1.00  0.00     0.202 C 
BRANCH   5   6
ATOM      6  C   UNL A   1      38.971  22.496  25.783  1.00  0.00     0.261 C 
BRANCH   6   7
ATOM      7  O   UNL A   1      37.560  22.470  26.022  1.00  0.00    -0.460 OA
BRANCH   7   8
ATOM      8  C   UNL A   1      36.771  22.220  24.952  1.00  0.00     0.338 C 
ATOM      9  O   UNL A   1      37.059  21.563  23.970  1.00  0.00    -0.246 OA
BRANCH   8  10
ATOM     10  C   UNL A   1      35.411  22.721  25.262  1.00  0.00     0.060 A 
ATOM     11  C   UNL A   1      32.834  23.702  25.694  1.00  0.00     0.052 A 
ATOM     12  C   UNL A   1      33.008  22.488  25.026  1.00  0.00     0.028 A 
ATOM     13  C   UNL A   1      33.947  24.347  26.259  1.00  0.00     0.028 A 
ATOM     14  C   UNL A   1      34.300  22.018  24.776  1.00  0.00     0.018 A 
ATOM     15  C   UNL A   1      35.234  23.854  26.056  1.00  0.00     0.018 A 
BRANCH  11  16
ATOM     16  N   UNL A   1      31.581  24.334  25.704  1.00  0.00    -0.242 N 
ATOM     17  C   UNL A   1      31.157  25.346  24.893  1.00  0.00     0.189 A 
ATOM     18  N   UNL A   1      29.967  25.808  25.166  1.00  0.00    -0.150 NA
ATOM     19  N   UNL A   1      29.540  25.000  26.188  1.00  0.00    -0.226 N 
ATOM     20  C   UNL A   1      30.512  24.049  26.514  1.00  0.00     0.348 A 
ATOM     21  H   UNL A   1      28.665  25.078  26.634  1.00  0.00     0.195 HD
ATOM     22  O   UNL A   1      30.395  23.192  27.377  1.00  0.00    -0.246 OA
BRANCH  17  23
ATOM     23  C   UNL A   1      31.919  25.807  23.745  1.00  0.00     0.130 A 
ATOM     24  C   UNL A   1      33.940  28.250  22.257  1.00  0.00     0.173 C 
ATOM     25  N   UNL A   1      33.128  27.096  22.560  1.00  0.00    -0.275 N 
ATOM     26  C   UNL A   1      32.865  26.034  21.748  1.00  0.00     0.109 A 
ATOM     27  N   UNL A   1      32.554  26.996  23.767  1.00  0.00    -0.170 NA
ATOM     28  C   UNL A   1      32.113  25.159  22.500  1.00  0.00     0.054 A 
ENDBRANCH  17  23
ENDBRANCH  11  16
ENDBRANCH   8  10
ENDBRANCH   7   8
ENDBRANCH   6   7
ENDBRANCH   5   6
ENDBRANCH   4   5
ENDBRANCH   3   4
ENDBRANCH   2   3
ENDBRANCH   1   2
BRANCH   1  29
ATOM     29  C   UNL A   1      43.542  18.934  25.763  1.00  0.00     0.188 C 
BRANCH  29  30
ATOM     30  C   UNL A   1      44.499  19.059  24.549  1.00  0.00     0.188 C 
BRANCH  30  31
ATOM     31  O   UNL A   1      45.365  20.177  24.554  1.00  0.00    -0.376 OA
BRANCH  31  32
ATOM     32  C   UNL A   1      45.000  21.458  25.021  1.00  0.00     0.202 C 
BRANCH  32  33
ATOM     33  C   UNL A   1      44.152  22.389  24.165  1.00  0.00     0.261 C 
BRANCH  33  34
ATOM     34  O   UNL A   1      43.214  23.151  24.891  1.00  0.00    -0.460 OA
BRANCH  34  35
ATOM     35  C   UNL A   1      43.586  24.428  25.088  1.00  0.00     0.338 C 
ATOM     36  O   UNL A   1      44.566  24.998  24.648  1.00  0.00    -0.246 OA
BRANCH  35  37
ATOM     37  C   UNL A   1      42.672  24.999  26.073  1.00  0.00     0.060 A 
ATOM     38  C   UNL A   1      41.753  25.920  25.575  1.00  0.00     0.016 A 
ATOM     39  C   UNL A   1      43.068  24.960  27.419  1.00  0.00     0.016 A 
ATOM     40  C   UNL A   1      41.460  27.000  26.366  1.00  0.00     0.010 A 
ATOM     41  C   UNL A   1      42.806  26.056  28.192  1.00  0.00     0.010 A 
ATOM     42  C   UNL A   1      42.088  27.098  27.616  1.00  0.00    -0.014 A 
BRANCH  42  43
ATOM     43  C   UNL A   1      41.854  28.292  28.384  1.00  0.00     0.031 A 
ATOM     44  C   UNL A   1      42.947  29.266  28.200  1.00  0.00     0.074 A 
ATOM     45  C   UNL A   1      40.730  28.479  29.098  1.00  0.00     0.049 A 
ATOM     46  N   UNL A   1      43.799  29.660  29.084  1.00  0.00    -0.248 NA
ATOM     47  C   UNL A   1      43.264  29.684  26.823  1.00  0.00     0.031 C 
ATOM     48  C   UNL A   1      39.509  27.669  29.106  1.00  0.00     0.029 A 
ATOM     49  N   UNL A   1      40.415  29.513  29.919  1.00  0.00    -0.354 N 
ATOM     50  C   UNL A   1      44.640  30.540  28.414  1.00  0.00     0.074 A 
ATOM     51  C   UNL A   1      44.401  30.351  27.011  1.00  0.00     0.031 C 
ATOM     52  C   UNL A   1      38.517  28.368  29.709  1.00  0.00     0.029 A 
ATOM     53  C   UNL A   1      39.065  29.608  30.234  1.00  0.00     0.049 A 
ATOM     54  H   UNL A   1      41.087  30.144  30.262  1.00  0.00     0.167 HD
ATOM     55  C   UNL A   1      45.232  31.558  29.090  1.00  0.00     0.037 A 
ATOM     56  C   UNL A   1      38.465  30.684  30.805  1.00  0.00     0.037 A 
ATOM     57  C   UNL A   1      45.302  31.257  30.500  1.00  0.00     0.049 A 
ATOM     58  C   UNL A   1      39.539  31.509  31.421  1.00  0.00     0.074 A 
ATOM     59  C   UNL A   1      45.897  30.257  31.245  1.00  0.00     0.029 A 
ATOM     60  N   UNL A   1      44.368  31.831  31.326  1.00  0.00    -0.354 N 
ATOM     61  N   UNL A   1      40.216  31.149  32.475  1.00  0.00    -0.248 NA
ATOM     62  C   UNL A   1      40.170  32.525  30.591  1.00  0.00     0.031 C 
ATOM     63  C   UNL A   1      44.983  29.984  32.306  1.00  0.00     0.029 A 
ATOM     64  C   UNL A   1      43.914  30.871  32.192  1.00  0.00     0.049 A 
ATOM     65  H   UNL A   1      44.075  32.771  31.299  1.00  0.00     0.167 HD
ATOM     66  C   UNL A   1      41.518  31.546  32.206  1.00  0.00     0.074 A 
ATOM     67  C   UNL A   1      41.413  32.462  31.075  1.00  0.00     0.031 C 
ATOM     68  C   UNL A   1      42.576  30.862  32.734  1.00  0.00     0.037 A 
BRANCH  55  69
ATOM     69  C   UNL A   1      45.320  32.966  28.543  1.00  0.00     0.064 A 
ATOM     70  C   UNL A   1      44.127  33.603  28.148  1.00  0.00     0.173 A 
ATOM     71  C   UNL A   1      46.510  33.592  28.104  1.00  0.00     0.173 A 
ATOM     72  F   UNL A   1      42.935  33.101  28.502  1.00  0.00    -0.203 F 
ATOM     73  C   UNL A   1      44.129  34.707  27.292  1.00  0.00     0.198 A 
ATOM     74  C   UNL A   1      46.507  34.724  27.294  1.00  0.00     0.198 A 
ATOM     75  F   UNL A   1      47.727  33.093  28.341  1.00  0.00    -0.203 F 
ATOM     76  F   UNL A   1      42.966  35.186  26.831  1.00  0.00    -0.200 F 
ATOM     77  C   UNL A   1      45.318  35.259  26.856  1.00  0.00     0.200 A 
ATOM     78  F   UNL A   1      47.673  35.234  26.873  1.00  0.00    -0.200 F 
ATOM     79  F   UNL A   1      45.320  36.272  25.981  1.00  0.00    -0.200 F 
ENDBRANCH  55  69
BRANCH  56  80
ATOM     80  C   UNL A   1      37.105  31.232  30.579  1.00  0.00     0.064 A 
ATOM     81  C   UNL A   1      36.264  31.522  31.668  1.00  0.00     0.173 A 
ATOM     82  C   UNL A   1      36.719  31.764  29.334  1.00  0.00     0.173 A 
ATOM     83  F   UNL A   1      36.576  31.086  32.898  1.00  0.00    -0.203 F 
ATOM     84  C   UNL A   1      35.135  32.336  31.530  1.00  0.00     0.198 A 
ATOM     85  C   UNL A   1      35.585  32.569  29.196  1.00  0.00     0.198 A 
ATOM     86  F   UNL A   1      37.484  31.603  28.247  1.00  0.00    -0.203 F 
ATOM     87  F   UNL A   1      34.405  32.654  32.608  1.00  0.00    -0.200 F 
ATOM     88  C   UNL A   1      34.805  32.870  30.297  1.00  0.00     0.200 A 
ATOM     89  F   UNL A   1      35.296  33.108  28.003  1.00  0.00    -0.200 F 
ATOM     90  F   UNL A   1      33.766  33.708  30.177  1.00  0.00    -0.200 F 
ENDBRANCH  56  80
BRANCH  68  91
ATOM     91  C   UNL A   1      42.284  29.872  33.829  1.00  0.00     0.064 A 
ATOM     92  C   UNL A   1      41.852  28.550  33.613  1.00  0.00     0.173 A 
ATOM     93  C   UNL A   1      42.555  30.251  35.151  1.00  0.00     0.173 A 
ATOM     94  F   UNL A   1      41.673  28.075  32.373  1.00  0.00    -0.203 F 
ATOM     95  C   UNL A   1      41.644  27.674  34.678  1.00  0.00     0.198 A 
ATOM     96  C   UNL A   1      42.388  29.361  36.207  1.00  0.00     0.198 A 
ATOM     97  F   UNL A   1      43.021  31.482  35.414  1.00  0.00    -0.203 F 
ATOM     98  F   UNL A   1      41.204  26.428  34.449  1.00  0.00    -0.200 F 
ATOM     99  C   UNL A   1      41.917  28.080  35.973  1.00  0.00     0.200 A 
ATOM    100  F   UNL A   1      42.704  29.743  37.453  1.00  0.00    -0.200 F 
ATOM    101  F   UNL A   1      41.751  27.229  36.996  1.00  0.00    -0.200 F 
ENDBRANCH  68  91
ENDBRANCH  42  43
ENDBRANCH  35  37
ENDBRANCH  34  35
ENDBRANCH  33  34
ENDBRANCH  32  33
ENDBRANCH  31  32
ENDBRANCH  30  31
ENDBRANCH  29  30
ENDBRANCH   1  29
TORSDOF 22
ENDMDL
MODEL 2
REMARK VINA RESULT:     -11.2      3.952      9.314
REMARK SMILES Cn1ccc(-c2n[nH]c(=O)n2-c2ccc(C(=O)OCCOCCOCCOCCOC(=O)c3ccc(-c4c5nc(c(-c6c(F)c(F)c(F)c(F)c6F)c6ccc([nH]6)c(-c6c(F)c(F)c(F)c(F)c6F)c6nc(c(-c7c(F)c(F)c(F)c(F)c7F)c7ccc4[nH]7)C=C6)C=C5)cc3)cc2)n1
REMARK SMILES IDX 24 1 23 2 22 3 21 4 20 5 19 6 18 7 16 8 17 9 15 10 12 11
REMARK SMILES IDX 13 12 97 13 14 14 96 15 11 16 6 17 7 18 8 19 9 20 10 22 5 23
REMARK SMILES IDX 1 24 2 25 3 26 98 27 4 28 25 29 26 30 27 31 28 32 29 33
REMARK SMILES IDX 30 34 31 35 32 36 33 37 34 38 95 39 35 40 94 41 36 42 37 43
REMARK SMILES IDX 38 44 88 45 39 46 93 47 87 48 89 49 40 50 92 51 86 52 85 53
REMARK SMILES IDX 41 55 73 56 53 57 72 58 54 59 57 60 71 61 90 62 55 63 56 64
REMARK SMILES IDX 70 66 91 67 58 68 42 69 43 70 51 71 44 72 45 73 49 74 52 75
REMARK SMILES IDX 46 76 47 77 50 78 48 79 74 80 75 81 83 82 76 83 77 84 81 85
REMARK SMILES IDX 84 86 78 87 79 88 82 89 80 90 59 91 60 92 68 93 61 94 62 95
REMARK SMILES IDX 66 96 69 97 63 98 64 99 67 100 65 101
REMARK H PARENT 8 21 89 54 57 65
REMARK Flexibility Score: inf
ROOT
ATOM      1  O   UNL A   1      34.612  30.254  27.124  1.00  0.00    -0.377 OA
ENDROOT
BRANCH   1   2
ATOM      2  C   UNL A   1      33.941  29.019  26.906  1.00  0.00     0.188 C 
BRANCH   2   3
ATOM      3  C   UNL A   1      33.696  28.457  25.486  1.00  0.00     0.188 C 
BRANCH   3   4
ATOM      4  O   UNL A   1      32.791  29.221  24.714  1.00  0.00    -0.376 OA
BRANCH   4   5
ATOM      5  C   UNL A   1      32.894  29.241  23.311  1.00  0.00     0.202 C 
BRANCH   5   6
ATOM      6  C   UNL A   1      32.302  28.066  22.525  1.00  0.00     0.261 C 
BRANCH   6   7
ATOM      7  O   UNL A   1      33.239  27.278  21.782  1.00  0.00    -0.460 OA
BRANCH   7   8
ATOM      8  C   UNL A   1      32.846  26.026  21.454  1.00  0.00     0.338 C 
ATOM      9  O   UNL A   1      32.514  25.629  20.352  1.00  0.00    -0.246 OA
BRANCH   8  10
ATOM     10  C   UNL A   1      33.074  25.154  22.630  1.00  0.00     0.060 A 
ATOM     11  C   UNL A   1      33.359  23.547  24.895  1.00  0.00     0.052 A 
ATOM     12  C   UNL A   1      32.528  23.131  23.854  1.00  0.00     0.028 A 
ATOM     13  C   UNL A   1      34.146  24.700  24.734  1.00  0.00     0.028 A 
ATOM     14  C   UNL A   1      32.356  23.955  22.738  1.00  0.00     0.018 A 
ATOM     15  C   UNL A   1      34.016  25.499  23.600  1.00  0.00     0.018 A 
BRANCH  11  16
ATOM     16  N   UNL A   1      33.327  22.892  26.135  1.00  0.00    -0.242 N 
ATOM     17  C   UNL A   1      34.222  21.979  26.613  1.00  0.00     0.189 A 
ATOM     18  N   UNL A   1      33.915  21.460  27.771  1.00  0.00    -0.150 NA
ATOM     19  N   UNL A   1      32.768  22.125  28.121  1.00  0.00    -0.226 N 
ATOM     20  C   UNL A   1      32.404  23.049  27.137  1.00  0.00     0.348 A 
ATOM     21  H   UNL A   1      32.267  21.973  28.955  1.00  0.00     0.195 HD
ATOM     22  O   UNL A   1      31.434  23.789  27.193  1.00  0.00    -0.246 OA
BRANCH  17  23
ATOM     23  C   UNL A   1      35.477  21.681  25.942  1.00  0.00     0.130 A 
ATOM     24  C   UNL A   1      38.976  21.829  25.900  1.00  0.00     0.173 C 
ATOM     25  N   UNL A   1      37.577  21.633  25.604  1.00  0.00    -0.275 N 
ATOM     26  C   UNL A   1      37.040  21.041  24.501  1.00  0.00     0.109 A 
ATOM     27  N   UNL A   1      36.655  22.048  26.485  1.00  0.00    -0.170 NA
ATOM     28  C   UNL A   1      35.678  21.021  24.705  1.00  0.00     0.054 A 
ENDBRANCH  17  23
ENDBRANCH  11  16
ENDBRANCH   8  10
ENDBRANCH   7   8
ENDBRANCH   6   7
ENDBRANCH   5   6
ENDBRANCH   4   5
ENDBRANCH   3   4
ENDBRANCH   2   3
ENDBRANCH   1   2
BRANCH   1  29
ATOM     29  C   UNL A   1      34.040  31.263  27.946  1.00  0.00     0.188 C 
BRANCH  29  30
ATOM     30  C   UNL A   1      34.553  32.727  27.917  1.00  0.00     0.188 C 
BRANCH  30  31
ATOM     31  O   UNL A   1      34.205  33.527  29.030  1.00  0.00    -0.376 OA
BRANCH  31  32
ATOM     32  C   UNL A   1      33.643  34.818  28.931  1.00  0.00     0.202 C 
BRANCH  32  33
ATOM     33  C   UNL A   1      33.111  35.535  30.164  1.00  0.00     0.261 C 
BRANCH  33  34
ATOM     34  O   UNL A   1      33.019  34.724  31.313  1.00  0.00    -0.460 OA
BRANCH  34  35
ATOM     35  C   UNL A   1      33.436  35.328  32.441  1.00  0.00     0.338 C 
ATOM     36  O   UNL A   1      33.134  36.431  32.853  1.00  0.00    -0.246 OA
BRANCH  35  37
ATOM     37  C   UNL A   1      34.461  34.476  33.036  1.00  0.00     0.060 A 
ATOM     38  C   UNL A   1      35.642  35.122  33.395  1.00  0.00     0.016 A 
ATOM     39  C   UNL A   1      34.387  33.100  32.776  1.00  0.00     0.016 A 
ATOM     40  C   UNL A   1      36.812  34.438  33.196  1.00  0.00     0.010 A 
ATOM     41  C   UNL A   1      35.555  32.431  32.540  1.00  0.00     0.010 A 
ATOM     42  C   UNL A   1      36.743  33.144  32.662  1.00  0.00    -0.014 A 
BRANCH  42  43
ATOM     43  C   UNL A   1      37.986  32.486  32.355  1.00  0.00     0.031 A 
ATOM     44  C   UNL A   1      38.833  32.362  33.557  1.00  0.00     0.074 A 
ATOM     45  C   UNL A   1      38.258  31.997  31.133  1.00  0.00     0.049 A 
ATOM     46  N   UNL A   1      39.962  32.945  33.781  1.00  0.00    -0.248 NA
ATOM     47  C   UNL A   1      38.257  31.686  34.731  1.00  0.00     0.031 C 
ATOM     48  C   UNL A   1      37.358  31.858  29.985  1.00  0.00     0.029 A 
ATOM     49  N   UNL A   1      39.406  31.425  30.690  1.00  0.00    -0.354 N 
ATOM     50  C   UNL A   1      40.336  32.540  35.055  1.00  0.00     0.074 A 
ATOM     51  C   UNL A   1      39.172  31.956  35.660  1.00  0.00     0.031 C 
ATOM     52  C   UNL A   1      37.929  31.040  29.069  1.00  0.00     0.029 A 
ATOM     53  C   UNL A   1      39.273  30.704  29.509  1.00  0.00     0.049 A 
ATOM     54  H   UNL A   1      40.263  31.514  31.165  1.00  0.00     0.167 HD
ATOM     55  C   UNL A   1      41.652  32.447  35.378  1.00  0.00     0.037 A 
ATOM     56  C   UNL A   1      40.190  29.835  29.012  1.00  0.00     0.037 A 
ATOM     57  C   UNL A   1      42.446  33.280  34.508  1.00  0.00     0.049 A 
ATOM     58  C   UNL A   1      41.485  30.134  29.680  1.00  0.00     0.074 A 
ATOM     59  C   UNL A   1      42.485  34.635  34.238  1.00  0.00     0.029 A 
ATOM     60  N   UNL A   1      43.108  32.674  33.468  1.00  0.00    -0.354 N 
ATOM     61  N   UNL A   1      42.182  31.214  29.464  1.00  0.00    -0.248 NA
ATOM     62  C   UNL A   1      41.774  29.445  30.930  1.00  0.00     0.031 C 
ATOM     63  C   UNL A   1      42.757  34.732  32.841  1.00  0.00     0.029 A 
ATOM     64  C   UNL A   1      42.935  33.441  32.346  1.00  0.00     0.049 A 
ATOM     65  H   UNL A   1      43.617  31.833  33.521  1.00  0.00     0.167 HD
ATOM     66  C   UNL A   1      42.655  31.581  30.715  1.00  0.00     0.074 A 
ATOM     67  C   UNL A   1      42.446  30.410  31.562  1.00  0.00     0.031 C 
ATOM     68  C   UNL A   1      42.893  32.893  31.010  1.00  0.00     0.037 A 
BRANCH  55  69
ATOM     69  C   UNL A   1      42.227  31.285  36.157  1.00  0.00     0.064 A 
ATOM     70  C   UNL A   1      43.112  31.564  37.216  1.00  0.00     0.173 A 
ATOM     71  C   UNL A   1      42.203  29.935  35.733  1.00  0.00     0.173 A 
ATOM     72  F   UNL A   1      43.223  32.809  37.702  1.00  0.00    -0.203 F 
ATOM     73  C   UNL A   1      43.979  30.597  37.728  1.00  0.00     0.198 A 
ATOM     74  C   UNL A   1      43.033  28.962  36.283  1.00  0.00     0.198 A 
ATOM     75  F   UNL A   1      41.463  29.506  34.706  1.00  0.00    -0.203 F 
ATOM     76  F   UNL A   1      44.901  30.949  38.634  1.00  0.00    -0.200 F 
ATOM     77  C   UNL A   1      43.948  29.299  37.253  1.00  0.00     0.200 A 
ATOM     78  F   UNL A   1      42.993  27.713  35.796  1.00  0.00    -0.200 F 
ATOM     79  F   UNL A   1      44.826  28.390  37.693  1.00  0.00    -0.200 F 
ENDBRANCH  55  69
BRANCH  56  80
ATOM     80  C   UNL A   1      39.979  28.567  28.271  1.00  0.00     0.064 A 
ATOM     81  C   UNL A   1      40.613  28.349  27.035  1.00  0.00     0.173 A 
ATOM     82  C   UNL A   1      39.411  27.436  28.887  1.00  0.00     0.173 A 
ATOM     83  F   UNL A   1      41.213  29.366  26.395  1.00  0.00    -0.203 F 
ATOM     84  C   UNL A   1      40.716  27.072  26.474  1.00  0.00     0.198 A 
ATOM     85  C   UNL A   1      39.507  26.162  28.321  1.00  0.00     0.198 A 
ATOM     86  F   UNL A   1      38.842  27.520  30.097  1.00  0.00    -0.203 F 
ATOM     87  F   UNL A   1      41.399  26.896  25.334  1.00  0.00    -0.200 F 
ATOM     88  C   UNL A   1      40.176  25.978  27.126  1.00  0.00     0.200 A 
ATOM     89  F   UNL A   1      39.009  25.105  28.979  1.00  0.00    -0.200 F 
ATOM     90  F   UNL A   1      40.337  24.744  26.627  1.00  0.00    -0.200 F 
ENDBRANCH  56  80
BRANCH  68  91
ATOM     91  C   UNL A   1      42.907  33.870  29.865  1.00  0.00     0.064 A 
ATOM     92  C   UNL A   1      44.031  34.138  29.062  1.00  0.00     0.173 A 
ATOM     93  C   UNL A   1      41.699  34.480  29.504  1.00  0.00     0.173 A 
ATOM     94  F   UNL A   1      45.197  33.514  29.274  1.00  0.00    -0.203 F 
ATOM     95  C   UNL A   1      43.957  35.025  27.988  1.00  0.00     0.198 A 
ATOM     96  C   UNL A   1      41.618  35.330  28.406  1.00  0.00     0.198 A 
ATOM     97  F   UNL A   1      40.581  34.219  30.200  1.00  0.00    -0.203 F 
ATOM     98  F   UNL A   1      45.048  35.288  27.255  1.00  0.00    -0.200 F 
ATOM     99  C   UNL A   1      42.748  35.615  27.658  1.00  0.00     0.200 A 
ATOM    100  F   UNL A   1      40.434  35.857  28.061  1.00  0.00    -0.200 F 
ATOM    101  F   UNL A   1      42.666  36.441  26.605  1.00  0.00    -0.200 F 
ENDBRANCH  68  91
ENDBRANCH  42  43
ENDBRANCH  35  37
ENDBRANCH  34  35
ENDBRANCH  33  34
ENDBRANCH  32  33
ENDBRANCH  31  32
ENDBRANCH  30  31
ENDBRANCH  29  30
ENDBRANCH   1  29
TORSDOF 22
ENDMDL
MODEL 3
REMARK VINA RESULT:     -10.9      3.636      9.217
REMARK SMILES Cn1ccc(-c2n[nH]c(=O)n2-c2ccc(C(=O)OCCOCCOCCOCCOC(=O)c3ccc(-c4c5nc(c(-c6c(F)c(F)c(F)c(F)c6F)c6ccc([nH]6)c(-c6c(F)c(F)c(F)c(F)c6F)c6nc(c(-c7c(F)c(F)c(F)c(F)c7F)c7ccc4[nH]7)C=C6)C=C5)cc3)cc2)n1
REMARK SMILES IDX 24 1 23 2 22 3 21 4 20 5 19 6 18 7 16 8 17 9 15 10 12 11
REMARK SMILES IDX 13 12 97 13 14 14 96 15 11 16 6 17 7 18 8 19 9 20 10 22 5 23
REMARK SMILES IDX 1 24 2 25 3 26 98 27 4 28 25 29 26 30 27 31 28 32 29 33
REMARK SMILES IDX 30 34 31 35 32 36 33 37 34 38 95 39 35 40 94 41 36 42 37 43
REMARK SMILES IDX 38 44 88 45 39 46 93 47 87 48 89 49 40 50 92 51 86 52 85 53
REMARK SMILES IDX 41 55 73 56 53 57 72 58 54 59 57 60 71 61 90 62 55 63 56 64
REMARK SMILES IDX 70 66 91 67 58 68 42 69 43 70 51 71 44 72 45 73 49 74 52 75
REMARK SMILES IDX 46 76 47 77 50 78 48 79 74 80 75 81 83 82 76 83 77 84 81 85
REMARK SMILES IDX 84 86 78 87 79 88 82 89 80 90 59 91 60 92 68 93 61 94 62 95
REMARK SMILES IDX 66 96 69 97 63 98 64 99 67 100 65 101
REMARK H PARENT 8 21 89 54 57 65
REMARK Flexibility Score: inf
ROOT
ATOM      1  O   UNL A   1      34.563  30.324  27.013  1.00  0.00    -0.377 OA
ENDROOT
BRANCH   1   2
ATOM      2  C   UNL A   1      34.291  28.931  27.113  1.00  0.00     0.188 C 
BRANCH   2   3
ATOM      3  C   UNL A   1      33.842  28.092  25.894  1.00  0.00     0.188 C 
BRANCH   3   4
ATOM      4  O   UNL A   1      33.034  28.801  24.976  1.00  0.00    -0.376 OA
BRANCH   4   5
ATOM      5  C   UNL A   1      33.390  28.863  23.616  1.00  0.00     0.202 C 
BRANCH   5   6
ATOM      6  C   UNL A   1      32.745  27.861  22.652  1.00  0.00     0.261 C 
BRANCH   6   7
ATOM      7  O   UNL A   1      33.640  27.189  21.759  1.00  0.00    -0.460 OA
BRANCH   7   8
ATOM      8  C   UNL A   1      33.284  25.943  21.373  1.00  0.00     0.338 C 
ATOM      9  O   UNL A   1      32.928  25.594  20.264  1.00  0.00    -0.246 OA
BRANCH   8  10
ATOM     10  C   UNL A   1      33.589  25.017  22.490  1.00  0.00     0.060 A 
ATOM     11  C   UNL A   1      34.015  23.295  24.645  1.00  0.00     0.052 A 
ATOM     12  C   UNL A   1      33.214  22.882  23.580  1.00  0.00     0.028 A 
ATOM     13  C   UNL A   1      34.707  24.516  24.559  1.00  0.00     0.028 A 
ATOM     14  C   UNL A   1      32.969  23.760  22.520  1.00  0.00     0.018 A 
ATOM     15  C   UNL A   1      34.506  25.373  23.479  1.00  0.00     0.018 A 
BRANCH  11  16
ATOM     16  N   UNL A   1      34.044  22.560  25.839  1.00  0.00    -0.242 N 
ATOM     17  C   UNL A   1      33.110  22.558  26.835  1.00  0.00     0.189 A 
ATOM     18  N   UNL A   1      33.420  21.839  27.880  1.00  0.00    -0.150 NA
ATOM     19  N   UNL A   1      34.615  21.266  27.527  1.00  0.00    -0.226 N 
ATOM     20  C   UNL A   1      35.004  21.669  26.246  1.00  0.00     0.348 A 
ATOM     21  H   UNL A   1      35.130  20.652  28.099  1.00  0.00     0.195 HD
ATOM     22  O   UNL A   1      36.019  21.302  25.673  1.00  0.00    -0.246 OA
BRANCH  17  23
ATOM     23  C   UNL A   1      31.820  23.215  26.705  1.00  0.00     0.130 A 
ATOM     24  C   UNL A   1      29.962  26.052  25.832  1.00  0.00     0.173 C 
ATOM     25  N   UNL A   1      30.420  24.763  26.290  1.00  0.00    -0.275 N 
ATOM     26  C   UNL A   1      29.661  23.730  26.750  1.00  0.00     0.109 A 
ATOM     27  N   UNL A   1      31.733  24.487  26.269  1.00  0.00    -0.170 NA
ATOM     28  C   UNL A   1      30.535  22.694  26.993  1.00  0.00     0.054 A 
ENDBRANCH  17  23
ENDBRANCH  11  16
ENDBRANCH   8  10
ENDBRANCH   7   8
ENDBRANCH   6   7
ENDBRANCH   5   6
ENDBRANCH   4   5
ENDBRANCH   3   4
ENDBRANCH   2   3
ENDBRANCH   1   2
BRANCH   1  29
ATOM     29  C   UNL A   1      34.040  31.243  27.963  1.00  0.00     0.188 C 
BRANCH  29  30
ATOM     30  C   UNL A   1      34.423  32.745  27.944  1.00  0.00     0.188 C 
BRANCH  30  31
ATOM     31  O   UNL A   1      34.073  33.490  29.094  1.00  0.00    -0.376 OA
BRANCH  31  32
ATOM     32  C   UNL A   1      33.688  34.847  29.070  1.00  0.00     0.202 C 
BRANCH  32  33
ATOM     33  C   UNL A   1      33.356  35.588  30.358  1.00  0.00     0.261 C 
BRANCH  33  34
ATOM     34  O   UNL A   1      33.159  34.751  31.475  1.00  0.00    -0.460 OA
BRANCH  34  35
ATOM     35  C   UNL A   1      33.606  35.271  32.631  1.00  0.00     0.338 C 
ATOM     36  O   UNL A   1      33.358  36.363  33.106  1.00  0.00    -0.246 OA
BRANCH  35  37
ATOM     37  C   UNL A   1      34.593  34.341  33.173  1.00  0.00     0.060 A 
ATOM     38  C   UNL A   1      35.775  34.920  33.627  1.00  0.00     0.016 A 
ATOM     39  C   UNL A   1      34.496  32.998  32.780  1.00  0.00     0.016 A 
ATOM     40  C   UNL A   1      36.936  34.228  33.398  1.00  0.00     0.010 A 
ATOM     41  C   UNL A   1      35.656  32.325  32.517  1.00  0.00     0.010 A 
ATOM     42  C   UNL A   1      36.855  32.993  32.741  1.00  0.00    -0.014 A 
BRANCH  42  43
ATOM     43  C   UNL A   1      38.092  32.335  32.410  1.00  0.00     0.031 A 
ATOM     44  C   UNL A   1      38.945  32.175  33.602  1.00  0.00     0.074 A 
ATOM     45  C   UNL A   1      38.353  31.876  31.174  1.00  0.00     0.049 A 
ATOM     46  N   UNL A   1      40.079  32.744  33.835  1.00  0.00    -0.248 NA
ATOM     47  C   UNL A   1      38.371  31.472  34.763  1.00  0.00     0.031 C 
ATOM     48  C   UNL A   1      37.445  31.772  30.028  1.00  0.00     0.029 A 
ATOM     49  N   UNL A   1      39.495  31.309  30.709  1.00  0.00    -0.354 N 
ATOM     50  C   UNL A   1      40.457  32.304  35.096  1.00  0.00     0.074 A 
ATOM     51  C   UNL A   1      39.294  31.713  35.693  1.00  0.00     0.031 C 
ATOM     52  C   UNL A   1      38.006  30.975  29.088  1.00  0.00     0.029 A 
ATOM     53  C   UNL A   1      39.350  30.619  29.511  1.00  0.00     0.049 A 
ATOM     54  H   UNL A   1      40.355  31.380  31.181  1.00  0.00     0.167 HD
ATOM     55  C   UNL A   1      41.775  32.195  35.409  1.00  0.00     0.037 A 
ATOM     56  C   UNL A   1      40.259  29.758  28.986  1.00  0.00     0.037 A 
ATOM     57  C   UNL A   1      42.570  33.045  34.556  1.00  0.00     0.049 A 
ATOM     58  C   UNL A   1      41.560  30.031  29.654  1.00  0.00     0.074 A 
ATOM     59  C   UNL A   1      42.615  34.406  34.320  1.00  0.00     0.029 A 
ATOM     60  N   UNL A   1      43.221  32.463  33.496  1.00  0.00    -0.354 N 
ATOM     61  N   UNL A   1      42.262  31.112  29.461  1.00  0.00    -0.248 NA
ATOM     62  C   UNL A   1      41.851  29.309  30.884  1.00  0.00     0.031 C 
ATOM     63  C   UNL A   1      42.880  34.538  32.924  1.00  0.00     0.029 A 
ATOM     64  C   UNL A   1      43.046  33.259  32.395  1.00  0.00     0.049 A 
ATOM     65  H   UNL A   1      43.725  31.617  33.524  1.00  0.00     0.167 HD
ATOM     66  C   UNL A   1      42.745  31.444  30.719  1.00  0.00     0.074 A 
ATOM     67  C   UNL A   1      42.533  30.253  31.536  1.00  0.00     0.031 C 
ATOM     68  C   UNL A   1      42.993  32.746  31.046  1.00  0.00     0.037 A 
BRANCH  55  69
ATOM     69  C   UNL A   1      42.347  31.010  36.154  1.00  0.00     0.064 A 
ATOM     70  C   UNL A   1      43.298  31.252  37.163  1.00  0.00     0.173 A 
ATOM     71  C   UNL A   1      42.250  29.663  35.729  1.00  0.00     0.173 A 
ATOM     72  F   UNL A   1      43.482  32.490  37.644  1.00  0.00    -0.203 F 
ATOM     73  C   UNL A   1      44.155  30.251  37.627  1.00  0.00     0.198 A 
ATOM     74  C   UNL A   1      43.071  28.658  36.232  1.00  0.00     0.198 A 
ATOM     75  F   UNL A   1      41.440  29.265  34.743  1.00  0.00    -0.203 F 
ATOM     76  F   UNL A   1      45.137  30.566  38.482  1.00  0.00    -0.200 F 
ATOM     77  C   UNL A   1      44.049  28.957  37.152  1.00  0.00     0.200 A 
ATOM     78  F   UNL A   1      42.958  27.413  35.747  1.00  0.00    -0.200 F 
ATOM     79  F   UNL A   1      44.915  28.014  37.542  1.00  0.00    -0.200 F 
ENDBRANCH  55  69
BRANCH  56  80
ATOM     80  C   UNL A   1      40.035  28.511  28.214  1.00  0.00     0.064 A 
ATOM     81  C   UNL A   1      40.690  28.305  26.986  1.00  0.00     0.173 A 
ATOM     82  C   UNL A   1      39.429  27.380  28.793  1.00  0.00     0.173 A 
ATOM     83  F   UNL A   1      41.326  29.321  26.381  1.00  0.00    -0.203 F 
ATOM     84  C   UNL A   1      40.777  27.038  26.401  1.00  0.00     0.198 A 
ATOM     85  C   UNL A   1      39.509  26.116  28.203  1.00  0.00     0.198 A 
ATOM     86  F   UNL A   1      38.838  27.452  29.993  1.00  0.00    -0.203 F 
ATOM     87  F   UNL A   1      41.479  26.871  25.271  1.00  0.00    -0.200 F 
ATOM     88  C   UNL A   1      40.199  25.943  27.017  1.00  0.00     0.200 A 
ATOM     89  F   UNL A   1      38.974  25.058  28.827  1.00  0.00    -0.200 F 
ATOM     90  F   UNL A   1      40.343  24.716  26.495  1.00  0.00    -0.200 F 
ENDBRANCH  56  80
BRANCH  68  91
ATOM     91  C   UNL A   1      43.007  33.752  29.926  1.00  0.00     0.064 A 
ATOM     92  C   UNL A   1      41.867  34.417  29.440  1.00  0.00     0.173 A 
ATOM     93  C   UNL A   1      44.247  34.132  29.397  1.00  0.00     0.173 A 
ATOM     94  F   UNL A   1      40.656  34.190  29.967  1.00  0.00    -0.203 F 
ATOM     95  C   UNL A   1      41.963  35.371  28.428  1.00  0.00     0.198 A 
ATOM     96  C   UNL A   1      44.345  35.115  28.418  1.00  0.00     0.198 A 
ATOM     97  F   UNL A   1      45.375  33.572  29.860  1.00  0.00    -0.203 F 
ATOM     98  F   UNL A   1      40.859  35.971  27.959  1.00  0.00    -0.200 F 
ATOM     99  C   UNL A   1      43.203  35.723  27.922  1.00  0.00     0.200 A 
ATOM    100  F   UNL A   1      45.552  35.488  27.969  1.00  0.00    -0.200 F 
ATOM    101  F   UNL A   1      43.302  36.665  26.972  1.00  0.00    -0.200 F 
ENDBRANCH  68  91
ENDBRANCH  42  43
ENDBRANCH  35  37
ENDBRANCH  34  35
ENDBRANCH  33  34
ENDBRANCH  32  33
ENDBRANCH  31  32
ENDBRANCH  30  31
ENDBRANCH  29  30
ENDBRANCH   1  29
TORSDOF 22
ENDMDL
