MODEL 1
REMARK VINA RESULT:      -8.9      0.000      0.000
REMARK SMILES O=C(OCCOCCOCCOCCOC(=O)c1cc(-c2cc(Cl)ccc2Cl)cc([N+](=O)[O-])c1)c1ccc(-c2c3nc(c(-c4c(F)c(F)c(F)c(F)c4F)c4ccc([nH]4)c(-c4c(F)c(F)c(F)c(F)c4F)c4nc(c(-c5c(F)c(F)c(F)c(F)c5F)c5ccc2[nH]5)C=C4)C=C3)cc1
REMARK SMILES IDX 8 1 7 2 6 3 5 4 4 5 3 6 2 7 1 8 35 9 36 10 97 11 37 12 96 13
REMARK SMILES IDX 38 14 39 15 40 16 90 17 41 18 95 19 89 20 91 21 42 22 94 23
REMARK SMILES IDX 88 24 87 25 43 27 75 28 55 29 74 30 56 31 59 32 73 33 92 34
REMARK SMILES IDX 57 35 58 36 72 38 93 39 60 40 44 41 45 42 53 43 46 44 47 45
REMARK SMILES IDX 51 46 54 47 48 48 49 49 52 50 50 51 76 52 77 53 85 54 78 55
REMARK SMILES IDX 79 56 83 57 86 58 80 59 81 60 84 61 82 62 61 63 62 64 70 65
REMARK SMILES IDX 63 66 64 67 68 68 71 69 65 70 66 71 69 72 67 73 9 74 10 75
REMARK SMILES IDX 11 76 12 77 13 78 14 79 15 80 16 81 17 82 18 83 19 84 34 85
REMARK SMILES IDX 20 86 30 87 29 88 21 89 22 90 27 91 23 92 26 93 28 94 24 95
REMARK SMILES IDX 25 96 31 97 32 98 33 99
REMARK H PARENT 91 26 59 37
REMARK Flexibility Score: inf
ROOT
ATOM      1  C   UNL A   1      45.964  21.151  25.035  1.00  0.00     0.188 C 
ENDROOT
BRANCH   1   2
ATOM      2  C   UNL A   1      46.104  22.406  24.174  1.00  0.00     0.188 C 
BRANCH   2   3
ATOM      3  O   UNL A   1      44.850  23.069  24.000  1.00  0.00    -0.376 OA
BRANCH   3   4
ATOM      4  C   UNL A   1      44.519  24.041  24.993  1.00  0.00     0.202 C 
BRANCH   4   5
ATOM      5  C   UNL A   1      45.712  24.807  25.567  1.00  0.00     0.261 C 
BRANCH   5   6
ATOM      6  O   UNL A   1      46.376  25.621  24.590  1.00  0.00    -0.460 OA
BRANCH   6   7
ATOM      7  C   UNL A   1      46.469  26.973  24.550  1.00  0.00     0.338 C 
ATOM      8  O   UNL A   1      46.951  27.492  23.545  1.00  0.00    -0.246 OA
BRANCH   7   9
ATOM      9  C   UNL A   1      46.026  27.886  25.653  1.00  0.00     0.060 A 
ATOM     10  C   UNL A   1      46.866  28.629  26.484  1.00  0.00     0.016 A 
ATOM     11  C   UNL A   1      44.639  28.056  25.812  1.00  0.00     0.016 A 
ATOM     12  C   UNL A   1      46.372  29.464  27.472  1.00  0.00     0.010 A 
ATOM     13  C   UNL A   1      44.125  28.902  26.799  1.00  0.00     0.010 A 
ATOM     14  C   UNL A   1      45.000  29.581  27.651  1.00  0.00    -0.014 A 
BRANCH  14  15
ATOM     15  C   UNL A   1      44.547  30.245  28.881  1.00  0.00     0.031 A 
ATOM     16  C   UNL A   1      44.267  31.713  28.802  1.00  0.00     0.074 A 
ATOM     17  C   UNL A   1      44.223  29.513  29.960  1.00  0.00     0.049 A 
ATOM     18  N   UNL A   1      43.903  32.543  29.740  1.00  0.00    -0.248 NA
ATOM     19  C   UNL A   1      44.400  32.331  27.470  1.00  0.00     0.031 C 
ATOM     20  C   UNL A   1      44.306  28.052  30.043  1.00  0.00     0.029 A 
ATOM     21  N   UNL A   1      43.728  29.891  31.178  1.00  0.00    -0.354 N 
ATOM     22  C   UNL A   1      43.806  33.782  29.121  1.00  0.00     0.074 A 
ATOM     23  C   UNL A   1      44.141  33.602  27.729  1.00  0.00     0.031 C 
ATOM     24  C   UNL A   1      43.869  27.658  31.250  1.00  0.00     0.029 A 
ATOM     25  C   UNL A   1      43.550  28.840  32.043  1.00  0.00     0.049 A 
ATOM     26  H   UNL A   1      43.520  30.823  31.410  1.00  0.00     0.167 HD
ATOM     27  C   UNL A   1      43.475  34.964  29.687  1.00  0.00     0.037 A 
ATOM     28  C   UNL A   1      43.215  28.856  33.346  1.00  0.00     0.037 A 
ATOM     29  C   UNL A   1      43.142  35.092  31.077  1.00  0.00     0.049 A 
ATOM     30  C   UNL A   1      42.958  30.198  33.981  1.00  0.00     0.074 A 
ATOM     31  C   UNL A   1      42.854  36.233  31.801  1.00  0.00     0.029 A 
ATOM     32  N   UNL A   1      43.054  34.018  31.958  1.00  0.00    -0.354 N 
ATOM     33  N   UNL A   1      42.954  31.388  33.424  1.00  0.00    -0.248 NA
ATOM     34  C   UNL A   1      42.677  30.207  35.419  1.00  0.00     0.031 C 
ATOM     35  C   UNL A   1      42.647  35.854  33.131  1.00  0.00     0.029 A 
ATOM     36  C   UNL A   1      42.738  34.471  33.225  1.00  0.00     0.049 A 
ATOM     37  H   UNL A   1      43.195  33.075  31.714  1.00  0.00     0.167 HD
ATOM     38  C   UNL A   1      42.653  32.286  34.436  1.00  0.00     0.074 A 
ATOM     39  C   UNL A   1      42.461  31.497  35.638  1.00  0.00     0.031 C 
ATOM     40  C   UNL A   1      42.549  33.638  34.388  1.00  0.00     0.037 A 
BRANCH  27  41
ATOM     41  C   UNL A   1      43.563  36.186  28.821  1.00  0.00     0.064 A 
ATOM     42  C   UNL A   1      42.455  36.700  28.130  1.00  0.00     0.173 A 
ATOM     43  C   UNL A   1      44.800  36.826  28.643  1.00  0.00     0.173 A 
ATOM     44  F   UNL A   1      41.258  36.104  28.236  1.00  0.00    -0.203 F 
ATOM     45  C   UNL A   1      42.589  37.788  27.270  1.00  0.00     0.198 A 
ATOM     46  C   UNL A   1      44.924  37.931  27.805  1.00  0.00     0.198 A 
ATOM     47  F   UNL A   1      45.894  36.368  29.267  1.00  0.00    -0.203 F 
ATOM     48  F   UNL A   1      41.531  38.220  26.568  1.00  0.00    -0.200 F 
ATOM     49  C   UNL A   1      43.821  38.405  27.112  1.00  0.00     0.200 A 
ATOM     50  F   UNL A   1      46.115  38.525  27.655  1.00  0.00    -0.200 F 
ATOM     51  F   UNL A   1      43.950  39.446  26.278  1.00  0.00    -0.200 F 
ENDBRANCH  27  41
BRANCH  28  52
ATOM     52  C   UNL A   1      43.178  27.592  34.131  1.00  0.00     0.064 A 
ATOM     53  C   UNL A   1      41.970  26.944  34.423  1.00  0.00     0.173 A 
ATOM     54  C   UNL A   1      44.359  27.007  34.619  1.00  0.00     0.173 A 
ATOM     55  F   UNL A   1      40.810  27.468  34.000  1.00  0.00    -0.203 F 
ATOM     56  C   UNL A   1      41.943  25.776  35.184  1.00  0.00     0.198 A 
ATOM     57  C   UNL A   1      44.334  25.822  35.351  1.00  0.00     0.198 A 
ATOM     58  F   UNL A   1      45.545  27.585  34.376  1.00  0.00    -0.203 F 
ATOM     59  F   UNL A   1      40.770  25.204  35.489  1.00  0.00    -0.200 F 
ATOM     60  C   UNL A   1      43.125  25.211  35.641  1.00  0.00     0.200 A 
ATOM     61  F   UNL A   1      45.482  25.275  35.775  1.00  0.00    -0.200 F 
ATOM     62  F   UNL A   1      43.098  24.087  36.368  1.00  0.00    -0.200 F 
ENDBRANCH  28  52
BRANCH  40  63
ATOM     63  C   UNL A   1      42.173  34.333  35.661  1.00  0.00     0.064 A 
ATOM     64  C   UNL A   1      40.834  34.522  36.029  1.00  0.00     0.173 A 
ATOM     65  C   UNL A   1      43.172  34.760  36.549  1.00  0.00     0.173 A 
ATOM     66  F   UNL A   1      39.847  34.141  35.205  1.00  0.00    -0.203 F 
ATOM     67  C   UNL A   1      40.508  35.137  37.233  1.00  0.00     0.198 A 
ATOM     68  C   UNL A   1      42.841  35.343  37.766  1.00  0.00     0.198 A 
ATOM     69  F   UNL A   1      44.467  34.591  36.242  1.00  0.00    -0.203 F 
ATOM     70  F   UNL A   1      39.223  35.353  37.545  1.00  0.00    -0.200 F 
ATOM     71  C   UNL A   1      41.511  35.538  38.104  1.00  0.00     0.200 A 
ATOM     72  F   UNL A   1      43.811  35.711  38.616  1.00  0.00    -0.200 F 
ATOM     73  F   UNL A   1      41.194  36.118  39.269  1.00  0.00    -0.200 F 
ENDBRANCH  40  63
ENDBRANCH  14  15
ENDBRANCH   7   9
ENDBRANCH   6   7
ENDBRANCH   5   6
ENDBRANCH   4   5
ENDBRANCH   3   4
ENDBRANCH   2   3
ENDBRANCH   1   2
BRANCH   1  74
ATOM     74  O   UNL A   1      46.104  19.913  24.345  1.00  0.00    -0.377 OA
BRANCH  74  75
ATOM     75  C   UNL A   1      44.905  19.230  24.000  1.00  0.00     0.188 C 
BRANCH  75  76
ATOM     76  C   UNL A   1      43.934  18.793  25.122  1.00  0.00     0.188 C 
BRANCH  76  77
ATOM     77  O   UNL A   1      42.839  19.666  25.345  1.00  0.00    -0.376 OA
BRANCH  77  78
ATOM     78  C   UNL A   1      41.921  19.252  26.353  1.00  0.00     0.202 C 
BRANCH  78  79
ATOM     79  C   UNL A   1      40.559  19.962  26.345  1.00  0.00     0.261 C 
BRANCH  79  80
ATOM     80  O   UNL A   1      40.370  20.982  27.347  1.00  0.00    -0.460 OA
BRANCH  80  81
ATOM     81  C   UNL A   1      39.968  22.213  26.963  1.00  0.00     0.338 C 
ATOM     82  O   UNL A   1      38.910  22.515  26.440  1.00  0.00    -0.246 OA
BRANCH  81  83
ATOM     83  C   UNL A   1      40.938  23.183  27.532  1.00  0.00     0.067 A 
ATOM     84  C   UNL A   1      40.555  24.533  27.648  1.00  0.00     0.025 A 
ATOM     85  C   UNL A   1      42.149  22.744  28.068  1.00  0.00     0.101 A 
ATOM     86  C   UNL A   1      41.354  25.452  28.350  1.00  0.00    -0.009 A 
ATOM     87  C   UNL A   1      42.975  23.670  28.716  1.00  0.00     0.270 A 
ATOM     88  C   UNL A   1      42.573  25.006  28.885  1.00  0.00     0.094 A 
BRANCH  86  89
ATOM     89  C   UNL A   1      40.954  26.863  28.476  1.00  0.00     0.002 A 
ATOM     90  C   UNL A   1      40.686  27.420  29.741  1.00  0.00     0.030 A 
ATOM     91  C   UNL A   1      40.832  27.696  27.346  1.00  0.00     0.048 A 
ATOM     92  C   UNL A   1      40.298  28.760  29.863  1.00  0.00     0.041 A 
ATOM     93  C   UNL A   1      40.446  29.035  27.475  1.00  0.00     0.023 A 
ATOM     94  Cl  UNL A   1      41.153  27.109  25.750  1.00  0.00    -0.084 Cl
ATOM     95  Cl  UNL A   1      39.964  29.417  31.418  1.00  0.00    -0.084 Cl
ATOM     96  C   UNL A   1      40.175  29.567  28.735  1.00  0.00     0.022 A 
ENDBRANCH  86  89
BRANCH  87  97
ATOM     97  N   UNL A   1      44.292  23.247  29.205  1.00  0.00     0.062 N 
ATOM     98  O   UNL A   1      45.234  23.256  28.400  1.00  0.00    -0.258 OA
ATOM     99  O   UNL A   1      44.379  22.887  30.387  1.00  0.00    -0.258 OA
ENDBRANCH  87  97
ENDBRANCH  81  83
ENDBRANCH  80  81
ENDBRANCH  79  80
ENDBRANCH  78  79
ENDBRANCH  77  78
ENDBRANCH  76  77
ENDBRANCH  75  76
ENDBRANCH  74  75
ENDBRANCH   1  74
TORSDOF 22
ENDMDL
MODEL 2
REMARK VINA RESULT:      -8.8      1.088      7.294
REMARK SMILES O=C(OCCOCCOCCOCCOC(=O)c1cc(-c2cc(Cl)ccc2Cl)cc([N+](=O)[O-])c1)c1ccc(-c2c3nc(c(-c4c(F)c(F)c(F)c(F)c4F)c4ccc([nH]4)c(-c4c(F)c(F)c(F)c(F)c4F)c4nc(c(-c5c(F)c(F)c(F)c(F)c5F)c5ccc2[nH]5)C=C4)C=C3)cc1
REMARK SMILES IDX 8 1 7 2 6 3 5 4 4 5 3 6 2 7 1 8 35 9 36 10 97 11 37 12 96 13
REMARK SMILES IDX 38 14 39 15 40 16 90 17 41 18 95 19 89 20 91 21 42 22 94 23
REMARK SMILES IDX 88 24 87 25 43 27 75 28 55 29 74 30 56 31 59 32 73 33 92 34
REMARK SMILES IDX 57 35 58 36 72 38 93 39 60 40 44 41 45 42 53 43 46 44 47 45
REMARK SMILES IDX 51 46 54 47 48 48 49 49 52 50 50 51 76 52 77 53 85 54 78 55
REMARK SMILES IDX 79 56 83 57 86 58 80 59 81 60 84 61 82 62 61 63 62 64 70 65
REMARK SMILES IDX 63 66 64 67 68 68 71 69 65 70 66 71 69 72 67 73 9 74 10 75
REMARK SMILES IDX 11 76 12 77 13 78 14 79 15 80 16 81 17 82 18 83 19 84 34 85
REMARK SMILES IDX 20 86 30 87 29 88 21 89 22 90 27 91 23 92 26 93 28 94 24 95
REMARK SMILES IDX 25 96 31 97 32 98 33 99
REMARK H PARENT 91 26 59 37
REMARK Flexibility Score: inf
ROOT
ATOM      1  C   UNL A   1      45.933  21.550  25.258  1.00  0.00     0.188 C 
ENDROOT
BRANCH   1   2
ATOM      2  C   UNL A   1      46.404  22.623  24.277  1.00  0.00     0.188 C 
BRANCH   2   3
ATOM      3  O   UNL A   1      45.452  23.681  24.155  1.00  0.00    -0.376 OA
BRANCH   3   4
ATOM      4  C   UNL A   1      45.605  24.765  25.074  1.00  0.00     0.202 C 
BRANCH   4   5
ATOM      5  C   UNL A   1      47.002  25.387  25.107  1.00  0.00     0.261 C 
BRANCH   5   6
ATOM      6  O   UNL A   1      47.119  26.543  24.266  1.00  0.00    -0.460 OA
BRANCH   6   7
ATOM      7  C   UNL A   1      46.689  27.804  24.511  1.00  0.00     0.338 C 
ATOM      8  O   UNL A   1      46.778  28.634  23.607  1.00  0.00    -0.246 OA
BRANCH   7   9
ATOM      9  C   UNL A   1      46.112  28.265  25.815  1.00  0.00     0.060 A 
ATOM     10  C   UNL A   1      44.767  28.201  26.181  1.00  0.00     0.016 A 
ATOM     11  C   UNL A   1      47.024  28.741  26.774  1.00  0.00     0.016 A 
ATOM     12  C   UNL A   1      44.319  28.637  27.416  1.00  0.00     0.010 A 
ATOM     13  C   UNL A   1      46.588  29.177  28.030  1.00  0.00     0.010 A 
ATOM     14  C   UNL A   1      45.224  29.152  28.333  1.00  0.00    -0.014 A 
BRANCH  14  15
ATOM     15  C   UNL A   1      44.663  29.856  29.495  1.00  0.00     0.031 A 
ATOM     16  C   UNL A   1      44.521  29.074  30.764  1.00  0.00     0.074 A 
ATOM     17  C   UNL A   1      44.475  31.185  29.450  1.00  0.00     0.049 A 
ATOM     18  N   UNL A   1      44.019  29.435  31.912  1.00  0.00    -0.248 NA
ATOM     19  C   UNL A   1      45.036  27.693  30.739  1.00  0.00     0.031 C 
ATOM     20  C   UNL A   1      44.762  32.038  28.293  1.00  0.00     0.029 A 
ATOM     21  N   UNL A   1      44.030  32.055  30.407  1.00  0.00    -0.354 N 
ATOM     22  C   UNL A   1      44.119  28.316  32.728  1.00  0.00     0.074 A 
ATOM     23  C   UNL A   1      44.733  27.264  31.954  1.00  0.00     0.031 C 
ATOM     24  C   UNL A   1      44.491  33.313  28.614  1.00  0.00     0.029 A 
ATOM     25  C   UNL A   1      43.943  33.352  29.965  1.00  0.00     0.049 A 
ATOM     26  H   UNL A   1      43.796  31.779  31.321  1.00  0.00     0.167 HD
ATOM     27  C   UNL A   1      43.714  28.191  34.011  1.00  0.00     0.037 A 
ATOM     28  C   UNL A   1      43.426  34.430  30.583  1.00  0.00     0.037 A 
ATOM     29  C   UNL A   1      43.113  29.269  34.744  1.00  0.00     0.049 A 
ATOM     30  C   UNL A   1      42.881  34.239  31.974  1.00  0.00     0.074 A 
ATOM     31  C   UNL A   1      42.594  29.268  36.024  1.00  0.00     0.029 A 
ATOM     32  N   UNL A   1      42.955  30.558  34.242  1.00  0.00    -0.354 N 
ATOM     33  N   UNL A   1      42.887  33.159  32.723  1.00  0.00    -0.248 NA
ATOM     34  C   UNL A   1      42.245  35.400  32.602  1.00  0.00     0.031 C 
ATOM     35  C   UNL A   1      42.072  30.542  36.274  1.00  0.00     0.029 A 
ATOM     36  C   UNL A   1      42.325  31.356  35.177  1.00  0.00     0.049 A 
ATOM     37  H   UNL A   1      43.249  30.856  33.351  1.00  0.00     0.167 HD
ATOM     38  C   UNL A   1      42.274  33.512  33.914  1.00  0.00     0.074 A 
ATOM     39  C   UNL A   1      41.927  34.916  33.795  1.00  0.00     0.031 C 
ATOM     40  C   UNL A   1      42.012  32.754  35.009  1.00  0.00     0.037 A 
BRANCH  27  41
ATOM     41  C   UNL A   1      43.822  26.830  34.634  1.00  0.00     0.064 A 
ATOM     42  C   UNL A   1      45.041  26.309  35.094  1.00  0.00     0.173 A 
ATOM     43  C   UNL A   1      42.685  26.013  34.726  1.00  0.00     0.173 A 
ATOM     44  F   UNL A   1      46.166  27.034  34.996  1.00  0.00    -0.203 F 
ATOM     45  C   UNL A   1      45.123  25.010  35.593  1.00  0.00     0.198 A 
ATOM     46  C   UNL A   1      42.764  24.726  35.251  1.00  0.00     0.198 A 
ATOM     47  F   UNL A   1      41.498  26.455  34.287  1.00  0.00    -0.203 F 
ATOM     48  F   UNL A   1      46.310  24.509  35.964  1.00  0.00    -0.200 F 
ATOM     49  C   UNL A   1      43.984  24.222  35.675  1.00  0.00     0.200 A 
ATOM     50  F   UNL A   1      41.663  23.968  35.330  1.00  0.00    -0.200 F 
ATOM     51  F   UNL A   1      44.065  22.971  36.147  1.00  0.00    -0.200 F 
ENDBRANCH  27  41
BRANCH  28  52
ATOM     52  C   UNL A   1      43.337  35.736  29.874  1.00  0.00     0.064 A 
ATOM     53  C   UNL A   1      44.224  36.784  30.153  1.00  0.00     0.173 A 
ATOM     54  C   UNL A   1      42.349  35.967  28.902  1.00  0.00     0.173 A 
ATOM     55  F   UNL A   1      45.175  36.627  31.086  1.00  0.00    -0.203 F 
ATOM     56  C   UNL A   1      44.115  38.014  29.504  1.00  0.00     0.198 A 
ATOM     57  C   UNL A   1      42.262  37.184  28.230  1.00  0.00     0.198 A 
ATOM     58  F   UNL A   1      41.469  35.001  28.596  1.00  0.00    -0.203 F 
ATOM     59  F   UNL A   1      44.945  39.015  29.825  1.00  0.00    -0.200 F 
ATOM     60  C   UNL A   1      43.139  38.211  28.538  1.00  0.00     0.200 A 
ATOM     61  F   UNL A   1      41.326  37.360  27.286  1.00  0.00    -0.200 F 
ATOM     62  F   UNL A   1      43.038  39.391  27.912  1.00  0.00    -0.200 F 
ENDBRANCH  28  52
BRANCH  40  63
ATOM     63  C   UNL A   1      41.358  33.443  36.168  1.00  0.00     0.064 A 
ATOM     64  C   UNL A   1      42.106  34.123  37.137  1.00  0.00     0.173 A 
ATOM     65  C   UNL A   1      39.959  33.469  36.270  1.00  0.00     0.173 A 
ATOM     66  F   UNL A   1      43.447  34.113  37.087  1.00  0.00    -0.203 F 
ATOM     67  C   UNL A   1      41.477  34.786  38.186  1.00  0.00     0.198 A 
ATOM     68  C   UNL A   1      39.333  34.162  37.299  1.00  0.00     0.198 A 
ATOM     69  F   UNL A   1      39.201  32.840  35.359  1.00  0.00    -0.203 F 
ATOM     70  F   UNL A   1      42.210  35.390  39.130  1.00  0.00    -0.200 F 
ATOM     71  C   UNL A   1      40.091  34.814  38.260  1.00  0.00     0.200 A 
ATOM     72  F   UNL A   1      37.994  34.205  37.358  1.00  0.00    -0.200 F 
ATOM     73  F   UNL A   1      39.487  35.465  39.262  1.00  0.00    -0.200 F 
ENDBRANCH  40  63
ENDBRANCH  14  15
ENDBRANCH   7   9
ENDBRANCH   6   7
ENDBRANCH   5   6
ENDBRANCH   4   5
ENDBRANCH   3   4
ENDBRANCH   2   3
ENDBRANCH   1   2
BRANCH   1  74
ATOM     74  O   UNL A   1      46.266  20.210  24.910  1.00  0.00    -0.377 OA
BRANCH  74  75
ATOM     75  C   UNL A   1      45.220  19.402  24.386  1.00  0.00     0.188 C 
BRANCH  75  76
ATOM     76  C   UNL A   1      44.199  18.763  25.357  1.00  0.00     0.188 C 
BRANCH  76  77
ATOM     77  O   UNL A   1      43.174  19.632  25.811  1.00  0.00    -0.376 OA
BRANCH  77  78
ATOM     78  C   UNL A   1      42.025  18.991  26.358  1.00  0.00     0.202 C 
BRANCH  78  79
ATOM     79  C   UNL A   1      40.688  19.708  26.122  1.00  0.00     0.261 C 
BRANCH  79  80
ATOM     80  O   UNL A   1      40.325  20.707  27.096  1.00  0.00    -0.460 OA
BRANCH  80  81
ATOM     81  C   UNL A   1      39.781  21.870  26.673  1.00  0.00     0.338 C 
ATOM     82  O   UNL A   1      38.704  22.024  26.125  1.00  0.00    -0.246 OA
BRANCH  81  83
ATOM     83  C   UNL A   1      40.612  22.965  27.233  1.00  0.00     0.067 A 
ATOM     84  C   UNL A   1      40.099  24.277  27.221  1.00  0.00     0.025 A 
ATOM     85  C   UNL A   1      41.816  22.685  27.880  1.00  0.00     0.101 A 
ATOM     86  C   UNL A   1      40.755  25.315  27.905  1.00  0.00    -0.009 A 
ATOM     87  C   UNL A   1      42.502  23.729  28.511  1.00  0.00     0.270 A 
ATOM     88  C   UNL A   1      41.967  25.027  28.552  1.00  0.00     0.094 A 
BRANCH  86  89
ATOM     89  C   UNL A   1      40.218  26.685  27.898  1.00  0.00     0.002 A 
ATOM     90  C   UNL A   1      39.352  27.119  28.921  1.00  0.00     0.030 A 
ATOM     91  C   UNL A   1      40.552  27.601  26.880  1.00  0.00     0.048 A 
ATOM     92  C   UNL A   1      38.833  28.419  28.912  1.00  0.00     0.041 A 
ATOM     93  C   UNL A   1      40.032  28.900  26.880  1.00  0.00     0.023 A 
ATOM     94  Cl  UNL A   1      41.618  27.168  25.588  1.00  0.00    -0.084 Cl
ATOM     95  Cl  UNL A   1      37.768  28.926  30.166  1.00  0.00    -0.084 Cl
ATOM     96  C   UNL A   1      39.168  29.309  27.895  1.00  0.00     0.022 A 
ENDBRANCH  86  89
BRANCH  87  97
ATOM     97  N   UNL A   1      43.813  23.471  29.117  1.00  0.00     0.062 N 
ATOM     98  O   UNL A   1      44.787  23.368  28.358  1.00  0.00    -0.258 OA
ATOM     99  O   UNL A   1      43.864  23.351  30.349  1.00  0.00    -0.258 OA
ENDBRANCH  87  97
ENDBRANCH  81  83
ENDBRANCH  80  81
ENDBRANCH  79  80
ENDBRANCH  78  79
ENDBRANCH  77  78
ENDBRANCH  76  77
ENDBRANCH  75  76
ENDBRANCH  74  75
ENDBRANCH   1  74
TORSDOF 22
ENDMDL
MODEL 3
REMARK VINA RESULT:      -8.4      6.154     11.791
REMARK SMILES O=C(OCCOCCOCCOCCOC(=O)c1cc(-c2cc(Cl)ccc2Cl)cc([N+](=O)[O-])c1)c1ccc(-c2c3nc(c(-c4c(F)c(F)c(F)c(F)c4F)c4ccc([nH]4)c(-c4c(F)c(F)c(F)c(F)c4F)c4nc(c(-c5c(F)c(F)c(F)c(F)c5F)c5ccc2[nH]5)C=C4)C=C3)cc1
REMARK SMILES IDX 8 1 7 2 6 3 5 4 4 5 3 6 2 7 1 8 35 9 36 10 97 11 37 12 96 13
REMARK SMILES IDX 38 14 39 15 40 16 90 17 41 18 95 19 89 20 91 21 42 22 94 23
REMARK SMILES IDX 88 24 87 25 43 27 75 28 55 29 74 30 56 31 59 32 73 33 92 34
REMARK SMILES IDX 57 35 58 36 72 38 93 39 60 40 44 41 45 42 53 43 46 44 47 45
REMARK SMILES IDX 51 46 54 47 48 48 49 49 52 50 50 51 76 52 77 53 85 54 78 55
REMARK SMILES IDX 79 56 83 57 86 58 80 59 81 60 84 61 82 62 61 63 62 64 70 65
REMARK SMILES IDX 63 66 64 67 68 68 71 69 65 70 66 71 69 72 67 73 9 74 10 75
REMARK SMILES IDX 11 76 12 77 13 78 14 79 15 80 16 81 17 82 18 83 19 84 34 85
REMARK SMILES IDX 20 86 30 87 29 88 21 89 22 90 27 91 23 92 26 93 28 94 24 95
REMARK SMILES IDX 25 96 31 97 32 98 33 99
REMARK H PARENT 91 26 59 37
REMARK Flexibility Score: inf
ROOT
ATOM      1  C   UNL A   1      33.785  36.560  32.188  1.00  0.00     0.188 C 
ENDROOT
BRANCH   1   2
ATOM      2  C   UNL A   1      32.818  35.440  31.806  1.00  0.00     0.188 C 
BRANCH   2   3
ATOM      3  O   UNL A   1      32.809  35.208  30.396  1.00  0.00    -0.376 OA
BRANCH   3   4
ATOM      4  C   UNL A   1      34.054  34.796  29.827  1.00  0.00     0.202 C 
BRANCH   4   5
ATOM      5  C   UNL A   1      34.588  33.461  30.348  1.00  0.00     0.261 C 
BRANCH   5   6
ATOM      6  O   UNL A   1      34.116  32.336  29.593  1.00  0.00    -0.460 OA
BRANCH   6   7
ATOM      7  C   UNL A   1      34.795  31.591  28.688  1.00  0.00     0.338 C 
ATOM      8  O   UNL A   1      34.341  31.507  27.547  1.00  0.00    -0.246 OA
BRANCH   7   9
ATOM      9  C   UNL A   1      36.066  30.852  28.979  1.00  0.00     0.060 A 
ATOM     10  C   UNL A   1      36.278  29.982  30.049  1.00  0.00     0.016 A 
ATOM     11  C   UNL A   1      37.110  31.003  28.048  1.00  0.00     0.016 A 
ATOM     12  C   UNL A   1      37.482  29.327  30.237  1.00  0.00     0.010 A 
ATOM     13  C   UNL A   1      38.330  30.341  28.219  1.00  0.00     0.010 A 
ATOM     14  C   UNL A   1      38.521  29.526  29.338  1.00  0.00    -0.014 A 
BRANCH  14  15
ATOM     15  C   UNL A   1      39.849  29.040  29.740  1.00  0.00     0.031 A 
ATOM     16  C   UNL A   1      40.538  29.773  30.848  1.00  0.00     0.074 A 
ATOM     17  C   UNL A   1      40.316  27.878  29.253  1.00  0.00     0.049 A 
ATOM     18  N   UNL A   1      41.721  29.585  31.362  1.00  0.00    -0.248 NA
ATOM     19  C   UNL A   1      39.774  30.865  31.480  1.00  0.00     0.031 C 
ATOM     20  C   UNL A   1      39.611  27.021  28.297  1.00  0.00     0.029 A 
ATOM     21  N   UNL A   1      41.474  27.202  29.520  1.00  0.00    -0.354 N 
ATOM     22  C   UNL A   1      41.858  30.557  32.343  1.00  0.00     0.074 A 
ATOM     23  C   UNL A   1      40.641  31.332  32.363  1.00  0.00     0.031 C 
ATOM     24  C   UNL A   1      40.353  25.927  28.062  1.00  0.00     0.029 A 
ATOM     25  C   UNL A   1      41.610  26.046  28.791  1.00  0.00     0.049 A 
ATOM     26  H   UNL A   1      42.144  27.513  30.169  1.00  0.00     0.167 HD
ATOM     27  C   UNL A   1      42.925  30.778  33.143  1.00  0.00     0.037 A 
ATOM     28  C   UNL A   1      42.665  25.217  28.698  1.00  0.00     0.037 A 
ATOM     29  C   UNL A   1      44.113  29.975  33.092  1.00  0.00     0.049 A 
ATOM     30  C   UNL A   1      43.884  25.548  29.519  1.00  0.00     0.074 A 
ATOM     31  C   UNL A   1      45.294  30.123  33.792  1.00  0.00     0.029 A 
ATOM     32  N   UNL A   1      44.260  28.856  32.278  1.00  0.00    -0.354 N 
ATOM     33  N   UNL A   1      44.058  26.521  30.384  1.00  0.00    -0.248 NA
ATOM     34  C   UNL A   1      45.055  24.684  29.344  1.00  0.00     0.031 C 
ATOM     35  C   UNL A   1      46.176  29.127  33.359  1.00  0.00     0.029 A 
ATOM     36  C   UNL A   1      45.522  28.316  32.440  1.00  0.00     0.049 A 
ATOM     37  H   UNL A   1      43.568  28.501  31.675  1.00  0.00     0.167 HD
ATOM     38  C   UNL A   1      45.348  26.378  30.870  1.00  0.00     0.074 A 
ATOM     39  C   UNL A   1      45.905  25.209  30.216  1.00  0.00     0.031 C 
ATOM     40  C   UNL A   1      46.021  27.141  31.768  1.00  0.00     0.037 A 
BRANCH  27  41
ATOM     41  C   UNL A   1      42.869  31.978  34.042  1.00  0.00     0.064 A 
ATOM     42  C   UNL A   1      43.343  33.238  33.644  1.00  0.00     0.173 A 
ATOM     43  C   UNL A   1      42.374  31.849  35.349  1.00  0.00     0.173 A 
ATOM     44  F   UNL A   1      43.861  33.409  32.419  1.00  0.00    -0.203 F 
ATOM     45  C   UNL A   1      43.353  34.313  34.532  1.00  0.00     0.198 A 
ATOM     46  C   UNL A   1      42.358  32.931  36.223  1.00  0.00     0.198 A 
ATOM     47  F   UNL A   1      41.923  30.664  35.785  1.00  0.00    -0.203 F 
ATOM     48  F   UNL A   1      43.873  35.489  34.152  1.00  0.00    -0.200 F 
ATOM     49  C   UNL A   1      42.856  34.160  35.818  1.00  0.00     0.200 A 
ATOM     50  F   UNL A   1      41.877  32.780  37.464  1.00  0.00    -0.200 F 
ATOM     51  F   UNL A   1      42.873  35.191  36.672  1.00  0.00    -0.200 F 
ENDBRANCH  27  41
BRANCH  28  52
ATOM     52  C   UNL A   1      42.637  24.063  27.758  1.00  0.00     0.064 A 
ATOM     53  C   UNL A   1      42.242  22.785  28.175  1.00  0.00     0.173 A 
ATOM     54  C   UNL A   1      43.017  24.215  26.413  1.00  0.00     0.173 A 
ATOM     55  F   UNL A   1      41.888  22.577  29.452  1.00  0.00    -0.203 F 
ATOM     56  C   UNL A   1      42.247  21.704  27.294  1.00  0.00     0.198 A 
ATOM     57  C   UNL A   1      42.989  23.141  25.525  1.00  0.00     0.198 A 
ATOM     58  F   UNL A   1      43.409  25.414  25.957  1.00  0.00    -0.203 F 
ATOM     59  F   UNL A   1      41.912  20.483  27.732  1.00  0.00    -0.200 F 
ATOM     60  C   UNL A   1      42.613  21.884  25.968  1.00  0.00     0.200 A 
ATOM     61  F   UNL A   1      43.330  23.327  24.242  1.00  0.00    -0.200 F 
ATOM     62  F   UNL A   1      42.613  20.846  25.121  1.00  0.00    -0.200 F 
ENDBRANCH  28  52
BRANCH  40  63
ATOM     63  C   UNL A   1      47.412  26.703  32.119  1.00  0.00     0.064 A 
ATOM     64  C   UNL A   1      48.535  27.235  31.471  1.00  0.00     0.173 A 
ATOM     65  C   UNL A   1      47.618  25.783  33.158  1.00  0.00     0.173 A 
ATOM     66  F   UNL A   1      48.385  28.107  30.463  1.00  0.00    -0.203 F 
ATOM     67  C   UNL A   1      49.818  26.841  31.836  1.00  0.00     0.198 A 
ATOM     68  C   UNL A   1      48.902  25.420  33.543  1.00  0.00     0.198 A 
ATOM     69  F   UNL A   1      46.571  25.256  33.812  1.00  0.00    -0.203 F 
ATOM     70  F   UNL A   1      50.878  27.323  31.174  1.00  0.00    -0.200 F 
ATOM     71  C   UNL A   1      50.001  25.942  32.878  1.00  0.00     0.200 A 
ATOM     72  F   UNL A   1      49.077  24.567  34.562  1.00  0.00    -0.200 F 
ATOM     73  F   UNL A   1      51.238  25.576  33.238  1.00  0.00    -0.200 F 
ENDBRANCH  40  63
ENDBRANCH  14  15
ENDBRANCH   7   9
ENDBRANCH   6   7
ENDBRANCH   5   6
ENDBRANCH   4   5
ENDBRANCH   3   4
ENDBRANCH   2   3
ENDBRANCH   1   2
BRANCH   1  74
ATOM     74  O   UNL A   1      34.688  36.258  33.247  1.00  0.00    -0.377 OA
BRANCH  74  75
ATOM     75  C   UNL A   1      34.663  34.930  33.754  1.00  0.00     0.188 C 
BRANCH  75  76
ATOM     76  C   UNL A   1      35.912  34.372  34.475  1.00  0.00     0.188 C 
BRANCH  76  77
ATOM     77  O   UNL A   1      36.995  34.027  33.625  1.00  0.00    -0.376 OA
BRANCH  77  78
ATOM     78  C   UNL A   1      36.902  32.750  33.002  1.00  0.00     0.202 C 
BRANCH  78  79
ATOM     79  C   UNL A   1      37.352  31.557  33.859  1.00  0.00     0.261 C 
BRANCH  79  80
ATOM     80  O   UNL A   1      38.438  31.808  34.774  1.00  0.00    -0.460 OA
BRANCH  80  81
ATOM     81  C   UNL A   1      38.384  31.282  36.017  1.00  0.00     0.338 C 
ATOM     82  O   UNL A   1      38.526  30.114  36.332  1.00  0.00    -0.246 OA
BRANCH  81  83
ATOM     83  C   UNL A   1      38.384  32.421  36.970  1.00  0.00     0.067 A 
ATOM     84  C   UNL A   1      37.979  32.191  38.299  1.00  0.00     0.025 A 
ATOM     85  C   UNL A   1      38.902  33.662  36.595  1.00  0.00     0.101 A 
ATOM     86  C   UNL A   1      38.140  33.181  39.284  1.00  0.00    -0.009 A 
ATOM     87  C   UNL A   1      39.008  34.669  37.561  1.00  0.00     0.270 A 
ATOM     88  C   UNL A   1      38.660  34.428  38.901  1.00  0.00     0.094 A 
BRANCH  86  89
ATOM     89  C   UNL A   1      37.723  32.941  40.675  1.00  0.00     0.002 A 
ATOM     90  C   UNL A   1      38.669  32.955  41.718  1.00  0.00     0.030 A 
ATOM     91  C   UNL A   1      36.375  32.696  41.007  1.00  0.00     0.048 A 
ATOM     92  C   UNL A   1      38.276  32.719  43.041  1.00  0.00     0.041 A 
ATOM     93  C   UNL A   1      35.989  32.464  42.331  1.00  0.00     0.023 A 
ATOM     94  Cl  UNL A   1      35.137  32.672  39.798  1.00  0.00    -0.084 Cl
ATOM     95  Cl  UNL A   1      39.450  32.729  44.299  1.00  0.00    -0.084 Cl
ATOM     96  C   UNL A   1      36.940  32.471  43.350  1.00  0.00     0.022 A 
ENDBRANCH  86  89
BRANCH  87  97
ATOM     97  N   UNL A   1      39.465  36.006  37.165  1.00  0.00     0.062 N 
ATOM     98  O   UNL A   1      39.652  36.216  35.958  1.00  0.00    -0.258 OA
ATOM     99  O   UNL A   1      39.654  36.838  38.063  1.00  0.00    -0.258 OA
ENDBRANCH  87  97
ENDBRANCH  81  83
ENDBRANCH  80  81
ENDBRANCH  79  80
ENDBRANCH  78  79
ENDBRANCH  77  78
ENDBRANCH  76  77
ENDBRANCH  75  76
ENDBRANCH  74  75
ENDBRANCH   1  74
TORSDOF 22
ENDMDL
