MODEL 1
REMARK VINA RESULT:     -10.9      0.000      0.000
REMARK SMILES Cc1cc(C(=O)OCCOCCOCCOCCOC(=O)c2ccc(-c3c4nc(c(-c5c(F)c(F)c(F)c(F)c5F)c5ccc([nH]5)c(-c5c(F)c(F)c(F)c(F)c5F)c5nc(c(-c6c(F)c(F)c(F)c(F)c6F)c6ccc3[nH]6)C=C5)C=C4)cc2)ccc1NC(=O)c1ccc(=O)n(CCOc2ccccc2)n1
REMARK SMILES IDX 11 1 10 2 9 3 8 4 7 5 5 6 6 7 4 8 1 9 2 10 3 11 87 12 86 13
REMARK SMILES IDX 85 14 88 15 89 16 90 18 91 19 92 20 106 21 93 22 96 23 94 24
REMARK SMILES IDX 95 25 97 26 98 27 99 28 100 29 101 30 105 31 102 32 104 33
REMARK SMILES IDX 103 34 12 35 13 36 14 37 15 38 16 39 17 40 18 41 19 42 20 43
REMARK SMILES IDX 21 44 22 45 23 46 84 47 24 48 83 49 25 50 26 51 27 52 77 53
REMARK SMILES IDX 28 54 82 55 76 56 78 57 29 58 81 59 75 60 74 61 30 63 62 64
REMARK SMILES IDX 42 65 61 66 43 67 46 68 60 69 79 70 44 71 45 72 59 74 80 75
REMARK SMILES IDX 47 76 31 77 32 78 40 79 33 80 34 81 38 82 41 83 35 84 36 85
REMARK SMILES IDX 39 86 37 87 63 88 64 89 72 90 65 91 66 92 70 93 73 94 67 95
REMARK SMILES IDX 68 96 71 97 69 98 48 99 49 100 57 101 50 102 51 103 55 104
REMARK SMILES IDX 58 105 52 106 53 107 56 108 54 109
REMARK H PARENT 88 17 78 62 46 73
REMARK Flexibility Score: inf
ROOT
ATOM      1  C   UNL A   1      43.413  21.341  25.479  1.00  0.00     0.188 C 
ENDROOT
BRANCH   1   2
ATOM      2  O   UNL A   1      42.211  20.681  25.859  1.00  0.00    -0.376 OA
BRANCH   2   3
ATOM      3  C   UNL A   1      41.080  21.529  26.057  1.00  0.00     0.202 C 
BRANCH   3   4
ATOM      4  C   UNL A   1      39.759  20.832  26.389  1.00  0.00     0.261 C 
BRANCH   4   5
ATOM      5  O   UNL A   1      38.700  21.465  25.671  1.00  0.00    -0.460 OA
BRANCH   5   6
ATOM      6  C   UNL A   1      37.901  20.633  24.969  1.00  0.00     0.338 C 
ATOM      7  O   UNL A   1      38.211  19.592  24.429  1.00  0.00    -0.246 OA
BRANCH   6   8
ATOM      8  C   UNL A   1      36.516  21.051  25.270  1.00  0.00     0.060 A 
ATOM      9  C   UNL A   1      33.216  19.234  25.210  1.00  0.00     0.046 C 
ATOM     10  C   UNL A   1      34.167  20.386  25.393  1.00  0.00    -0.027 A 
ATOM     11  C   UNL A   1      35.489  20.166  24.947  1.00  0.00     0.021 A 
ATOM     12  C   UNL A   1      33.867  21.563  26.107  1.00  0.00     0.044 A 
ATOM     13  C   UNL A   1      34.945  22.344  26.526  1.00  0.00     0.027 A 
ATOM     14  C   UNL A   1      36.248  22.130  26.095  1.00  0.00     0.018 A 
BRANCH  12  15
ATOM     15  N   UNL A   1      32.519  21.950  26.302  1.00  0.00    -0.320 N 
ATOM     16  C   UNL A   1      31.679  22.790  25.584  1.00  0.00     0.276 C 
ATOM     17  H   UNL A   1      32.098  21.548  27.095  1.00  0.00     0.170 HD
ATOM     18  O   UNL A   1      30.478  22.855  25.827  1.00  0.00    -0.267 OA
BRANCH  16  19
ATOM     19  C   UNL A   1      32.259  23.755  24.573  1.00  0.00     0.149 A 
ATOM     20  C   UNL A   1      32.654  23.113  23.306  1.00  0.00     0.042 A 
ATOM     21  N   UNL A   1      32.292  25.034  24.810  1.00  0.00    -0.164 NA
ATOM     22  C   UNL A   1      32.662  23.910  22.238  1.00  0.00     0.076 A 
ATOM     23  N   UNL A   1      32.496  25.850  23.690  1.00  0.00    -0.226 N 
ATOM     24  C   UNL A   1      32.396  25.361  22.387  1.00  0.00     0.266 A 
ATOM     25  O   UNL A   1      32.188  26.034  21.382  1.00  0.00    -0.268 OA
BRANCH  23  26
ATOM     26  C   UNL A   1      32.569  27.297  23.917  1.00  0.00     0.190 C 
BRANCH  26  27
ATOM     27  C   UNL A   1      33.778  27.711  24.773  1.00  0.00     0.253 C 
BRANCH  27  28
ATOM     28  O   UNL A   1      33.459  27.786  26.181  1.00  0.00    -0.492 OA
BRANCH  28  29
ATOM     29  C   UNL A   1      33.871  28.972  26.724  1.00  0.00     0.119 A 
ATOM     30  C   UNL A   1      32.998  30.044  26.865  1.00  0.00     0.046 A 
ATOM     31  C   UNL A   1      35.206  29.123  27.075  1.00  0.00     0.046 A 
ATOM     32  C   UNL A   1      33.449  31.220  27.473  1.00  0.00     0.004 A 
ATOM     33  C   UNL A   1      35.641  30.257  27.751  1.00  0.00     0.004 A 
ATOM     34  C   UNL A   1      34.756  31.309  27.957  1.00  0.00     0.000 A 
ENDBRANCH  28  29
ENDBRANCH  27  28
ENDBRANCH  26  27
ENDBRANCH  23  26
ENDBRANCH  16  19
ENDBRANCH  12  15
ENDBRANCH   6   8
ENDBRANCH   5   6
ENDBRANCH   4   5
ENDBRANCH   3   4
ENDBRANCH   2   3
ENDBRANCH   1   2
BRANCH   1  35
ATOM     35  C   UNL A   1      43.701  22.704  26.114  1.00  0.00     0.188 C 
BRANCH  35  36
ATOM     36  O   UNL A   1      44.304  22.698  27.404  1.00  0.00    -0.377 OA
BRANCH  36  37
ATOM     37  C   UNL A   1      45.367  23.618  27.660  1.00  0.00     0.188 C 
BRANCH  37  38
ATOM     38  C   UNL A   1      45.144  24.641  28.776  1.00  0.00     0.188 C 
BRANCH  38  39
ATOM     39  O   UNL A   1      44.333  25.698  28.257  1.00  0.00    -0.376 OA
BRANCH  39  40
ATOM     40  C   UNL A   1      43.004  25.763  28.774  1.00  0.00     0.202 C 
BRANCH  40  41
ATOM     41  C   UNL A   1      41.953  25.119  27.863  1.00  0.00     0.261 C 
BRANCH  41  42
ATOM     42  O   UNL A   1      40.823  26.003  27.746  1.00  0.00    -0.460 OA
BRANCH  42  43
ATOM     43  C   UNL A   1      40.924  26.924  26.754  1.00  0.00     0.338 C 
ATOM     44  O   UNL A   1      41.372  26.717  25.640  1.00  0.00    -0.246 OA
BRANCH  43  45
ATOM     45  C   UNL A   1      40.666  28.281  27.312  1.00  0.00     0.060 A 
ATOM     46  C   UNL A   1      41.728  29.020  27.858  1.00  0.00     0.016 A 
ATOM     47  C   UNL A   1      39.355  28.680  27.555  1.00  0.00     0.016 A 
ATOM     48  C   UNL A   1      41.470  30.049  28.776  1.00  0.00     0.010 A 
ATOM     49  C   UNL A   1      39.111  29.636  28.522  1.00  0.00     0.010 A 
ATOM     50  C   UNL A   1      40.157  30.291  29.191  1.00  0.00    -0.014 A 
BRANCH  50  51
ATOM     51  C   UNL A   1      39.783  30.976  30.445  1.00  0.00     0.031 A 
ATOM     52  C   UNL A   1      39.001  32.258  30.440  1.00  0.00     0.074 A 
ATOM     53  C   UNL A   1      39.822  30.246  31.591  1.00  0.00     0.049 A 
ATOM     54  N   UNL A   1      38.596  32.863  31.510  1.00  0.00    -0.248 NA
ATOM     55  C   UNL A   1      38.612  32.992  29.234  1.00  0.00     0.031 C 
ATOM     56  C   UNL A   1      38.914  30.373  32.735  1.00  0.00     0.029 A 
ATOM     57  N   UNL A   1      40.619  29.166  31.959  1.00  0.00    -0.354 N 
ATOM     58  C   UNL A   1      37.622  33.768  31.153  1.00  0.00     0.074 A 
ATOM     59  C   UNL A   1      37.774  33.914  29.728  1.00  0.00     0.031 C 
ATOM     60  C   UNL A   1      39.227  29.478  33.682  1.00  0.00     0.029 A 
ATOM     61  C   UNL A   1      40.524  28.947  33.339  1.00  0.00     0.049 A 
ATOM     62  H   UNL A   1      41.168  28.635  31.340  1.00  0.00     0.167 HD
ATOM     63  C   UNL A   1      36.694  34.153  32.082  1.00  0.00     0.037 A 
ATOM     64  C   UNL A   1      41.602  29.122  34.165  1.00  0.00     0.037 A 
ATOM     65  C   UNL A   1      37.038  33.699  33.441  1.00  0.00     0.049 A 
ATOM     66  C   UNL A   1      41.459  30.335  35.064  1.00  0.00     0.074 A 
ATOM     67  C   UNL A   1      36.347  33.046  34.447  1.00  0.00     0.029 A 
ATOM     68  N   UNL A   1      38.355  33.803  33.894  1.00  0.00    -0.354 N 
ATOM     69  N   UNL A   1      40.632  31.317  34.798  1.00  0.00    -0.248 NA
ATOM     70  C   UNL A   1      42.138  30.532  36.341  1.00  0.00     0.031 C 
ATOM     71  C   UNL A   1      37.285  32.645  35.440  1.00  0.00     0.029 A 
ATOM     72  C   UNL A   1      38.525  33.161  35.100  1.00  0.00     0.049 A 
ATOM     73  H   UNL A   1      39.072  34.275  33.412  1.00  0.00     0.167 HD
ATOM     74  C   UNL A   1      40.608  32.206  35.830  1.00  0.00     0.074 A 
ATOM     75  C   UNL A   1      41.598  31.694  36.759  1.00  0.00     0.031 C 
ATOM     76  C   UNL A   1      39.771  33.283  35.844  1.00  0.00     0.037 A 
BRANCH  63  77
ATOM     77  C   UNL A   1      35.336  34.770  31.755  1.00  0.00     0.064 A 
ATOM     78  C   UNL A   1      34.688  35.615  32.687  1.00  0.00     0.173 A 
ATOM     79  C   UNL A   1      34.565  34.468  30.610  1.00  0.00     0.173 A 
ATOM     80  F   UNL A   1      35.299  35.989  33.820  1.00  0.00    -0.203 F 
ATOM     81  C   UNL A   1      33.387  36.103  32.492  1.00  0.00     0.198 A 
ATOM     82  C   UNL A   1      33.295  35.016  30.383  1.00  0.00     0.198 A 
ATOM     83  F   UNL A   1      34.980  33.588  29.692  1.00  0.00    -0.203 F 
ATOM     84  F   UNL A   1      32.804  36.852  33.440  1.00  0.00    -0.200 F 
ATOM     85  C   UNL A   1      32.699  35.820  31.331  1.00  0.00     0.200 A 
ATOM     86  F   UNL A   1      32.645  34.735  29.243  1.00  0.00    -0.200 F 
ATOM     87  F   UNL A   1      31.466  36.307  31.129  1.00  0.00    -0.200 F 
ENDBRANCH  63  77
BRANCH  64  88
ATOM     88  C   UNL A   1      42.820  28.443  33.644  1.00  0.00     0.064 A 
ATOM     89  C   UNL A   1      43.837  29.331  33.237  1.00  0.00     0.173 A 
ATOM     90  C   UNL A   1      43.219  27.208  34.180  1.00  0.00     0.173 A 
ATOM     91  F   UNL A   1      43.509  30.494  32.655  1.00  0.00    -0.203 F 
ATOM     92  C   UNL A   1      45.162  29.125  33.612  1.00  0.00     0.198 A 
ATOM     93  C   UNL A   1      44.556  26.995  34.532  1.00  0.00     0.198 A 
ATOM     94  F   UNL A   1      42.303  26.306  34.556  1.00  0.00    -0.203 F 
ATOM     95  F   UNL A   1      46.071  30.091  33.417  1.00  0.00    -0.200 F 
ATOM     96  C   UNL A   1      45.510  27.981  34.309  1.00  0.00     0.200 A 
ATOM     97  F   UNL A   1      44.899  25.896  35.222  1.00  0.00    -0.200 F 
ATOM     98  F   UNL A   1      46.739  27.860  34.829  1.00  0.00    -0.200 F 
ENDBRANCH  64  88
BRANCH  76  99
ATOM     99  C   UNL A   1      40.016  34.566  36.602  1.00  0.00     0.064 A 
ATOM    100  C   UNL A   1      39.293  34.918  37.753  1.00  0.00     0.173 A 
ATOM    101  C   UNL A   1      41.162  35.359  36.335  1.00  0.00     0.173 A 
ATOM    102  F   UNL A   1      38.247  34.194  38.170  1.00  0.00    -0.203 F 
ATOM    103  C   UNL A   1      39.668  35.995  38.558  1.00  0.00     0.198 A 
ATOM    104  C   UNL A   1      41.562  36.398  37.172  1.00  0.00     0.198 A 
ATOM    105  F   UNL A   1      41.957  35.126  35.282  1.00  0.00    -0.203 F 
ATOM    106  F   UNL A   1      38.934  36.297  39.639  1.00  0.00    -0.200 F 
ATOM    107  C   UNL A   1      40.810  36.722  38.280  1.00  0.00     0.200 A 
ATOM    108  F   UNL A   1      42.700  37.058  36.914  1.00  0.00    -0.200 F 
ATOM    109  F   UNL A   1      41.198  37.714  39.091  1.00  0.00    -0.200 F 
ENDBRANCH  76  99
ENDBRANCH  50  51
ENDBRANCH  43  45
ENDBRANCH  42  43
ENDBRANCH  41  42
ENDBRANCH  40  41
ENDBRANCH  39  40
ENDBRANCH  38  39
ENDBRANCH  37  38
ENDBRANCH  36  37
ENDBRANCH  35  36
ENDBRANCH   1  35
TORSDOF 26
ENDMDL
MODEL 2
REMARK VINA RESULT:      -9.2      6.690      9.359
REMARK SMILES Cc1cc(C(=O)OCCOCCOCCOCCOC(=O)c2ccc(-c3c4nc(c(-c5c(F)c(F)c(F)c(F)c5F)c5ccc([nH]5)c(-c5c(F)c(F)c(F)c(F)c5F)c5nc(c(-c6c(F)c(F)c(F)c(F)c6F)c6ccc3[nH]6)C=C5)C=C4)cc2)ccc1NC(=O)c1ccc(=O)n(CCOc2ccccc2)n1
REMARK SMILES IDX 11 1 10 2 9 3 8 4 7 5 5 6 6 7 4 8 1 9 2 10 3 11 87 12 86 13
REMARK SMILES IDX 85 14 88 15 89 16 90 18 91 19 92 20 106 21 93 22 96 23 94 24
REMARK SMILES IDX 95 25 97 26 98 27 99 28 100 29 101 30 105 31 102 32 104 33
REMARK SMILES IDX 103 34 12 35 13 36 14 37 15 38 16 39 17 40 18 41 19 42 20 43
REMARK SMILES IDX 21 44 22 45 23 46 84 47 24 48 83 49 25 50 26 51 27 52 77 53
REMARK SMILES IDX 28 54 82 55 76 56 78 57 29 58 81 59 75 60 74 61 30 63 62 64
REMARK SMILES IDX 42 65 61 66 43 67 46 68 60 69 79 70 44 71 45 72 59 74 80 75
REMARK SMILES IDX 47 76 31 77 32 78 40 79 33 80 34 81 38 82 41 83 35 84 36 85
REMARK SMILES IDX 39 86 37 87 63 88 64 89 72 90 65 91 66 92 70 93 73 94 67 95
REMARK SMILES IDX 68 96 71 97 69 98 48 99 49 100 57 101 50 102 51 103 55 104
REMARK SMILES IDX 58 105 52 106 53 107 56 108 54 109
REMARK H PARENT 88 17 78 62 46 73
REMARK Flexibility Score: inf
ROOT
ATOM      1  C   UNL A   1      43.439  21.843  26.293  1.00  0.00     0.188 C 
ENDROOT
BRANCH   1   2
ATOM      2  O   UNL A   1      42.220  21.118  26.179  1.00  0.00    -0.376 OA
BRANCH   2   3
ATOM      3  C   UNL A   1      41.052  21.909  25.958  1.00  0.00     0.202 C 
BRANCH   3   4
ATOM      4  C   UNL A   1      39.728  21.313  26.439  1.00  0.00     0.261 C 
BRANCH   4   5
ATOM      5  O   UNL A   1      38.663  21.822  25.635  1.00  0.00    -0.460 OA
BRANCH   5   6
ATOM      6  C   UNL A   1      37.821  20.891  25.137  1.00  0.00     0.338 C 
ATOM      7  O   UNL A   1      38.059  19.722  24.914  1.00  0.00    -0.246 OA
BRANCH   6   8
ATOM      8  C   UNL A   1      36.468  21.475  25.236  1.00  0.00     0.060 A 
ATOM      9  C   UNL A   1      33.016  19.965  25.260  1.00  0.00     0.046 C 
ATOM     10  C   UNL A   1      34.062  21.047  25.292  1.00  0.00    -0.027 A 
ATOM     11  C   UNL A   1      35.381  20.632  25.009  1.00  0.00     0.021 A 
ATOM     12  C   UNL A   1      33.834  22.365  25.737  1.00  0.00     0.044 A 
ATOM     13  C   UNL A   1      34.953  23.121  26.083  1.00  0.00     0.027 A 
ATOM     14  C   UNL A   1      36.254  22.717  25.810  1.00  0.00     0.018 A 
BRANCH  12  15
ATOM     15  N   UNL A   1      32.520  22.894  25.740  1.00  0.00    -0.320 N 
ATOM     16  C   UNL A   1      31.798  23.599  24.788  1.00  0.00     0.276 C 
ATOM     17  H   UNL A   1      32.026  22.732  26.576  1.00  0.00     0.170 HD
ATOM     18  O   UNL A   1      30.598  23.817  24.925  1.00  0.00    -0.267 OA
BRANCH  16  19
ATOM     19  C   UNL A   1      32.514  24.240  23.618  1.00  0.00     0.149 A 
ATOM     20  C   UNL A   1      33.034  23.265  22.642  1.00  0.00     0.042 A 
ATOM     21  N   UNL A   1      32.551  25.533  23.482  1.00  0.00    -0.164 NA
ATOM     22  C   UNL A   1      33.184  23.723  21.400  1.00  0.00     0.076 A 
ATOM     23  N   UNL A   1      32.901  25.996  22.208  1.00  0.00    -0.226 N 
ATOM     24  C   UNL A   1      32.939  25.154  21.096  1.00  0.00     0.266 A 
ATOM     25  O   UNL A   1      32.864  25.509  19.924  1.00  0.00    -0.268 OA
BRANCH  23  26
ATOM     26  C   UNL A   1      32.984  27.448  22.020  1.00  0.00     0.190 C 
BRANCH  26  27
ATOM     27  C   UNL A   1      33.980  28.124  22.978  1.00  0.00     0.253 C 
BRANCH  27  28
ATOM     28  O   UNL A   1      33.457  29.345  23.548  1.00  0.00    -0.492 OA
BRANCH  28  29
ATOM     29  C   UNL A   1      33.112  29.177  24.861  1.00  0.00     0.119 A 
ATOM     30  C   UNL A   1      31.910  29.664  25.360  1.00  0.00     0.046 A 
ATOM     31  C   UNL A   1      34.017  28.570  25.720  1.00  0.00     0.046 A 
ATOM     32  C   UNL A   1      31.576  29.424  26.697  1.00  0.00     0.004 A 
ATOM     33  C   UNL A   1      33.660  28.258  27.027  1.00  0.00     0.004 A 
ATOM     34  C   UNL A   1      32.430  28.682  27.517  1.00  0.00     0.000 A 
ENDBRANCH  28  29
ENDBRANCH  27  28
ENDBRANCH  26  27
ENDBRANCH  23  26
ENDBRANCH  16  19
ENDBRANCH  12  15
ENDBRANCH   6   8
ENDBRANCH   5   6
ENDBRANCH   4   5
ENDBRANCH   3   4
ENDBRANCH   2   3
ENDBRANCH   1   2
BRANCH   1  35
ATOM     35  C   UNL A   1      43.422  23.124  27.131  1.00  0.00     0.188 C 
BRANCH  35  36
ATOM     36  O   UNL A   1      44.281  23.161  28.267  1.00  0.00    -0.377 OA
BRANCH  36  37
ATOM     37  C   UNL A   1      45.624  23.611  28.086  1.00  0.00     0.188 C 
BRANCH  37  38
ATOM     38  C   UNL A   1      46.076  24.802  28.934  1.00  0.00     0.188 C 
BRANCH  38  39
ATOM     39  O   UNL A   1      45.486  25.986  28.392  1.00  0.00    -0.376 OA
BRANCH  39  40
ATOM     40  C   UNL A   1      44.653  26.722  29.286  1.00  0.00     0.202 C 
BRANCH  40  41
ATOM     41  C   UNL A   1      43.208  26.215  29.347  1.00  0.00     0.261 C 
BRANCH  41  42
ATOM     42  O   UNL A   1      42.359  27.264  29.849  1.00  0.00    -0.460 OA
BRANCH  42  43
ATOM     43  C   UNL A   1      41.472  27.756  28.946  1.00  0.00     0.338 C 
ATOM     44  O   UNL A   1      40.459  27.192  28.571  1.00  0.00    -0.246 OA
BRANCH  43  45
ATOM     45  C   UNL A   1      42.057  28.954  28.281  1.00  0.00     0.060 A 
ATOM     46  C   UNL A   1      42.715  28.810  27.049  1.00  0.00     0.016 A 
ATOM     47  C   UNL A   1      42.207  30.131  29.007  1.00  0.00     0.016 A 
ATOM     48  C   UNL A   1      43.646  29.773  26.633  1.00  0.00     0.010 A 
ATOM     49  C   UNL A   1      43.186  31.032  28.633  1.00  0.00     0.010 A 
ATOM     50  C   UNL A   1      43.961  30.840  27.480  1.00  0.00    -0.014 A 
BRANCH  50  51
ATOM     51  C   UNL A   1      45.206  31.634  27.408  1.00  0.00     0.031 A 
ATOM     52  C   UNL A   1      45.284  32.907  26.615  1.00  0.00     0.074 A 
ATOM     53  C   UNL A   1      46.148  31.404  28.360  1.00  0.00     0.049 A 
ATOM     54  N   UNL A   1      46.329  33.669  26.571  1.00  0.00    -0.248 NA
ATOM     55  C   UNL A   1      44.201  33.439  25.785  1.00  0.00     0.031 C 
ATOM     56  C   UNL A   1      47.044  32.401  28.955  1.00  0.00     0.029 A 
ATOM     57  N   UNL A   1      46.460  30.254  29.078  1.00  0.00    -0.354 N 
ATOM     58  C   UNL A   1      45.948  34.897  26.080  1.00  0.00     0.074 A 
ATOM     59  C   UNL A   1      44.664  34.658  25.473  1.00  0.00     0.031 C 
ATOM     60  C   UNL A   1      47.828  31.831  29.880  1.00  0.00     0.029 A 
ATOM     61  C   UNL A   1      47.700  30.404  29.712  1.00  0.00     0.049 A 
ATOM     62  H   UNL A   1      45.892  29.453  29.132  1.00  0.00     0.167 HD
ATOM     63  C   UNL A   1      46.689  36.002  26.397  1.00  0.00     0.037 A 
ATOM     64  C   UNL A   1      48.776  29.632  29.364  1.00  0.00     0.037 A 
ATOM     65  C   UNL A   1      47.964  35.656  27.049  1.00  0.00     0.049 A 
ATOM     66  C   UNL A   1      49.850  30.420  28.637  1.00  0.00     0.074 A 
ATOM     67  C   UNL A   1      48.617  36.089  28.190  1.00  0.00     0.029 A 
ATOM     68  N   UNL A   1      48.730  34.597  26.556  1.00  0.00    -0.354 N 
ATOM     69  N   UNL A   1      49.607  31.565  28.046  1.00  0.00    -0.248 NA
ATOM     70  C   UNL A   1      51.264  30.065  28.566  1.00  0.00     0.031 C 
ATOM     71  C   UNL A   1      49.698  35.199  28.447  1.00  0.00     0.029 A 
ATOM     72  C   UNL A   1      49.779  34.299  27.397  1.00  0.00     0.049 A 
ATOM     73  H   UNL A   1      48.542  34.122  25.715  1.00  0.00     0.167 HD
ATOM     74  C   UNL A   1      50.767  32.115  27.590  1.00  0.00     0.074 A 
ATOM     75  C   UNL A   1      51.776  31.121  27.902  1.00  0.00     0.031 C 
ATOM     76  C   UNL A   1      50.807  33.346  27.003  1.00  0.00     0.037 A 
BRANCH  63  77
ATOM     77  C   UNL A   1      46.186  37.443  26.320  1.00  0.00     0.064 A 
ATOM     78  C   UNL A   1      46.906  38.417  25.590  1.00  0.00     0.173 A 
ATOM     79  C   UNL A   1      45.085  37.953  27.043  1.00  0.00     0.173 A 
ATOM     80  F   UNL A   1      47.974  38.078  24.854  1.00  0.00    -0.203 F 
ATOM     81  C   UNL A   1      46.559  39.777  25.592  1.00  0.00     0.198 A 
ATOM     82  C   UNL A   1      44.697  39.299  26.986  1.00  0.00     0.198 A 
ATOM     83  F   UNL A   1      44.374  37.189  27.880  1.00  0.00    -0.203 F 
ATOM     84  F   UNL A   1      47.316  40.662  24.927  1.00  0.00    -0.200 F 
ATOM     85  C   UNL A   1      45.443  40.214  26.274  1.00  0.00     0.200 A 
ATOM     86  F   UNL A   1      43.602  39.703  27.648  1.00  0.00    -0.200 F 
ATOM     87  F   UNL A   1      45.092  41.508  26.255  1.00  0.00    -0.200 F 
ENDBRANCH  63  77
BRANCH  64  88
ATOM     88  C   UNL A   1      48.430  28.186  29.303  1.00  0.00     0.064 A 
ATOM     89  C   UNL A   1      48.453  27.650  27.999  1.00  0.00     0.173 A 
ATOM     90  C   UNL A   1      48.792  27.332  30.357  1.00  0.00     0.173 A 
ATOM     91  F   UNL A   1      48.050  28.402  26.964  1.00  0.00    -0.203 F 
ATOM     92  C   UNL A   1      49.078  26.433  27.734  1.00  0.00     0.198 A 
ATOM     93  C   UNL A   1      49.396  26.100  30.087  1.00  0.00     0.198 A 
ATOM     94  F   UNL A   1      48.760  27.770  31.624  1.00  0.00    -0.203 F 
ATOM     95  F   UNL A   1      49.292  26.054  26.466  1.00  0.00    -0.200 F 
ATOM     96  C   UNL A   1      49.598  25.686  28.776  1.00  0.00     0.200 A 
ATOM     97  F   UNL A   1      49.917  25.377  31.090  1.00  0.00    -0.200 F 
ATOM     98  F   UNL A   1      50.355  24.611  28.518  1.00  0.00    -0.200 F 
ENDBRANCH  64  88
BRANCH  76  99
ATOM     99  C   UNL A   1      51.854  33.806  26.016  1.00  0.00     0.064 A 
ATOM    100  C   UNL A   1      52.025  33.210  24.757  1.00  0.00     0.173 A 
ATOM    101  C   UNL A   1      52.546  35.029  26.211  1.00  0.00     0.173 A 
ATOM    102  F   UNL A   1      51.353  32.105  24.409  1.00  0.00    -0.203 F 
ATOM    103  C   UNL A   1      52.846  33.774  23.779  1.00  0.00     0.198 A 
ATOM    104  C   UNL A   1      53.322  35.615  25.214  1.00  0.00     0.198 A 
ATOM    105  F   UNL A   1      52.461  35.718  27.357  1.00  0.00    -0.203 F 
ATOM    106  F   UNL A   1      52.986  33.156  22.598  1.00  0.00    -0.200 F 
ATOM    107  C   UNL A   1      53.478  34.983  24.000  1.00  0.00     0.200 A 
ATOM    108  F   UNL A   1      53.886  36.812  25.428  1.00  0.00    -0.200 F 
ATOM    109  F   UNL A   1      54.215  35.549  23.035  1.00  0.00    -0.200 F 
ENDBRANCH  76  99
ENDBRANCH  50  51
ENDBRANCH  43  45
ENDBRANCH  42  43
ENDBRANCH  41  42
ENDBRANCH  40  41
ENDBRANCH  39  40
ENDBRANCH  38  39
ENDBRANCH  37  38
ENDBRANCH  36  37
ENDBRANCH  35  36
ENDBRANCH   1  35
TORSDOF 26
ENDMDL
MODEL 3
REMARK VINA RESULT:      -8.5      4.976      6.614
REMARK SMILES Cc1cc(C(=O)OCCOCCOCCOCCOC(=O)c2ccc(-c3c4nc(c(-c5c(F)c(F)c(F)c(F)c5F)c5ccc([nH]5)c(-c5c(F)c(F)c(F)c(F)c5F)c5nc(c(-c6c(F)c(F)c(F)c(F)c6F)c6ccc3[nH]6)C=C5)C=C4)cc2)ccc1NC(=O)c1ccc(=O)n(CCOc2ccccc2)n1
REMARK SMILES IDX 11 1 10 2 9 3 8 4 7 5 5 6 6 7 4 8 1 9 2 10 3 11 87 12 86 13
REMARK SMILES IDX 85 14 88 15 89 16 90 18 91 19 92 20 106 21 93 22 96 23 94 24
REMARK SMILES IDX 95 25 97 26 98 27 99 28 100 29 101 30 105 31 102 32 104 33
REMARK SMILES IDX 103 34 12 35 13 36 14 37 15 38 16 39 17 40 18 41 19 42 20 43
REMARK SMILES IDX 21 44 22 45 23 46 84 47 24 48 83 49 25 50 26 51 27 52 77 53
REMARK SMILES IDX 28 54 82 55 76 56 78 57 29 58 81 59 75 60 74 61 30 63 62 64
REMARK SMILES IDX 42 65 61 66 43 67 46 68 60 69 79 70 44 71 45 72 59 74 80 75
REMARK SMILES IDX 47 76 31 77 32 78 40 79 33 80 34 81 38 82 41 83 35 84 36 85
REMARK SMILES IDX 39 86 37 87 63 88 64 89 72 90 65 91 66 92 70 93 73 94 67 95
REMARK SMILES IDX 68 96 71 97 69 98 48 99 49 100 57 101 50 102 51 103 55 104
REMARK SMILES IDX 58 105 52 106 53 107 56 108 54 109
REMARK H PARENT 88 17 78 62 46 73
REMARK Flexibility Score: inf
ROOT
ATOM      1  C   UNL A   1      43.245  22.887  26.518  1.00  0.00     0.188 C 
ENDROOT
BRANCH   1   2
ATOM      2  O   UNL A   1      41.879  22.529  26.691  1.00  0.00    -0.376 OA
BRANCH   2   3
ATOM      3  C   UNL A   1      40.964  23.621  26.783  1.00  0.00     0.202 C 
BRANCH   3   4
ATOM      4  C   UNL A   1      39.542  23.279  27.233  1.00  0.00     0.261 C 
BRANCH   4   5
ATOM      5  O   UNL A   1      38.649  23.440  26.131  1.00  0.00    -0.460 OA
BRANCH   5   6
ATOM      6  C   UNL A   1      38.171  22.292  25.604  1.00  0.00     0.338 C 
ATOM      7  O   UNL A   1      38.779  21.263  25.398  1.00  0.00    -0.246 OA
BRANCH   6   8
ATOM      8  C   UNL A   1      36.699  22.412  25.642  1.00  0.00     0.060 A 
ATOM      9  C   UNL A   1      33.907  19.976  24.954  1.00  0.00     0.046 C 
ATOM     10  C   UNL A   1      34.553  21.286  25.318  1.00  0.00    -0.027 A 
ATOM     11  C   UNL A   1      35.950  21.354  25.128  1.00  0.00     0.021 A 
ATOM     12  C   UNL A   1      33.893  22.347  25.970  1.00  0.00     0.044 A 
ATOM     13  C   UNL A   1      34.693  23.309  26.588  1.00  0.00     0.027 A 
ATOM     14  C   UNL A   1      36.069  23.379  26.407  1.00  0.00     0.018 A 
BRANCH  12  15
ATOM     15  N   UNL A   1      32.482  22.449  25.909  1.00  0.00    -0.320 N 
ATOM     16  C   UNL A   1      31.633  23.118  25.039  1.00  0.00     0.276 C 
ATOM     17  H   UNL A   1      32.015  21.950  26.618  1.00  0.00     0.170 HD
ATOM     18  O   UNL A   1      30.420  22.933  25.058  1.00  0.00    -0.267 OA
BRANCH  16  19
ATOM     19  C   UNL A   1      32.178  24.205  24.139  1.00  0.00     0.149 A 
ATOM     20  C   UNL A   1      33.534  23.924  23.633  1.00  0.00     0.042 A 
ATOM     21  N   UNL A   1      31.443  25.222  23.794  1.00  0.00    -0.164 NA
ATOM     22  C   UNL A   1      33.851  24.517  22.482  1.00  0.00     0.076 A 
ATOM     23  N   UNL A   1      31.902  25.952  22.690  1.00  0.00    -0.226 N 
ATOM     24  C   UNL A   1      32.910  25.475  21.852  1.00  0.00     0.266 A 
ATOM     25  O   UNL A   1      33.114  25.837  20.698  1.00  0.00    -0.268 OA
BRANCH  23  26
ATOM     26  C   UNL A   1      31.117  27.124  22.287  1.00  0.00     0.190 C 
BRANCH  26  27
ATOM     27  C   UNL A   1      31.389  28.360  23.161  1.00  0.00     0.253 C 
BRANCH  27  28
ATOM     28  O   UNL A   1      30.893  28.202  24.510  1.00  0.00    -0.492 OA
BRANCH  28  29
ATOM     29  C   UNL A   1      31.812  28.622  25.432  1.00  0.00     0.119 A 
ATOM     30  C   UNL A   1      32.668  27.725  26.061  1.00  0.00     0.046 A 
ATOM     31  C   UNL A   1      31.835  29.962  25.795  1.00  0.00     0.046 A 
ATOM     32  C   UNL A   1      33.626  28.207  26.959  1.00  0.00     0.004 A 
ATOM     33  C   UNL A   1      32.834  30.459  26.625  1.00  0.00     0.004 A 
ATOM     34  C   UNL A   1      33.738  29.577  27.205  1.00  0.00     0.000 A 
ENDBRANCH  28  29
ENDBRANCH  27  28
ENDBRANCH  26  27
ENDBRANCH  23  26
ENDBRANCH  16  19
ENDBRANCH  12  15
ENDBRANCH   6   8
ENDBRANCH   5   6
ENDBRANCH   4   5
ENDBRANCH   3   4
ENDBRANCH   2   3
ENDBRANCH   1   2
BRANCH   1  35
ATOM     35  C   UNL A   1      44.024  23.322  27.762  1.00  0.00     0.188 C 
BRANCH  35  36
ATOM     36  O   UNL A   1      45.438  23.155  27.728  1.00  0.00    -0.377 OA
BRANCH  36  37
ATOM     37  C   UNL A   1      46.255  24.320  27.594  1.00  0.00     0.188 C 
BRANCH  37  38
ATOM     38  C   UNL A   1      45.947  25.492  28.529  1.00  0.00     0.188 C 
BRANCH  38  39
ATOM     39  O   UNL A   1      47.034  26.418  28.457  1.00  0.00    -0.376 OA
BRANCH  39  40
ATOM     40  C   UNL A   1      47.703  26.483  27.198  1.00  0.00     0.202 C 
BRANCH  40  41
ATOM     41  C   UNL A   1      47.117  27.523  26.237  1.00  0.00     0.261 C 
BRANCH  41  42
ATOM     42  O   UNL A   1      46.543  28.601  26.999  1.00  0.00    -0.460 OA
BRANCH  42  43
ATOM     43  C   UNL A   1      46.038  29.617  26.253  1.00  0.00     0.338 C 
ATOM     44  O   UNL A   1      46.459  29.971  25.166  1.00  0.00    -0.246 OA
BRANCH  43  45
ATOM     45  C   UNL A   1      45.080  30.406  27.076  1.00  0.00     0.060 A 
ATOM     46  C   UNL A   1      44.553  31.604  26.568  1.00  0.00     0.016 A 
ATOM     47  C   UNL A   1      44.943  30.113  28.430  1.00  0.00     0.016 A 
ATOM     48  C   UNL A   1      44.043  32.574  27.444  1.00  0.00     0.010 A 
ATOM     49  C   UNL A   1      44.518  31.106  29.292  1.00  0.00     0.010 A 
ATOM     50  C   UNL A   1      44.121  32.367  28.825  1.00  0.00    -0.014 A 
BRANCH  50  51
ATOM     51  C   UNL A   1      44.074  33.439  29.841  1.00  0.00     0.031 A 
ATOM     52  C   UNL A   1      42.805  33.785  30.565  1.00  0.00     0.074 A 
ATOM     53  C   UNL A   1      45.256  33.842  30.377  1.00  0.00     0.049 A 
ATOM     54  N   UNL A   1      42.726  34.670  31.505  1.00  0.00    -0.248 NA
ATOM     55  C   UNL A   1      41.500  33.179  30.293  1.00  0.00     0.031 C 
ATOM     56  C   UNL A   1      45.480  34.281  31.759  1.00  0.00     0.029 A 
ATOM     57  N   UNL A   1      46.541  33.867  29.843  1.00  0.00    -0.354 N 
ATOM     58  C   UNL A   1      41.546  34.474  32.187  1.00  0.00     0.074 A 
ATOM     59  C   UNL A   1      40.760  33.643  31.311  1.00  0.00     0.031 C 
ATOM     60  C   UNL A   1      46.771  34.582  31.950  1.00  0.00     0.029 A 
ATOM     61  C   UNL A   1      47.380  34.653  30.643  1.00  0.00     0.049 A 
ATOM     62  H   UNL A   1      46.819  33.400  29.023  1.00  0.00     0.167 HD
ATOM     63  C   UNL A   1      41.445  34.897  33.483  1.00  0.00     0.037 A 
ATOM     64  C   UNL A   1      47.921  35.821  30.176  1.00  0.00     0.037 A 
ATOM     65  C   UNL A   1      42.581  35.742  33.889  1.00  0.00     0.049 A 
ATOM     66  C   UNL A   1      47.320  37.048  30.835  1.00  0.00     0.074 A 
ATOM     67  C   UNL A   1      43.441  35.753  34.974  1.00  0.00     0.029 A 
ATOM     68  N   UNL A   1      43.060  36.724  33.020  1.00  0.00    -0.354 N 
ATOM     69  N   UNL A   1      46.160  37.026  31.444  1.00  0.00    -0.248 NA
ATOM     70  C   UNL A   1      47.964  38.354  30.947  1.00  0.00     0.031 C 
ATOM     71  C   UNL A   1      44.507  36.651  34.686  1.00  0.00     0.029 A 
ATOM     72  C   UNL A   1      44.232  37.279  33.481  1.00  0.00     0.049 A 
ATOM     73  H   UNL A   1      42.616  36.987  32.181  1.00  0.00     0.167 HD
ATOM     74  C   UNL A   1      45.925  38.220  32.056  1.00  0.00     0.074 A 
ATOM     75  C   UNL A   1      47.065  39.037  31.684  1.00  0.00     0.031 C 
ATOM     76  C   UNL A   1      44.821  38.439  32.827  1.00  0.00     0.037 A 
BRANCH  63  77
ATOM     77  C   UNL A   1      40.419  34.383  34.492  1.00  0.00     0.064 A 
ATOM     78  C   UNL A   1      40.817  33.537  35.554  1.00  0.00     0.173 A 
ATOM     79  C   UNL A   1      39.023  34.577  34.394  1.00  0.00     0.173 A 
ATOM     80  F   UNL A   1      42.112  33.266  35.771  1.00  0.00    -0.203 F 
ATOM     81  C   UNL A   1      39.900  32.937  36.430  1.00  0.00     0.198 A 
ATOM     82  C   UNL A   1      38.115  34.034  35.314  1.00  0.00     0.198 A 
ATOM     83  F   UNL A   1      38.473  35.247  33.376  1.00  0.00    -0.203 F 
ATOM     84  F   UNL A   1      40.335  32.097  37.382  1.00  0.00    -0.200 F 
ATOM     85  C   UNL A   1      38.551  33.201  36.322  1.00  0.00     0.200 A 
ATOM     86  F   UNL A   1      36.807  34.311  35.198  1.00  0.00    -0.200 F 
ATOM     87  F   UNL A   1      37.674  32.651  37.174  1.00  0.00    -0.200 F 
ENDBRANCH  63  77
BRANCH  64  88
ATOM     88  C   UNL A   1      48.544  35.651  28.835  1.00  0.00     0.064 A 
ATOM     89  C   UNL A   1      47.900  36.378  27.812  1.00  0.00     0.173 A 
ATOM     90  C   UNL A   1      49.931  35.472  28.722  1.00  0.00     0.173 A 
ATOM     91  F   UNL A   1      46.566  36.518  27.836  1.00  0.00    -0.203 F 
ATOM     92  C   UNL A   1      48.631  37.127  26.894  1.00  0.00     0.198 A 
ATOM     93  C   UNL A   1      50.660  36.207  27.782  1.00  0.00     0.198 A 
ATOM     94  F   UNL A   1      50.600  34.763  29.643  1.00  0.00    -0.203 F 
ATOM     95  F   UNL A   1      48.003  37.989  26.082  1.00  0.00    -0.200 F 
ATOM     96  C   UNL A   1      50.014  37.082  26.918  1.00  0.00     0.200 A 
ATOM     97  F   UNL A   1      52.002  36.182  27.808  1.00  0.00    -0.200 F 
ATOM     98  F   UNL A   1      50.725  37.933  26.164  1.00  0.00    -0.200 F 
ENDBRANCH  64  88
BRANCH  76  99
ATOM     99  C   UNL A   1      44.194  39.788  33.086  1.00  0.00     0.064 A 
ATOM    100  C   UNL A   1      43.291  40.390  32.195  1.00  0.00     0.173 A 
ATOM    101  C   UNL A   1      44.290  40.399  34.363  1.00  0.00     0.173 A 
ATOM    102  F   UNL A   1      43.035  39.858  30.993  1.00  0.00    -0.203 F 
ATOM    103  C   UNL A   1      42.562  41.529  32.542  1.00  0.00     0.198 A 
ATOM    104  C   UNL A   1      43.521  41.503  34.721  1.00  0.00     0.198 A 
ATOM    105  F   UNL A   1      45.097  39.921  35.320  1.00  0.00    -0.203 F 
ATOM    106  F   UNL A   1      41.724  42.073  31.648  1.00  0.00    -0.200 F 
ATOM    107  C   UNL A   1      42.663  42.074  33.808  1.00  0.00     0.200 A 
ATOM    108  F   UNL A   1      43.594  41.987  35.970  1.00  0.00    -0.200 F 
ATOM    109  F   UNL A   1      41.915  43.130  34.153  1.00  0.00    -0.200 F 
ENDBRANCH  76  99
ENDBRANCH  50  51
ENDBRANCH  43  45
ENDBRANCH  42  43
ENDBRANCH  41  42
ENDBRANCH  40  41
ENDBRANCH  39  40
ENDBRANCH  38  39
ENDBRANCH  37  38
ENDBRANCH  36  37
ENDBRANCH  35  36
ENDBRANCH   1  35
TORSDOF 26
ENDMDL
