MODEL 1
REMARK VINA RESULT:     -11.6      0.000      0.000
REMARK SMILES O=C(OCCOCCOCCOCCOC(=O)[C@@H]1CCCC[C@H]1C(=O)Nc1cccc(-c2nnc(-c3ccccc3)o2)c1)c1ccc(-c2c3nc(c(-c4c(F)c(F)c(F)c(F)c4F)c4ccc([nH]4)c(-c4c(F)c(F)c(F)c(F)c4F)c4nc(c(-c5c(F)c(F)c(F)c(F)c5F)c5ccc2[nH]5)C=C4)C=C3)cc1
REMARK SMILES IDX 10 1 9 2 8 3 7 4 6 5 5 6 4 7 3 8 2 9 1 10 44 11 45 12 106 13
REMARK SMILES IDX 46 14 105 15 47 16 48 17 49 18 99 19 50 20 104 21 98 22
REMARK SMILES IDX 100 23 51 24 103 25 97 26 96 27 52 29 84 30 64 31 83 32
REMARK SMILES IDX 65 33 68 34 82 35 101 36 66 37 67 38 81 40 102 41 69 42
REMARK SMILES IDX 53 43 54 44 62 45 55 46 56 47 60 48 63 49 57 50 58 51 61 52
REMARK SMILES IDX 59 53 85 54 86 55 94 56 87 57 88 58 92 59 95 60 89 61 90 62
REMARK SMILES IDX 93 63 91 64 70 65 71 66 79 67 72 68 73 69 77 70 80 71 74 72
REMARK SMILES IDX 75 73 78 74 76 75 11 76 12 77 13 78 14 79 15 80 16 81 17 82
REMARK SMILES IDX 18 83 19 84 23 85 20 86 22 87 21 88 24 89 25 90 26 91 27 93
REMARK SMILES IDX 28 94 43 95 29 96 31 97 30 98 32 99 33 100 42 101 34 102
REMARK SMILES IDX 35 103 36 104 37 105 41 106 38 107 40 108 39 109
REMARK H PARENT 100 28 68 39 26 92
REMARK Flexibility Score: inf
ROOT
ATOM      1  C   UNL A   1      34.860  30.789  28.079  1.00  0.00     0.188 C 
ENDROOT
BRANCH   1   2
ATOM      2  O   UNL A   1      35.974  31.677  28.056  1.00  0.00    -0.377 OA
BRANCH   2   3
ATOM      3  C   UNL A   1      35.756  33.087  28.091  1.00  0.00     0.188 C 
BRANCH   3   4
ATOM      4  C   UNL A   1      35.105  33.636  29.352  1.00  0.00     0.188 C 
BRANCH   4   5
ATOM      5  O   UNL A   1      33.906  34.276  28.983  1.00  0.00    -0.376 OA
BRANCH   5   6
ATOM      6  C   UNL A   1      33.877  35.688  28.902  1.00  0.00     0.202 C 
BRANCH   6   7
ATOM      7  C   UNL A   1      32.627  36.364  29.438  1.00  0.00     0.261 C 
BRANCH   7   8
ATOM      8  O   UNL A   1      32.670  36.712  30.838  1.00  0.00    -0.460 OA
BRANCH   8   9
ATOM      9  C   UNL A   1      32.538  35.915  31.930  1.00  0.00     0.338 C 
ATOM     10  O   UNL A   1      31.446  35.806  32.479  1.00  0.00    -0.246 OA
BRANCH   9  11
ATOM     11  C   UNL A   1      33.678  35.131  32.460  1.00  0.00     0.060 A 
ATOM     12  C   UNL A   1      34.925  35.692  32.647  1.00  0.00     0.016 A 
ATOM     13  C   UNL A   1      33.496  33.826  32.912  1.00  0.00     0.016 A 
ATOM     14  C   UNL A   1      36.042  34.951  32.910  1.00  0.00     0.010 A 
ATOM     15  C   UNL A   1      34.587  33.112  33.432  1.00  0.00     0.010 A 
ATOM     16  C   UNL A   1      35.878  33.662  33.372  1.00  0.00    -0.014 A 
BRANCH  16  17
ATOM     17  C   UNL A   1      37.116  32.929  33.671  1.00  0.00     0.031 A 
ATOM     18  C   UNL A   1      37.711  33.120  35.027  1.00  0.00     0.074 A 
ATOM     19  C   UNL A   1      37.548  31.967  32.829  1.00  0.00     0.049 A 
ATOM     20  N   UNL A   1      38.831  32.663  35.508  1.00  0.00    -0.248 NA
ATOM     21  C   UNL A   1      36.928  33.927  35.980  1.00  0.00     0.031 C 
ATOM     22  C   UNL A   1      36.897  31.580  31.567  1.00  0.00     0.029 A 
ATOM     23  N   UNL A   1      38.598  31.096  32.928  1.00  0.00    -0.354 N 
ATOM     24  C   UNL A   1      38.909  33.169  36.796  1.00  0.00     0.074 A 
ATOM     25  C   UNL A   1      37.732  33.970  37.028  1.00  0.00     0.031 C 
ATOM     26  C   UNL A   1      37.539  30.529  31.038  1.00  0.00     0.029 A 
ATOM     27  C   UNL A   1      38.712  30.251  31.850  1.00  0.00     0.049 A 
ATOM     28  H   UNL A   1      39.213  31.078  33.696  1.00  0.00     0.167 HD
ATOM     29  C   UNL A   1      39.897  32.973  37.697  1.00  0.00     0.037 A 
ATOM     30  C   UNL A   1      39.700  29.397  31.531  1.00  0.00     0.037 A 
ATOM     31  C   UNL A   1      41.045  32.156  37.419  1.00  0.00     0.049 A 
ATOM     32  C   UNL A   1      40.856  29.308  32.491  1.00  0.00     0.074 A 
ATOM     33  C   UNL A   1      42.175  31.957  38.186  1.00  0.00     0.029 A 
ATOM     34  N   UNL A   1      41.194  31.392  36.267  1.00  0.00    -0.354 N 
ATOM     35  N   UNL A   1      41.006  29.890  33.659  1.00  0.00    -0.248 NA
ATOM     36  C   UNL A   1      41.985  28.465  32.088  1.00  0.00     0.031 C 
ATOM     37  C   UNL A   1      43.028  31.105  37.476  1.00  0.00     0.029 A 
ATOM     38  C   UNL A   1      42.403  30.725  36.296  1.00  0.00     0.049 A 
ATOM     39  H   UNL A   1      40.534  31.334  35.538  1.00  0.00     0.167 HD
ATOM     40  C   UNL A   1      42.238  29.474  34.137  1.00  0.00     0.074 A 
ATOM     41  C   UNL A   1      42.775  28.561  33.146  1.00  0.00     0.031 C 
ATOM     42  C   UNL A   1      42.882  29.819  35.281  1.00  0.00     0.037 A 
BRANCH  29  43
ATOM     43  C   UNL A   1      39.795  33.719  38.990  1.00  0.00     0.064 A 
ATOM     44  C   UNL A   1      39.020  33.252  40.062  1.00  0.00     0.173 A 
ATOM     45  C   UNL A   1      40.441  34.956  39.137  1.00  0.00     0.173 A 
ATOM     46  F   UNL A   1      38.342  32.099  39.954  1.00  0.00    -0.203 F 
ATOM     47  C   UNL A   1      38.879  34.006  41.225  1.00  0.00     0.198 A 
ATOM     48  C   UNL A   1      40.321  35.693  40.312  1.00  0.00     0.198 A 
ATOM     49  F   UNL A   1      41.172  35.459  38.132  1.00  0.00    -0.203 F 
ATOM     50  F   UNL A   1      38.081  33.571  42.211  1.00  0.00    -0.200 F 
ATOM     51  C   UNL A   1      39.535  35.221  41.351  1.00  0.00     0.200 A 
ATOM     52  F   UNL A   1      40.952  36.869  40.428  1.00  0.00    -0.200 F 
ATOM     53  F   UNL A   1      39.393  35.948  42.468  1.00  0.00    -0.200 F 
ENDBRANCH  29  43
BRANCH  30  54
ATOM     54  C   UNL A   1      39.700  28.668  30.232  1.00  0.00     0.064 A 
ATOM     55  C   UNL A   1      39.200  27.362  30.122  1.00  0.00     0.173 A 
ATOM     56  C   UNL A   1      40.257  29.241  29.075  1.00  0.00     0.173 A 
ATOM     57  F   UNL A   1      38.673  26.755  31.195  1.00  0.00    -0.203 F 
ATOM     58  C   UNL A   1      39.294  26.649  28.926  1.00  0.00     0.198 A 
ATOM     59  C   UNL A   1      40.313  28.543  27.871  1.00  0.00     0.198 A 
ATOM     60  F   UNL A   1      40.756  30.485  29.113  1.00  0.00    -0.203 F 
ATOM     61  F   UNL A   1      38.877  25.377  28.873  1.00  0.00    -0.200 F 
ATOM     62  C   UNL A   1      39.847  27.241  27.801  1.00  0.00     0.200 A 
ATOM     63  F   UNL A   1      40.835  29.128  26.784  1.00  0.00    -0.200 F 
ATOM     64  F   UNL A   1      39.948  26.551  26.656  1.00  0.00    -0.200 F 
ENDBRANCH  30  54
BRANCH  42  65
ATOM     65  C   UNL A   1      44.209  29.167  35.520  1.00  0.00     0.064 A 
ATOM     66  C   UNL A   1      44.321  27.965  36.233  1.00  0.00     0.173 A 
ATOM     67  C   UNL A   1      45.377  29.743  35.002  1.00  0.00     0.173 A 
ATOM     68  F   UNL A   1      43.231  27.387  36.760  1.00  0.00    -0.203 F 
ATOM     69  C   UNL A   1      45.563  27.382  36.450  1.00  0.00     0.198 A 
ATOM     70  C   UNL A   1      46.613  29.136  35.188  1.00  0.00     0.198 A 
ATOM     71  F   UNL A   1      45.317  30.889  34.305  1.00  0.00    -0.203 F 
ATOM     72  F   UNL A   1      45.657  26.268  37.189  1.00  0.00    -0.200 F 
ATOM     73  C   UNL A   1      46.707  27.963  35.922  1.00  0.00     0.200 A 
ATOM     74  F   UNL A   1      47.714  29.688  34.659  1.00  0.00    -0.200 F 
ATOM     75  F   UNL A   1      47.903  27.395  36.127  1.00  0.00    -0.200 F 
ENDBRANCH  42  65
ENDBRANCH  16  17
ENDBRANCH   9  11
ENDBRANCH   8   9
ENDBRANCH   7   8
ENDBRANCH   6   7
ENDBRANCH   5   6
ENDBRANCH   4   5
ENDBRANCH   3   4
ENDBRANCH   2   3
ENDBRANCH   1   2
BRANCH   1  76
ATOM     76  C   UNL A   1      33.529  31.120  27.392  1.00  0.00     0.188 C 
BRANCH  76  77
ATOM     77  O   UNL A   1      32.740  30.083  26.851  1.00  0.00    -0.376 OA
BRANCH  77  78
ATOM     78  C   UNL A   1      33.174  29.406  25.674  1.00  0.00     0.202 C 
BRANCH  78  79
ATOM     79  C   UNL A   1      33.654  27.938  25.668  1.00  0.00     0.261 C 
BRANCH  79  80
ATOM     80  O   UNL A   1      33.625  27.330  24.369  1.00  0.00    -0.463 OA
BRANCH  80  81
ATOM     81  C   UNL A   1      33.071  28.051  23.345  1.00  0.00     0.309 C 
ATOM     82  O   UNL A   1      33.621  28.953  22.751  1.00  0.00    -0.252 OA
BRANCH  81  83
ATOM     83  C   UNL A   1      31.729  27.426  22.935  1.00  0.00     0.111 C 
ATOM     84  C   UNL A   1      30.583  28.258  23.541  1.00  0.00     0.016 C 
ATOM     85  C   UNL A   1      31.660  25.910  23.100  1.00  0.00     0.093 C 
ATOM     86  C   UNL A   1      29.234  27.560  23.535  1.00  0.00     0.001 C 
ATOM     87  C   UNL A   1      30.287  25.299  23.422  1.00  0.00     0.014 C 
ATOM     88  C   UNL A   1      29.356  26.207  24.207  1.00  0.00     0.001 C 
BRANCH  85  89
ATOM     89  C   UNL A   1      32.307  25.202  21.891  1.00  0.00     0.228 C 
ATOM     90  O   UNL A   1      31.978  25.577  20.756  1.00  0.00    -0.274 OA
ATOM     91  N   UNL A   1      33.283  24.243  21.945  1.00  0.00    -0.326 N 
ATOM     92  H   UNL A   1      33.738  24.143  21.077  1.00  0.00     0.169 HD
BRANCH  91  93
ATOM     93  C   UNL A   1      33.814  23.360  22.911  1.00  0.00     0.041 A 
ATOM     94  C   UNL A   1      33.025  22.272  23.293  1.00  0.00     0.026 A 
ATOM     95  C   UNL A   1      35.034  23.519  23.561  1.00  0.00     0.040 A 
ATOM     96  C   UNL A   1      33.484  21.348  24.245  1.00  0.00     0.003 A 
ATOM     97  C   UNL A   1      35.494  22.642  24.563  1.00  0.00     0.041 A 
ATOM     98  C   UNL A   1      34.716  21.533  24.881  1.00  0.00     0.014 A 
BRANCH  97  99
ATOM     99  C   UNL A   1      36.807  22.863  25.158  1.00  0.00     0.248 A 
ATOM    100  N   UNL A   1      37.232  23.900  25.848  1.00  0.00    -0.107 NA
ATOM    101  O   UNL A   1      37.700  21.815  25.176  1.00  0.00    -0.416 OA
ATOM    102  N   UNL A   1      38.447  23.543  26.392  1.00  0.00    -0.107 NA
ATOM    103  C   UNL A   1      38.705  22.320  25.975  1.00  0.00     0.248 A 
BRANCH 103 104
ATOM    104  C   UNL A   1      39.810  21.441  26.345  1.00  0.00     0.039 A 
ATOM    105  C   UNL A   1      40.757  21.881  27.285  1.00  0.00     0.014 A 
ATOM    106  C   UNL A   1      39.991  20.178  25.762  1.00  0.00     0.014 A 
ATOM    107  C   UNL A   1      41.841  21.075  27.651  1.00  0.00     0.001 A 
ATOM    108  C   UNL A   1      41.080  19.371  26.126  1.00  0.00     0.001 A 
ATOM    109  C   UNL A   1      42.000  19.819  27.073  1.00  0.00     0.000 A 
ENDBRANCH 103 104
ENDBRANCH  97  99
ENDBRANCH  91  93
ENDBRANCH  85  89
ENDBRANCH  81  83
ENDBRANCH  80  81
ENDBRANCH  79  80
ENDBRANCH  78  79
ENDBRANCH  77  78
ENDBRANCH  76  77
ENDBRANCH   1  76
TORSDOF 24
ENDMDL
MODEL 2
REMARK VINA RESULT:     -11.1      2.340      4.622
REMARK SMILES O=C(OCCOCCOCCOCCOC(=O)[C@@H]1CCCC[C@H]1C(=O)Nc1cccc(-c2nnc(-c3ccccc3)o2)c1)c1ccc(-c2c3nc(c(-c4c(F)c(F)c(F)c(F)c4F)c4ccc([nH]4)c(-c4c(F)c(F)c(F)c(F)c4F)c4nc(c(-c5c(F)c(F)c(F)c(F)c5F)c5ccc2[nH]5)C=C4)C=C3)cc1
REMARK SMILES IDX 10 1 9 2 8 3 7 4 6 5 5 6 4 7 3 8 2 9 1 10 44 11 45 12 106 13
REMARK SMILES IDX 46 14 105 15 47 16 48 17 49 18 99 19 50 20 104 21 98 22
REMARK SMILES IDX 100 23 51 24 103 25 97 26 96 27 52 29 84 30 64 31 83 32
REMARK SMILES IDX 65 33 68 34 82 35 101 36 66 37 67 38 81 40 102 41 69 42
REMARK SMILES IDX 53 43 54 44 62 45 55 46 56 47 60 48 63 49 57 50 58 51 61 52
REMARK SMILES IDX 59 53 85 54 86 55 94 56 87 57 88 58 92 59 95 60 89 61 90 62
REMARK SMILES IDX 93 63 91 64 70 65 71 66 79 67 72 68 73 69 77 70 80 71 74 72
REMARK SMILES IDX 75 73 78 74 76 75 11 76 12 77 13 78 14 79 15 80 16 81 17 82
REMARK SMILES IDX 18 83 19 84 23 85 20 86 22 87 21 88 24 89 25 90 26 91 27 93
REMARK SMILES IDX 28 94 43 95 29 96 31 97 30 98 32 99 33 100 42 101 34 102
REMARK SMILES IDX 35 103 36 104 37 105 41 106 38 107 40 108 39 109
REMARK H PARENT 100 28 68 39 26 92
REMARK Flexibility Score: inf
ROOT
ATOM      1  C   UNL A   1      31.380  28.006  23.011  1.00  0.00     0.188 C 
ENDROOT
BRANCH   1   2
ATOM      2  O   UNL A   1      30.656  27.538  24.145  1.00  0.00    -0.377 OA
BRANCH   2   3
ATOM      3  C   UNL A   1      31.280  27.529  25.428  1.00  0.00     0.188 C 
BRANCH   3   4
ATOM      4  C   UNL A   1      32.172  28.718  25.752  1.00  0.00     0.188 C 
BRANCH   4   5
ATOM      5  O   UNL A   1      31.604  29.408  26.841  1.00  0.00    -0.376 OA
BRANCH   5   6
ATOM      6  C   UNL A   1      31.593  30.822  26.828  1.00  0.00     0.202 C 
BRANCH   6   7
ATOM      7  C   UNL A   1      32.951  31.502  26.792  1.00  0.00     0.261 C 
BRANCH   7   8
ATOM      8  O   UNL A   1      32.963  32.873  27.246  1.00  0.00    -0.460 OA
BRANCH   8   9
ATOM      9  C   UNL A   1      33.685  33.444  28.243  1.00  0.00     0.338 C 
ATOM     10  O   UNL A   1      33.270  34.458  28.795  1.00  0.00    -0.246 OA
BRANCH   9  11
ATOM     11  C   UNL A   1      34.957  32.850  28.717  1.00  0.00     0.060 A 
ATOM     12  C   UNL A   1      35.024  31.559  29.201  1.00  0.00     0.016 A 
ATOM     13  C   UNL A   1      36.162  33.535  28.570  1.00  0.00     0.016 A 
ATOM     14  C   UNL A   1      36.118  31.066  29.855  1.00  0.00     0.010 A 
ATOM     15  C   UNL A   1      37.356  32.942  29.006  1.00  0.00     0.010 A 
ATOM     16  C   UNL A   1      37.320  31.725  29.707  1.00  0.00    -0.014 A 
BRANCH  16  17
ATOM     17  C   UNL A   1      38.467  31.125  30.404  1.00  0.00     0.031 A 
ATOM     18  C   UNL A   1      38.572  31.364  31.873  1.00  0.00     0.074 A 
ATOM     19  C   UNL A   1      39.243  30.224  29.767  1.00  0.00     0.049 A 
ATOM     20  N   UNL A   1      39.521  31.024  32.698  1.00  0.00    -0.248 NA
ATOM     21  C   UNL A   1      37.445  32.073  32.507  1.00  0.00     0.031 C 
ATOM     22  C   UNL A   1      39.075  29.783  28.373  1.00  0.00     0.029 A 
ATOM     23  N   UNL A   1      40.291  29.469  30.218  1.00  0.00    -0.354 N 
ATOM     24  C   UNL A   1      39.129  31.522  33.931  1.00  0.00     0.074 A 
ATOM     25  C   UNL A   1      37.863  32.191  33.755  1.00  0.00     0.031 C 
ATOM     26  C   UNL A   1      39.959  28.812  28.103  1.00  0.00     0.029 A 
ATOM     27  C   UNL A   1      40.833  28.652  29.253  1.00  0.00     0.049 A 
ATOM     28  H   UNL A   1      40.626  29.508  31.143  1.00  0.00     0.167 HD
ATOM     29  C   UNL A   1      39.792  31.423  35.105  1.00  0.00     0.037 A 
ATOM     30  C   UNL A   1      41.955  27.913  29.288  1.00  0.00     0.037 A 
ATOM     31  C   UNL A   1      41.047  30.738  35.229  1.00  0.00     0.049 A 
ATOM     32  C   UNL A   1      42.745  27.937  30.569  1.00  0.00     0.074 A 
ATOM     33  C   UNL A   1      41.886  30.653  36.320  1.00  0.00     0.029 A 
ATOM     34  N   UNL A   1      41.636  30.006  34.203  1.00  0.00    -0.354 N 
ATOM     35  N   UNL A   1      42.451  28.520  31.709  1.00  0.00    -0.248 NA
ATOM     36  C   UNL A   1      44.025  27.224  30.568  1.00  0.00     0.031 C 
ATOM     37  C   UNL A   1      43.006  29.904  35.941  1.00  0.00     0.029 A 
ATOM     38  C   UNL A   1      42.835  29.471  34.633  1.00  0.00     0.049 A 
ATOM     39  H   UNL A   1      41.254  29.885  33.303  1.00  0.00     0.167 HD
ATOM     40  C   UNL A   1      43.502  28.233  32.566  1.00  0.00     0.074 A 
ATOM     41  C   UNL A   1      44.420  27.393  31.820  1.00  0.00     0.031 C 
ATOM     42  C   UNL A   1      43.705  28.633  33.847  1.00  0.00     0.037 A 
BRANCH  29  43
ATOM     43  C   UNL A   1      39.203  32.141  36.279  1.00  0.00     0.064 A 
ATOM     44  C   UNL A   1      39.639  33.417  36.668  1.00  0.00     0.173 A 
ATOM     45  C   UNL A   1      38.223  31.514  37.063  1.00  0.00     0.173 A 
ATOM     46  F   UNL A   1      40.610  34.039  35.981  1.00  0.00    -0.203 F 
ATOM     47  C   UNL A   1      39.129  34.028  37.812  1.00  0.00     0.198 A 
ATOM     48  C   UNL A   1      37.696  32.141  38.188  1.00  0.00     0.198 A 
ATOM     49  F   UNL A   1      37.792  30.285  36.748  1.00  0.00    -0.203 F 
ATOM     50  F   UNL A   1      39.607  35.219  38.202  1.00  0.00    -0.200 F 
ATOM     51  C   UNL A   1      38.154  33.393  38.565  1.00  0.00     0.200 A 
ATOM     52  F   UNL A   1      36.757  31.523  38.917  1.00  0.00    -0.200 F 
ATOM     53  F   UNL A   1      37.670  33.981  39.668  1.00  0.00    -0.200 F 
ENDBRANCH  29  43
BRANCH  30  54
ATOM     54  C   UNL A   1      42.447  27.201  28.075  1.00  0.00     0.064 A 
ATOM     55  C   UNL A   1      42.152  25.849  27.845  1.00  0.00     0.173 A 
ATOM     56  C   UNL A   1      43.278  27.844  27.141  1.00  0.00     0.173 A 
ATOM     57  F   UNL A   1      41.379  25.176  28.710  1.00  0.00    -0.203 F 
ATOM     58  C   UNL A   1      42.698  25.164  26.760  1.00  0.00     0.198 A 
ATOM     59  C   UNL A   1      43.790  27.169  26.035  1.00  0.00     0.198 A 
ATOM     60  F   UNL A   1      43.602  29.135  27.304  1.00  0.00    -0.203 F 
ATOM     61  F   UNL A   1      42.459  23.854  26.609  1.00  0.00    -0.200 F 
ATOM     62  C   UNL A   1      43.513  25.824  25.854  1.00  0.00     0.200 A 
ATOM     63  F   UNL A   1      44.564  27.819  25.155  1.00  0.00    -0.200 F 
ATOM     64  F   UNL A   1      44.047  25.161  24.818  1.00  0.00    -0.200 F 
ENDBRANCH  30  54
BRANCH  42  65
ATOM     65  C   UNL A   1      44.947  28.124  34.513  1.00  0.00     0.064 A 
ATOM     66  C   UNL A   1      45.002  26.847  35.089  1.00  0.00     0.173 A 
ATOM     67  C   UNL A   1      46.101  28.919  34.546  1.00  0.00     0.173 A 
ATOM     68  F   UNL A   1      43.916  26.060  35.094  1.00  0.00    -0.203 F 
ATOM     69  C   UNL A   1      46.162  26.399  35.710  1.00  0.00     0.198 A 
ATOM     70  C   UNL A   1      47.271  28.450  35.133  1.00  0.00     0.198 A 
ATOM     71  F   UNL A   1      46.097  30.144  33.998  1.00  0.00    -0.203 F 
ATOM     72  F   UNL A   1      46.175  25.202  36.312  1.00  0.00    -0.200 F 
ATOM     73  C   UNL A   1      47.297  27.197  35.725  1.00  0.00     0.200 A 
ATOM     74  F   UNL A   1      48.371  29.215  35.128  1.00  0.00    -0.200 F 
ATOM     75  F   UNL A   1      48.416  26.759  36.317  1.00  0.00    -0.200 F 
ENDBRANCH  42  65
ENDBRANCH  16  17
ENDBRANCH   9  11
ENDBRANCH   8   9
ENDBRANCH   7   8
ENDBRANCH   6   7
ENDBRANCH   5   6
ENDBRANCH   4   5
ENDBRANCH   3   4
ENDBRANCH   2   3
ENDBRANCH   1   2
BRANCH   1  76
ATOM     76  C   UNL A   1      32.161  27.062  22.086  1.00  0.00     0.188 C 
BRANCH  76  77
ATOM     77  O   UNL A   1      31.627  25.798  21.759  1.00  0.00    -0.376 OA
BRANCH  77  78
ATOM     78  C   UNL A   1      32.120  24.632  22.414  1.00  0.00     0.202 C 
BRANCH  78  79
ATOM     79  C   UNL A   1      31.477  24.036  23.685  1.00  0.00     0.261 C 
BRANCH  79  80
ATOM     80  O   UNL A   1      32.300  24.154  24.854  1.00  0.00    -0.463 OA
BRANCH  80  81
ATOM     81  C   UNL A   1      32.480  23.032  25.618  1.00  0.00     0.309 C 
ATOM     82  O   UNL A   1      32.123  22.909  26.769  1.00  0.00    -0.252 OA
BRANCH  81  83
ATOM     83  C   UNL A   1      33.028  21.892  24.746  1.00  0.00     0.111 C 
ATOM     84  C   UNL A   1      32.102  20.669  24.882  1.00  0.00     0.016 C 
ATOM     85  C   UNL A   1      34.530  21.655  24.884  1.00  0.00     0.093 C 
ATOM     86  C   UNL A   1      32.708  19.368  24.383  1.00  0.00     0.001 C 
ATOM     87  C   UNL A   1      35.037  20.219  24.681  1.00  0.00     0.014 C 
ATOM     88  C   UNL A   1      34.043  19.134  25.061  1.00  0.00     0.001 C 
BRANCH  85  89
ATOM     89  C   UNL A   1      35.319  22.647  24.003  1.00  0.00     0.228 C 
ATOM     90  O   UNL A   1      34.822  22.979  22.917  1.00  0.00    -0.274 OA
ATOM     91  N   UNL A   1      36.490  23.270  24.342  1.00  0.00    -0.326 N 
ATOM     92  H   UNL A   1      36.659  24.054  23.769  1.00  0.00     0.169 HD
BRANCH  91  93
ATOM     93  C   UNL A   1      37.520  23.093  25.290  1.00  0.00     0.041 A 
ATOM     94  C   UNL A   1      37.637  24.048  26.303  1.00  0.00     0.026 A 
ATOM     95  C   UNL A   1      38.471  22.077  25.264  1.00  0.00     0.040 A 
ATOM     96  C   UNL A   1      38.634  23.941  27.285  1.00  0.00     0.003 A 
ATOM     97  C   UNL A   1      39.519  21.977  26.201  1.00  0.00     0.041 A 
ATOM     98  C   UNL A   1      39.575  22.908  27.234  1.00  0.00     0.014 A 
BRANCH  97  99
ATOM     99  C   UNL A   1      40.444  20.853  26.120  1.00  0.00     0.248 A 
ATOM    100  N   UNL A   1      40.177  19.583  25.906  1.00  0.00    -0.107 NA
ATOM    101  O   UNL A   1      41.795  21.121  26.090  1.00  0.00    -0.416 OA
ATOM    102  N   UNL A   1      41.385  18.955  25.684  1.00  0.00    -0.107 NA
ATOM    103  C   UNL A   1      42.319  19.876  25.807  1.00  0.00     0.248 A 
BRANCH 103 104
ATOM    104  C   UNL A   1      43.754  19.762  25.567  1.00  0.00     0.039 A 
ATOM    105  C   UNL A   1      44.471  20.887  25.124  1.00  0.00     0.014 A 
ATOM    106  C   UNL A   1      44.447  18.552  25.722  1.00  0.00     0.014 A 
ATOM    107  C   UNL A   1      45.844  20.813  24.865  1.00  0.00     0.001 A 
ATOM    108  C   UNL A   1      45.823  18.477  25.458  1.00  0.00     0.001 A 
ATOM    109  C   UNL A   1      46.519  19.608  25.034  1.00  0.00     0.000 A 
ENDBRANCH 103 104
ENDBRANCH  97  99
ENDBRANCH  91  93
ENDBRANCH  85  89
ENDBRANCH  81  83
ENDBRANCH  80  81
ENDBRANCH  79  80
ENDBRANCH  78  79
ENDBRANCH  77  78
ENDBRANCH  76  77
ENDBRANCH   1  76
TORSDOF 24
ENDMDL
MODEL 3
REMARK VINA RESULT:     -10.9      0.984      6.851
REMARK SMILES O=C(OCCOCCOCCOCCOC(=O)[C@@H]1CCCC[C@H]1C(=O)Nc1cccc(-c2nnc(-c3ccccc3)o2)c1)c1ccc(-c2c3nc(c(-c4c(F)c(F)c(F)c(F)c4F)c4ccc([nH]4)c(-c4c(F)c(F)c(F)c(F)c4F)c4nc(c(-c5c(F)c(F)c(F)c(F)c5F)c5ccc2[nH]5)C=C4)C=C3)cc1
REMARK SMILES IDX 10 1 9 2 8 3 7 4 6 5 5 6 4 7 3 8 2 9 1 10 44 11 45 12 106 13
REMARK SMILES IDX 46 14 105 15 47 16 48 17 49 18 99 19 50 20 104 21 98 22
REMARK SMILES IDX 100 23 51 24 103 25 97 26 96 27 52 29 84 30 64 31 83 32
REMARK SMILES IDX 65 33 68 34 82 35 101 36 66 37 67 38 81 40 102 41 69 42
REMARK SMILES IDX 53 43 54 44 62 45 55 46 56 47 60 48 63 49 57 50 58 51 61 52
REMARK SMILES IDX 59 53 85 54 86 55 94 56 87 57 88 58 92 59 95 60 89 61 90 62
REMARK SMILES IDX 93 63 91 64 70 65 71 66 79 67 72 68 73 69 77 70 80 71 74 72
REMARK SMILES IDX 75 73 78 74 76 75 11 76 12 77 13 78 14 79 15 80 16 81 17 82
REMARK SMILES IDX 18 83 19 84 23 85 20 86 22 87 21 88 24 89 25 90 26 91 27 93
REMARK SMILES IDX 28 94 43 95 29 96 31 97 30 98 32 99 33 100 42 101 34 102
REMARK SMILES IDX 35 103 36 104 37 105 41 106 38 107 40 108 39 109
REMARK H PARENT 100 28 68 39 26 92
REMARK Flexibility Score: inf
ROOT
ATOM      1  C   UNL A   1      35.598  30.500  28.112  1.00  0.00     0.188 C 
ENDROOT
BRANCH   1   2
ATOM      2  O   UNL A   1      36.550  31.553  27.992  1.00  0.00    -0.377 OA
BRANCH   2   3
ATOM      3  C   UNL A   1      36.118  32.910  28.073  1.00  0.00     0.188 C 
BRANCH   3   4
ATOM      4  C   UNL A   1      35.114  33.233  29.170  1.00  0.00     0.188 C 
BRANCH   4   5
ATOM      5  O   UNL A   1      34.054  33.959  28.594  1.00  0.00    -0.376 OA
BRANCH   5   6
ATOM      6  C   UNL A   1      34.097  35.373  28.616  1.00  0.00     0.202 C 
BRANCH   6   7
ATOM      7  C   UNL A   1      32.952  36.066  29.335  1.00  0.00     0.261 C 
BRANCH   7   8
ATOM      8  O   UNL A   1      33.174  36.320  30.738  1.00  0.00    -0.460 OA
BRANCH   8   9
ATOM      9  C   UNL A   1      32.992  35.498  31.803  1.00  0.00     0.338 C 
ATOM     10  O   UNL A   1      31.865  35.326  32.257  1.00  0.00    -0.246 OA
BRANCH   9  11
ATOM     11  C   UNL A   1      34.122  34.762  32.416  1.00  0.00     0.060 A 
ATOM     12  C   UNL A   1      35.263  35.406  32.848  1.00  0.00     0.016 A 
ATOM     13  C   UNL A   1      34.018  33.401  32.696  1.00  0.00     0.016 A 
ATOM     14  C   UNL A   1      36.405  34.742  33.198  1.00  0.00     0.010 A 
ATOM     15  C   UNL A   1      35.094  32.731  33.298  1.00  0.00     0.010 A 
ATOM     16  C   UNL A   1      36.315  33.398  33.493  1.00  0.00    -0.014 A 
BRANCH  16  17
ATOM     17  C   UNL A   1      37.569  32.747  33.899  1.00  0.00     0.031 A 
ATOM     18  C   UNL A   1      38.206  31.821  32.917  1.00  0.00     0.074 A 
ATOM     19  C   UNL A   1      38.207  33.157  35.015  1.00  0.00     0.049 A 
ATOM     20  N   UNL A   1      39.256  31.064  33.058  1.00  0.00    -0.248 NA
ATOM     21  C   UNL A   1      37.581  31.746  31.583  1.00  0.00     0.031 C 
ATOM     22  C   UNL A   1      37.741  34.213  35.928  1.00  0.00     0.029 A 
ATOM     23  N   UNL A   1      39.412  32.784  35.544  1.00  0.00    -0.354 N 
ATOM     24  C   UNL A   1      39.384  30.388  31.855  1.00  0.00     0.074 A 
ATOM     25  C   UNL A   1      38.309  30.815  30.992  1.00  0.00     0.031 C 
ATOM     26  C   UNL A   1      38.667  34.424  36.875  1.00  0.00     0.029 A 
ATOM     27  C   UNL A   1      39.725  33.441  36.711  1.00  0.00     0.049 A 
ATOM     28  H   UNL A   1      39.997  32.109  35.131  1.00  0.00     0.167 HD
ATOM     29  C   UNL A   1      40.329  29.482  31.518  1.00  0.00     0.037 A 
ATOM     30  C   UNL A   1      40.725  33.214  37.581  1.00  0.00     0.037 A 
ATOM     31  C   UNL A   1      41.385  29.099  32.411  1.00  0.00     0.049 A 
ATOM     32  C   UNL A   1      41.680  32.102  37.242  1.00  0.00     0.074 A 
ATOM     33  C   UNL A   1      42.341  28.118  32.254  1.00  0.00     0.029 A 
ATOM     34  N   UNL A   1      41.618  29.703  33.642  1.00  0.00    -0.354 N 
ATOM     35  N   UNL A   1      41.731  31.358  36.160  1.00  0.00    -0.248 NA
ATOM     36  C   UNL A   1      42.700  31.781  38.243  1.00  0.00     0.031 C 
ATOM     37  C   UNL A   1      43.129  28.098  33.411  1.00  0.00     0.029 A 
ATOM     38  C   UNL A   1      42.700  29.109  34.262  1.00  0.00     0.049 A 
ATOM     39  H   UNL A   1      41.090  30.445  34.016  1.00  0.00     0.167 HD
ATOM     40  C   UNL A   1      42.796  30.490  36.344  1.00  0.00     0.074 A 
ATOM     41  C   UNL A   1      43.383  30.828  37.627  1.00  0.00     0.031 C 
ATOM     42  C   UNL A   1      43.246  29.494  35.539  1.00  0.00     0.037 A 
BRANCH  29  43
ATOM     43  C   UNL A   1      40.185  28.815  30.186  1.00  0.00     0.064 A 
ATOM     44  C   UNL A   1      39.512  27.594  30.032  1.00  0.00     0.173 A 
ATOM     45  C   UNL A   1      40.783  29.383  29.051  1.00  0.00     0.173 A 
ATOM     46  F   UNL A   1      38.965  26.984  31.096  1.00  0.00    -0.203 F 
ATOM     47  C   UNL A   1      39.461  26.956  28.795  1.00  0.00     0.198 A 
ATOM     48  C   UNL A   1      40.705  28.756  27.810  1.00  0.00     0.198 A 
ATOM     49  F   UNL A   1      41.460  30.536  29.150  1.00  0.00    -0.203 F 
ATOM     50  F   UNL A   1      38.869  25.757  28.685  1.00  0.00    -0.200 F 
ATOM     51  C   UNL A   1      40.051  27.541  27.685  1.00  0.00     0.200 A 
ATOM     52  F   UNL A   1      41.281  29.322  26.741  1.00  0.00    -0.200 F 
ATOM     53  F   UNL A   1      40.007  26.923  26.497  1.00  0.00    -0.200 F 
ENDBRANCH  29  43
BRANCH  30  54
ATOM     54  C   UNL A   1      40.807  33.955  38.871  1.00  0.00     0.064 A 
ATOM     55  C   UNL A   1      40.075  33.554  39.998  1.00  0.00     0.173 A 
ATOM     56  C   UNL A   1      41.579  35.124  38.991  1.00  0.00     0.173 A 
ATOM     57  F   UNL A   1      39.305  32.457  39.939  1.00  0.00    -0.203 F 
ATOM     58  C   UNL A   1      40.080  34.308  41.171  1.00  0.00     0.198 A 
ATOM     59  C   UNL A   1      41.615  35.854  40.176  1.00  0.00     0.198 A 
ATOM     60  F   UNL A   1      42.300  35.564  37.950  1.00  0.00    -0.203 F 
ATOM     61  F   UNL A   1      39.310  33.940  42.204  1.00  0.00    -0.200 F 
ATOM     62  C   UNL A   1      40.852  35.456  41.260  1.00  0.00     0.200 A 
ATOM     63  F   UNL A   1      42.377  36.954  40.261  1.00  0.00    -0.200 F 
ATOM     64  F   UNL A   1      40.847  36.187  42.384  1.00  0.00    -0.200 F 
ENDBRANCH  30  54
BRANCH  42  65
ATOM     65  C   UNL A   1      44.450  28.744  36.021  1.00  0.00     0.064 A 
ATOM     66  C   UNL A   1      45.752  29.182  35.739  1.00  0.00     0.173 A 
ATOM     67  C   UNL A   1      44.292  27.588  36.799  1.00  0.00     0.173 A 
ATOM     68  F   UNL A   1      45.949  30.274  34.985  1.00  0.00    -0.203 F 
ATOM     69  C   UNL A   1      46.855  28.466  36.188  1.00  0.00     0.198 A 
ATOM     70  C   UNL A   1      45.398  26.898  37.279  1.00  0.00     0.198 A 
ATOM     71  F   UNL A   1      43.065  27.138  37.102  1.00  0.00    -0.203 F 
ATOM     72  F   UNL A   1      48.090  28.864  35.854  1.00  0.00    -0.200 F 
ATOM     73  C   UNL A   1      46.677  27.329  36.964  1.00  0.00     0.200 A 
ATOM     74  F   UNL A   1      45.224  25.812  38.045  1.00  0.00    -0.200 F 
ATOM     75  F   UNL A   1      47.742  26.645  37.402  1.00  0.00    -0.200 F 
ENDBRANCH  42  65
ENDBRANCH  16  17
ENDBRANCH   9  11
ENDBRANCH   8   9
ENDBRANCH   7   8
ENDBRANCH   6   7
ENDBRANCH   5   6
ENDBRANCH   4   5
ENDBRANCH   3   4
ENDBRANCH   2   3
ENDBRANCH   1   2
BRANCH   1  76
ATOM     76  C   UNL A   1      34.155  30.632  27.608  1.00  0.00     0.188 C 
BRANCH  76  77
ATOM     77  O   UNL A   1      33.444  29.483  27.204  1.00  0.00    -0.376 OA
BRANCH  77  78
ATOM     78  C   UNL A   1      33.655  28.941  25.903  1.00  0.00     0.202 C 
BRANCH  78  79
ATOM     79  C   UNL A   1      33.656  27.426  25.605  1.00  0.00     0.261 C 
BRANCH  79  80
ATOM     80  O   UNL A   1      34.025  27.107  24.256  1.00  0.00    -0.463 OA
BRANCH  80  81
ATOM     81  C   UNL A   1      33.597  27.951  23.266  1.00  0.00     0.309 C 
ATOM     82  O   UNL A   1      34.267  28.822  22.755  1.00  0.00    -0.252 OA
BRANCH  81  83
ATOM     83  C   UNL A   1      32.213  27.509  22.768  1.00  0.00     0.111 C 
ATOM     84  C   UNL A   1      31.163  28.539  23.225  1.00  0.00     0.016 C 
ATOM     85  C   UNL A   1      31.898  26.033  23.001  1.00  0.00     0.093 C 
ATOM     86  C   UNL A   1      29.727  28.051  23.132  1.00  0.00     0.001 C 
ATOM     87  C   UNL A   1      30.425  25.655  23.226  1.00  0.00     0.014 C 
ATOM     88  C   UNL A   1      29.584  26.740  23.878  1.00  0.00     0.001 C 
BRANCH  85  89
ATOM     89  C   UNL A   1      32.525  25.162  21.892  1.00  0.00     0.228 C 
ATOM     90  O   UNL A   1      32.464  25.578  20.725  1.00  0.00    -0.274 OA
ATOM     91  N   UNL A   1      33.224  24.000  22.078  1.00  0.00    -0.326 N 
ATOM     92  H   UNL A   1      33.762  23.773  21.285  1.00  0.00     0.169 HD
BRANCH  91  93
ATOM     93  C   UNL A   1      33.381  23.039  23.100  1.00  0.00     0.041 A 
ATOM     94  C   UNL A   1      32.229  22.612  23.767  1.00  0.00     0.026 A 
ATOM     95  C   UNL A   1      34.597  22.528  23.544  1.00  0.00     0.040 A 
ATOM     96  C   UNL A   1      32.303  21.657  24.793  1.00  0.00     0.003 A 
ATOM     97  C   UNL A   1      34.707  21.614  24.610  1.00  0.00     0.041 A 
ATOM     98  C   UNL A   1      33.539  21.160  25.216  1.00  0.00     0.014 A 
BRANCH  97  99
ATOM     99  C   UNL A   1      36.021  21.099  24.977  1.00  0.00     0.248 A 
ATOM    100  N   UNL A   1      36.586  19.965  24.625  1.00  0.00    -0.107 NA
ATOM    101  O   UNL A   1      36.890  21.940  25.637  1.00  0.00    -0.416 OA
ATOM    102  N   UNL A   1      37.904  20.037  25.024  1.00  0.00    -0.107 NA
ATOM    103  C   UNL A   1      38.055  21.200  25.625  1.00  0.00     0.248 A 
BRANCH 103 104
ATOM    104  C   UNL A   1      39.276  21.814  26.137  1.00  0.00     0.039 A 
ATOM    105  C   UNL A   1      40.421  21.022  26.322  1.00  0.00     0.014 A 
ATOM    106  C   UNL A   1      39.341  23.169  26.494  1.00  0.00     0.014 A 
ATOM    107  C   UNL A   1      41.605  21.570  26.829  1.00  0.00     0.001 A 
ATOM    108  C   UNL A   1      40.527  23.718  27.005  1.00  0.00     0.001 A 
ATOM    109  C   UNL A   1      41.657  22.919  27.167  1.00  0.00     0.000 A 
ENDBRANCH 103 104
ENDBRANCH  97  99
ENDBRANCH  91  93
ENDBRANCH  85  89
ENDBRANCH  81  83
ENDBRANCH  80  81
ENDBRANCH  79  80
ENDBRANCH  78  79
ENDBRANCH  77  78
ENDBRANCH  76  77
ENDBRANCH   1  76
TORSDOF 24
ENDMDL
