MODEL 1
REMARK VINA RESULT:      -8.9      0.000      0.000
REMARK SMILES O=C(COc1ccc(N2C[C@@H](C(=O)OCCOCCOCCOCCOC(=O)c3ccc(-c4c5nc(c(-c6c(F)c(F)c(F)c(F)c6F)c6ccc([nH]6)c(-c6c(F)c(F)c(F)c(F)c6F)c6nc(c(-c7c(F)c(F)c(F)c(F)c7F)c7ccc4[nH]7)C=C6)C=C5)cc3)CC2=O)cc1)Nc1ccc(Cl)cc1Cl
REMARK SMILES IDX 18 1 17 2 16 3 15 4 14 5 12 6 13 7 11 8 9 9 10 10 93 11
REMARK SMILES IDX 92 12 94 13 8 14 5 15 6 16 96 17 7 18 95 19 4 20 3 21 2 22
REMARK SMILES IDX 1 23 97 24 98 26 99 27 104 28 100 29 103 30 105 31 101 32
REMARK SMILES IDX 102 33 19 34 20 35 21 36 22 37 23 38 24 39 25 40 26 41 27 42
REMARK SMILES IDX 28 43 29 44 30 45 91 46 31 47 90 48 32 49 33 50 34 51 84 52
REMARK SMILES IDX 35 53 89 54 83 55 85 56 36 57 88 58 82 59 81 60 37 62 69 63
REMARK SMILES IDX 49 64 68 65 50 66 53 67 67 68 86 69 51 70 52 71 66 73 87 74
REMARK SMILES IDX 54 75 38 76 39 77 47 78 40 79 41 80 45 81 48 82 42 83 43 84
REMARK SMILES IDX 46 85 44 86 70 87 71 88 79 89 72 90 73 91 77 92 80 93 74 94
REMARK SMILES IDX 75 95 78 96 76 97 55 98 56 99 64 100 57 101 58 102 62 103
REMARK SMILES IDX 65 104 59 105 60 106 63 107 61 108
REMARK H PARENT 97 25 85 61 53 72
REMARK Flexibility Score: inf
ROOT
ATOM      1  C   UNL A   1      35.083  34.044  32.662  1.00  0.00     0.188 C 
ENDROOT
BRANCH   1   2
ATOM      2  O   UNL A   1      35.304  33.121  33.716  1.00  0.00    -0.376 OA
BRANCH   2   3
ATOM      3  C   UNL A   1      36.584  32.568  33.983  1.00  0.00     0.202 C 
BRANCH   3   4
ATOM      4  C   UNL A   1      37.091  31.278  33.318  1.00  0.00     0.261 C 
BRANCH   4   5
ATOM      5  O   UNL A   1      38.510  31.077  33.357  1.00  0.00    -0.463 OA
BRANCH   5   6
ATOM      6  C   UNL A   1      38.919  29.798  33.467  1.00  0.00     0.311 C 
ATOM      7  O   UNL A   1      38.247  28.820  33.157  1.00  0.00    -0.252 OA
BRANCH   6   8
ATOM      8  C   UNL A   1      40.322  29.649  33.996  1.00  0.00     0.128 C 
ATOM      9  N   UNL A   1      41.665  27.903  34.742  1.00  0.00    -0.312 N 
ATOM     10  C   UNL A   1      40.694  28.210  33.735  1.00  0.00     0.141 C 
ATOM     11  C   UNL A   1      41.636  28.801  35.801  1.00  0.00     0.227 C 
ATOM     12  C   UNL A   1      40.623  29.846  35.482  1.00  0.00     0.117 C 
ATOM     13  O   UNL A   1      42.294  28.789  36.831  1.00  0.00    -0.274 OA
BRANCH   9  14
ATOM     14  C   UNL A   1      42.191  26.615  34.833  1.00  0.00     0.044 A 
ATOM     15  C   UNL A   1      43.088  23.983  34.931  1.00  0.00     0.120 A 
ATOM     16  C   UNL A   1      43.845  24.949  34.269  1.00  0.00     0.048 A 
ATOM     17  C   UNL A   1      41.891  24.347  35.541  1.00  0.00     0.048 A 
ATOM     18  C   UNL A   1      43.380  26.263  34.190  1.00  0.00     0.030 A 
ATOM     19  C   UNL A   1      41.453  25.654  35.510  1.00  0.00     0.030 A 
BRANCH  15  20
ATOM     20  O   UNL A   1      43.619  22.729  35.063  1.00  0.00    -0.484 OA
BRANCH  20  21
ATOM     21  C   UNL A   1      45.013  22.652  34.768  1.00  0.00     0.329 C 
BRANCH  21  22
ATOM     22  C   UNL A   1      45.968  22.543  35.965  1.00  0.00     0.262 C 
ATOM     23  O   UNL A   1      46.842  23.386  36.146  1.00  0.00    -0.271 OA
ATOM     24  N   UNL A   1      45.812  21.356  36.679  1.00  0.00    -0.322 N 
ATOM     25  H   UNL A   1      45.030  20.794  36.476  1.00  0.00     0.170 HD
BRANCH  24  26
ATOM     26  C   UNL A   1      46.713  20.912  37.679  1.00  0.00     0.060 A 
ATOM     27  C   UNL A   1      47.612  19.901  37.296  1.00  0.00     0.029 A 
ATOM     28  C   UNL A   1      46.793  21.427  38.985  1.00  0.00     0.066 A 
ATOM     29  C   UNL A   1      48.622  19.476  38.165  1.00  0.00     0.023 A 
ATOM     30  C   UNL A   1      47.811  21.006  39.848  1.00  0.00     0.043 A 
ATOM     31  Cl  UNL A   1      45.568  22.434  39.681  1.00  0.00    -0.082 Cl
ATOM     32  C   UNL A   1      48.726  20.044  39.432  1.00  0.00     0.042 A 
ATOM     33  Cl  UNL A   1      49.973  19.530  40.500  1.00  0.00    -0.084 Cl
ENDBRANCH  24  26
ENDBRANCH  21  22
ENDBRANCH  20  21
ENDBRANCH  15  20
ENDBRANCH   9  14
ENDBRANCH   6   8
ENDBRANCH   5   6
ENDBRANCH   4   5
ENDBRANCH   3   4
ENDBRANCH   2   3
ENDBRANCH   1   2
BRANCH   1  34
ATOM     34  C   UNL A   1      36.226  34.505  31.748  1.00  0.00     0.188 C 
BRANCH  34  35
ATOM     35  O   UNL A   1      36.698  33.541  30.831  1.00  0.00    -0.377 OA
BRANCH  35  36
ATOM     36  C   UNL A   1      37.096  34.020  29.553  1.00  0.00     0.188 C 
BRANCH  36  37
ATOM     37  C   UNL A   1      36.771  33.151  28.320  1.00  0.00     0.188 C 
BRANCH  37  38
ATOM     38  O   UNL A   1      35.561  33.493  27.662  1.00  0.00    -0.376 OA
BRANCH  38  39
ATOM     39  C   UNL A   1      34.318  33.175  28.273  1.00  0.00     0.202 C 
BRANCH  39  40
ATOM     40  C   UNL A   1      33.584  31.894  27.838  1.00  0.00     0.261 C 
BRANCH  40  41
ATOM     41  O   UNL A   1      34.342  30.936  27.082  1.00  0.00    -0.460 OA
BRANCH  41  42
ATOM     42  C   UNL A   1      34.528  29.710  27.606  1.00  0.00     0.338 C 
ATOM     43  O   UNL A   1      33.753  28.768  27.572  1.00  0.00    -0.246 OA
BRANCH  42  44
ATOM     44  C   UNL A   1      35.933  29.621  28.056  1.00  0.00     0.060 A 
ATOM     45  C   UNL A   1      36.958  29.790  27.116  1.00  0.00     0.016 A 
ATOM     46  C   UNL A   1      36.239  29.380  29.398  1.00  0.00     0.016 A 
ATOM     47  C   UNL A   1      38.293  29.681  27.506  1.00  0.00     0.010 A 
ATOM     48  C   UNL A   1      37.576  29.244  29.782  1.00  0.00     0.010 A 
ATOM     49  C   UNL A   1      38.607  29.358  28.832  1.00  0.00    -0.014 A 
BRANCH  49  50
ATOM     50  C   UNL A   1      39.986  28.938  29.179  1.00  0.00     0.031 A 
ATOM     51  C   UNL A   1      40.833  29.881  29.991  1.00  0.00     0.074 A 
ATOM     52  C   UNL A   1      40.473  27.743  28.807  1.00  0.00     0.049 A 
ATOM     53  N   UNL A   1      42.083  29.773  30.360  1.00  0.00    -0.248 NA
ATOM     54  C   UNL A   1      40.176  31.118  30.443  1.00  0.00     0.031 C 
ATOM     55  C   UNL A   1      39.735  26.723  28.066  1.00  0.00     0.029 A 
ATOM     56  N   UNL A   1      41.717  27.192  28.994  1.00  0.00    -0.354 N 
ATOM     57  C   UNL A   1      42.363  30.928  31.077  1.00  0.00     0.074 A 
ATOM     58  C   UNL A   1      41.165  31.738  31.066  1.00  0.00     0.031 C 
ATOM     59  C   UNL A   1      40.548  25.674  27.845  1.00  0.00     0.029 A 
ATOM     60  C   UNL A   1      41.872  25.966  28.394  1.00  0.00     0.049 A 
ATOM     61  H   UNL A   1      42.430  27.634  29.509  1.00  0.00     0.167 HD
ATOM     62  C   UNL A   1      43.516  31.278  31.696  1.00  0.00     0.037 A 
ATOM     63  C   UNL A   1      42.967  25.189  28.278  1.00  0.00     0.037 A 
ATOM     64  C   UNL A   1      44.708  30.471  31.699  1.00  0.00     0.049 A 
ATOM     65  C   UNL A   1      44.266  25.644  28.897  1.00  0.00     0.074 A 
ATOM     66  C   UNL A   1      45.922  30.730  32.309  1.00  0.00     0.029 A 
ATOM     67  N   UNL A   1      44.837  29.253  31.050  1.00  0.00    -0.354 N 
ATOM     68  N   UNL A   1      44.520  26.725  29.595  1.00  0.00    -0.248 NA
ATOM     69  C   UNL A   1      45.432  24.767  28.712  1.00  0.00     0.031 C 
ATOM     70  C   UNL A   1      46.806  29.700  31.974  1.00  0.00     0.029 A 
ATOM     71  C   UNL A   1      46.122  28.763  31.215  1.00  0.00     0.049 A 
ATOM     72  H   UNL A   1      44.122  28.803  30.544  1.00  0.00     0.167 HD
ATOM     73  C   UNL A   1      45.859  26.641  29.960  1.00  0.00     0.074 A 
ATOM     74  C   UNL A   1      46.361  25.397  29.417  1.00  0.00     0.031 C 
ATOM     75  C   UNL A   1      46.606  27.516  30.678  1.00  0.00     0.037 A 
BRANCH  62  76
ATOM     76  C   UNL A   1      43.555  32.611  32.389  1.00  0.00     0.064 A 
ATOM     77  C   UNL A   1      43.775  33.806  31.688  1.00  0.00     0.173 A 
ATOM     78  C   UNL A   1      43.340  32.694  33.773  1.00  0.00     0.173 A 
ATOM     79  F   UNL A   1      44.002  33.781  30.365  1.00  0.00    -0.203 F 
ATOM     80  C   UNL A   1      43.806  35.031  32.350  1.00  0.00     0.198 A 
ATOM     81  C   UNL A   1      43.337  33.923  34.426  1.00  0.00     0.198 A 
ATOM     82  F   UNL A   1      43.123  31.582  34.493  1.00  0.00    -0.203 F 
ATOM     83  F   UNL A   1      44.071  36.152  31.667  1.00  0.00    -0.200 F 
ATOM     84  C   UNL A   1      43.579  35.089  33.717  1.00  0.00     0.200 A 
ATOM     85  F   UNL A   1      43.103  33.979  35.744  1.00  0.00    -0.200 F 
ATOM     86  F   UNL A   1      43.600  36.269  34.351  1.00  0.00    -0.200 F 
ENDBRANCH  62  76
BRANCH  63  87
ATOM     87  C   UNL A   1      42.895  23.907  27.526  1.00  0.00     0.064 A 
ATOM     88  C   UNL A   1      43.182  23.855  26.154  1.00  0.00     0.173 A 
ATOM     89  C   UNL A   1      42.506  22.715  28.154  1.00  0.00     0.173 A 
ATOM     90  F   UNL A   1      43.532  24.973  25.500  1.00  0.00    -0.203 F 
ATOM     91  C   UNL A   1      43.063  22.666  25.437  1.00  0.00     0.198 A 
ATOM     92  C   UNL A   1      42.419  21.520  27.443  1.00  0.00     0.198 A 
ATOM     93  F   UNL A   1      42.216  22.709  29.463  1.00  0.00    -0.203 F 
ATOM     94  F   UNL A   1      43.290  22.657  24.116  1.00  0.00    -0.200 F 
ATOM     95  C   UNL A   1      42.688  21.498  26.083  1.00  0.00     0.200 A 
ATOM     96  F   UNL A   1      42.069  20.391  28.075  1.00  0.00    -0.200 F 
ATOM     97  F   UNL A   1      42.575  20.355  25.393  1.00  0.00    -0.200 F 
ENDBRANCH  63  87
BRANCH  75  98
ATOM     98  C   UNL A   1      48.034  27.142  30.965  1.00  0.00     0.064 A 
ATOM     99  C   UNL A   1      48.386  26.337  32.058  1.00  0.00     0.173 A 
ATOM    100  C   UNL A   1      49.061  27.555  30.099  1.00  0.00     0.173 A 
ATOM    101  F   UNL A   1      47.446  25.925  32.922  1.00  0.00    -0.203 F 
ATOM    102  C   UNL A   1      49.713  25.984  32.290  1.00  0.00     0.198 A 
ATOM    103  C   UNL A   1      50.381  27.170  30.314  1.00  0.00     0.198 A 
ATOM    104  F   UNL A   1      48.780  28.318  29.032  1.00  0.00    -0.203 F 
ATOM    105  F   UNL A   1      50.031  25.257  33.371  1.00  0.00    -0.200 F 
ATOM    106  C   UNL A   1      50.707  26.392  31.414  1.00  0.00     0.200 A 
ATOM    107  F   UNL A   1      51.337  27.549  29.455  1.00  0.00    -0.200 F 
ATOM    108  F   UNL A   1      51.982  26.040  31.634  1.00  0.00    -0.200 F 
ENDBRANCH  75  98
ENDBRANCH  49  50
ENDBRANCH  42  44
ENDBRANCH  41  42
ENDBRANCH  40  41
ENDBRANCH  39  40
ENDBRANCH  38  39
ENDBRANCH  37  38
ENDBRANCH  36  37
ENDBRANCH  35  36
ENDBRANCH  34  35
ENDBRANCH   1  34
TORSDOF 25
ENDMDL
MODEL 2
REMARK VINA RESULT:      -8.6      1.051      2.152
REMARK SMILES O=C(COc1ccc(N2C[C@@H](C(=O)OCCOCCOCCOCCOC(=O)c3ccc(-c4c5nc(c(-c6c(F)c(F)c(F)c(F)c6F)c6ccc([nH]6)c(-c6c(F)c(F)c(F)c(F)c6F)c6nc(c(-c7c(F)c(F)c(F)c(F)c7F)c7ccc4[nH]7)C=C6)C=C5)cc3)CC2=O)cc1)Nc1ccc(Cl)cc1Cl
REMARK SMILES IDX 18 1 17 2 16 3 15 4 14 5 12 6 13 7 11 8 9 9 10 10 93 11
REMARK SMILES IDX 92 12 94 13 8 14 5 15 6 16 96 17 7 18 95 19 4 20 3 21 2 22
REMARK SMILES IDX 1 23 97 24 98 26 99 27 104 28 100 29 103 30 105 31 101 32
REMARK SMILES IDX 102 33 19 34 20 35 21 36 22 37 23 38 24 39 25 40 26 41 27 42
REMARK SMILES IDX 28 43 29 44 30 45 91 46 31 47 90 48 32 49 33 50 34 51 84 52
REMARK SMILES IDX 35 53 89 54 83 55 85 56 36 57 88 58 82 59 81 60 37 62 69 63
REMARK SMILES IDX 49 64 68 65 50 66 53 67 67 68 86 69 51 70 52 71 66 73 87 74
REMARK SMILES IDX 54 75 38 76 39 77 47 78 40 79 41 80 45 81 48 82 42 83 43 84
REMARK SMILES IDX 46 85 44 86 70 87 71 88 79 89 72 90 73 91 77 92 80 93 74 94
REMARK SMILES IDX 75 95 78 96 76 97 55 98 56 99 64 100 57 101 58 102 62 103
REMARK SMILES IDX 65 104 59 105 60 106 63 107 61 108
REMARK H PARENT 97 25 85 61 53 72
REMARK Flexibility Score: inf
ROOT
ATOM      1  C   UNL A   1      34.428  33.657  32.366  1.00  0.00     0.188 C 
ENDROOT
BRANCH   1   2
ATOM      2  O   UNL A   1      34.993  32.810  33.354  1.00  0.00    -0.376 OA
BRANCH   2   3
ATOM      3  C   UNL A   1      36.384  32.532  33.406  1.00  0.00     0.202 C 
BRANCH   3   4
ATOM      4  C   UNL A   1      36.966  31.131  33.155  1.00  0.00     0.261 C 
BRANCH   4   5
ATOM      5  O   UNL A   1      38.383  31.008  33.330  1.00  0.00    -0.463 OA
BRANCH   5   6
ATOM      6  C   UNL A   1      38.845  29.755  33.512  1.00  0.00     0.311 C 
ATOM      7  O   UNL A   1      38.203  28.734  33.290  1.00  0.00    -0.252 OA
BRANCH   6   8
ATOM      8  C   UNL A   1      40.269  29.695  34.002  1.00  0.00     0.128 C 
ATOM      9  N   UNL A   1      41.760  28.030  34.643  1.00  0.00    -0.312 N 
ATOM     10  C   UNL A   1      40.743  28.301  33.672  1.00  0.00     0.141 C 
ATOM     11  C   UNL A   1      41.691  28.880  35.739  1.00  0.00     0.227 C 
ATOM     12  C   UNL A   1      40.592  29.855  35.487  1.00  0.00     0.117 C 
ATOM     13  O   UNL A   1      42.374  28.878  36.752  1.00  0.00    -0.274 OA
BRANCH   9  14
ATOM     14  C   UNL A   1      42.386  26.784  34.668  1.00  0.00     0.044 A 
ATOM     15  C   UNL A   1      43.484  24.228  34.635  1.00  0.00     0.120 A 
ATOM     16  C   UNL A   1      44.148  25.275  33.997  1.00  0.00     0.048 A 
ATOM     17  C   UNL A   1      42.279  24.473  35.287  1.00  0.00     0.048 A 
ATOM     18  C   UNL A   1      43.581  26.551  33.984  1.00  0.00     0.030 A 
ATOM     19  C   UNL A   1      41.742  25.743  35.321  1.00  0.00     0.030 A 
BRANCH  15  20
ATOM     20  O   UNL A   1      44.113  23.014  34.703  1.00  0.00    -0.484 OA
BRANCH  20  21
ATOM     21  C   UNL A   1      45.062  22.907  35.764  1.00  0.00     0.329 C 
BRANCH  21  22
ATOM     22  C   UNL A   1      46.224  21.927  35.557  1.00  0.00     0.262 C 
ATOM     23  O   UNL A   1      46.082  20.929  34.855  1.00  0.00    -0.271 OA
ATOM     24  N   UNL A   1      47.336  22.228  36.341  1.00  0.00    -0.322 N 
ATOM     25  H   UNL A   1      47.352  23.094  36.809  1.00  0.00     0.170 HD
BRANCH  24  26
ATOM     26  C   UNL A   1      48.444  21.360  36.505  1.00  0.00     0.060 A 
ATOM     27  C   UNL A   1      48.536  20.701  37.744  1.00  0.00     0.029 A 
ATOM     28  C   UNL A   1      49.416  21.089  35.524  1.00  0.00     0.066 A 
ATOM     29  C   UNL A   1      49.520  19.732  37.967  1.00  0.00     0.023 A 
ATOM     30  C   UNL A   1      50.392  20.112  35.748  1.00  0.00     0.043 A 
ATOM     31  Cl  UNL A   1      49.604  22.045  34.092  1.00  0.00    -0.082 Cl
ATOM     32  C   UNL A   1      50.432  19.431  36.961  1.00  0.00     0.042 A 
ATOM     33  Cl  UNL A   1      51.638  18.233  37.229  1.00  0.00    -0.084 Cl
ENDBRANCH  24  26
ENDBRANCH  21  22
ENDBRANCH  20  21
ENDBRANCH  15  20
ENDBRANCH   9  14
ENDBRANCH   6   8
ENDBRANCH   5   6
ENDBRANCH   4   5
ENDBRANCH   3   4
ENDBRANCH   2   3
ENDBRANCH   1   2
BRANCH   1  34
ATOM     34  C   UNL A   1      35.303  34.569  31.497  1.00  0.00     0.188 C 
BRANCH  34  35
ATOM     35  O   UNL A   1      36.611  34.103  31.250  1.00  0.00    -0.377 OA
BRANCH  35  36
ATOM     36  C   UNL A   1      37.042  34.103  29.895  1.00  0.00     0.188 C 
BRANCH  36  37
ATOM     37  C   UNL A   1      36.373  33.111  28.921  1.00  0.00     0.188 C 
BRANCH  37  38
ATOM     38  O   UNL A   1      35.241  33.630  28.239  1.00  0.00    -0.376 OA
BRANCH  38  39
ATOM     39  C   UNL A   1      33.963  33.050  28.462  1.00  0.00     0.202 C 
BRANCH  39  40
ATOM     40  C   UNL A   1      33.510  31.885  27.564  1.00  0.00     0.261 C 
BRANCH  40  41
ATOM     41  O   UNL A   1      34.528  30.974  27.121  1.00  0.00    -0.460 OA
BRANCH  41  42
ATOM     42  C   UNL A   1      34.644  29.789  27.750  1.00  0.00     0.338 C 
ATOM     43  O   UNL A   1      33.810  28.899  27.806  1.00  0.00    -0.246 OA
BRANCH  42  44
ATOM     44  C   UNL A   1      36.047  29.649  28.193  1.00  0.00     0.060 A 
ATOM     45  C   UNL A   1      37.075  29.865  27.265  1.00  0.00     0.016 A 
ATOM     46  C   UNL A   1      36.348  29.314  29.515  1.00  0.00     0.016 A 
ATOM     47  C   UNL A   1      38.408  29.710  27.647  1.00  0.00     0.010 A 
ATOM     48  C   UNL A   1      37.683  29.132  29.889  1.00  0.00     0.010 A 
ATOM     49  C   UNL A   1      38.716  29.294  28.949  1.00  0.00    -0.014 A 
BRANCH  49  50
ATOM     50  C   UNL A   1      40.088  28.831  29.266  1.00  0.00     0.031 A 
ATOM     51  C   UNL A   1      40.970  29.733  30.086  1.00  0.00     0.074 A 
ATOM     52  C   UNL A   1      40.539  27.633  28.861  1.00  0.00     0.049 A 
ATOM     53  N   UNL A   1      42.222  29.585  30.435  1.00  0.00    -0.248 NA
ATOM     54  C   UNL A   1      40.352  30.976  30.575  1.00  0.00     0.031 C 
ATOM     55  C   UNL A   1      39.765  26.648  28.108  1.00  0.00     0.029 A 
ATOM     56  N   UNL A   1      41.770  27.046  29.018  1.00  0.00    -0.354 N 
ATOM     57  C   UNL A   1      42.543  30.717  31.173  1.00  0.00     0.074 A 
ATOM     58  C   UNL A   1      41.366  31.557  31.197  1.00  0.00     0.031 C 
ATOM     59  C   UNL A   1      40.546  25.584  27.853  1.00  0.00     0.029 A 
ATOM     60  C   UNL A   1      41.885  25.830  28.389  1.00  0.00     0.049 A 
ATOM     61  H   UNL A   1      42.502  27.458  29.532  1.00  0.00     0.167 HD
ATOM     62  C   UNL A   1      43.712  31.023  31.783  1.00  0.00     0.037 A 
ATOM     63  C   UNL A   1      42.958  25.028  28.240  1.00  0.00     0.037 A 
ATOM     64  C   UNL A   1      44.882  30.186  31.751  1.00  0.00     0.049 A 
ATOM     65  C   UNL A   1      44.277  25.436  28.851  1.00  0.00     0.074 A 
ATOM     66  C   UNL A   1      46.111  30.399  32.349  1.00  0.00     0.029 A 
ATOM     67  N   UNL A   1      44.971  28.979  31.073  1.00  0.00    -0.354 N 
ATOM     68  N   UNL A   1      44.568  26.494  29.568  1.00  0.00    -0.248 NA
ATOM     69  C   UNL A   1      45.417  24.534  28.629  1.00  0.00     0.031 C 
ATOM     70  C   UNL A   1      46.964  29.355  31.979  1.00  0.00     0.029 A 
ATOM     71  C   UNL A   1      46.245  28.453  31.210  1.00  0.00     0.049 A 
ATOM     72  H   UNL A   1      44.237  28.559  30.569  1.00  0.00     0.167 HD
ATOM     73  C   UNL A   1      45.910  26.367  29.912  1.00  0.00     0.074 A 
ATOM     74  C   UNL A   1      46.372  25.123  29.334  1.00  0.00     0.031 C 
ATOM     75  C   UNL A   1      46.689  27.206  30.638  1.00  0.00     0.037 A 
BRANCH  62  76
ATOM     76  C   UNL A   1      43.796  32.338  32.504  1.00  0.00     0.064 A 
ATOM     77  C   UNL A   1      43.617  32.435  33.893  1.00  0.00     0.173 A 
ATOM     78  C   UNL A   1      44.087  33.515  31.798  1.00  0.00     0.173 A 
ATOM     79  F   UNL A   1      43.321  31.343  34.614  1.00  0.00    -0.203 F 
ATOM     80  C   UNL A   1      43.700  33.664  34.542  1.00  0.00     0.198 A 
ATOM     81  C   UNL A   1      44.204  34.736  32.455  1.00  0.00     0.198 A 
ATOM     82  F   UNL A   1      44.269  33.480  30.469  1.00  0.00    -0.203 F 
ATOM     83  F   UNL A   1      43.473  33.739  35.861  1.00  0.00    -0.200 F 
ATOM     84  C   UNL A   1      44.001  34.813  33.824  1.00  0.00     0.200 A 
ATOM     85  F   UNL A   1      44.509  35.842  31.762  1.00  0.00    -0.200 F 
ATOM     86  F   UNL A   1      44.089  35.993  34.452  1.00  0.00    -0.200 F 
ENDBRANCH  62  76
BRANCH  63  87
ATOM     87  C   UNL A   1      42.843  23.766  27.460  1.00  0.00     0.064 A 
ATOM     88  C   UNL A   1      42.429  22.573  28.070  1.00  0.00     0.173 A 
ATOM     89  C   UNL A   1      43.176  23.718  26.098  1.00  0.00     0.173 A 
ATOM     90  F   UNL A   1      42.126  22.559  29.376  1.00  0.00    -0.203 F 
ATOM     91  C   UNL A   1      42.372  21.379  27.354  1.00  0.00     0.198 A 
ATOM     92  C   UNL A   1      43.087  22.531  25.375  1.00  0.00     0.198 A 
ATOM     93  F   UNL A   1      43.582  24.829  25.467  1.00  0.00    -0.203 F 
ATOM     94  F   UNL A   1      42.026  20.243  27.975  1.00  0.00    -0.200 F 
ATOM     95  C   UNL A   1      42.695  21.360  26.006  1.00  0.00     0.200 A 
ATOM     96  F   UNL A   1      43.388  22.520  24.069  1.00  0.00    -0.200 F 
ATOM     97  F   UNL A   1      42.639  20.211  25.317  1.00  0.00    -0.200 F 
ENDBRANCH  63  87
BRANCH  75  98
ATOM     98  C   UNL A   1      48.111  26.789  30.896  1.00  0.00     0.064 A 
ATOM     99  C   UNL A   1      49.156  27.139  30.030  1.00  0.00     0.173 A 
ATOM    100  C   UNL A   1      48.437  26.069  32.058  1.00  0.00     0.173 A 
ATOM    101  F   UNL A   1      48.898  27.817  28.901  1.00  0.00    -0.203 F 
ATOM    102  C   UNL A   1      50.469  26.762  30.301  1.00  0.00     0.198 A 
ATOM    103  C   UNL A   1      49.755  25.724  32.343  1.00  0.00     0.198 A 
ATOM    104  F   UNL A   1      47.478  25.716  32.926  1.00  0.00    -0.203 F 
ATOM    105  F   UNL A   1      51.444  27.063  29.431  1.00  0.00    -0.200 F 
ATOM    106  C   UNL A   1      50.769  26.063  31.460  1.00  0.00     0.200 A 
ATOM    107  F   UNL A   1      50.044  25.066  33.474  1.00  0.00    -0.200 F 
ATOM    108  F   UNL A   1      52.035  25.711  31.724  1.00  0.00    -0.200 F 
ENDBRANCH  75  98
ENDBRANCH  49  50
ENDBRANCH  42  44
ENDBRANCH  41  42
ENDBRANCH  40  41
ENDBRANCH  39  40
ENDBRANCH  38  39
ENDBRANCH  37  38
ENDBRANCH  36  37
ENDBRANCH  35  36
ENDBRANCH  34  35
ENDBRANCH   1  34
TORSDOF 25
ENDMDL
MODEL 3
REMARK VINA RESULT:      -8.1      1.922      2.830
REMARK SMILES O=C(COc1ccc(N2C[C@@H](C(=O)OCCOCCOCCOCCOC(=O)c3ccc(-c4c5nc(c(-c6c(F)c(F)c(F)c(F)c6F)c6ccc([nH]6)c(-c6c(F)c(F)c(F)c(F)c6F)c6nc(c(-c7c(F)c(F)c(F)c(F)c7F)c7ccc4[nH]7)C=C6)C=C5)cc3)CC2=O)cc1)Nc1ccc(Cl)cc1Cl
REMARK SMILES IDX 18 1 17 2 16 3 15 4 14 5 12 6 13 7 11 8 9 9 10 10 93 11
REMARK SMILES IDX 92 12 94 13 8 14 5 15 6 16 96 17 7 18 95 19 4 20 3 21 2 22
REMARK SMILES IDX 1 23 97 24 98 26 99 27 104 28 100 29 103 30 105 31 101 32
REMARK SMILES IDX 102 33 19 34 20 35 21 36 22 37 23 38 24 39 25 40 26 41 27 42
REMARK SMILES IDX 28 43 29 44 30 45 91 46 31 47 90 48 32 49 33 50 34 51 84 52
REMARK SMILES IDX 35 53 89 54 83 55 85 56 36 57 88 58 82 59 81 60 37 62 69 63
REMARK SMILES IDX 49 64 68 65 50 66 53 67 67 68 86 69 51 70 52 71 66 73 87 74
REMARK SMILES IDX 54 75 38 76 39 77 47 78 40 79 41 80 45 81 48 82 42 83 43 84
REMARK SMILES IDX 46 85 44 86 70 87 71 88 79 89 72 90 73 91 77 92 80 93 74 94
REMARK SMILES IDX 75 95 78 96 76 97 55 98 56 99 64 100 57 101 58 102 62 103
REMARK SMILES IDX 65 104 59 105 60 106 63 107 61 108
REMARK H PARENT 97 25 85 61 53 72
REMARK Flexibility Score: inf
ROOT
ATOM      1  C   UNL A   1      34.047  36.077  32.154  1.00  0.00     0.188 C 
ENDROOT
BRANCH   1   2
ATOM      2  O   UNL A   1      34.709  34.823  32.111  1.00  0.00    -0.376 OA
BRANCH   2   3
ATOM      3  C   UNL A   1      34.293  33.720  32.902  1.00  0.00     0.202 C 
BRANCH   3   4
ATOM      4  C   UNL A   1      35.201  33.056  33.952  1.00  0.00     0.261 C 
BRANCH   4   5
ATOM      5  O   UNL A   1      36.610  33.198  33.731  1.00  0.00    -0.463 OA
BRANCH   5   6
ATOM      6  C   UNL A   1      37.408  32.667  34.678  1.00  0.00     0.311 C 
ATOM      7  O   UNL A   1      37.035  32.324  35.795  1.00  0.00    -0.252 OA
BRANCH   6   8
ATOM      8  C   UNL A   1      38.840  32.494  34.242  1.00  0.00     0.128 C 
ATOM      9  N   UNL A   1      40.496  30.882  34.499  1.00  0.00    -0.312 N 
ATOM     10  C   UNL A   1      39.087  31.006  34.274  1.00  0.00     0.141 C 
ATOM     11  C   UNL A   1      41.060  32.048  35.002  1.00  0.00     0.227 C 
ATOM     12  C   UNL A   1      39.985  33.078  35.069  1.00  0.00     0.117 C 
ATOM     13  O   UNL A   1      42.215  32.252  35.345  1.00  0.00    -0.274 OA
BRANCH   9  14
ATOM     14  C   UNL A   1      41.071  29.620  34.643  1.00  0.00     0.044 A 
ATOM     15  C   UNL A   1      42.376  27.172  34.862  1.00  0.00     0.120 A 
ATOM     16  C   UNL A   1      41.814  27.761  35.994  1.00  0.00     0.048 A 
ATOM     17  C   UNL A   1      42.275  27.813  33.631  1.00  0.00     0.048 A 
ATOM     18  C   UNL A   1      41.188  29.006  35.891  1.00  0.00     0.030 A 
ATOM     19  C   UNL A   1      41.612  29.017  33.515  1.00  0.00     0.030 A 
BRANCH  15  20
ATOM     20  O   UNL A   1      42.901  25.914  34.986  1.00  0.00    -0.484 OA
BRANCH  20  21
ATOM     21  C   UNL A   1      43.316  25.584  36.311  1.00  0.00     0.329 C 
BRANCH  21  22
ATOM     22  C   UNL A   1      44.502  24.620  36.445  1.00  0.00     0.262 C 
ATOM     23  O   UNL A   1      45.303  24.739  37.367  1.00  0.00    -0.271 OA
ATOM     24  N   UNL A   1      44.618  23.747  35.364  1.00  0.00    -0.322 N 
ATOM     25  H   UNL A   1      43.873  23.703  34.722  1.00  0.00     0.170 HD
BRANCH  24  26
ATOM     26  C   UNL A   1      45.746  22.920  35.136  1.00  0.00     0.060 A 
ATOM     27  C   UNL A   1      45.487  21.544  35.003  1.00  0.00     0.029 A 
ATOM     28  C   UNL A   1      47.071  23.372  35.001  1.00  0.00     0.066 A 
ATOM     29  C   UNL A   1      46.509  20.654  34.657  1.00  0.00     0.023 A 
ATOM     30  C   UNL A   1      48.089  22.481  34.644  1.00  0.00     0.043 A 
ATOM     31  Cl  UNL A   1      47.574  24.969  35.443  1.00  0.00    -0.082 Cl
ATOM     32  C   UNL A   1      47.802  21.131  34.462  1.00  0.00     0.042 A 
ATOM     33  Cl  UNL A   1      49.060  20.041  34.027  1.00  0.00    -0.084 Cl
ENDBRANCH  24  26
ENDBRANCH  21  22
ENDBRANCH  20  21
ENDBRANCH  15  20
ENDBRANCH   9  14
ENDBRANCH   6   8
ENDBRANCH   5   6
ENDBRANCH   4   5
ENDBRANCH   3   4
ENDBRANCH   2   3
ENDBRANCH   1   2
BRANCH   1  34
ATOM     34  C   UNL A   1      32.595  36.232  31.684  1.00  0.00     0.188 C 
BRANCH  34  35
ATOM     35  O   UNL A   1      32.406  37.056  30.554  1.00  0.00    -0.377 OA
BRANCH  35  36
ATOM     36  C   UNL A   1      33.328  36.892  29.485  1.00  0.00     0.188 C 
BRANCH  36  37
ATOM     37  C   UNL A   1      33.194  35.637  28.597  1.00  0.00     0.188 C 
BRANCH  37  38
ATOM     38  O   UNL A   1      34.349  34.813  28.565  1.00  0.00    -0.376 OA
BRANCH  38  39
ATOM     39  C   UNL A   1      34.287  33.499  29.102  1.00  0.00     0.202 C 
BRANCH  39  40
ATOM     40  C   UNL A   1      34.917  32.341  28.307  1.00  0.00     0.261 C 
BRANCH  40  41
ATOM     41  O   UNL A   1      34.672  31.012  28.792  1.00  0.00    -0.460 OA
BRANCH  41  42
ATOM     42  C   UNL A   1      35.144  29.973  28.077  1.00  0.00     0.338 C 
ATOM     43  O   UNL A   1      34.575  29.379  27.175  1.00  0.00    -0.246 OA
BRANCH  42  44
ATOM     44  C   UNL A   1      36.570  29.797  28.425  1.00  0.00     0.060 A 
ATOM     45  C   UNL A   1      37.539  30.005  27.435  1.00  0.00     0.016 A 
ATOM     46  C   UNL A   1      36.950  29.438  29.720  1.00  0.00     0.016 A 
ATOM     47  C   UNL A   1      38.891  29.816  27.726  1.00  0.00     0.010 A 
ATOM     48  C   UNL A   1      38.302  29.223  30.004  1.00  0.00     0.010 A 
ATOM     49  C   UNL A   1      39.274  29.377  28.999  1.00  0.00    -0.014 A 
BRANCH  49  50
ATOM     50  C   UNL A   1      40.654  28.880  29.220  1.00  0.00     0.031 A 
ATOM     51  C   UNL A   1      41.633  29.789  29.913  1.00  0.00     0.074 A 
ATOM     52  C   UNL A   1      41.029  27.648  28.839  1.00  0.00     0.049 A 
ATOM     53  N   UNL A   1      42.905  29.612  30.159  1.00  0.00    -0.248 NA
ATOM     54  C   UNL A   1      41.100  31.075  30.389  1.00  0.00     0.031 C 
ATOM     55  C   UNL A   1      40.160  26.657  28.208  1.00  0.00     0.029 A 
ATOM     56  N   UNL A   1      42.250  27.026  28.918  1.00  0.00    -0.354 N 
ATOM     57  C   UNL A   1      43.326  30.766  30.807  1.00  0.00     0.074 A 
ATOM     58  C   UNL A   1      42.182  31.649  30.890  1.00  0.00     0.031 C 
ATOM     59  C   UNL A   1      40.882  25.554  27.941  1.00  0.00     0.029 A 
ATOM     60  C   UNL A   1      42.270  25.778  28.345  1.00  0.00     0.049 A 
ATOM     61  H   UNL A   1      43.037  27.436  29.345  1.00  0.00     0.167 HD
ATOM     62  C   UNL A   1      44.554  31.060  31.296  1.00  0.00     0.037 A 
ATOM     63  C   UNL A   1      43.300  24.931  28.145  1.00  0.00     0.037 A 
ATOM     64  C   UNL A   1      45.689  30.180  31.206  1.00  0.00     0.049 A 
ATOM     65  C   UNL A   1      44.680  25.320  28.617  1.00  0.00     0.074 A 
ATOM     66  C   UNL A   1      46.973  30.378  31.683  1.00  0.00     0.029 A 
ATOM     67  N   UNL A   1      45.679  28.940  30.586  1.00  0.00    -0.354 N 
ATOM     68  N   UNL A   1      45.067  26.400  29.252  1.00  0.00    -0.248 NA
ATOM     69  C   UNL A   1      45.766  24.368  28.344  1.00  0.00     0.031 C 
ATOM     70  C   UNL A   1      47.756  29.287  31.295  1.00  0.00     0.029 A 
ATOM     71  C   UNL A   1      46.943  28.376  30.639  1.00  0.00     0.049 A 
ATOM     72  H   UNL A   1      44.891  28.522  30.170  1.00  0.00     0.167 HD
ATOM     73  C   UNL A   1      46.429  26.243  29.483  1.00  0.00     0.074 A 
ATOM     74  C   UNL A   1      46.798  24.956  28.933  1.00  0.00     0.031 C 
ATOM     75  C   UNL A   1      47.295  27.087  30.096  1.00  0.00     0.037 A 
BRANCH  62  76
ATOM     76  C   UNL A   1      44.742  32.404  31.940  1.00  0.00     0.064 A 
ATOM     77  C   UNL A   1      44.842  32.554  33.331  1.00  0.00     0.173 A 
ATOM     78  C   UNL A   1      44.853  33.557  31.148  1.00  0.00     0.173 A 
ATOM     79  F   UNL A   1      44.727  31.485  34.135  1.00  0.00    -0.203 F 
ATOM     80  C   UNL A   1      45.018  33.810  33.907  1.00  0.00     0.198 A 
ATOM     81  C   UNL A   1      45.064  34.806  31.724  1.00  0.00     0.198 A 
ATOM     82  F   UNL A   1      44.766  33.472  29.811  1.00  0.00    -0.203 F 
ATOM     83  F   UNL A   1      45.057  33.933  35.240  1.00  0.00    -0.200 F 
ATOM     84  C   UNL A   1      45.136  34.934  33.103  1.00  0.00     0.200 A 
ATOM     85  F   UNL A   1      45.193  35.889  30.945  1.00  0.00    -0.200 F 
ATOM     86  F   UNL A   1      45.314  36.140  33.657  1.00  0.00    -0.200 F 
ENDBRANCH  62  76
BRANCH  63  87
ATOM     87  C   UNL A   1      43.076  23.637  27.445  1.00  0.00     0.064 A 
ATOM     88  C   UNL A   1      43.439  23.469  26.101  1.00  0.00     0.173 A 
ATOM     89  C   UNL A   1      42.465  22.554  28.094  1.00  0.00     0.173 A 
ATOM     90  F   UNL A   1      44.001  24.483  25.427  1.00  0.00    -0.203 F 
ATOM     91  C   UNL A   1      43.180  22.276  25.429  1.00  0.00     0.198 A 
ATOM     92  C   UNL A   1      42.237  21.350  27.430  1.00  0.00     0.198 A 
ATOM     93  F   UNL A   1      42.094  22.663  29.377  1.00  0.00    -0.203 F 
ATOM     94  F   UNL A   1      43.488  22.162  24.128  1.00  0.00    -0.200 F 
ATOM     95  C   UNL A   1      42.585  21.216  26.095  1.00  0.00     0.200 A 
ATOM     96  F   UNL A   1      41.674  20.324  28.082  1.00  0.00    -0.200 F 
ATOM     97  F   UNL A   1      42.339  20.068  25.448  1.00  0.00    -0.200 F 
ENDBRANCH  63  87
BRANCH  75  98
ATOM     98  C   UNL A   1      48.720  26.632  30.250  1.00  0.00     0.064 A 
ATOM     99  C   UNL A   1      49.718  26.991  29.332  1.00  0.00     0.173 A 
ATOM    100  C   UNL A   1      49.101  25.865  31.364  1.00  0.00     0.173 A 
ATOM    101  F   UNL A   1      49.407  27.712  28.245  1.00  0.00    -0.203 F 
ATOM    102  C   UNL A   1      51.036  26.577  29.508  1.00  0.00     0.198 A 
ATOM    103  C   UNL A   1      50.426  25.484  31.555  1.00  0.00     0.198 A 
ATOM    104  F   UNL A   1      48.190  25.502  32.278  1.00  0.00    -0.203 F 
ATOM    105  F   UNL A   1      51.962  26.888  28.590  1.00  0.00    -0.200 F 
ATOM    106  C   UNL A   1      51.391  25.833  30.623  1.00  0.00     0.200 A 
ATOM    107  F   UNL A   1      50.769  24.781  32.644  1.00  0.00    -0.200 F 
ATOM    108  F   UNL A   1      52.663  25.445  30.796  1.00  0.00    -0.200 F 
ENDBRANCH  75  98
ENDBRANCH  49  50
ENDBRANCH  42  44
ENDBRANCH  41  42
ENDBRANCH  40  41
ENDBRANCH  39  40
ENDBRANCH  38  39
ENDBRANCH  37  38
ENDBRANCH  36  37
ENDBRANCH  35  36
ENDBRANCH  34  35
ENDBRANCH   1  34
TORSDOF 25
ENDMDL
