MODEL 1
REMARK VINA RESULT:     -10.7      0.000      0.000
REMARK SMILES Cc1cccc(C(=O)Nc2ccc(C(=O)NNC(=O)c3ccccc3C(=O)OCCOCCOCCOCCOC(=O)c3ccc(-c4c5nc(c(-c6c(F)c(F)c(F)c(F)c6F)c6ccc([nH]6)c(-c6c(F)c(F)c(F)c(F)c6F)c6nc(c(-c7c(F)c(F)c(F)c(F)c7F)c7ccc4[nH]7)C=C6)C=C5)cc3)cc2)c1
REMARK SMILES IDX 32 1 31 2 30 3 29 4 28 5 26 6 27 7 25 8 20 9 21 10 22 11
REMARK SMILES IDX 24 12 23 13 18 14 17 15 19 17 16 18 14 19 15 20 13 22 10 23
REMARK SMILES IDX 11 24 107 25 12 26 106 27 9 28 7 29 8 30 6 32 1 33 2 34 3 35
REMARK SMILES IDX 108 36 4 37 5 38 33 39 34 40 35 41 36 42 37 43 38 44 39 45
REMARK SMILES IDX 40 46 41 47 42 48 43 49 44 50 105 51 45 52 104 53 46 54
REMARK SMILES IDX 47 55 48 56 98 57 49 58 103 59 97 60 99 61 50 62 102 63
REMARK SMILES IDX 96 64 95 65 51 67 83 68 63 69 82 70 64 71 67 72 81 73 100 74
REMARK SMILES IDX 65 75 66 76 80 78 101 79 68 80 52 81 53 82 61 83 54 84 55 85
REMARK SMILES IDX 59 86 62 87 56 88 57 89 60 90 58 91 84 92 85 93 93 94 86 95
REMARK SMILES IDX 87 96 91 97 94 98 88 99 89 100 92 101 90 102 69 103 70 104
REMARK SMILES IDX 78 105 71 106 72 107 76 108 79 109 73 110 74 111 77 112
REMARK SMILES IDX 75 113
REMARK H PARENT 17 16 16 21 9 31 99 66 67 77
REMARK Flexibility Score: inf
ROOT
ATOM      1  C   UNL A   1      36.757  22.445  23.938  1.00  0.00     0.188 C 
ENDROOT
BRANCH   1   2
ATOM      2  O   UNL A   1      35.336  22.441  23.844  1.00  0.00    -0.376 OA
BRANCH   2   3
ATOM      3  C   UNL A   1      34.693  23.478  23.117  1.00  0.00     0.202 C 
BRANCH   3   4
ATOM      4  C   UNL A   1      33.525  23.113  22.239  1.00  0.00     0.261 C 
BRANCH   4   5
ATOM      5  O   UNL A   1      33.280  21.751  22.471  1.00  0.00    -0.460 OA
BRANCH   5   6
ATOM      6  C   UNL A   1      32.066  21.420  22.858  1.00  0.00     0.339 C 
ATOM      7  O   UNL A   1      30.973  21.808  22.422  1.00  0.00    -0.246 OA
BRANCH   6   8
ATOM      8  C   UNL A   1      32.312  20.308  23.730  1.00  0.00     0.072 A 
ATOM      9  C   UNL A   1      32.488  20.475  25.094  1.00  0.00     0.056 A 
ATOM     10  C   UNL A   1      32.870  19.276  25.800  1.00  0.00     0.015 A 
ATOM     11  C   UNL A   1      33.209  18.073  25.172  1.00  0.00     0.001 A 
ATOM     12  C   UNL A   1      32.636  19.087  23.086  1.00  0.00     0.016 A 
ATOM     13  C   UNL A   1      33.120  17.992  23.798  1.00  0.00     0.001 A 
BRANCH   9  14
ATOM     14  C   UNL A   1      32.611  21.757  25.887  1.00  0.00     0.270 C 
ATOM     15  N   UNL A   1      32.707  23.220  25.492  1.00  0.00    -0.263 N 
ATOM     16  H   UNL A   1      33.234  23.450  24.693  1.00  0.00     0.191 HD
ATOM     17  O   UNL A   1      33.004  21.338  26.988  1.00  0.00    -0.267 OA
BRANCH  15  18
ATOM     18  N   UNL A   1      31.908  24.564  26.402  1.00  0.00    -0.263 N 
ATOM     19  C   UNL A   1      31.496  26.102  26.396  1.00  0.00     0.269 C 
ATOM     20  O   UNL A   1      30.277  26.353  26.510  1.00  0.00    -0.267 OA
ATOM     21  H   UNL A   1      31.600  24.187  27.258  1.00  0.00     0.191 HD
BRANCH  19  22
ATOM     22  C   UNL A   1      32.303  27.513  26.465  1.00  0.00     0.041 A 
ATOM     23  C   UNL A   1      33.888  29.820  27.342  1.00  0.00     0.041 A 
ATOM     24  C   UNL A   1      32.529  29.876  27.251  1.00  0.00     0.027 A 
ATOM     25  C   UNL A   1      34.435  28.816  26.522  1.00  0.00     0.027 A 
ATOM     26  C   UNL A   1      31.770  28.784  26.692  1.00  0.00     0.016 A 
ATOM     27  C   UNL A   1      33.655  27.658  26.118  1.00  0.00     0.016 A 
BRANCH  23  28
ATOM     28  N   UNL A   1      34.695  30.759  28.070  1.00  0.00    -0.322 N 
ATOM     29  C   UNL A   1      35.784  30.829  28.986  1.00  0.00     0.255 C 
ATOM     30  O   UNL A   1      35.862  31.941  29.538  1.00  0.00    -0.269 OA
ATOM     31  H   UNL A   1      34.388  31.672  27.865  1.00  0.00     0.170 HD
BRANCH  29  32
ATOM     32  C   UNL A   1      37.015  29.926  29.277  1.00  0.00     0.040 A 
ATOM     33  C   UNL A   1      38.993  27.888  31.969  1.00  0.00     0.044 C 
ATOM     34  C   UNL A   1      38.511  28.455  30.653  1.00  0.00    -0.050 A 
ATOM     35  C   UNL A   1      39.360  28.248  29.572  1.00  0.00     0.003 A 
ATOM     36  C   UNL A   1      37.321  29.228  30.440  1.00  0.00     0.017 A 
ATOM     37  C   UNL A   1      39.087  28.885  28.374  1.00  0.00     0.001 A 
ATOM     38  C   UNL A   1      37.960  29.730  28.246  1.00  0.00     0.014 A 
ENDBRANCH  29  32
ENDBRANCH  23  28
ENDBRANCH  19  22
ENDBRANCH  15  18
ENDBRANCH   9  14
ENDBRANCH   6   8
ENDBRANCH   5   6
ENDBRANCH   4   5
ENDBRANCH   3   4
ENDBRANCH   2   3
ENDBRANCH   1   2
BRANCH   1  39
ATOM     39  C   UNL A   1      37.531  21.659  25.018  1.00  0.00     0.188 C 
BRANCH  39  40
ATOM     40  O   UNL A   1      38.443  22.322  25.853  1.00  0.00    -0.377 OA
BRANCH  40  41
ATOM     41  C   UNL A   1      39.548  21.577  26.323  1.00  0.00     0.188 C 
BRANCH  41  42
ATOM     42  C   UNL A   1      40.972  22.056  26.125  1.00  0.00     0.188 C 
BRANCH  42  43
ATOM     43  O   UNL A   1      41.643  21.869  27.361  1.00  0.00    -0.376 OA
BRANCH  43  44
ATOM     44  C   UNL A   1      43.050  22.033  27.317  1.00  0.00     0.202 C 
BRANCH  44  45
ATOM     45  C   UNL A   1      43.485  23.486  27.515  1.00  0.00     0.261 C 
BRANCH  45  46
ATOM     46  O   UNL A   1      44.487  23.798  26.523  1.00  0.00    -0.460 OA
BRANCH  46  47
ATOM     47  C   UNL A   1      44.021  24.450  25.425  1.00  0.00     0.338 C 
ATOM     48  O   UNL A   1      43.640  23.906  24.401  1.00  0.00    -0.246 OA
BRANCH  47  49
ATOM     49  C   UNL A   1      44.320  25.908  25.535  1.00  0.00     0.060 A 
ATOM     50  C   UNL A   1      45.513  26.296  26.120  1.00  0.00     0.016 A 
ATOM     51  C   UNL A   1      43.317  26.851  25.444  1.00  0.00     0.016 A 
ATOM     52  C   UNL A   1      45.544  27.460  26.913  1.00  0.00     0.010 A 
ATOM     53  C   UNL A   1      43.400  27.997  26.242  1.00  0.00     0.010 A 
ATOM     54  C   UNL A   1      44.466  28.293  27.113  1.00  0.00    -0.014 A 
BRANCH  54  55
ATOM     55  C   UNL A   1      44.263  29.381  28.216  1.00  0.00     0.031 A 
ATOM     56  C   UNL A   1      43.607  28.532  29.586  1.00  0.00     0.074 A 
ATOM     57  C   UNL A   1      44.690  30.772  28.053  1.00  0.00     0.049 A 
ATOM     58  N   UNL A   1      43.546  28.915  30.826  1.00  0.00    -0.248 NA
ATOM     59  C   UNL A   1      42.942  27.198  29.536  1.00  0.00     0.031 C 
ATOM     60  C   UNL A   1      45.287  31.797  28.902  1.00  0.00     0.029 A 
ATOM     61  N   UNL A   1      44.686  31.730  26.995  1.00  0.00    -0.354 N 
ATOM     62  C   UNL A   1      42.991  28.007  31.706  1.00  0.00     0.074 A 
ATOM     63  C   UNL A   1      42.671  26.905  30.828  1.00  0.00     0.031 C 
ATOM     64  C   UNL A   1      45.687  32.989  28.451  1.00  0.00     0.029 A 
ATOM     65  C   UNL A   1      44.779  33.151  27.401  1.00  0.00     0.049 A 
ATOM     66  H   UNL A   1      44.625  31.463  26.050  1.00  0.00     0.167 HD
ATOM     67  C   UNL A   1      43.041  28.270  33.068  1.00  0.00     0.037 A 
ATOM     68  C   UNL A   1      43.943  34.180  27.835  1.00  0.00     0.037 A 
ATOM     69  C   UNL A   1      43.210  29.719  33.393  1.00  0.00     0.049 A 
ATOM     70  C   UNL A   1      43.110  34.288  29.321  1.00  0.00     0.074 A 
ATOM     71  C   UNL A   1      44.101  30.511  34.105  1.00  0.00     0.029 A 
ATOM     72  N   UNL A   1      42.289  30.627  32.907  1.00  0.00    -0.354 N 
ATOM     73  N   UNL A   1      43.314  33.699  30.507  1.00  0.00    -0.248 NA
ATOM     74  C   UNL A   1      41.802  34.973  29.345  1.00  0.00     0.031 C 
ATOM     75  C   UNL A   1      43.776  31.905  33.912  1.00  0.00     0.029 A 
ATOM     76  C   UNL A   1      42.630  31.982  33.142  1.00  0.00     0.049 A 
ATOM     77  H   UNL A   1      41.467  30.357  32.439  1.00  0.00     0.167 HD
ATOM     78  C   UNL A   1      42.126  33.740  31.334  1.00  0.00     0.074 A 
ATOM     79  C   UNL A   1      41.251  34.580  30.512  1.00  0.00     0.031 C 
ATOM     80  C   UNL A   1      41.765  33.020  32.516  1.00  0.00     0.037 A 
BRANCH  67  81
ATOM     81  C   UNL A   1      43.163  27.218  34.205  1.00  0.00     0.064 A 
ATOM     82  C   UNL A   1      41.994  26.655  34.793  1.00  0.00     0.173 A 
ATOM     83  C   UNL A   1      44.352  26.867  34.881  1.00  0.00     0.173 A 
ATOM     84  F   UNL A   1      40.787  26.808  34.235  1.00  0.00    -0.203 F 
ATOM     85  C   UNL A   1      42.006  25.905  35.982  1.00  0.00     0.198 A 
ATOM     86  C   UNL A   1      44.367  26.060  36.039  1.00  0.00     0.198 A 
ATOM     87  F   UNL A   1      45.545  27.318  34.484  1.00  0.00    -0.203 F 
ATOM     88  F   UNL A   1      40.850  25.483  36.518  1.00  0.00    -0.200 F 
ATOM     89  C   UNL A   1      43.194  25.605  36.604  1.00  0.00     0.200 A 
ATOM     90  F   UNL A   1      45.537  25.752  36.619  1.00  0.00    -0.200 F 
ATOM     91  F   UNL A   1      43.211  24.878  37.731  1.00  0.00    -0.200 F 
ENDBRANCH  67  81
BRANCH  68  92
ATOM     92  C   UNL A   1      44.197  35.282  26.761  1.00  0.00     0.064 A 
ATOM     93  C   UNL A   1      43.020  35.953  26.317  1.00  0.00     0.173 A 
ATOM     94  C   UNL A   1      45.229  36.153  27.154  1.00  0.00     0.173 A 
ATOM     95  F   UNL A   1      42.027  35.245  25.759  1.00  0.00    -0.203 F 
ATOM     96  C   UNL A   1      42.744  37.279  26.706  1.00  0.00     0.198 A 
ATOM     97  C   UNL A   1      44.945  37.458  27.600  1.00  0.00     0.198 A 
ATOM     98  F   UNL A   1      46.454  35.648  27.358  1.00  0.00    -0.203 F 
ATOM     99  F   UNL A   1      41.522  37.800  26.514  1.00  0.00    -0.200 F 
ATOM    100  C   UNL A   1      43.681  37.996  27.428  1.00  0.00     0.200 A 
ATOM    101  F   UNL A   1      45.853  38.124  28.330  1.00  0.00    -0.200 F 
ATOM    102  F   UNL A   1      43.354  39.168  27.995  1.00  0.00    -0.200 F 
ENDBRANCH  68  92
BRANCH  80 103
ATOM    103  C   UNL A   1      40.372  33.065  33.234  1.00  0.00     0.064 A 
ATOM    104  C   UNL A   1      40.164  33.730  34.445  1.00  0.00     0.173 A 
ATOM    105  C   UNL A   1      39.231  32.300  32.804  1.00  0.00     0.173 A 
ATOM    106  F   UNL A   1      41.172  34.365  35.056  1.00  0.00    -0.203 F 
ATOM    107  C   UNL A   1      38.917  33.718  35.101  1.00  0.00     0.198 A 
ATOM    108  C   UNL A   1      38.014  32.252  33.479  1.00  0.00     0.198 A 
ATOM    109  F   UNL A   1      39.206  31.541  31.704  1.00  0.00    -0.203 F 
ATOM    110  F   UNL A   1      38.762  34.419  36.232  1.00  0.00    -0.200 F 
ATOM    111  C   UNL A   1      37.847  32.985  34.619  1.00  0.00     0.200 A 
ATOM    112  F   UNL A   1      37.023  31.481  33.004  1.00  0.00    -0.200 F 
ATOM    113  F   UNL A   1      36.668  32.969  35.254  1.00  0.00    -0.200 F 
ENDBRANCH  80 103
ENDBRANCH  54  55
ENDBRANCH  47  49
ENDBRANCH  46  47
ENDBRANCH  45  46
ENDBRANCH  44  45
ENDBRANCH  43  44
ENDBRANCH  42  43
ENDBRANCH  41  42
ENDBRANCH  40  41
ENDBRANCH  39  40
ENDBRANCH   1  39
TORSDOF 25
ENDMDL
MODEL 2
REMARK VINA RESULT:      -9.9      0.988      2.097
REMARK SMILES Cc1cccc(C(=O)Nc2ccc(C(=O)NNC(=O)c3ccccc3C(=O)OCCOCCOCCOCCOC(=O)c3ccc(-c4c5nc(c(-c6c(F)c(F)c(F)c(F)c6F)c6ccc([nH]6)c(-c6c(F)c(F)c(F)c(F)c6F)c6nc(c(-c7c(F)c(F)c(F)c(F)c7F)c7ccc4[nH]7)C=C6)C=C5)cc3)cc2)c1
REMARK SMILES IDX 32 1 31 2 30 3 29 4 28 5 26 6 27 7 25 8 20 9 21 10 22 11
REMARK SMILES IDX 24 12 23 13 18 14 17 15 19 17 16 18 14 19 15 20 13 22 10 23
REMARK SMILES IDX 11 24 107 25 12 26 106 27 9 28 7 29 8 30 6 32 1 33 2 34 3 35
REMARK SMILES IDX 108 36 4 37 5 38 33 39 34 40 35 41 36 42 37 43 38 44 39 45
REMARK SMILES IDX 40 46 41 47 42 48 43 49 44 50 105 51 45 52 104 53 46 54
REMARK SMILES IDX 47 55 48 56 98 57 49 58 103 59 97 60 99 61 50 62 102 63
REMARK SMILES IDX 96 64 95 65 51 67 83 68 63 69 82 70 64 71 67 72 81 73 100 74
REMARK SMILES IDX 65 75 66 76 80 78 101 79 68 80 52 81 53 82 61 83 54 84 55 85
REMARK SMILES IDX 59 86 62 87 56 88 57 89 60 90 58 91 84 92 85 93 93 94 86 95
REMARK SMILES IDX 87 96 91 97 94 98 88 99 89 100 92 101 90 102 69 103 70 104
REMARK SMILES IDX 78 105 71 106 72 107 76 108 79 109 73 110 74 111 77 112
REMARK SMILES IDX 75 113
REMARK H PARENT 17 16 16 21 9 31 99 66 67 77
REMARK Flexibility Score: inf
ROOT
ATOM      1  C   UNL A   1      36.863  22.499  23.999  1.00  0.00     0.188 C 
ENDROOT
BRANCH   1   2
ATOM      2  O   UNL A   1      35.446  22.581  23.881  1.00  0.00    -0.376 OA
BRANCH   2   3
ATOM      3  C   UNL A   1      34.877  23.675  23.175  1.00  0.00     0.202 C 
BRANCH   3   4
ATOM      4  C   UNL A   1      33.692  23.408  22.285  1.00  0.00     0.261 C 
BRANCH   4   5
ATOM      5  O   UNL A   1      33.287  22.095  22.568  1.00  0.00    -0.460 OA
BRANCH   5   6
ATOM      6  C   UNL A   1      32.084  21.938  23.083  1.00  0.00     0.339 C 
ATOM      7  O   UNL A   1      31.018  22.481  22.760  1.00  0.00    -0.246 OA
BRANCH   6   8
ATOM      8  C   UNL A   1      32.260  20.798  23.936  1.00  0.00     0.072 A 
ATOM      9  C   UNL A   1      32.498  20.933  25.294  1.00  0.00     0.056 A 
ATOM     10  C   UNL A   1      32.795  19.696  25.976  1.00  0.00     0.015 A 
ATOM     11  C   UNL A   1      33.002  18.476  25.326  1.00  0.00     0.001 A 
ATOM     12  C   UNL A   1      32.451  19.562  23.270  1.00  0.00     0.016 A 
ATOM     13  C   UNL A   1      32.859  18.418  23.955  1.00  0.00     0.001 A 
BRANCH   9  14
ATOM     14  C   UNL A   1      32.764  22.189  26.093  1.00  0.00     0.270 C 
ATOM     15  N   UNL A   1      32.888  23.655  25.718  1.00  0.00    -0.263 N 
ATOM     16  H   UNL A   1      33.340  23.879  24.873  1.00  0.00     0.191 HD
ATOM     17  O   UNL A   1      33.248  21.728  27.140  1.00  0.00    -0.267 OA
BRANCH  15  18
ATOM     18  N   UNL A   1      32.253  25.012  26.731  1.00  0.00    -0.263 N 
ATOM     19  C   UNL A   1      31.854  26.553  26.776  1.00  0.00     0.269 C 
ATOM     20  O   UNL A   1      30.670  26.814  27.080  1.00  0.00    -0.267 OA
ATOM     21  H   UNL A   1      32.084  24.646  27.629  1.00  0.00     0.191 HD
BRANCH  19  22
ATOM     22  C   UNL A   1      32.669  27.959  26.700  1.00  0.00     0.041 A 
ATOM     23  C   UNL A   1      34.295  30.318  27.331  1.00  0.00     0.041 A 
ATOM     24  C   UNL A   1      32.934  30.377  27.283  1.00  0.00     0.027 A 
ATOM     25  C   UNL A   1      34.807  29.246  26.576  1.00  0.00     0.027 A 
ATOM     26  C   UNL A   1      32.150  29.248  26.842  1.00  0.00     0.016 A 
ATOM     27  C   UNL A   1      34.008  28.065  26.295  1.00  0.00     0.016 A 
BRANCH  23  28
ATOM     28  N   UNL A   1      35.132  31.307  27.950  1.00  0.00    -0.322 N 
ATOM     29  C   UNL A   1      36.312  31.445  28.735  1.00  0.00     0.255 C 
ATOM     30  O   UNL A   1      36.397  32.568  29.262  1.00  0.00    -0.269 OA
ATOM     31  H   UNL A   1      34.758  32.200  27.770  1.00  0.00     0.170 HD
BRANCH  29  32
ATOM     32  C   UNL A   1      37.612  30.607  28.895  1.00  0.00     0.040 A 
ATOM     33  C   UNL A   1      39.291  27.096  28.489  1.00  0.00     0.044 C 
ATOM     34  C   UNL A   1      39.073  28.576  28.710  1.00  0.00    -0.050 A 
ATOM     35  C   UNL A   1      40.152  29.259  29.257  1.00  0.00     0.003 A 
ATOM     36  C   UNL A   1      37.859  29.305  28.476  1.00  0.00     0.017 A 
ATOM     37  C   UNL A   1      39.979  30.572  29.659  1.00  0.00     0.001 A 
ATOM     38  C   UNL A   1      38.728  31.214  29.511  1.00  0.00     0.014 A 
ENDBRANCH  29  32
ENDBRANCH  23  28
ENDBRANCH  19  22
ENDBRANCH  15  18
ENDBRANCH   9  14
ENDBRANCH   6   8
ENDBRANCH   5   6
ENDBRANCH   4   5
ENDBRANCH   3   4
ENDBRANCH   2   3
ENDBRANCH   1   2
BRANCH   1  39
ATOM     39  C   UNL A   1      37.570  21.704  25.118  1.00  0.00     0.188 C 
BRANCH  39  40
ATOM     40  O   UNL A   1      38.471  22.350  25.978  1.00  0.00    -0.377 OA
BRANCH  40  41
ATOM     41  C   UNL A   1      39.600  21.613  26.401  1.00  0.00     0.188 C 
BRANCH  41  42
ATOM     42  C   UNL A   1      41.011  22.094  26.130  1.00  0.00     0.188 C 
BRANCH  42  43
ATOM     43  O   UNL A   1      41.751  21.890  27.323  1.00  0.00    -0.376 OA
BRANCH  43  44
ATOM     44  C   UNL A   1      43.144  22.121  27.219  1.00  0.00     0.202 C 
BRANCH  44  45
ATOM     45  C   UNL A   1      43.529  23.573  27.510  1.00  0.00     0.261 C 
BRANCH  45  46
ATOM     46  O   UNL A   1      44.459  24.007  26.493  1.00  0.00    -0.460 OA
BRANCH  46  47
ATOM     47  C   UNL A   1      43.902  24.705  25.469  1.00  0.00     0.338 C 
ATOM     48  O   UNL A   1      43.458  24.207  24.447  1.00  0.00    -0.246 OA
BRANCH  47  49
ATOM     49  C   UNL A   1      44.181  26.162  25.636  1.00  0.00     0.060 A 
ATOM     50  C   UNL A   1      45.400  26.545  26.167  1.00  0.00     0.016 A 
ATOM     51  C   UNL A   1      43.157  27.086  25.655  1.00  0.00     0.016 A 
ATOM     52  C   UNL A   1      45.459  27.667  27.017  1.00  0.00     0.010 A 
ATOM     53  C   UNL A   1      43.268  28.192  26.506  1.00  0.00     0.010 A 
ATOM     54  C   UNL A   1      44.380  28.466  27.324  1.00  0.00    -0.014 A 
BRANCH  54  55
ATOM     55  C   UNL A   1      44.226  29.492  28.493  1.00  0.00     0.031 A 
ATOM     56  C   UNL A   1      43.714  28.554  29.866  1.00  0.00     0.074 A 
ATOM     57  C   UNL A   1      44.586  30.905  28.366  1.00  0.00     0.049 A 
ATOM     58  N   UNL A   1      43.738  28.875  31.125  1.00  0.00    -0.248 NA
ATOM     59  C   UNL A   1      43.097  27.197  29.802  1.00  0.00     0.031 C 
ATOM     60  C   UNL A   1      45.211  31.913  29.217  1.00  0.00     0.029 A 
ATOM     61  N   UNL A   1      44.462  31.911  27.361  1.00  0.00    -0.354 N 
ATOM     62  C   UNL A   1      43.290  27.905  31.999  1.00  0.00     0.074 A 
ATOM     63  C   UNL A   1      42.942  26.833  31.095  1.00  0.00     0.031 C 
ATOM     64  C   UNL A   1      45.528  33.141  28.796  1.00  0.00     0.029 A 
ATOM     65  C   UNL A   1      44.533  33.314  27.829  1.00  0.00     0.049 A 
ATOM     66  H   UNL A   1      44.335  31.686  26.412  1.00  0.00     0.167 HD
ATOM     67  C   UNL A   1      43.439  28.106  33.365  1.00  0.00     0.037 A 
ATOM     68  C   UNL A   1      43.697  34.286  28.378  1.00  0.00     0.037 A 
ATOM     69  C   UNL A   1      43.580  29.543  33.747  1.00  0.00     0.049 A 
ATOM     70  C   UNL A   1      42.982  34.290  29.928  1.00  0.00     0.074 A 
ATOM     71  C   UNL A   1      44.494  30.338  34.426  1.00  0.00     0.029 A 
ATOM     72  N   UNL A   1      42.589  30.435  33.381  1.00  0.00    -0.354 N 
ATOM     73  N   UNL A   1      43.303  33.655  31.064  1.00  0.00    -0.248 NA
ATOM     74  C   UNL A   1      41.656  34.919  30.089  1.00  0.00     0.031 C 
ATOM     75  C   UNL A   1      44.103  31.725  34.329  1.00  0.00     0.029 A 
ATOM     76  C   UNL A   1      42.897  31.791  33.656  1.00  0.00     0.049 A 
ATOM     77  H   UNL A   1      41.742  30.153  32.965  1.00  0.00     0.167 HD
ATOM     78  C   UNL A   1      42.184  33.608  31.983  1.00  0.00     0.074 A 
ATOM     79  C   UNL A   1      41.216  34.449  31.274  1.00  0.00     0.031 C 
ATOM     80  C   UNL A   1      41.946  32.819  33.151  1.00  0.00     0.037 A 
BRANCH  67  81
ATOM     81  C   UNL A   1      43.691  27.007  34.434  1.00  0.00     0.064 A 
ATOM     82  C   UNL A   1      44.990  26.446  34.596  1.00  0.00     0.173 A 
ATOM     83  C   UNL A   1      42.697  26.337  35.179  1.00  0.00     0.173 A 
ATOM     84  F   UNL A   1      46.069  27.006  34.034  1.00  0.00    -0.203 F 
ATOM     85  C   UNL A   1      45.248  25.285  35.344  1.00  0.00     0.198 A 
ATOM     86  C   UNL A   1      42.970  25.209  35.982  1.00  0.00     0.198 A 
ATOM     87  F   UNL A   1      41.415  26.711  35.137  1.00  0.00    -0.203 F 
ATOM     88  F   UNL A   1      46.487  24.770  35.376  1.00  0.00    -0.200 F 
ATOM     89  C   UNL A   1      44.237  24.667  36.041  1.00  0.00     0.200 A 
ATOM     90  F   UNL A   1      41.978  24.633  36.679  1.00  0.00    -0.200 F 
ATOM     91  F   UNL A   1      44.481  23.566  36.767  1.00  0.00    -0.200 F 
ENDBRANCH  67  81
BRANCH  68  92
ATOM     92  C   UNL A   1      43.823  35.447  27.344  1.00  0.00     0.064 A 
ATOM     93  C   UNL A   1      44.766  36.454  27.702  1.00  0.00     0.173 A 
ATOM     94  C   UNL A   1      43.991  34.955  26.038  1.00  0.00     0.173 A 
ATOM     95  F   UNL A   1      44.611  37.123  28.855  1.00  0.00    -0.203 F 
ATOM     96  C   UNL A   1      46.003  36.566  27.037  1.00  0.00     0.198 A 
ATOM     97  C   UNL A   1      45.244  35.013  25.399  1.00  0.00     0.198 A 
ATOM     98  F   UNL A   1      43.026  34.189  25.510  1.00  0.00    -0.203 F 
ATOM     99  F   UNL A   1      46.983  37.324  27.554  1.00  0.00    -0.200 F 
ATOM    100  C   UNL A   1      46.268  35.774  25.935  1.00  0.00     0.200 A 
ATOM    101  F   UNL A   1      45.495  34.211  24.352  1.00  0.00    -0.200 F 
ATOM    102  F   UNL A   1      47.509  35.704  25.428  1.00  0.00    -0.200 F 
ENDBRANCH  68  92
BRANCH  80 103
ATOM    103  C   UNL A   1      40.614  32.774  33.978  1.00  0.00     0.064 A 
ATOM    104  C   UNL A   1      39.602  31.842  33.736  1.00  0.00     0.173 A 
ATOM    105  C   UNL A   1      40.244  33.778  34.941  1.00  0.00     0.173 A 
ATOM    106  F   UNL A   1      39.732  30.932  32.763  1.00  0.00    -0.203 F 
ATOM    107  C   UNL A   1      38.392  31.848  34.457  1.00  0.00     0.198 A 
ATOM    108  C   UNL A   1      39.027  33.810  35.618  1.00  0.00     0.198 A 
ATOM    109  F   UNL A   1      41.024  34.802  35.299  1.00  0.00    -0.203 F 
ATOM    110  F   UNL A   1      37.480  30.896  34.220  1.00  0.00    -0.200 F 
ATOM    111  C   UNL A   1      38.107  32.826  35.395  1.00  0.00     0.200 A 
ATOM    112  F   UNL A   1      38.772  34.809  36.477  1.00  0.00    -0.200 F 
ATOM    113  F   UNL A   1      36.948  32.832  36.067  1.00  0.00    -0.200 F 
ENDBRANCH  80 103
ENDBRANCH  54  55
ENDBRANCH  47  49
ENDBRANCH  46  47
ENDBRANCH  45  46
ENDBRANCH  44  45
ENDBRANCH  43  44
ENDBRANCH  42  43
ENDBRANCH  41  42
ENDBRANCH  40  41
ENDBRANCH  39  40
ENDBRANCH   1  39
TORSDOF 25
ENDMDL
MODEL 3
REMARK VINA RESULT:      -9.6      5.386     10.267
REMARK SMILES Cc1cccc(C(=O)Nc2ccc(C(=O)NNC(=O)c3ccccc3C(=O)OCCOCCOCCOCCOC(=O)c3ccc(-c4c5nc(c(-c6c(F)c(F)c(F)c(F)c6F)c6ccc([nH]6)c(-c6c(F)c(F)c(F)c(F)c6F)c6nc(c(-c7c(F)c(F)c(F)c(F)c7F)c7ccc4[nH]7)C=C6)C=C5)cc3)cc2)c1
REMARK SMILES IDX 32 1 31 2 30 3 29 4 28 5 26 6 27 7 25 8 20 9 21 10 22 11
REMARK SMILES IDX 24 12 23 13 18 14 17 15 19 17 16 18 14 19 15 20 13 22 10 23
REMARK SMILES IDX 11 24 107 25 12 26 106 27 9 28 7 29 8 30 6 32 1 33 2 34 3 35
REMARK SMILES IDX 108 36 4 37 5 38 33 39 34 40 35 41 36 42 37 43 38 44 39 45
REMARK SMILES IDX 40 46 41 47 42 48 43 49 44 50 105 51 45 52 104 53 46 54
REMARK SMILES IDX 47 55 48 56 98 57 49 58 103 59 97 60 99 61 50 62 102 63
REMARK SMILES IDX 96 64 95 65 51 67 83 68 63 69 82 70 64 71 67 72 81 73 100 74
REMARK SMILES IDX 65 75 66 76 80 78 101 79 68 80 52 81 53 82 61 83 54 84 55 85
REMARK SMILES IDX 59 86 62 87 56 88 57 89 60 90 58 91 84 92 85 93 93 94 86 95
REMARK SMILES IDX 87 96 91 97 94 98 88 99 89 100 92 101 90 102 69 103 70 104
REMARK SMILES IDX 78 105 71 106 72 107 76 108 79 109 73 110 74 111 77 112
REMARK SMILES IDX 75 113
REMARK H PARENT 17 16 16 21 9 31 99 66 67 77
REMARK Flexibility Score: inf
ROOT
ATOM      1  C   UNL A   1      36.347  23.219  24.739  1.00  0.00     0.188 C 
ENDROOT
BRANCH   1   2
ATOM      2  O   UNL A   1      35.089  22.567  24.594  1.00  0.00    -0.376 OA
BRANCH   2   3
ATOM      3  C   UNL A   1      34.317  22.815  23.428  1.00  0.00     0.202 C 
BRANCH   3   4
ATOM      4  C   UNL A   1      32.997  22.106  23.285  1.00  0.00     0.261 C 
BRANCH   4   5
ATOM      5  O   UNL A   1      33.291  20.734  23.332  1.00  0.00    -0.460 OA
BRANCH   5   6
ATOM      6  C   UNL A   1      32.360  19.908  22.902  1.00  0.00     0.339 C 
ATOM      7  O   UNL A   1      31.422  20.124  22.121  1.00  0.00    -0.246 OA
BRANCH   6   8
ATOM      8  C   UNL A   1      32.845  18.635  23.352  1.00  0.00     0.072 A 
ATOM      9  C   UNL A   1      33.058  18.369  24.694  1.00  0.00     0.056 A 
ATOM     10  C   UNL A   1      33.683  17.096  24.961  1.00  0.00     0.015 A 
ATOM     11  C   UNL A   1      34.200  16.256  23.969  1.00  0.00     0.001 A 
ATOM     12  C   UNL A   1      33.350  17.782  22.339  1.00  0.00     0.016 A 
ATOM     13  C   UNL A   1      34.058  16.621  22.647  1.00  0.00     0.001 A 
BRANCH   9  14
ATOM     14  C   UNL A   1      32.989  19.313  25.874  1.00  0.00     0.270 C 
ATOM     15  N   UNL A   1      33.696  20.614  26.208  1.00  0.00    -0.263 N 
ATOM     16  H   UNL A   1      34.645  20.702  25.961  1.00  0.00     0.191 HD
ATOM     17  O   UNL A   1      32.472  18.594  26.746  1.00  0.00    -0.267 OA
BRANCH  15  18
ATOM     18  N   UNL A   1      32.898  22.013  27.031  1.00  0.00    -0.263 N 
ATOM     19  C   UNL A   1      31.919  23.258  26.870  1.00  0.00     0.269 C 
ATOM     20  O   UNL A   1      30.898  23.262  27.590  1.00  0.00    -0.267 OA
ATOM     21  H   UNL A   1      33.190  21.998  27.971  1.00  0.00     0.191 HD
BRANCH  19  22
ATOM     22  C   UNL A   1      31.990  24.691  26.103  1.00  0.00     0.041 A 
ATOM     23  C   UNL A   1      31.922  27.549  25.447  1.00  0.00     0.041 A 
ATOM     24  C   UNL A   1      30.894  26.714  25.123  1.00  0.00     0.027 A 
ATOM     25  C   UNL A   1      33.136  26.858  25.615  1.00  0.00     0.027 A 
ATOM     26  C   UNL A   1      30.994  25.289  25.328  1.00  0.00     0.016 A 
ATOM     27  C   UNL A   1      33.164  25.449  25.973  1.00  0.00     0.016 A 
BRANCH  23  28
ATOM     28  N   UNL A   1      31.830  28.982  25.473  1.00  0.00    -0.322 N 
ATOM     29  C   UNL A   1      32.277  30.122  26.202  1.00  0.00     0.255 C 
ATOM     30  O   UNL A   1      31.603  31.136  25.948  1.00  0.00    -0.269 OA
ATOM     31  H   UNL A   1      31.257  29.280  24.730  1.00  0.00     0.170 HD
BRANCH  29  32
ATOM     32  C   UNL A   1      33.538  30.437  27.055  1.00  0.00     0.040 A 
ATOM     33  C   UNL A   1      37.028  29.173  28.295  1.00  0.00     0.044 C 
ATOM     34  C   UNL A   1      35.830  30.048  27.996  1.00  0.00    -0.050 A 
ATOM     35  C   UNL A   1      35.791  31.253  28.685  1.00  0.00     0.003 A 
ATOM     36  C   UNL A   1      34.727  29.721  27.139  1.00  0.00     0.017 A 
ATOM     37  C   UNL A   1      34.647  32.030  28.611  1.00  0.00     0.001 A 
ATOM     38  C   UNL A   1      33.538  31.610  27.840  1.00  0.00     0.014 A 
ENDBRANCH  29  32
ENDBRANCH  23  28
ENDBRANCH  19  22
ENDBRANCH  15  18
ENDBRANCH   9  14
ENDBRANCH   6   8
ENDBRANCH   5   6
ENDBRANCH   4   5
ENDBRANCH   3   4
ENDBRANCH   2   3
ENDBRANCH   1   2
BRANCH   1  39
ATOM     39  C   UNL A   1      37.100  23.307  26.084  1.00  0.00     0.188 C 
BRANCH  39  40
ATOM     40  O   UNL A   1      38.266  24.080  26.189  1.00  0.00    -0.377 OA
BRANCH  40  41
ATOM     41  C   UNL A   1      39.408  23.456  26.739  1.00  0.00     0.188 C 
BRANCH  41  42
ATOM     42  C   UNL A   1      39.739  22.006  26.449  1.00  0.00     0.188 C 
BRANCH  42  43
ATOM     43  O   UNL A   1      40.358  21.485  27.615  1.00  0.00    -0.376 OA
BRANCH  43  44
ATOM     44  C   UNL A   1      41.644  20.926  27.419  1.00  0.00     0.202 C 
BRANCH  44  45
ATOM     45  C   UNL A   1      42.757  21.977  27.432  1.00  0.00     0.261 C 
BRANCH  45  46
ATOM     46  O   UNL A   1      43.551  21.809  26.238  1.00  0.00    -0.460 OA
BRANCH  46  47
ATOM     47  C   UNL A   1      43.494  22.848  25.363  1.00  0.00     0.338 C 
ATOM     48  O   UNL A   1      42.801  22.875  24.359  1.00  0.00    -0.246 OA
BRANCH  47  49
ATOM     49  C   UNL A   1      44.606  23.805  25.637  1.00  0.00     0.060 A 
ATOM     50  C   UNL A   1      45.901  23.318  25.684  1.00  0.00     0.016 A 
ATOM     51  C   UNL A   1      44.364  25.032  26.219  1.00  0.00     0.016 A 
ATOM     52  C   UNL A   1      46.812  23.870  26.607  1.00  0.00     0.010 A 
ATOM     53  C   UNL A   1      45.305  25.545  27.118  1.00  0.00     0.010 A 
ATOM     54  C   UNL A   1      46.522  24.919  27.450  1.00  0.00    -0.014 A 
BRANCH  54  55
ATOM     55  C   UNL A   1      47.288  25.383  28.731  1.00  0.00     0.031 A 
ATOM     56  C   UNL A   1      48.947  25.561  28.239  1.00  0.00     0.074 A 
ATOM     57  C   UNL A   1      46.614  25.689  29.995  1.00  0.00     0.049 A 
ATOM     58  N   UNL A   1      49.908  26.200  28.837  1.00  0.00    -0.248 NA
ATOM     59  C   UNL A   1      49.558  24.941  27.028  1.00  0.00     0.031 C 
ATOM     60  C   UNL A   1      46.763  26.681  31.054  1.00  0.00     0.029 A 
ATOM     61  N   UNL A   1      45.534  25.133  30.745  1.00  0.00    -0.354 N 
ATOM     62  C   UNL A   1      51.126  26.192  28.187  1.00  0.00     0.074 A 
ATOM     63  C   UNL A   1      50.825  25.414  27.008  1.00  0.00     0.031 C 
ATOM     64  C   UNL A   1      45.914  26.801  32.079  1.00  0.00     0.029 A 
ATOM     65  C   UNL A   1      45.498  25.471  32.186  1.00  0.00     0.049 A 
ATOM     66  H   UNL A   1      44.854  24.557  30.329  1.00  0.00     0.167 HD
ATOM     67  C   UNL A   1      52.155  26.986  28.674  1.00  0.00     0.037 A 
ATOM     68  C   UNL A   1      46.063  25.037  33.386  1.00  0.00     0.037 A 
ATOM     69  C   UNL A   1      52.005  27.345  30.116  1.00  0.00     0.049 A 
ATOM     70  C   UNL A   1      47.694  25.157  33.870  1.00  0.00     0.074 A 
ATOM     71  C   UNL A   1      51.939  28.502  30.882  1.00  0.00     0.029 A 
ATOM     72  N   UNL A   1      51.889  26.334  31.050  1.00  0.00    -0.354 N 
ATOM     73  N   UNL A   1      48.690  25.961  33.474  1.00  0.00    -0.248 NA
ATOM     74  C   UNL A   1      48.251  24.095  34.733  1.00  0.00     0.031 C 
ATOM     75  C   UNL A   1      51.638  28.162  32.253  1.00  0.00     0.029 A 
ATOM     76  C   UNL A   1      51.596  26.785  32.361  1.00  0.00     0.049 A 
ATOM     77  H   UNL A   1      52.001  25.382  30.825  1.00  0.00     0.167 HD
ATOM     78  C   UNL A   1      49.986  25.421  33.831  1.00  0.00     0.074 A 
ATOM     79  C   UNL A   1      49.586  24.262  34.633  1.00  0.00     0.031 C 
ATOM     80  C   UNL A   1      51.306  25.746  33.388  1.00  0.00     0.037 A 
BRANCH  67  81
ATOM     81  C   UNL A   1      53.258  27.682  27.828  1.00  0.00     0.064 A 
ATOM     82  C   UNL A   1      53.043  28.987  27.299  1.00  0.00     0.173 A 
ATOM     83  C   UNL A   1      54.437  27.073  27.347  1.00  0.00     0.173 A 
ATOM     84  F   UNL A   1      52.023  29.750  27.712  1.00  0.00    -0.203 F 
ATOM     85  C   UNL A   1      53.866  29.576  26.324  1.00  0.00     0.198 A 
ATOM     86  C   UNL A   1      55.296  27.693  26.415  1.00  0.00     0.198 A 
ATOM     87  F   UNL A   1      54.792  25.840  27.719  1.00  0.00    -0.203 F 
ATOM     88  F   UNL A   1      53.545  30.776  25.814  1.00  0.00    -0.200 F 
ATOM     89  C   UNL A   1      54.996  28.930  25.883  1.00  0.00     0.200 A 
ATOM     90  F   UNL A   1      56.411  27.062  26.016  1.00  0.00    -0.200 F 
ATOM     91  F   UNL A   1      55.791  29.494  24.962  1.00  0.00    -0.200 F 
ENDBRANCH  67  81
BRANCH  68  92
ATOM     92  C   UNL A   1      44.801  24.692  34.235  1.00  0.00     0.064 A 
ATOM     93  C   UNL A   1      44.585  23.297  34.427  1.00  0.00     0.173 A 
ATOM     94  C   UNL A   1      44.764  25.439  35.426  1.00  0.00     0.173 A 
ATOM     95  F   UNL A   1      44.429  22.499  33.360  1.00  0.00    -0.203 F 
ATOM     96  C   UNL A   1      44.820  22.686  35.676  1.00  0.00     0.198 A 
ATOM     97  C   UNL A   1      45.059  24.839  36.665  1.00  0.00     0.198 A 
ATOM     98  F   UNL A   1      44.712  26.776  35.346  1.00  0.00    -0.203 F 
ATOM     99  F   UNL A   1      44.881  21.349  35.774  1.00  0.00    -0.200 F 
ATOM    100  C   UNL A   1      45.146  23.462  36.773  1.00  0.00     0.200 A 
ATOM    101  F   UNL A   1      45.408  25.607  37.709  1.00  0.00    -0.200 F 
ATOM    102  F   UNL A   1      45.588  22.892  37.904  1.00  0.00    -0.200 F 
ENDBRANCH  68  92
BRANCH  80 103
ATOM    103  C   UNL A   1      52.620  24.975  33.761  1.00  0.00     0.064 A 
ATOM    104  C   UNL A   1      52.878  23.668  33.343  1.00  0.00     0.173 A 
ATOM    105  C   UNL A   1      53.597  25.477  34.693  1.00  0.00     0.173 A 
ATOM    106  F   UNL A   1      51.989  23.004  32.592  1.00  0.00    -0.203 F 
ATOM    107  C   UNL A   1      54.042  22.974  33.729  1.00  0.00     0.198 A 
ATOM    108  C   UNL A   1      54.722  24.770  35.110  1.00  0.00     0.198 A 
ATOM    109  F   UNL A   1      53.537  26.680  35.270  1.00  0.00    -0.203 F 
ATOM    110  F   UNL A   1      54.262  21.742  33.252  1.00  0.00    -0.200 F 
ATOM    111  C   UNL A   1      54.961  23.524  34.606  1.00  0.00     0.200 A 
ATOM    112  F   UNL A   1      55.556  25.322  36.006  1.00  0.00    -0.200 F 
ATOM    113  F   UNL A   1      56.059  22.854  34.978  1.00  0.00    -0.200 F 
ENDBRANCH  80 103
ENDBRANCH  54  55
ENDBRANCH  47  49
ENDBRANCH  46  47
ENDBRANCH  45  46
ENDBRANCH  44  45
ENDBRANCH  43  44
ENDBRANCH  42  43
ENDBRANCH  41  42
ENDBRANCH  40  41
ENDBRANCH  39  40
ENDBRANCH   1  39
TORSDOF 25
ENDMDL
