MODEL 1
REMARK VINA RESULT:     -10.6      0.000      0.000
REMARK SMILES O=C(OCCOCCOCCOCCOC(=O)[C@@H]1CCCC[C@@H]1C(=O)Nc1cccc(C(F)(F)F)c1)c1ccc(-c2c3nc(c(-c4c(F)c(F)c(F)c(F)c4F)c4ccc([nH]4)c(-c4c(F)c(F)c(F)c(F)c4F)c4nc(c(-c5c(F)c(F)c(F)c(F)c5F)c5ccc2[nH]5)C=C4)C=C3)cc1
REMARK SMILES IDX 10 1 9 2 8 3 7 4 6 5 5 6 4 7 3 8 2 9 1 10 37 11 38 12 99 13
REMARK SMILES IDX 39 14 98 15 40 16 41 17 42 18 92 19 43 20 97 21 91 22 93 23
REMARK SMILES IDX 44 24 96 25 90 26 89 27 45 29 77 30 57 31 76 32 58 33 61 34
REMARK SMILES IDX 75 35 94 36 59 37 60 38 74 40 95 41 62 42 46 43 47 44 55 45
REMARK SMILES IDX 48 46 49 47 53 48 56 49 50 50 51 51 54 52 52 53 78 54 79 55
REMARK SMILES IDX 87 56 80 57 81 58 85 59 88 60 82 61 83 62 86 63 84 64 63 65
REMARK SMILES IDX 64 66 72 67 65 68 66 69 70 70 73 71 67 72 68 73 71 74 69 75
REMARK SMILES IDX 11 76 12 77 13 78 14 79 15 80 16 81 17 82 18 83 19 84 23 85
REMARK SMILES IDX 20 86 22 87 21 88 24 89 25 90 26 91 27 93 28 94 36 95 29 96
REMARK SMILES IDX 31 97 30 98 32 99 33 100 34 101 35 102
REMARK H PARENT 93 28 61 39 26 92
REMARK Flexibility Score: inf
ROOT
ATOM      1  C   UNL A   1      40.660  19.981  26.707  1.00  0.00     0.188 C 
ENDROOT
BRANCH   1   2
ATOM      2  O   UNL A   1      41.463  19.251  25.789  1.00  0.00    -0.377 OA
BRANCH   2   3
ATOM      3  C   UNL A   1      42.775  18.850  26.176  1.00  0.00     0.188 C 
BRANCH   3   4
ATOM      4  C   UNL A   1      43.792  18.958  25.059  1.00  0.00     0.188 C 
BRANCH   4   5
ATOM      5  O   UNL A   1      44.679  20.023  25.374  1.00  0.00    -0.376 OA
BRANCH   5   6
ATOM      6  C   UNL A   1      44.796  21.024  24.373  1.00  0.00     0.202 C 
BRANCH   6   7
ATOM      7  C   UNL A   1      45.527  22.276  24.853  1.00  0.00     0.261 C 
BRANCH   7   8
ATOM      8  O   UNL A   1      44.655  23.308  25.349  1.00  0.00    -0.460 OA
BRANCH   8   9
ATOM      9  C   UNL A   1      44.879  24.640  25.469  1.00  0.00     0.338 C 
ATOM     10  O   UNL A   1      45.733  25.150  24.743  1.00  0.00    -0.246 OA
BRANCH   9  11
ATOM     11  C   UNL A   1      44.196  25.539  26.454  1.00  0.00     0.060 A 
ATOM     12  C   UNL A   1      44.162  26.929  26.382  1.00  0.00     0.016 A 
ATOM     13  C   UNL A   1      43.447  24.931  27.479  1.00  0.00     0.016 A 
ATOM     14  C   UNL A   1      43.419  27.702  27.256  1.00  0.00     0.010 A 
ATOM     15  C   UNL A   1      42.713  25.698  28.392  1.00  0.00     0.010 A 
ATOM     16  C   UNL A   1      42.711  27.091  28.279  1.00  0.00    -0.014 A 
BRANCH  16  17
ATOM     17  C   UNL A   1      42.191  27.976  29.329  1.00  0.00     0.031 A 
ATOM     18  C   UNL A   1      43.068  28.202  30.519  1.00  0.00     0.074 A 
ATOM     19  C   UNL A   1      41.078  28.697  29.115  1.00  0.00     0.049 A 
ATOM     20  N   UNL A   1      42.824  28.852  31.622  1.00  0.00    -0.248 NA
ATOM     21  C   UNL A   1      44.427  27.634  30.444  1.00  0.00     0.031 C 
ATOM     22  C   UNL A   1      40.293  28.688  27.878  1.00  0.00     0.029 A 
ATOM     23  N   UNL A   1      40.433  29.599  29.914  1.00  0.00    -0.354 N 
ATOM     24  C   UNL A   1      43.973  28.721  32.389  1.00  0.00     0.074 A 
ATOM     25  C   UNL A   1      44.930  27.963  31.622  1.00  0.00     0.031 C 
ATOM     26  C   UNL A   1      39.263  29.542  28.008  1.00  0.00     0.029 A 
ATOM     27  C   UNL A   1      39.274  30.086  29.360  1.00  0.00     0.049 A 
ATOM     28  H   UNL A   1      40.767  29.874  30.799  1.00  0.00     0.167 HD
ATOM     29  C   UNL A   1      44.179  29.180  33.643  1.00  0.00     0.037 A 
ATOM     30  C   UNL A   1      38.307  30.829  29.929  1.00  0.00     0.037 A 
ATOM     31  C   UNL A   1      43.191  29.938  34.357  1.00  0.00     0.049 A 
ATOM     32  C   UNL A   1      38.500  31.220  31.372  1.00  0.00     0.074 A 
ATOM     33  C   UNL A   1      43.222  30.403  35.656  1.00  0.00     0.029 A 
ATOM     34  N   UNL A   1      41.979  30.340  33.809  1.00  0.00    -0.354 N 
ATOM     35  N   UNL A   1      39.536  31.012  32.153  1.00  0.00    -0.248 NA
ATOM     36  C   UNL A   1      37.387  31.916  32.026  1.00  0.00     0.031 C 
ATOM     37  C   UNL A   1      42.002  31.041  35.909  1.00  0.00     0.029 A 
ATOM     38  C   UNL A   1      41.235  31.020  34.752  1.00  0.00     0.049 A 
ATOM     39  H   UNL A   1      41.692  30.163  32.883  1.00  0.00     0.167 HD
ATOM     40  C   UNL A   1      39.207  31.555  33.384  1.00  0.00     0.074 A 
ATOM     41  C   UNL A   1      37.880  32.126  33.239  1.00  0.00     0.031 C 
ATOM     42  C   UNL A   1      39.921  31.577  34.538  1.00  0.00     0.037 A 
BRANCH  29  43
ATOM     43  C   UNL A   1      45.447  28.763  34.323  1.00  0.00     0.064 A 
ATOM     44  C   UNL A   1      46.622  29.527  34.265  1.00  0.00     0.173 A 
ATOM     45  C   UNL A   1      45.499  27.532  34.997  1.00  0.00     0.173 A 
ATOM     46  F   UNL A   1      46.637  30.691  33.599  1.00  0.00    -0.203 F 
ATOM     47  C   UNL A   1      47.807  29.062  34.832  1.00  0.00     0.198 A 
ATOM     48  C   UNL A   1      46.678  27.083  35.584  1.00  0.00     0.198 A 
ATOM     49  F   UNL A   1      44.409  26.754  35.066  1.00  0.00    -0.203 F 
ATOM     50  F   UNL A   1      48.934  29.778  34.710  1.00  0.00    -0.200 F 
ATOM     51  C   UNL A   1      47.833  27.842  35.494  1.00  0.00     0.200 A 
ATOM     52  F   UNL A   1      46.700  25.902  36.219  1.00  0.00    -0.200 F 
ATOM     53  F   UNL A   1      48.977  27.391  36.027  1.00  0.00    -0.200 F 
ENDBRANCH  29  43
BRANCH  30  54
ATOM     54  C   UNL A   1      37.055  31.145  29.187  1.00  0.00     0.064 A 
ATOM     55  C   UNL A   1      36.080  30.169  28.941  1.00  0.00     0.173 A 
ATOM     56  C   UNL A   1      36.819  32.434  28.678  1.00  0.00     0.173 A 
ATOM     57  F   UNL A   1      36.262  28.915  29.381  1.00  0.00    -0.203 F 
ATOM     58  C   UNL A   1      34.932  30.463  28.204  1.00  0.00     0.198 A 
ATOM     59  C   UNL A   1      35.657  32.735  27.971  1.00  0.00     0.198 A 
ATOM     60  F   UNL A   1      37.719  33.410  28.871  1.00  0.00    -0.203 F 
ATOM     61  F   UNL A   1      34.043  29.497  27.938  1.00  0.00    -0.200 F 
ATOM     62  C   UNL A   1      34.720  31.747  27.724  1.00  0.00     0.200 A 
ATOM     63  F   UNL A   1      35.452  33.981  27.522  1.00  0.00    -0.200 F 
ATOM     64  F   UNL A   1      33.618  32.027  27.014  1.00  0.00    -0.200 F 
ENDBRANCH  30  54
BRANCH  42  65
ATOM     65  C   UNL A   1      39.288  32.258  35.709  1.00  0.00     0.064 A 
ATOM     66  C   UNL A   1      38.467  31.558  36.604  1.00  0.00     0.173 A 
ATOM     67  C   UNL A   1      39.575  33.603  35.979  1.00  0.00     0.173 A 
ATOM     68  F   UNL A   1      38.155  30.274  36.372  1.00  0.00    -0.203 F 
ATOM     69  C   UNL A   1      37.946  32.188  37.729  1.00  0.00     0.198 A 
ATOM     70  C   UNL A   1      39.077  34.220  37.121  1.00  0.00     0.198 A 
ATOM     71  F   UNL A   1      40.363  34.307  35.153  1.00  0.00    -0.203 F 
ATOM     72  F   UNL A   1      37.137  31.513  38.556  1.00  0.00    -0.200 F 
ATOM     73  C   UNL A   1      38.261  33.513  37.992  1.00  0.00     0.200 A 
ATOM     74  F   UNL A   1      39.396  35.495  37.384  1.00  0.00    -0.200 F 
ATOM     75  F   UNL A   1      37.775  34.111  39.088  1.00  0.00    -0.200 F 
ENDBRANCH  42  65
ENDBRANCH  16  17
ENDBRANCH   9  11
ENDBRANCH   8   9
ENDBRANCH   7   8
ENDBRANCH   6   7
ENDBRANCH   5   6
ENDBRANCH   4   5
ENDBRANCH   3   4
ENDBRANCH   2   3
ENDBRANCH   1   2
BRANCH   1  76
ATOM     76  C   UNL A   1      40.347  21.458  26.450  1.00  0.00     0.188 C 
BRANCH  76  77
ATOM     77  O   UNL A   1      39.177  21.756  25.726  1.00  0.00    -0.376 OA
BRANCH  77  78
ATOM     78  C   UNL A   1      38.514  23.000  25.944  1.00  0.00     0.202 C 
BRANCH  78  79
ATOM     79  C   UNL A   1      37.072  23.130  26.472  1.00  0.00     0.261 C 
BRANCH  79  80
ATOM     80  O   UNL A   1      36.000  22.961  25.518  1.00  0.00    -0.463 OA
BRANCH  80  81
ATOM     81  C   UNL A   1      34.748  23.010  26.025  1.00  0.00     0.309 C 
ATOM     82  O   UNL A   1      34.518  23.148  27.231  1.00  0.00    -0.252 OA
BRANCH  81  83
ATOM     83  C   UNL A   1      33.578  22.833  25.059  1.00  0.00     0.111 C 
ATOM     84  C   UNL A   1      33.826  21.607  24.174  1.00  0.00     0.016 C 
ATOM     85  C   UNL A   1      32.861  23.995  24.308  1.00  0.00     0.093 C 
ATOM     86  C   UNL A   1      32.521  21.106  23.561  1.00  0.00     0.001 C 
ATOM     87  C   UNL A   1      31.546  23.418  23.728  1.00  0.00     0.014 C 
ATOM     88  C   UNL A   1      31.780  22.212  22.826  1.00  0.00     0.001 C 
BRANCH  85  89
ATOM     89  C   UNL A   1      33.709  24.689  23.237  1.00  0.00     0.228 C 
ATOM     90  O   UNL A   1      34.414  24.042  22.456  1.00  0.00    -0.274 OA
ATOM     91  N   UNL A   1      33.664  26.042  23.025  1.00  0.00    -0.326 N 
ATOM     92  H   UNL A   1      34.312  26.357  22.354  1.00  0.00     0.169 HD
BRANCH  91  93
ATOM     93  C   UNL A   1      32.879  27.068  23.573  1.00  0.00     0.041 A 
ATOM     94  C   UNL A   1      33.309  27.562  24.812  1.00  0.00     0.026 A 
ATOM     95  C   UNL A   1      31.756  27.637  22.965  1.00  0.00     0.039 A 
ATOM     96  C   UNL A   1      32.708  28.683  25.381  1.00  0.00     0.003 A 
ATOM     97  C   UNL A   1      31.114  28.747  23.554  1.00  0.00     0.058 A 
ATOM     98  C   UNL A   1      31.623  29.281  24.750  1.00  0.00     0.013 A 
BRANCH  97  99
ATOM     99  C   UNL A   1      29.904  29.396  22.929  1.00  0.00     0.416 C 
ATOM    100  F   UNL A   1      30.071  29.639  21.598  1.00  0.00    -0.166 F 
ATOM    101  F   UNL A   1      28.787  28.624  23.028  1.00  0.00    -0.166 F 
ATOM    102  F   UNL A   1      29.581  30.598  23.485  1.00  0.00    -0.166 F 
ENDBRANCH  97  99
ENDBRANCH  91  93
ENDBRANCH  85  89
ENDBRANCH  81  83
ENDBRANCH  80  81
ENDBRANCH  79  80
ENDBRANCH  78  79
ENDBRANCH  77  78
ENDBRANCH  76  77
ENDBRANCH   1  76
TORSDOF 23
ENDMDL
MODEL 2
REMARK VINA RESULT:     -10.3      4.180      8.975
REMARK SMILES O=C(OCCOCCOCCOCCOC(=O)[C@@H]1CCCC[C@@H]1C(=O)Nc1cccc(C(F)(F)F)c1)c1ccc(-c2c3nc(c(-c4c(F)c(F)c(F)c(F)c4F)c4ccc([nH]4)c(-c4c(F)c(F)c(F)c(F)c4F)c4nc(c(-c5c(F)c(F)c(F)c(F)c5F)c5ccc2[nH]5)C=C4)C=C3)cc1
REMARK SMILES IDX 10 1 9 2 8 3 7 4 6 5 5 6 4 7 3 8 2 9 1 10 37 11 38 12 99 13
REMARK SMILES IDX 39 14 98 15 40 16 41 17 42 18 92 19 43 20 97 21 91 22 93 23
REMARK SMILES IDX 44 24 96 25 90 26 89 27 45 29 77 30 57 31 76 32 58 33 61 34
REMARK SMILES IDX 75 35 94 36 59 37 60 38 74 40 95 41 62 42 46 43 47 44 55 45
REMARK SMILES IDX 48 46 49 47 53 48 56 49 50 50 51 51 54 52 52 53 78 54 79 55
REMARK SMILES IDX 87 56 80 57 81 58 85 59 88 60 82 61 83 62 86 63 84 64 63 65
REMARK SMILES IDX 64 66 72 67 65 68 66 69 70 70 73 71 67 72 68 73 71 74 69 75
REMARK SMILES IDX 11 76 12 77 13 78 14 79 15 80 16 81 17 82 18 83 19 84 23 85
REMARK SMILES IDX 20 86 22 87 21 88 24 89 25 90 26 91 27 93 28 94 36 95 29 96
REMARK SMILES IDX 31 97 30 98 32 99 33 100 34 101 35 102
REMARK H PARENT 93 28 61 39 26 92
REMARK Flexibility Score: inf
ROOT
ATOM      1  C   UNL A   1      31.449  22.172  25.314  1.00  0.00     0.188 C 
ENDROOT
BRANCH   1   2
ATOM      2  O   UNL A   1      32.530  22.938  24.799  1.00  0.00    -0.377 OA
BRANCH   2   3
ATOM      3  C   UNL A   1      33.623  22.269  24.175  1.00  0.00     0.188 C 
BRANCH   3   4
ATOM      4  C   UNL A   1      34.452  23.171  23.284  1.00  0.00     0.188 C 
BRANCH   4   5
ATOM      5  O   UNL A   1      35.743  23.295  23.865  1.00  0.00    -0.376 OA
BRANCH   5   6
ATOM      6  C   UNL A   1      36.010  22.398  24.934  1.00  0.00     0.202 C 
BRANCH   6   7
ATOM      7  C   UNL A   1      37.215  21.495  24.679  1.00  0.00     0.261 C 
BRANCH   7   8
ATOM      8  O   UNL A   1      37.922  21.112  25.872  1.00  0.00    -0.460 OA
BRANCH   8   9
ATOM      9  C   UNL A   1      39.226  21.296  26.196  1.00  0.00     0.338 C 
ATOM     10  O   UNL A   1      39.962  20.310  26.211  1.00  0.00    -0.246 OA
BRANCH   9  11
ATOM     11  C   UNL A   1      39.836  22.609  26.582  1.00  0.00     0.060 A 
ATOM     12  C   UNL A   1      39.449  23.851  26.086  1.00  0.00     0.016 A 
ATOM     13  C   UNL A   1      40.812  22.599  27.597  1.00  0.00     0.016 A 
ATOM     14  C   UNL A   1      39.972  25.039  26.564  1.00  0.00     0.010 A 
ATOM     15  C   UNL A   1      41.375  23.790  28.072  1.00  0.00     0.010 A 
ATOM     16  C   UNL A   1      40.953  25.013  27.541  1.00  0.00    -0.014 A 
BRANCH  16  17
ATOM     17  C   UNL A   1      41.661  26.276  27.788  1.00  0.00     0.031 A 
ATOM     18  C   UNL A   1      40.979  27.274  28.667  1.00  0.00     0.074 A 
ATOM     19  C   UNL A   1      42.941  26.418  27.404  1.00  0.00     0.049 A 
ATOM     20  N   UNL A   1      41.329  28.492  28.971  1.00  0.00    -0.248 NA
ATOM     21  C   UNL A   1      39.735  26.824  29.320  1.00  0.00     0.031 C 
ATOM     22  C   UNL A   1      43.739  25.389  26.732  1.00  0.00     0.029 A 
ATOM     23  N   UNL A   1      43.804  27.468  27.551  1.00  0.00    -0.354 N 
ATOM     24  C   UNL A   1      40.323  28.969  29.799  1.00  0.00     0.074 A 
ATOM     25  C   UNL A   1      39.365  27.907  29.983  1.00  0.00     0.031 C 
ATOM     26  C   UNL A   1      44.977  25.867  26.518  1.00  0.00     0.029 A 
ATOM     27  C   UNL A   1      45.025  27.255  26.960  1.00  0.00     0.049 A 
ATOM     28  H   UNL A   1      43.573  28.294  28.034  1.00  0.00     0.167 HD
ATOM     29  C   UNL A   1      40.213  30.207  30.328  1.00  0.00     0.037 A 
ATOM     30  C   UNL A   1      46.030  28.125  26.747  1.00  0.00     0.037 A 
ATOM     31  C   UNL A   1      41.203  31.225  30.117  1.00  0.00     0.049 A 
ATOM     32  C   UNL A   1      45.829  29.538  27.233  1.00  0.00     0.074 A 
ATOM     33  C   UNL A   1      41.195  32.544  30.520  1.00  0.00     0.029 A 
ATOM     34  N   UNL A   1      42.394  31.015  29.431  1.00  0.00    -0.354 N 
ATOM     35  N   UNL A   1      44.832  30.039  27.926  1.00  0.00    -0.248 NA
ATOM     36  C   UNL A   1      46.867  30.514  26.884  1.00  0.00     0.031 C 
ATOM     37  C   UNL A   1      42.359  33.146  30.029  1.00  0.00     0.029 A 
ATOM     38  C   UNL A   1      43.117  32.189  29.367  1.00  0.00     0.049 A 
ATOM     39  H   UNL A   1      42.679  30.155  29.045  1.00  0.00     0.167 HD
ATOM     40  C   UNL A   1      45.122  31.383  28.103  1.00  0.00     0.074 A 
ATOM     41  C   UNL A   1      46.405  31.612  27.464  1.00  0.00     0.031 C 
ATOM     42  C   UNL A   1      44.399  32.348  28.725  1.00  0.00     0.037 A 
BRANCH  29  43
ATOM     43  C   UNL A   1      38.943  30.529  31.054  1.00  0.00     0.064 A 
ATOM     44  C   UNL A   1      37.751  30.845  30.387  1.00  0.00     0.173 A 
ATOM     45  C   UNL A   1      38.942  30.582  32.457  1.00  0.00     0.173 A 
ATOM     46  F   UNL A   1      37.709  30.850  29.046  1.00  0.00    -0.203 F 
ATOM     47  C   UNL A   1      36.614  31.231  31.096  1.00  0.00     0.198 A 
ATOM     48  C   UNL A   1      37.797  30.942  33.163  1.00  0.00     0.198 A 
ATOM     49  F   UNL A   1      40.061  30.307  33.144  1.00  0.00    -0.203 F 
ATOM     50  F   UNL A   1      35.503  31.590  30.436  1.00  0.00    -0.200 F 
ATOM     51  C   UNL A   1      36.637  31.275  32.483  1.00  0.00     0.200 A 
ATOM     52  F   UNL A   1      37.825  30.988  34.502  1.00  0.00    -0.200 F 
ATOM     53  F   UNL A   1      35.547  31.657  33.161  1.00  0.00    -0.200 F 
ENDBRANCH  29  43
BRANCH  30  54
ATOM     54  C   UNL A   1      47.231  27.723  25.964  1.00  0.00     0.064 A 
ATOM     55  C   UNL A   1      47.235  27.746  24.562  1.00  0.00     0.173 A 
ATOM     56  C   UNL A   1      48.400  27.278  26.604  1.00  0.00     0.173 A 
ATOM     57  F   UNL A   1      46.140  28.138  23.895  1.00  0.00    -0.203 F 
ATOM     58  C   UNL A   1      48.349  27.322  23.836  1.00  0.00     0.198 A 
ATOM     59  C   UNL A   1      49.524  26.887  25.879  1.00  0.00     0.198 A 
ATOM     60  F   UNL A   1      48.455  27.224  27.944  1.00  0.00    -0.203 F 
ATOM     61  F   UNL A   1      48.306  27.302  22.496  1.00  0.00    -0.200 F 
ATOM     62  C   UNL A   1      49.493  26.899  24.495  1.00  0.00     0.200 A 
ATOM     63  F   UNL A   1      50.630  26.492  26.523  1.00  0.00    -0.200 F 
ATOM     64  F   UNL A   1      50.562  26.490  23.796  1.00  0.00    -0.200 F 
ENDBRANCH  30  54
BRANCH  42  65
ATOM     65  C   UNL A   1      44.995  33.719  28.759  1.00  0.00     0.064 A 
ATOM     66  C   UNL A   1      45.819  34.130  29.817  1.00  0.00     0.173 A 
ATOM     67  C   UNL A   1      44.805  34.596  27.682  1.00  0.00     0.173 A 
ATOM     68  F   UNL A   1      46.013  33.328  30.874  1.00  0.00    -0.203 F 
ATOM     69  C   UNL A   1      46.424  35.382  29.797  1.00  0.00     0.198 A 
ATOM     70  C   UNL A   1      45.438  35.833  27.653  1.00  0.00     0.198 A 
ATOM     71  F   UNL A   1      44.032  34.238  26.646  1.00  0.00    -0.203 F 
ATOM     72  F   UNL A   1      47.182  35.771  30.831  1.00  0.00    -0.200 F 
ATOM     73  C   UNL A   1      46.243  36.225  28.711  1.00  0.00     0.200 A 
ATOM     74  F   UNL A   1      45.276  36.640  26.595  1.00  0.00    -0.200 F 
ATOM     75  F   UNL A   1      46.847  37.421  28.685  1.00  0.00    -0.200 F 
ENDBRANCH  42  65
ENDBRANCH  16  17
ENDBRANCH   9  11
ENDBRANCH   8   9
ENDBRANCH   7   8
ENDBRANCH   6   7
ENDBRANCH   5   6
ENDBRANCH   4   5
ENDBRANCH   3   4
ENDBRANCH   2   3
ENDBRANCH   1   2
BRANCH   1  76
ATOM     76  C   UNL A   1      30.588  22.726  26.453  1.00  0.00     0.188 C 
BRANCH  76  77
ATOM     77  O   UNL A   1      31.102  23.816  27.182  1.00  0.00    -0.376 OA
BRANCH  77  78
ATOM     78  C   UNL A   1      30.637  25.133  26.896  1.00  0.00     0.202 C 
BRANCH  78  79
ATOM     79  C   UNL A   1      30.131  25.592  25.514  1.00  0.00     0.261 C 
BRANCH  79  80
ATOM     80  O   UNL A   1      30.120  27.013  25.252  1.00  0.00    -0.463 OA
BRANCH  80  81
ATOM     81  C   UNL A   1      30.188  27.371  23.951  1.00  0.00     0.309 C 
ATOM     82  O   UNL A   1      29.200  27.397  23.209  1.00  0.00    -0.252 OA
BRANCH  81  83
ATOM     83  C   UNL A   1      31.562  27.706  23.373  1.00  0.00     0.111 C 
ATOM     84  C   UNL A   1      32.213  26.429  22.830  1.00  0.00     0.016 C 
ATOM     85  C   UNL A   1      32.584  28.687  24.020  1.00  0.00     0.093 C 
ATOM     86  C   UNL A   1      33.319  26.765  21.833  1.00  0.00     0.001 C 
ATOM     87  C   UNL A   1      33.662  28.991  22.951  1.00  0.00     0.014 C 
ATOM     88  C   UNL A   1      34.336  27.732  22.419  1.00  0.00     0.001 C 
BRANCH  85  89
ATOM     89  C   UNL A   1      33.198  28.201  25.336  1.00  0.00     0.228 C 
ATOM     90  O   UNL A   1      33.705  27.078  25.434  1.00  0.00    -0.274 OA
ATOM     91  N   UNL A   1      33.303  29.004  26.442  1.00  0.00    -0.326 N 
ATOM     92  H   UNL A   1      33.654  28.539  27.236  1.00  0.00     0.169 HD
BRANCH  91  93
ATOM     93  C   UNL A   1      33.011  30.358  26.668  1.00  0.00     0.041 A 
ATOM     94  C   UNL A   1      31.739  30.779  26.259  1.00  0.00     0.026 A 
ATOM     95  C   UNL A   1      33.866  31.274  27.290  1.00  0.00     0.039 A 
ATOM     96  C   UNL A   1      31.275  32.055  26.570  1.00  0.00     0.003 A 
ATOM     97  C   UNL A   1      33.419  32.583  27.573  1.00  0.00     0.058 A 
ATOM     98  C   UNL A   1      32.106  32.950  27.235  1.00  0.00     0.013 A 
BRANCH  97  99
ATOM     99  C   UNL A   1      34.304  33.601  28.250  1.00  0.00     0.416 C 
ATOM    100  F   UNL A   1      35.626  33.280  28.168  1.00  0.00    -0.166 F 
ATOM    101  F   UNL A   1      34.188  34.840  27.698  1.00  0.00    -0.166 F 
ATOM    102  F   UNL A   1      34.043  33.754  29.578  1.00  0.00    -0.166 F 
ENDBRANCH  97  99
ENDBRANCH  91  93
ENDBRANCH  85  89
ENDBRANCH  81  83
ENDBRANCH  80  81
ENDBRANCH  79  80
ENDBRANCH  78  79
ENDBRANCH  77  78
ENDBRANCH  76  77
ENDBRANCH   1  76
TORSDOF 23
ENDMDL
MODEL 3
REMARK VINA RESULT:     -10.1      1.205      7.103
REMARK SMILES O=C(OCCOCCOCCOCCOC(=O)[C@@H]1CCCC[C@@H]1C(=O)Nc1cccc(C(F)(F)F)c1)c1ccc(-c2c3nc(c(-c4c(F)c(F)c(F)c(F)c4F)c4ccc([nH]4)c(-c4c(F)c(F)c(F)c(F)c4F)c4nc(c(-c5c(F)c(F)c(F)c(F)c5F)c5ccc2[nH]5)C=C4)C=C3)cc1
REMARK SMILES IDX 10 1 9 2 8 3 7 4 6 5 5 6 4 7 3 8 2 9 1 10 37 11 38 12 99 13
REMARK SMILES IDX 39 14 98 15 40 16 41 17 42 18 92 19 43 20 97 21 91 22 93 23
REMARK SMILES IDX 44 24 96 25 90 26 89 27 45 29 77 30 57 31 76 32 58 33 61 34
REMARK SMILES IDX 75 35 94 36 59 37 60 38 74 40 95 41 62 42 46 43 47 44 55 45
REMARK SMILES IDX 48 46 49 47 53 48 56 49 50 50 51 51 54 52 52 53 78 54 79 55
REMARK SMILES IDX 87 56 80 57 81 58 85 59 88 60 82 61 83 62 86 63 84 64 63 65
REMARK SMILES IDX 64 66 72 67 65 68 66 69 70 70 73 71 67 72 68 73 71 74 69 75
REMARK SMILES IDX 11 76 12 77 13 78 14 79 15 80 16 81 17 82 18 83 19 84 23 85
REMARK SMILES IDX 20 86 22 87 21 88 24 89 25 90 26 91 27 93 28 94 36 95 29 96
REMARK SMILES IDX 31 97 30 98 32 99 33 100 34 101 35 102
REMARK H PARENT 93 28 61 39 26 92
REMARK Flexibility Score: inf
ROOT
ATOM      1  C   UNL A   1      42.536  21.018  26.849  1.00  0.00     0.188 C 
ENDROOT
BRANCH   1   2
ATOM      2  O   UNL A   1      42.916  21.184  25.490  1.00  0.00    -0.377 OA
BRANCH   2   3
ATOM      3  C   UNL A   1      43.113  22.499  24.977  1.00  0.00     0.188 C 
BRANCH   3   4
ATOM      4  C   UNL A   1      44.517  22.741  24.462  1.00  0.00     0.188 C 
BRANCH   4   5
ATOM      5  O   UNL A   1      44.932  24.025  24.908  1.00  0.00    -0.376 OA
BRANCH   5   6
ATOM      6  C   UNL A   1      46.177  24.050  25.593  1.00  0.00     0.202 C 
BRANCH   6   7
ATOM      7  C   UNL A   1      46.994  25.310  25.316  1.00  0.00     0.261 C 
BRANCH   7   8
ATOM      8  O   UNL A   1      46.290  26.307  24.553  1.00  0.00    -0.460 OA
BRANCH   8   9
ATOM      9  C   UNL A   1      46.033  27.603  24.861  1.00  0.00     0.338 C 
ATOM     10  O   UNL A   1      46.528  28.475  24.148  1.00  0.00    -0.246 OA
BRANCH   9  11
ATOM     11  C   UNL A   1      45.223  28.061  26.036  1.00  0.00     0.060 A 
ATOM     12  C   UNL A   1      45.218  29.353  26.552  1.00  0.00     0.016 A 
ATOM     13  C   UNL A   1      44.322  27.139  26.603  1.00  0.00     0.016 A 
ATOM     14  C   UNL A   1      44.363  29.747  27.566  1.00  0.00     0.010 A 
ATOM     15  C   UNL A   1      43.472  27.510  27.652  1.00  0.00     0.010 A 
ATOM     16  C   UNL A   1      43.504  28.821  28.136  1.00  0.00    -0.014 A 
BRANCH  16  17
ATOM     17  C   UNL A   1      42.846  29.226  29.386  1.00  0.00     0.031 A 
ATOM     18  C   UNL A   1      41.391  29.560  29.307  1.00  0.00     0.074 A 
ATOM     19  C   UNL A   1      43.487  29.095  30.559  1.00  0.00     0.049 A 
ATOM     20  N   UNL A   1      40.594  30.031  30.224  1.00  0.00    -0.248 NA
ATOM     21  C   UNL A   1      40.732  29.300  28.013  1.00  0.00     0.031 C 
ATOM     22  C   UNL A   1      44.842  28.562  30.725  1.00  0.00     0.029 A 
ATOM     23  N   UNL A   1      43.076  29.367  31.834  1.00  0.00    -0.354 N 
ATOM     24  C   UNL A   1      39.362  30.177  29.603  1.00  0.00     0.074 A 
ATOM     25  C   UNL A   1      39.498  29.715  28.243  1.00  0.00     0.031 C 
ATOM     26  C   UNL A   1      45.151  28.555  32.033  1.00  0.00     0.029 A 
ATOM     27  C   UNL A   1      44.053  29.160  32.777  1.00  0.00     0.049 A 
ATOM     28  H   UNL A   1      42.168  29.679  32.055  1.00  0.00     0.167 HD
ATOM     29  C   UNL A   1      38.230  30.685  30.136  1.00  0.00     0.037 A 
ATOM     30  C   UNL A   1      44.063  29.497  34.080  1.00  0.00     0.037 A 
ATOM     31  C   UNL A   1      38.149  31.123  31.500  1.00  0.00     0.049 A 
ATOM     32  C   UNL A   1      42.834  30.183  34.621  1.00  0.00     0.074 A 
ATOM     33  C   UNL A   1      37.101  31.729  32.160  1.00  0.00     0.029 A 
ATOM     34  N   UNL A   1      39.187  30.992  32.416  1.00  0.00    -0.354 N 
ATOM     35  N   UNL A   1      41.693  30.430  34.018  1.00  0.00    -0.248 NA
ATOM     36  C   UNL A   1      42.898  30.666  36.004  1.00  0.00     0.031 C 
ATOM     37  C   UNL A   1      37.525  32.014  33.463  1.00  0.00     0.029 A 
ATOM     38  C   UNL A   1      38.818  31.536  33.630  1.00  0.00     0.049 A 
ATOM     39  H   UNL A   1      40.058  30.574  32.227  1.00  0.00     0.167 HD
ATOM     40  C   UNL A   1      40.901  31.088  34.945  1.00  0.00     0.074 A 
ATOM     41  C   UNL A   1      41.686  31.180  36.162  1.00  0.00     0.031 C 
ATOM     42  C   UNL A   1      39.645  31.584  34.811  1.00  0.00     0.037 A 
BRANCH  29  43
ATOM     43  C   UNL A   1      37.072  30.894  29.207  1.00  0.00     0.064 A 
ATOM     44  C   UNL A   1      36.712  32.159  28.722  1.00  0.00     0.173 A 
ATOM     45  C   UNL A   1      36.268  29.801  28.847  1.00  0.00     0.173 A 
ATOM     46  F   UNL A   1      37.423  33.243  29.069  1.00  0.00    -0.203 F 
ATOM     47  C   UNL A   1      35.574  32.327  27.935  1.00  0.00     0.198 A 
ATOM     48  C   UNL A   1      35.147  29.968  28.039  1.00  0.00     0.198 A 
ATOM     49  F   UNL A   1      36.557  28.571  29.298  1.00  0.00    -0.203 F 
ATOM     50  F   UNL A   1      35.212  33.554  27.535  1.00  0.00    -0.200 F 
ATOM     51  C   UNL A   1      34.794  31.231  27.591  1.00  0.00     0.200 A 
ATOM     52  F   UNL A   1      34.394  28.908  27.713  1.00  0.00    -0.200 F 
ATOM     53  F   UNL A   1      33.694  31.397  26.845  1.00  0.00    -0.200 F 
ENDBRANCH  29  43
BRANCH  30  54
ATOM     54  C   UNL A   1      45.285  29.300  34.908  1.00  0.00     0.064 A 
ATOM     55  C   UNL A   1      45.462  28.152  35.693  1.00  0.00     0.173 A 
ATOM     56  C   UNL A   1      46.296  30.275  34.954  1.00  0.00     0.173 A 
ATOM     57  F   UNL A   1      44.519  27.199  35.709  1.00  0.00    -0.203 F 
ATOM     58  C   UNL A   1      46.588  27.998  36.503  1.00  0.00     0.198 A 
ATOM     59  C   UNL A   1      47.436  30.104  35.736  1.00  0.00     0.198 A 
ATOM     60  F   UNL A   1      46.180  31.400  34.232  1.00  0.00    -0.203 F 
ATOM     61  F   UNL A   1      46.706  26.916  37.285  1.00  0.00    -0.200 F 
ATOM     62  C   UNL A   1      47.576  28.971  36.519  1.00  0.00     0.200 A 
ATOM     63  F   UNL A   1      48.393  31.043  35.737  1.00  0.00    -0.200 F 
ATOM     64  F   UNL A   1      48.657  28.822  37.298  1.00  0.00    -0.200 F 
ENDBRANCH  30  54
BRANCH  42  65
ATOM     65  C   UNL A   1      39.049  32.241  36.015  1.00  0.00     0.064 A 
ATOM     66  C   UNL A   1      38.228  31.531  36.902  1.00  0.00     0.173 A 
ATOM     67  C   UNL A   1      39.372  33.570  36.324  1.00  0.00     0.173 A 
ATOM     68  F   UNL A   1      37.882  30.263  36.635  1.00  0.00    -0.203 F 
ATOM     69  C   UNL A   1      37.742  32.136  38.056  1.00  0.00     0.198 A 
ATOM     70  C   UNL A   1      38.909  34.160  37.494  1.00  0.00     0.198 A 
ATOM     71  F   UNL A   1      40.162  34.282  35.506  1.00  0.00    -0.203 F 
ATOM     72  F   UNL A   1      36.932  31.453  38.876  1.00  0.00    -0.200 F 
ATOM     73  C   UNL A   1      38.093  33.444  38.356  1.00  0.00     0.200 A 
ATOM     74  F   UNL A   1      39.263  35.418  37.792  1.00  0.00    -0.200 F 
ATOM     75  F   UNL A   1      37.640  34.017  39.480  1.00  0.00    -0.200 F 
ENDBRANCH  42  65
ENDBRANCH  16  17
ENDBRANCH   9  11
ENDBRANCH   8   9
ENDBRANCH   7   8
ENDBRANCH   6   7
ENDBRANCH   5   6
ENDBRANCH   4   5
ENDBRANCH   3   4
ENDBRANCH   2   3
ENDBRANCH   1   2
BRANCH   1  76
ATOM     76  C   UNL A   1      41.234  21.638  27.365  1.00  0.00     0.188 C 
BRANCH  76  77
ATOM     77  O   UNL A   1      40.029  21.177  26.802  1.00  0.00    -0.376 OA
BRANCH  77  78
ATOM     78  C   UNL A   1      39.050  22.120  26.370  1.00  0.00     0.202 C 
BRANCH  78  79
ATOM     79  C   UNL A   1      37.975  21.826  25.305  1.00  0.00     0.261 C 
BRANCH  79  80
ATOM     80  O   UNL A   1      36.594  21.982  25.699  1.00  0.00    -0.463 OA
BRANCH  80  81
ATOM     81  C   UNL A   1      36.117  23.247  25.682  1.00  0.00     0.309 C 
ATOM     82  O   UNL A   1      36.793  24.214  25.317  1.00  0.00    -0.252 OA
BRANCH  81  83
ATOM     83  C   UNL A   1      34.695  23.481  26.190  1.00  0.00     0.111 C 
ATOM     84  C   UNL A   1      34.011  22.132  26.440  1.00  0.00     0.016 C 
ATOM     85  C   UNL A   1      33.722  24.568  25.641  1.00  0.00     0.093 C 
ATOM     86  C   UNL A   1      32.821  22.292  27.381  1.00  0.00     0.001 C 
ATOM     87  C   UNL A   1      32.553  24.683  26.650  1.00  0.00     0.014 C 
ATOM     88  C   UNL A   1      31.849  23.354  26.890  1.00  0.00     0.001 C 
BRANCH  85  89
ATOM     89  C   UNL A   1      33.228  24.326  24.211  1.00  0.00     0.228 C 
ATOM     90  O   UNL A   1      33.274  23.203  23.695  1.00  0.00    -0.274 OA
ATOM     91  N   UNL A   1      32.628  25.305  23.463  1.00  0.00    -0.326 N 
ATOM     92  H   UNL A   1      32.426  25.028  22.540  1.00  0.00     0.169 HD
BRANCH  91  93
ATOM     93  C   UNL A   1      32.246  26.625  23.750  1.00  0.00     0.041 A 
ATOM     94  C   UNL A   1      33.163  27.371  24.501  1.00  0.00     0.026 A 
ATOM     95  C   UNL A   1      31.064  27.234  23.315  1.00  0.00     0.039 A 
ATOM     96  C   UNL A   1      32.969  28.733  24.716  1.00  0.00     0.003 A 
ATOM     97  C   UNL A   1      30.840  28.605  23.562  1.00  0.00     0.058 A 
ATOM     98  C   UNL A   1      31.819  29.352  24.238  1.00  0.00     0.013 A 
BRANCH  97  99
ATOM     99  C   UNL A   1      29.583  29.305  23.105  1.00  0.00     0.416 C 
ATOM    100  F   UNL A   1      29.470  30.562  23.620  1.00  0.00    -0.166 F 
ATOM    101  F   UNL A   1      29.532  29.452  21.752  1.00  0.00    -0.166 F 
ATOM    102  F   UNL A   1      28.438  28.657  23.457  1.00  0.00    -0.166 F 
ENDBRANCH  97  99
ENDBRANCH  91  93
ENDBRANCH  85  89
ENDBRANCH  81  83
ENDBRANCH  80  81
ENDBRANCH  79  80
ENDBRANCH  78  79
ENDBRANCH  77  78
ENDBRANCH  76  77
ENDBRANCH   1  76
TORSDOF 23
ENDMDL
