MODEL 1
REMARK VINA RESULT:     -10.6      0.000      0.000
REMARK SMILES Cc1c(Br)c(C)c2c(c1Br)O[C@H](C(F)(F)F)C(C(=O)OCCOCCOCCOCCOC(=O)c1ccc(-c3c4nc(c(-c5c(F)c(F)c(F)c(F)c5F)c5ccc([nH]5)c(-c5c(F)c(F)c(F)c(F)c5F)c5nc(c(-c6c(F)c(F)c(F)c(F)c6F)c6ccc3[nH]6)C=C5)C=C4)cc1)=C2
REMARK SMILES IDX 27 1 26 2 25 3 24 4 23 5 22 6 21 7 20 8 18 9 19 10 17 11
REMARK SMILES IDX 1 12 2 13 3 14 9 15 4 16 5 17 8 18 10 19 6 20 7 21 11 22
REMARK SMILES IDX 98 23 12 24 13 25 14 26 15 27 16 28 28 29 29 30 30 31 31 32
REMARK SMILES IDX 32 33 33 34 34 35 35 36 36 37 97 38 37 39 96 40 38 41 39 42
REMARK SMILES IDX 40 43 90 44 41 45 95 46 89 47 91 48 42 49 94 50 88 51 87 52
REMARK SMILES IDX 43 54 75 55 55 56 74 57 56 58 59 59 73 60 92 61 57 62 58 63
REMARK SMILES IDX 72 65 93 66 60 67 44 68 45 69 53 70 46 71 47 72 51 73 54 74
REMARK SMILES IDX 48 75 49 76 52 77 50 78 76 79 77 80 85 81 78 82 79 83 83 84
REMARK SMILES IDX 86 85 80 86 81 87 84 88 82 89 61 90 62 91 70 92 63 93 64 94
REMARK SMILES IDX 68 95 71 96 65 97 66 98 69 99 67 100
REMARK H PARENT 91 53 59 64
REMARK Flexibility Score: inf
ROOT
ATOM      1  C   UNL A   1      43.484  18.654  25.324  1.00  0.00     0.188 C 
ENDROOT
BRANCH   1   2
ATOM      2  O   UNL A   1      42.156  18.724  25.842  1.00  0.00    -0.377 OA
BRANCH   2   3
ATOM      3  C   UNL A   1      41.892  19.728  26.811  1.00  0.00     0.188 C 
BRANCH   3   4
ATOM      4  C   UNL A   1      40.408  20.136  26.842  1.00  0.00     0.188 C 
BRANCH   4   5
ATOM      5  O   UNL A   1      40.085  21.107  25.851  1.00  0.00    -0.376 OA
BRANCH   5   6
ATOM      6  C   UNL A   1      38.835  21.777  25.951  1.00  0.00     0.202 C 
BRANCH   6   7
ATOM      7  C   UNL A   1      37.661  21.307  25.075  1.00  0.00     0.261 C 
BRANCH   7   8
ATOM      8  O   UNL A   1      36.354  21.719  25.503  1.00  0.00    -0.460 OA
BRANCH   8   9
ATOM      9  C   UNL A   1      35.302  20.969  25.131  1.00  0.00     0.338 C 
ATOM     10  O   UNL A   1      35.274  19.757  25.006  1.00  0.00    -0.246 OA
BRANCH   9  11
ATOM     11  C   UNL A   1      34.119  21.858  25.067  1.00  0.00     0.087 C 
ATOM     12  C   UNL A   1      29.878  26.699  24.037  1.00  0.00     0.047 C 
ATOM     13  C   UNL A   1      30.826  25.525  23.943  1.00  0.00    -0.019 A 
ATOM     14  C   UNL A   1      31.673  25.384  22.815  1.00  0.00     0.025 A 
ATOM     15  C   UNL A   1      30.949  24.584  24.984  1.00  0.00     0.064 A 
ATOM     16  Br  UNL A   1      31.531  26.664  21.387  1.00  0.00    -0.050 Br
ATOM     17  C   UNL A   1      32.647  24.358  22.741  1.00  0.00    -0.026 A 
ATOM     18  C   UNL A   1      31.950  23.594  24.949  1.00  0.00     0.142 A 
ATOM     19  Br  UNL A   1      29.800  24.636  26.519  1.00  0.00    -0.046 Br
ATOM     20  C   UNL A   1      33.495  24.133  21.507  1.00  0.00     0.046 C 
ATOM     21  C   UNL A   1      32.836  23.521  23.867  1.00  0.00     0.022 A 
ATOM     22  O   UNL A   1      32.001  22.731  26.012  1.00  0.00    -0.474 OA
ATOM     23  C   UNL A   1      33.987  22.622  23.976  1.00  0.00     0.027 C 
ATOM     24  C   UNL A   1      33.095  21.797  26.162  1.00  0.00     0.316 C 
BRANCH  24  25
ATOM     25  C   UNL A   1      33.702  22.002  27.557  1.00  0.00     0.430 C 
ATOM     26  F   UNL A   1      34.307  23.209  27.658  1.00  0.00    -0.167 F 
ATOM     27  F   UNL A   1      32.766  21.957  28.533  1.00  0.00    -0.167 F 
ATOM     28  F   UNL A   1      34.628  21.058  27.842  1.00  0.00    -0.167 F 
ENDBRANCH  24  25
ENDBRANCH   9  11
ENDBRANCH   8   9
ENDBRANCH   7   8
ENDBRANCH   6   7
ENDBRANCH   5   6
ENDBRANCH   4   5
ENDBRANCH   3   4
ENDBRANCH   2   3
ENDBRANCH   1   2
BRANCH   1  29
ATOM     29  C   UNL A   1      44.427  19.879  25.373  1.00  0.00     0.188 C 
BRANCH  29  30
ATOM     30  O   UNL A   1      44.137  20.869  24.389  1.00  0.00    -0.376 OA
BRANCH  30  31
ATOM     31  C   UNL A   1      43.479  22.048  24.840  1.00  0.00     0.202 C 
BRANCH  31  32
ATOM     32  C   UNL A   1      44.411  23.256  25.010  1.00  0.00     0.261 C 
BRANCH  32  33
ATOM     33  O   UNL A   1      43.827  24.522  24.665  1.00  0.00    -0.460 OA
BRANCH  33  34
ATOM     34  C   UNL A   1      44.485  25.630  25.065  1.00  0.00     0.338 C 
ATOM     35  O   UNL A   1      45.532  26.069  24.628  1.00  0.00    -0.246 OA
BRANCH  34  36
ATOM     36  C   UNL A   1      43.617  26.356  26.011  1.00  0.00     0.060 A 
ATOM     37  C   UNL A   1      43.986  27.650  26.406  1.00  0.00     0.016 A 
ATOM     38  C   UNL A   1      42.468  25.754  26.528  1.00  0.00     0.016 A 
ATOM     39  C   UNL A   1      43.237  28.323  27.367  1.00  0.00     0.010 A 
ATOM     40  C   UNL A   1      41.735  26.416  27.512  1.00  0.00     0.010 A 
ATOM     41  C   UNL A   1      42.147  27.680  27.969  1.00  0.00    -0.014 A 
BRANCH  41  42
ATOM     42  C   UNL A   1      41.623  28.191  29.256  1.00  0.00     0.031 A 
ATOM     43  C   UNL A   1      40.343  28.980  29.221  1.00  0.00     0.074 A 
ATOM     44  C   UNL A   1      42.243  27.949  30.422  1.00  0.00     0.049 A 
ATOM     45  N   UNL A   1      39.724  29.610  30.185  1.00  0.00    -0.248 NA
ATOM     46  C   UNL A   1      39.668  29.067  27.914  1.00  0.00     0.031 C 
ATOM     47  C   UNL A   1      43.446  27.139  30.591  1.00  0.00     0.029 A 
ATOM     48  N   UNL A   1      41.937  28.374  31.691  1.00  0.00    -0.354 N 
ATOM     49  C   UNL A   1      38.592  30.165  29.602  1.00  0.00     0.074 A 
ATOM     50  C   UNL A   1      38.619  29.822  28.197  1.00  0.00     0.031 C 
ATOM     51  C   UNL A   1      43.785  27.134  31.893  1.00  0.00     0.029 A 
ATOM     52  C   UNL A   1      42.844  27.971  32.638  1.00  0.00     0.049 A 
ATOM     53  H   UNL A   1      41.143  28.916  31.901  1.00  0.00     0.167 HD
ATOM     54  C   UNL A   1      37.613  30.891  30.188  1.00  0.00     0.037 A 
ATOM     55  C   UNL A   1      42.915  28.272  33.950  1.00  0.00     0.037 A 
ATOM     56  C   UNL A   1      37.595  31.244  31.580  1.00  0.00     0.049 A 
ATOM     57  C   UNL A   1      41.869  29.174  34.558  1.00  0.00     0.074 A 
ATOM     58  C   UNL A   1      36.661  31.995  32.269  1.00  0.00     0.029 A 
ATOM     59  N   UNL A   1      38.567  30.871  32.496  1.00  0.00    -0.354 N 
ATOM     60  N   UNL A   1      40.813  29.714  34.000  1.00  0.00    -0.248 NA
ATOM     61  C   UNL A   1      42.035  29.515  35.979  1.00  0.00     0.031 C 
ATOM     62  C   UNL A   1      37.091  32.116  33.594  1.00  0.00     0.029 A 
ATOM     63  C   UNL A   1      38.267  31.396  33.742  1.00  0.00     0.049 A 
ATOM     64  H   UNL A   1      39.354  30.316  32.292  1.00  0.00     0.167 HD
ATOM     65  C   UNL A   1      40.182  30.444  35.000  1.00  0.00     0.074 A 
ATOM     66  C   UNL A   1      40.961  30.257  36.207  1.00  0.00     0.031 C 
ATOM     67  C   UNL A   1      39.061  31.205  34.929  1.00  0.00     0.037 A 
BRANCH  54  68
ATOM     68  C   UNL A   1      36.495  31.373  29.313  1.00  0.00     0.064 A 
ATOM     69  C   UNL A   1      35.481  30.507  28.873  1.00  0.00     0.173 A 
ATOM     70  C   UNL A   1      36.418  32.721  28.935  1.00  0.00     0.173 A 
ATOM     71  F   UNL A   1      35.524  29.204  29.189  1.00  0.00    -0.203 F 
ATOM     72  C   UNL A   1      34.440  30.972  28.076  1.00  0.00     0.198 A 
ATOM     73  C   UNL A   1      35.362  33.187  28.159  1.00  0.00     0.198 A 
ATOM     74  F   UNL A   1      37.366  33.587  29.323  1.00  0.00    -0.203 F 
ATOM     75  F   UNL A   1      33.504  30.121  27.635  1.00  0.00    -0.200 F 
ATOM     76  C   UNL A   1      34.376  32.313  27.727  1.00  0.00     0.200 A 
ATOM     77  F   UNL A   1      35.298  34.484  27.828  1.00  0.00    -0.200 F 
ATOM     78  F   UNL A   1      33.367  32.762  26.967  1.00  0.00    -0.200 F 
ENDBRANCH  54  68
BRANCH  55  79
ATOM     79  C   UNL A   1      44.026  27.733  34.778  1.00  0.00     0.064 A 
ATOM     80  C   UNL A   1      45.252  28.408  34.867  1.00  0.00     0.173 A 
ATOM     81  C   UNL A   1      43.893  26.528  35.482  1.00  0.00     0.173 A 
ATOM     82  F   UNL A   1      45.439  29.548  34.186  1.00  0.00    -0.203 F 
ATOM     83  C   UNL A   1      46.303  27.893  35.621  1.00  0.00     0.198 A 
ATOM     84  C   UNL A   1      44.936  26.027  36.258  1.00  0.00     0.198 A 
ATOM     85  F   UNL A   1      42.744  25.838  35.422  1.00  0.00    -0.203 F 
ATOM     86  F   UNL A   1      47.479  28.536  35.654  1.00  0.00    -0.200 F 
ATOM     87  C   UNL A   1      46.143  26.707  36.322  1.00  0.00     0.200 A 
ATOM     88  F   UNL A   1      44.774  24.884  36.939  1.00  0.00    -0.200 F 
ATOM     89  F   UNL A   1      47.155  26.215  37.051  1.00  0.00    -0.200 F 
ENDBRANCH  55  79
BRANCH  67  90
ATOM     90  C   UNL A   1      38.605  31.887  36.187  1.00  0.00     0.064 A 
ATOM     91  C   UNL A   1      37.817  31.221  37.136  1.00  0.00     0.173 A 
ATOM     92  C   UNL A   1      39.001  33.204  36.468  1.00  0.00     0.173 A 
ATOM     93  F   UNL A   1      37.403  29.965  36.909  1.00  0.00    -0.203 F 
ATOM     94  C   UNL A   1      37.421  31.857  38.310  1.00  0.00     0.198 A 
ATOM     95  C   UNL A   1      38.630  33.826  37.656  1.00  0.00     0.198 A 
ATOM     96  F   UNL A   1      39.765  33.881  35.598  1.00  0.00    -0.203 F 
ATOM     97  F   UNL A   1      36.629  31.217  39.181  1.00  0.00    -0.200 F 
ATOM     98  C   UNL A   1      37.833  33.155  38.572  1.00  0.00     0.200 A 
ATOM     99  F   UNL A   1      39.044  35.073  37.917  1.00  0.00    -0.200 F 
ATOM    100  F   UNL A   1      37.458  33.762  39.706  1.00  0.00    -0.200 F 
ENDBRANCH  67  90
ENDBRANCH  41  42
ENDBRANCH  34  36
ENDBRANCH  33  34
ENDBRANCH  32  33
ENDBRANCH  31  32
ENDBRANCH  30  31
ENDBRANCH  29  30
ENDBRANCH   1  29
TORSDOF 21
ENDMDL
MODEL 2
REMARK VINA RESULT:     -10.4      8.420     13.927
REMARK SMILES Cc1c(Br)c(C)c2c(c1Br)O[C@H](C(F)(F)F)C(C(=O)OCCOCCOCCOCCOC(=O)c1ccc(-c3c4nc(c(-c5c(F)c(F)c(F)c(F)c5F)c5ccc([nH]5)c(-c5c(F)c(F)c(F)c(F)c5F)c5nc(c(-c6c(F)c(F)c(F)c(F)c6F)c6ccc3[nH]6)C=C5)C=C4)cc1)=C2
REMARK SMILES IDX 27 1 26 2 25 3 24 4 23 5 22 6 21 7 20 8 18 9 19 10 17 11
REMARK SMILES IDX 1 12 2 13 3 14 9 15 4 16 5 17 8 18 10 19 6 20 7 21 11 22
REMARK SMILES IDX 98 23 12 24 13 25 14 26 15 27 16 28 28 29 29 30 30 31 31 32
REMARK SMILES IDX 32 33 33 34 34 35 35 36 36 37 97 38 37 39 96 40 38 41 39 42
REMARK SMILES IDX 40 43 90 44 41 45 95 46 89 47 91 48 42 49 94 50 88 51 87 52
REMARK SMILES IDX 43 54 75 55 55 56 74 57 56 58 59 59 73 60 92 61 57 62 58 63
REMARK SMILES IDX 72 65 93 66 60 67 44 68 45 69 53 70 46 71 47 72 51 73 54 74
REMARK SMILES IDX 48 75 49 76 52 77 50 78 76 79 77 80 85 81 78 82 79 83 83 84
REMARK SMILES IDX 86 85 80 86 81 87 84 88 82 89 61 90 62 91 70 92 63 93 64 94
REMARK SMILES IDX 68 95 71 96 65 97 66 98 69 99 67 100
REMARK H PARENT 91 53 59 64
REMARK Flexibility Score: inf
ROOT
ATOM      1  C   UNL A   1      49.664  22.377  40.063  1.00  0.00     0.188 C 
ENDROOT
BRANCH   1   2
ATOM      2  O   UNL A   1      49.945  21.743  41.311  1.00  0.00    -0.377 OA
BRANCH   2   3
ATOM      3  C   UNL A   1      50.561  20.464  41.261  1.00  0.00     0.188 C 
BRANCH   3   4
ATOM      4  C   UNL A   1      49.739  19.389  41.995  1.00  0.00     0.188 C 
BRANCH   4   5
ATOM      5  O   UNL A   1      48.385  19.338  41.555  1.00  0.00    -0.376 OA
BRANCH   5   6
ATOM      6  C   UNL A   1      47.954  18.185  40.845  1.00  0.00     0.202 C 
BRANCH   6   7
ATOM      7  C   UNL A   1      46.619  18.231  40.082  1.00  0.00     0.261 C 
BRANCH   7   8
ATOM      8  O   UNL A   1      45.622  17.289  40.504  1.00  0.00    -0.460 OA
BRANCH   8   9
ATOM      9  C   UNL A   1      44.772  17.663  41.477  1.00  0.00     0.338 C 
ATOM     10  O   UNL A   1      44.373  18.791  41.708  1.00  0.00    -0.246 OA
BRANCH   9  11
ATOM     11  C   UNL A   1      44.257  16.431  42.119  1.00  0.00     0.087 C 
ATOM     12  C   UNL A   1      43.476  10.617  44.959  1.00  0.00     0.047 C 
ATOM     13  C   UNL A   1      43.790  12.052  44.600  1.00  0.00    -0.019 A 
ATOM     14  C   UNL A   1      44.981  12.658  45.074  1.00  0.00     0.025 A 
ATOM     15  C   UNL A   1      42.962  12.802  43.741  1.00  0.00     0.064 A 
ATOM     16  Br  UNL A   1      46.132  11.651  46.237  1.00  0.00    -0.050 Br
ATOM     17  C   UNL A   1      45.360  13.963  44.672  1.00  0.00    -0.026 A 
ATOM     18  C   UNL A   1      43.355  14.076  43.289  1.00  0.00     0.142 A 
ATOM     19  Br  UNL A   1      41.293  12.105  43.105  1.00  0.00    -0.046 Br
ATOM     20  C   UNL A   1      46.575  14.665  45.240  1.00  0.00     0.046 C 
ATOM     21  C   UNL A   1      44.575  14.627  43.698  1.00  0.00     0.022 A 
ATOM     22  O   UNL A   1      42.491  14.724  42.446  1.00  0.00    -0.474 OA
ATOM     23  C   UNL A   1      45.038  15.849  43.037  1.00  0.00     0.027 C 
ATOM     24  C   UNL A   1      42.875  15.952  41.786  1.00  0.00     0.316 C 
BRANCH  24  25
ATOM     25  C   UNL A   1      42.657  15.764  40.278  1.00  0.00     0.430 C 
ATOM     26  F   UNL A   1      41.608  14.945  40.031  1.00  0.00    -0.167 F 
ATOM     27  F   UNL A   1      42.390  16.934  39.651  1.00  0.00    -0.167 F 
ATOM     28  F   UNL A   1      43.744  15.225  39.679  1.00  0.00    -0.167 F 
ENDBRANCH  24  25
ENDBRANCH   9  11
ENDBRANCH   8   9
ENDBRANCH   7   8
ENDBRANCH   6   7
ENDBRANCH   5   6
ENDBRANCH   4   5
ENDBRANCH   3   4
ENDBRANCH   2   3
ENDBRANCH   1   2
BRANCH   1  29
ATOM     29  C   UNL A   1      50.780  22.623  39.021  1.00  0.00     0.188 C 
BRANCH  29  30
ATOM     30  O   UNL A   1      50.295  22.852  37.699  1.00  0.00    -0.376 OA
BRANCH  30  31
ATOM     31  C   UNL A   1      50.072  24.207  37.324  1.00  0.00     0.202 C 
BRANCH  31  32
ATOM     32  C   UNL A   1      48.588  24.591  37.236  1.00  0.00     0.261 C 
BRANCH  32  33
ATOM     33  O   UNL A   1      48.312  25.746  36.427  1.00  0.00    -0.460 OA
BRANCH  33  34
ATOM     34  C   UNL A   1      47.457  26.659  36.933  1.00  0.00     0.338 C 
ATOM     35  O   UNL A   1      47.567  27.280  37.974  1.00  0.00    -0.246 OA
BRANCH  34  36
ATOM     36  C   UNL A   1      46.434  26.939  35.909  1.00  0.00     0.060 A 
ATOM     37  C   UNL A   1      46.554  28.104  35.139  1.00  0.00     0.016 A 
ATOM     38  C   UNL A   1      45.350  26.077  35.732  1.00  0.00     0.016 A 
ATOM     39  C   UNL A   1      45.555  28.442  34.229  1.00  0.00     0.010 A 
ATOM     40  C   UNL A   1      44.335  26.430  34.843  1.00  0.00     0.010 A 
ATOM     41  C   UNL A   1      44.412  27.638  34.127  1.00  0.00    -0.014 A 
BRANCH  41  42
ATOM     42  C   UNL A   1      43.187  28.192  33.509  1.00  0.00     0.031 A 
ATOM     43  C   UNL A   1      42.915  27.842  32.072  1.00  0.00     0.074 A 
ATOM     44  C   UNL A   1      42.329  28.963  34.197  1.00  0.00     0.049 A 
ATOM     45  N   UNL A   1      41.969  28.265  31.274  1.00  0.00    -0.248 NA
ATOM     46  C   UNL A   1      43.839  26.878  31.450  1.00  0.00     0.031 C 
ATOM     47  C   UNL A   1      42.447  29.310  35.610  1.00  0.00     0.029 A 
ATOM     48  N   UNL A   1      41.184  29.596  33.785  1.00  0.00    -0.354 N 
ATOM     49  C   UNL A   1      42.186  27.620  30.063  1.00  0.00     0.074 A 
ATOM     50  C   UNL A   1      43.364  26.797  30.218  1.00  0.00     0.031 C 
ATOM     51  C   UNL A   1      41.417  30.106  35.948  1.00  0.00     0.029 A 
ATOM     52  C   UNL A   1      40.593  30.353  34.765  1.00  0.00     0.049 A 
ATOM     53  H   UNL A   1      40.821  29.515  32.874  1.00  0.00     0.167 HD
ATOM     54  C   UNL A   1      41.461  27.702  28.924  1.00  0.00     0.037 A 
ATOM     55  C   UNL A   1      39.524  31.171  34.698  1.00  0.00     0.037 A 
ATOM     56  C   UNL A   1      40.299  28.532  28.766  1.00  0.00     0.049 A 
ATOM     57  C   UNL A   1      38.796  31.329  33.386  1.00  0.00     0.074 A 
ATOM     58  C   UNL A   1      39.506  28.704  27.647  1.00  0.00     0.029 A 
ATOM     59  N   UNL A   1      39.768  29.336  29.764  1.00  0.00    -0.354 N 
ATOM     60  N   UNL A   1      39.016  30.736  32.237  1.00  0.00    -0.248 NA
ATOM     61  C   UNL A   1      37.676  32.283  33.361  1.00  0.00     0.031 C 
ATOM     62  C   UNL A   1      38.521  29.648  27.953  1.00  0.00     0.029 A 
ATOM     63  C   UNL A   1      38.669  30.024  29.279  1.00  0.00     0.049 A 
ATOM     64  H   UNL A   1      40.120  29.407  30.681  1.00  0.00     0.167 HD
ATOM     65  C   UNL A   1      38.057  31.229  31.361  1.00  0.00     0.074 A 
ATOM     66  C   UNL A   1      37.238  32.154  32.117  1.00  0.00     0.031 C 
ATOM     67  C   UNL A   1      37.872  30.947  30.047  1.00  0.00     0.037 A 
BRANCH  54  68
ATOM     68  C   UNL A   1      41.925  26.890  27.752  1.00  0.00     0.064 A 
ATOM     69  C   UNL A   1      42.895  27.375  26.861  1.00  0.00     0.173 A 
ATOM     70  C   UNL A   1      41.417  25.601  27.535  1.00  0.00     0.173 A 
ATOM     71  F   UNL A   1      43.393  28.611  27.014  1.00  0.00    -0.203 F 
ATOM     72  C   UNL A   1      43.328  26.603  25.788  1.00  0.00     0.198 A 
ATOM     73  C   UNL A   1      41.871  24.823  26.475  1.00  0.00     0.198 A 
ATOM     74  F   UNL A   1      40.483  25.096  28.354  1.00  0.00    -0.203 F 
ATOM     75  F   UNL A   1      44.227  27.101  24.927  1.00  0.00    -0.200 F 
ATOM     76  C   UNL A   1      42.824  25.325  25.600  1.00  0.00     0.200 A 
ATOM     77  F   UNL A   1      41.388  23.586  26.299  1.00  0.00    -0.200 F 
ATOM     78  F   UNL A   1      43.250  24.579  24.571  1.00  0.00    -0.200 F 
ENDBRANCH  54  68
BRANCH  55  79
ATOM     79  C   UNL A   1      39.085  31.922  35.903  1.00  0.00     0.064 A 
ATOM     80  C   UNL A   1      38.223  31.338  36.843  1.00  0.00     0.173 A 
ATOM     81  C   UNL A   1      39.501  33.242  36.133  1.00  0.00     0.173 A 
ATOM     82  F   UNL A   1      37.773  30.090  36.651  1.00  0.00    -0.203 F 
ATOM     83  C   UNL A   1      37.789  32.048  37.960  1.00  0.00     0.198 A 
ATOM     84  C   UNL A   1      39.087  33.942  37.264  1.00  0.00     0.198 A 
ATOM     85  F   UNL A   1      40.316  33.850  35.259  1.00  0.00    -0.203 F 
ATOM     86  F   UNL A   1      36.932  31.481  38.820  1.00  0.00    -0.200 F 
ATOM     87  C   UNL A   1      38.226  33.347  38.173  1.00  0.00     0.200 A 
ATOM     88  F   UNL A   1      39.517  35.194  37.469  1.00  0.00    -0.200 F 
ATOM     89  F   UNL A   1      37.811  34.027  39.251  1.00  0.00    -0.200 F 
ENDBRANCH  55  79
BRANCH  67  90
ATOM     90  C   UNL A   1      36.740  31.639  29.343  1.00  0.00     0.064 A 
ATOM     91  C   UNL A   1      35.588  30.944  28.950  1.00  0.00     0.173 A 
ATOM     92  C   UNL A   1      36.788  33.022  29.103  1.00  0.00     0.173 A 
ATOM     93  F   UNL A   1      35.498  29.620  29.147  1.00  0.00    -0.203 F 
ATOM     94  C   UNL A   1      34.535  31.602  28.320  1.00  0.00     0.198 A 
ATOM     95  C   UNL A   1      35.721  33.682  28.500  1.00  0.00     0.198 A 
ATOM     96  F   UNL A   1      37.862  33.735  29.469  1.00  0.00    -0.203 F 
ATOM     97  F   UNL A   1      33.463  30.908  27.910  1.00  0.00    -0.200 F 
ATOM     98  C   UNL A   1      34.599  32.970  28.102  1.00  0.00     0.200 A 
ATOM     99  F   UNL A   1      35.776  35.007  28.307  1.00  0.00    -0.200 F 
ATOM    100  F   UNL A   1      33.581  33.603  27.503  1.00  0.00    -0.200 F 
ENDBRANCH  67  90
ENDBRANCH  41  42
ENDBRANCH  34  36
ENDBRANCH  33  34
ENDBRANCH  32  33
ENDBRANCH  31  32
ENDBRANCH  30  31
ENDBRANCH  29  30
ENDBRANCH   1  29
TORSDOF 21
ENDMDL
MODEL 3
REMARK VINA RESULT:     -10.1      5.914     10.680
REMARK SMILES Cc1c(Br)c(C)c2c(c1Br)O[C@H](C(F)(F)F)C(C(=O)OCCOCCOCCOCCOC(=O)c1ccc(-c3c4nc(c(-c5c(F)c(F)c(F)c(F)c5F)c5ccc([nH]5)c(-c5c(F)c(F)c(F)c(F)c5F)c5nc(c(-c6c(F)c(F)c(F)c(F)c6F)c6ccc3[nH]6)C=C5)C=C4)cc1)=C2
REMARK SMILES IDX 27 1 26 2 25 3 24 4 23 5 22 6 21 7 20 8 18 9 19 10 17 11
REMARK SMILES IDX 1 12 2 13 3 14 9 15 4 16 5 17 8 18 10 19 6 20 7 21 11 22
REMARK SMILES IDX 98 23 12 24 13 25 14 26 15 27 16 28 28 29 29 30 30 31 31 32
REMARK SMILES IDX 32 33 33 34 34 35 35 36 36 37 97 38 37 39 96 40 38 41 39 42
REMARK SMILES IDX 40 43 90 44 41 45 95 46 89 47 91 48 42 49 94 50 88 51 87 52
REMARK SMILES IDX 43 54 75 55 55 56 74 57 56 58 59 59 73 60 92 61 57 62 58 63
REMARK SMILES IDX 72 65 93 66 60 67 44 68 45 69 53 70 46 71 47 72 51 73 54 74
REMARK SMILES IDX 48 75 49 76 52 77 50 78 76 79 77 80 85 81 78 82 79 83 83 84
REMARK SMILES IDX 86 85 80 86 81 87 84 88 82 89 61 90 62 91 70 92 63 93 64 94
REMARK SMILES IDX 68 95 71 96 65 97 66 98 69 99 67 100
REMARK H PARENT 91 53 59 64
REMARK Flexibility Score: inf
ROOT
ATOM      1  C   UNL A   1      33.730  35.168  29.108  1.00  0.00     0.188 C 
ENDROOT
BRANCH   1   2
ATOM      2  O   UNL A   1      33.366  33.832  28.759  1.00  0.00    -0.377 OA
BRANCH   2   3
ATOM      3  C   UNL A   1      34.303  33.086  27.996  1.00  0.00     0.188 C 
BRANCH   3   4
ATOM      4  C   UNL A   1      34.020  31.573  28.036  1.00  0.00     0.188 C 
BRANCH   4   5
ATOM      5  O   UNL A   1      32.881  31.208  27.263  1.00  0.00    -0.376 OA
BRANCH   5   6
ATOM      6  C   UNL A   1      32.546  29.830  27.171  1.00  0.00     0.202 C 
BRANCH   6   7
ATOM      7  C   UNL A   1      33.671  28.796  26.993  1.00  0.00     0.261 C 
BRANCH   7   8
ATOM      8  O   UNL A   1      33.258  27.482  26.588  1.00  0.00    -0.460 OA
BRANCH   8   9
ATOM      9  C   UNL A   1      33.599  27.064  25.356  1.00  0.00     0.338 C 
ATOM     10  O   UNL A   1      33.949  27.760  24.418  1.00  0.00    -0.246 OA
BRANCH   9  11
ATOM     11  C   UNL A   1      33.649  25.585  25.383  1.00  0.00     0.087 C 
ATOM     12  C   UNL A   1      35.141  19.280  24.673  1.00  0.00     0.047 C 
ATOM     13  C   UNL A   1      35.062  20.743  25.046  1.00  0.00    -0.019 A 
ATOM     14  C   UNL A   1      36.249  21.499  25.214  1.00  0.00     0.025 A 
ATOM     15  C   UNL A   1      33.829  21.413  25.171  1.00  0.00     0.064 A 
ATOM     16  Br  UNL A   1      37.944  20.609  25.038  1.00  0.00    -0.050 Br
ATOM     17  C   UNL A   1      36.214  22.894  25.459  1.00  0.00    -0.026 A 
ATOM     18  C   UNL A   1      33.779  22.807  25.357  1.00  0.00     0.142 A 
ATOM     19  Br  UNL A   1      32.163  20.471  25.038  1.00  0.00    -0.046 Br
ATOM     20  C   UNL A   1      37.465  23.700  25.737  1.00  0.00     0.046 C 
ATOM     21  C   UNL A   1      34.961  23.554  25.436  1.00  0.00     0.022 A 
ATOM     22  O   UNL A   1      32.535  23.372  25.454  1.00  0.00    -0.474 OA
ATOM     23  C   UNL A   1      34.859  25.014  25.412  1.00  0.00     0.027 C 
ATOM     24  C   UNL A   1      32.368  24.809  25.467  1.00  0.00     0.316 C 
BRANCH  24  25
ATOM     25  C   UNL A   1      31.374  25.178  24.357  1.00  0.00     0.430 C 
ATOM     26  F   UNL A   1      30.455  24.200  24.174  1.00  0.00    -0.167 F 
ATOM     27  F   UNL A   1      30.684  26.306  24.643  1.00  0.00    -0.167 F 
ATOM     28  F   UNL A   1      31.998  25.376  23.173  1.00  0.00    -0.167 F 
ENDBRANCH  24  25
ENDBRANCH   9  11
ENDBRANCH   8   9
ENDBRANCH   7   8
ENDBRANCH   6   7
ENDBRANCH   5   6
ENDBRANCH   4   5
ENDBRANCH   3   4
ENDBRANCH   2   3
ENDBRANCH   1   2
BRANCH   1  29
ATOM     29  C   UNL A   1      32.866  36.004  30.081  1.00  0.00     0.188 C 
BRANCH  29  30
ATOM     30  O   UNL A   1      33.532  36.349  31.293  1.00  0.00    -0.376 OA
BRANCH  30  31
ATOM     31  C   UNL A   1      33.283  35.519  32.421  1.00  0.00     0.202 C 
BRANCH  31  32
ATOM     32  C   UNL A   1      34.546  34.880  33.016  1.00  0.00     0.261 C 
BRANCH  32  33
ATOM     33  O   UNL A   1      35.429  34.282  32.053  1.00  0.00    -0.460 OA
BRANCH  33  34
ATOM     34  C   UNL A   1      35.254  32.969  31.793  1.00  0.00     0.338 C 
ATOM     35  O   UNL A   1      34.207  32.349  31.782  1.00  0.00    -0.246 OA
BRANCH  34  36
ATOM     36  C   UNL A   1      36.541  32.425  31.323  1.00  0.00     0.060 A 
ATOM     37  C   UNL A   1      37.359  31.746  32.237  1.00  0.00     0.016 A 
ATOM     38  C   UNL A   1      36.951  32.611  30.000  1.00  0.00     0.016 A 
ATOM     39  C   UNL A   1      38.620  31.303  31.845  1.00  0.00     0.010 A 
ATOM     40  C   UNL A   1      38.225  32.193  29.617  1.00  0.00     0.010 A 
ATOM     41  C   UNL A   1      39.080  31.583  30.551  1.00  0.00    -0.014 A 
BRANCH  41  42
ATOM     42  C   UNL A   1      40.530  31.508  30.265  1.00  0.00     0.031 A 
ATOM     43  C   UNL A   1      41.361  32.725  30.567  1.00  0.00     0.074 A 
ATOM     44  C   UNL A   1      41.101  30.397  29.774  1.00  0.00     0.049 A 
ATOM     45  N   UNL A   1      42.627  32.952  30.328  1.00  0.00    -0.248 NA
ATOM     46  C   UNL A   1      40.666  33.839  31.234  1.00  0.00     0.031 C 
ATOM     47  C   UNL A   1      40.415  29.136  29.510  1.00  0.00     0.029 A 
ATOM     48  N   UNL A   1      42.402  30.159  29.407  1.00  0.00    -0.354 N 
ATOM     49  C   UNL A   1      42.876  34.228  30.814  1.00  0.00     0.074 A 
ATOM     50  C   UNL A   1      41.630  34.740  31.338  1.00  0.00     0.031 C 
ATOM     51  C   UNL A   1      41.301  28.256  29.011  1.00  0.00     0.029 A 
ATOM     52  C   UNL A   1      42.605  28.907  28.886  1.00  0.00     0.049 A 
ATOM     53  H   UNL A   1      43.121  30.825  29.507  1.00  0.00     0.167 HD
ATOM     54  C   UNL A   1      44.043  34.911  30.828  1.00  0.00     0.037 A 
ATOM     55  C   UNL A   1      43.715  28.365  28.346  1.00  0.00     0.037 A 
ATOM     56  C   UNL A   1      45.277  34.408  30.292  1.00  0.00     0.049 A 
ATOM     57  C   UNL A   1      44.978  29.187  28.274  1.00  0.00     0.074 A 
ATOM     58  C   UNL A   1      46.511  35.029  30.237  1.00  0.00     0.029 A 
ATOM     59  N   UNL A   1      45.429  33.158  29.713  1.00  0.00    -0.354 N 
ATOM     60  N   UNL A   1      45.205  30.401  28.714  1.00  0.00    -0.248 NA
ATOM     61  C   UNL A   1      46.138  28.563  27.618  1.00  0.00     0.031 C 
ATOM     62  C   UNL A   1      47.400  34.171  29.581  1.00  0.00     0.029 A 
ATOM     63  C   UNL A   1      46.733  32.996  29.276  1.00  0.00     0.049 A 
ATOM     64  H   UNL A   1      44.716  32.484  29.624  1.00  0.00     0.167 HD
ATOM     65  C   UNL A   1      46.531  30.681  28.405  1.00  0.00     0.074 A 
ATOM     66  C   UNL A   1      47.065  29.499  27.760  1.00  0.00     0.031 C 
ATOM     67  C   UNL A   1      47.242  31.814  28.628  1.00  0.00     0.037 A 
BRANCH  54  68
ATOM     68  C   UNL A   1      44.028  36.289  31.419  1.00  0.00     0.064 A 
ATOM     69  C   UNL A   1      44.263  36.504  32.786  1.00  0.00     0.173 A 
ATOM     70  C   UNL A   1      43.808  37.409  30.605  1.00  0.00     0.173 A 
ATOM     71  F   UNL A   1      44.455  35.463  33.609  1.00  0.00    -0.203 F 
ATOM     72  C   UNL A   1      44.264  37.790  33.317  1.00  0.00     0.198 A 
ATOM     73  C   UNL A   1      43.834  38.695  31.135  1.00  0.00     0.198 A 
ATOM     74  F   UNL A   1      43.571  37.256  29.293  1.00  0.00    -0.203 F 
ATOM     75  F   UNL A   1      44.451  37.970  34.632  1.00  0.00    -0.200 F 
ATOM     76  C   UNL A   1      44.058  38.886  32.491  1.00  0.00     0.200 A 
ATOM     77  F   UNL A   1      43.642  39.753  30.335  1.00  0.00    -0.200 F 
ATOM     78  F   UNL A   1      44.069  40.124  33.002  1.00  0.00    -0.200 F 
ENDBRANCH  54  68
BRANCH  55  79
ATOM     79  C   UNL A   1      43.682  26.979  27.810  1.00  0.00     0.064 A 
ATOM     80  C   UNL A   1      44.016  25.884  28.620  1.00  0.00     0.173 A 
ATOM     81  C   UNL A   1      43.334  26.720  26.476  1.00  0.00     0.173 A 
ATOM     82  F   UNL A   1      44.386  26.083  29.893  1.00  0.00    -0.203 F 
ATOM     83  C   UNL A   1      44.011  24.587  28.114  1.00  0.00     0.198 A 
ATOM     84  C   UNL A   1      43.304  25.419  25.978  1.00  0.00     0.198 A 
ATOM     85  F   UNL A   1      43.017  27.733  25.657  1.00  0.00    -0.203 F 
ATOM     86  F   UNL A   1      44.375  23.563  28.898  1.00  0.00    -0.200 F 
ATOM     87  C   UNL A   1      43.649  24.354  26.796  1.00  0.00     0.200 A 
ATOM     88  F   UNL A   1      42.947  25.199  24.706  1.00  0.00    -0.200 F 
ATOM     89  F   UNL A   1      43.640  23.104  26.312  1.00  0.00    -0.200 F 
ENDBRANCH  55  79
BRANCH  67  90
ATOM     90  C   UNL A   1      48.676  31.830  28.180  1.00  0.00     0.064 A 
ATOM     91  C   UNL A   1      49.056  32.416  26.965  1.00  0.00     0.173 A 
ATOM     92  C   UNL A   1      49.685  31.297  28.997  1.00  0.00     0.173 A 
ATOM     93  F   UNL A   1      48.128  32.929  26.143  1.00  0.00    -0.203 F 
ATOM     94  C   UNL A   1      50.392  32.447  26.572  1.00  0.00     0.198 A 
ATOM     95  C   UNL A   1      51.022  31.357  28.616  1.00  0.00     0.198 A 
ATOM     96  F   UNL A   1      49.376  30.735  30.175  1.00  0.00    -0.203 F 
ATOM     97  F   UNL A   1      50.727  32.970  25.384  1.00  0.00    -0.200 F 
ATOM     98  C   UNL A   1      51.374  31.924  27.400  1.00  0.00     0.200 A 
ATOM     99  F   UNL A   1      51.972  30.868  29.426  1.00  0.00    -0.200 F 
ATOM    100  F   UNL A   1      52.659  31.962  27.025  1.00  0.00    -0.200 F 
ENDBRANCH  67  90
ENDBRANCH  41  42
ENDBRANCH  34  36
ENDBRANCH  33  34
ENDBRANCH  32  33
ENDBRANCH  31  32
ENDBRANCH  30  31
ENDBRANCH  29  30
ENDBRANCH   1  29
TORSDOF 21
ENDMDL
