MODEL 1
REMARK VINA RESULT:     -10.5      0.000      0.000
REMARK SMILES CCN(C(=O)Nc1cc(OC)ccc1F)[C@H](C)CC(=O)OCCOCCOCCOCCOC(=O)c1ccc(-c2c3nc(c(-c4c(F)c(F)c(F)c(F)c4F)c4ccc([nH]4)c(-c4c(F)c(F)c(F)c(F)c4F)c4nc(c(-c5c(F)c(F)c(F)c(F)c5F)c5ccc2[nH]5)C=C4)C=C3)cc1
REMARK SMILES IDX 25 1 24 2 23 3 22 4 21 5 19 6 20 7 18 8 16 9 17 10 3 11 2 12
REMARK SMILES IDX 1 13 4 14 5 15 6 16 7 18 8 19 14 20 9 21 13 22 15 23 12 24
REMARK SMILES IDX 10 25 11 26 26 27 27 28 28 29 29 30 30 31 31 32 32 33 33 34
REMARK SMILES IDX 34 35 35 36 36 37 37 38 98 39 38 40 97 41 39 42 40 43 41 44
REMARK SMILES IDX 91 45 42 46 96 47 90 48 92 49 43 50 95 51 89 52 88 53 44 55
REMARK SMILES IDX 76 56 56 57 75 58 57 59 60 60 74 61 93 62 58 63 59 64 73 66
REMARK SMILES IDX 94 67 61 68 45 69 46 70 54 71 47 72 48 73 52 74 55 75 49 76
REMARK SMILES IDX 50 77 53 78 51 79 77 80 78 81 86 82 79 83 80 84 84 85 87 86
REMARK SMILES IDX 81 87 82 88 85 89 83 90 62 91 63 92 71 93 64 94 65 95 69 96
REMARK SMILES IDX 72 97 66 98 67 99 70 100 68 101
REMARK H PARENT 6 17 92 54 60 65
REMARK Flexibility Score: inf
ROOT
ATOM      1  C   UNL A   1      33.633  27.092  22.431  1.00  0.00     0.188 C 
ENDROOT
BRANCH   1   2
ATOM      2  O   UNL A   1      32.284  26.809  22.144  1.00  0.00    -0.376 OA
BRANCH   2   3
ATOM      3  C   UNL A   1      31.703  25.570  22.515  1.00  0.00     0.202 C 
BRANCH   3   4
ATOM      4  C   UNL A   1      30.708  25.352  23.671  1.00  0.00     0.261 C 
BRANCH   4   5
ATOM      5  O   UNL A   1      30.677  24.065  24.310  1.00  0.00    -0.463 OA
BRANCH   5   6
ATOM      6  C   UNL A   1      31.063  24.051  25.605  1.00  0.00     0.307 C 
ATOM      7  O   UNL A   1      30.424  24.584  26.510  1.00  0.00    -0.252 OA
BRANCH   6   8
ATOM      8  C   UNL A   1      32.352  23.329  25.915  1.00  0.00     0.147 C 
BRANCH   8   9
ATOM      9  C   UNL A   1      33.666  23.592  25.162  1.00  0.00     0.094 C 
ATOM     10  C   UNL A   1      34.429  24.838  25.632  1.00  0.00     0.032 C 
BRANCH   9  11
ATOM     11  N   UNL A   1      34.507  22.349  25.161  1.00  0.00    -0.322 N 
BRANCH  11  12
ATOM     12  C   UNL A   1      35.419  22.173  24.012  1.00  0.00     0.118 C 
ATOM     13  C   UNL A   1      36.915  22.147  24.292  1.00  0.00     0.027 C 
ENDBRANCH  11  12
BRANCH  11  14
ATOM     14  C   UNL A   1      34.263  21.416  26.148  1.00  0.00     0.322 C 
ATOM     15  O   UNL A   1      34.449  21.673  27.345  1.00  0.00    -0.248 OA
ATOM     16  N   UNL A   1      33.689  20.213  25.922  1.00  0.00    -0.305 N 
ATOM     17  H   UNL A   1      33.349  19.796  26.746  1.00  0.00     0.171 HD
BRANCH  16  18
ATOM     18  C   UNL A   1      33.464  19.423  24.790  1.00  0.00     0.082 A 
ATOM     19  C   UNL A   1      34.118  18.188  24.777  1.00  0.00     0.075 A 
ATOM     20  C   UNL A   1      32.587  19.737  23.751  1.00  0.00     0.147 A 
ATOM     21  C   UNL A   1      33.770  17.210  23.845  1.00  0.00     0.121 A 
ATOM     22  C   UNL A   1      32.249  18.776  22.801  1.00  0.00     0.045 A 
ATOM     23  F   UNL A   1      32.007  20.943  23.679  1.00  0.00    -0.205 F 
ATOM     24  C   UNL A   1      32.815  17.497  22.867  1.00  0.00     0.049 A 
BRANCH  21  25
ATOM     25  O   UNL A   1      34.408  16.017  24.034  1.00  0.00    -0.497 OA
ATOM     26  C   UNL A   1      35.186  15.875  25.213  1.00  0.00     0.278 C 
ENDBRANCH  21  25
ENDBRANCH  16  18
ENDBRANCH  11  14
ENDBRANCH   9  11
ENDBRANCH   8   9
ENDBRANCH   6   8
ENDBRANCH   5   6
ENDBRANCH   4   5
ENDBRANCH   3   4
ENDBRANCH   2   3
ENDBRANCH   1   2
BRANCH   1  27
ATOM     27  C   UNL A   1      33.986  28.517  22.861  1.00  0.00     0.188 C 
BRANCH  27  28
ATOM     28  O   UNL A   1      32.977  29.301  23.464  1.00  0.00    -0.377 OA
BRANCH  28  29
ATOM     29  C   UNL A   1      32.870  29.352  24.883  1.00  0.00     0.188 C 
BRANCH  29  30
ATOM     30  C   UNL A   1      31.627  29.952  25.570  1.00  0.00     0.188 C 
BRANCH  30  31
ATOM     31  O   UNL A   1      31.878  31.069  26.403  1.00  0.00    -0.376 OA
BRANCH  31  32
ATOM     32  C   UNL A   1      33.010  31.042  27.260  1.00  0.00     0.202 C 
BRANCH  32  33
ATOM     33  C   UNL A   1      33.673  32.383  27.613  1.00  0.00     0.261 C 
BRANCH  33  34
ATOM     34  O   UNL A   1      32.795  33.514  27.730  1.00  0.00    -0.460 OA
BRANCH  34  35
ATOM     35  C   UNL A   1      33.168  34.527  28.536  1.00  0.00     0.338 C 
ATOM     36  O   UNL A   1      32.588  35.586  28.720  1.00  0.00    -0.246 OA
BRANCH  35  37
ATOM     37  C   UNL A   1      34.329  34.072  29.322  1.00  0.00     0.060 A 
ATOM     38  C   UNL A   1      35.620  34.335  28.845  1.00  0.00     0.016 A 
ATOM     39  C   UNL A   1      34.141  33.370  30.514  1.00  0.00     0.016 A 
ATOM     40  C   UNL A   1      36.729  33.855  29.538  1.00  0.00     0.010 A 
ATOM     41  C   UNL A   1      35.253  32.873  31.197  1.00  0.00     0.010 A 
ATOM     42  C   UNL A   1      36.549  33.080  30.691  1.00  0.00    -0.014 A 
BRANCH  42  43
ATOM     43  C   UNL A   1      37.691  32.321  31.253  1.00  0.00     0.031 A 
ATOM     44  C   UNL A   1      38.176  32.674  32.630  1.00  0.00     0.074 A 
ATOM     45  C   UNL A   1      38.269  31.320  30.570  1.00  0.00     0.049 A 
ATOM     46  N   UNL A   1      39.181  32.187  33.311  1.00  0.00    -0.248 NA
ATOM     47  C   UNL A   1      37.423  33.724  33.334  1.00  0.00     0.031 C 
ATOM     48  C   UNL A   1      37.852  30.847  29.253  1.00  0.00     0.029 A 
ATOM     49  N   UNL A   1      39.338  30.522  30.897  1.00  0.00    -0.354 N 
ATOM     50  C   UNL A   1      39.180  32.868  34.520  1.00  0.00     0.074 A 
ATOM     51  C   UNL A   1      38.105  33.834  34.463  1.00  0.00     0.031 C 
ATOM     52  C   UNL A   1      38.658  29.839  28.881  1.00  0.00     0.029 A 
ATOM     53  C   UNL A   1      39.670  29.621  29.916  1.00  0.00     0.049 A 
ATOM     54  H   UNL A   1      39.819  30.588  31.754  1.00  0.00     0.167 HD
ATOM     55  C   UNL A   1      39.993  32.693  35.588  1.00  0.00     0.037 A 
ATOM     56  C   UNL A   1      40.685  28.738  29.856  1.00  0.00     0.037 A 
ATOM     57  C   UNL A   1      41.070  31.739  35.633  1.00  0.00     0.049 A 
ATOM     58  C   UNL A   1      41.647  28.629  31.009  1.00  0.00     0.074 A 
ATOM     59  C   UNL A   1      41.955  31.487  36.667  1.00  0.00     0.029 A 
ATOM     60  N   UNL A   1      41.416  30.888  34.593  1.00  0.00    -0.354 N 
ATOM     61  N   UNL A   1      41.643  29.273  32.152  1.00  0.00    -0.248 NA
ATOM     62  C   UNL A   1      42.754  27.673  30.867  1.00  0.00     0.031 C 
ATOM     63  C   UNL A   1      42.875  30.530  36.229  1.00  0.00     0.029 A 
ATOM     64  C   UNL A   1      42.522  30.131  34.949  1.00  0.00     0.049 A 
ATOM     65  H   UNL A   1      40.946  30.830  33.730  1.00  0.00     0.167 HD
ATOM     66  C   UNL A   1      42.726  28.786  32.872  1.00  0.00     0.074 A 
ATOM     67  C   UNL A   1      43.363  27.785  32.040  1.00  0.00     0.031 C 
ATOM     68  C   UNL A   1      43.149  29.136  34.114  1.00  0.00     0.037 A 
BRANCH  55  69
ATOM     69  C   UNL A   1      39.762  33.572  36.785  1.00  0.00     0.064 A 
ATOM     70  C   UNL A   1      38.854  33.191  37.784  1.00  0.00     0.173 A 
ATOM     71  C   UNL A   1      40.422  34.802  36.936  1.00  0.00     0.173 A 
ATOM     72  F   UNL A   1      38.192  32.028  37.691  1.00  0.00    -0.203 F 
ATOM     73  C   UNL A   1      38.613  34.009  38.886  1.00  0.00     0.198 A 
ATOM     74  C   UNL A   1      40.207  35.600  38.056  1.00  0.00     0.198 A 
ATOM     75  F   UNL A   1      41.312  35.208  36.016  1.00  0.00    -0.203 F 
ATOM     76  F   UNL A   1      37.722  33.634  39.814  1.00  0.00    -0.200 F 
ATOM     77  C   UNL A   1      39.297  35.206  39.026  1.00  0.00     0.200 A 
ATOM     78  F   UNL A   1      40.893  36.741  38.206  1.00  0.00    -0.200 F 
ATOM     79  F   UNL A   1      39.085  35.979  40.100  1.00  0.00    -0.200 F 
ENDBRANCH  55  69
BRANCH  56  80
ATOM     80  C   UNL A   1      40.816  27.873  28.655  1.00  0.00     0.064 A 
ATOM     81  C   UNL A   1      41.598  28.261  27.557  1.00  0.00     0.173 A 
ATOM     82  C   UNL A   1      40.107  26.668  28.558  1.00  0.00     0.173 A 
ATOM     83  F   UNL A   1      42.299  29.404  27.603  1.00  0.00    -0.203 F 
ATOM     84  C   UNL A   1      41.634  27.498  26.392  1.00  0.00     0.198 A 
ATOM     85  C   UNL A   1      40.163  25.892  27.401  1.00  0.00     0.198 A 
ATOM     86  F   UNL A   1      39.367  26.241  29.591  1.00  0.00    -0.203 F 
ATOM     87  F   UNL A   1      42.349  27.916  25.340  1.00  0.00    -0.200 F 
ATOM     88  C   UNL A   1      40.914  26.315  26.314  1.00  0.00     0.200 A 
ATOM     89  F   UNL A   1      39.484  24.739  27.338  1.00  0.00    -0.200 F 
ATOM     90  F   UNL A   1      40.943  25.583  25.193  1.00  0.00    -0.200 F 
ENDBRANCH  56  80
BRANCH  68  91
ATOM     91  C   UNL A   1      44.347  28.424  34.678  1.00  0.00     0.064 A 
ATOM     92  C   UNL A   1      45.644  28.846  34.344  1.00  0.00     0.173 A 
ATOM     93  C   UNL A   1      44.216  27.270  35.463  1.00  0.00     0.173 A 
ATOM     94  F   UNL A   1      45.827  29.939  33.587  1.00  0.00    -0.203 F 
ATOM     95  C   UNL A   1      46.763  28.126  34.755  1.00  0.00     0.198 A 
ATOM     96  C   UNL A   1      45.339  26.570  35.899  1.00  0.00     0.198 A 
ATOM     97  F   UNL A   1      43.001  26.829  35.819  1.00  0.00    -0.203 F 
ATOM     98  F   UNL A   1      47.988  28.522  34.383  1.00  0.00    -0.200 F 
ATOM     99  C   UNL A   1      46.610  26.990  35.535  1.00  0.00     0.200 A 
ATOM    100  F   UNL A   1      45.192  25.485  36.673  1.00  0.00    -0.200 F 
ATOM    101  F   UNL A   1      47.687  26.300  35.934  1.00  0.00    -0.200 F 
ENDBRANCH  68  91
ENDBRANCH  42  43
ENDBRANCH  35  37
ENDBRANCH  34  35
ENDBRANCH  33  34
ENDBRANCH  32  33
ENDBRANCH  31  32
ENDBRANCH  30  31
ENDBRANCH  29  30
ENDBRANCH  28  29
ENDBRANCH  27  28
ENDBRANCH   1  27
TORSDOF 26
ENDMDL
MODEL 2
REMARK VINA RESULT:     -10.3      4.629      7.805
REMARK SMILES CCN(C(=O)Nc1cc(OC)ccc1F)[C@H](C)CC(=O)OCCOCCOCCOCCOC(=O)c1ccc(-c2c3nc(c(-c4c(F)c(F)c(F)c(F)c4F)c4ccc([nH]4)c(-c4c(F)c(F)c(F)c(F)c4F)c4nc(c(-c5c(F)c(F)c(F)c(F)c5F)c5ccc2[nH]5)C=C4)C=C3)cc1
REMARK SMILES IDX 25 1 24 2 23 3 22 4 21 5 19 6 20 7 18 8 16 9 17 10 3 11 2 12
REMARK SMILES IDX 1 13 4 14 5 15 6 16 7 18 8 19 14 20 9 21 13 22 15 23 12 24
REMARK SMILES IDX 10 25 11 26 26 27 27 28 28 29 29 30 30 31 31 32 32 33 33 34
REMARK SMILES IDX 34 35 35 36 36 37 37 38 98 39 38 40 97 41 39 42 40 43 41 44
REMARK SMILES IDX 91 45 42 46 96 47 90 48 92 49 43 50 95 51 89 52 88 53 44 55
REMARK SMILES IDX 76 56 56 57 75 58 57 59 60 60 74 61 93 62 58 63 59 64 73 66
REMARK SMILES IDX 94 67 61 68 45 69 46 70 54 71 47 72 48 73 52 74 55 75 49 76
REMARK SMILES IDX 50 77 53 78 51 79 77 80 78 81 86 82 79 83 80 84 84 85 87 86
REMARK SMILES IDX 81 87 82 88 85 89 83 90 62 91 63 92 71 93 64 94 65 95 69 96
REMARK SMILES IDX 72 97 66 98 67 99 70 100 68 101
REMARK H PARENT 6 17 92 54 60 65
REMARK Flexibility Score: inf
ROOT
ATOM      1  C   UNL A   1      35.083  34.145  28.196  1.00  0.00     0.188 C 
ENDROOT
BRANCH   1   2
ATOM      2  O   UNL A   1      34.861  33.091  29.104  1.00  0.00    -0.376 OA
BRANCH   2   3
ATOM      3  C   UNL A   1      34.090  31.960  28.736  1.00  0.00     0.202 C 
BRANCH   3   4
ATOM      4  C   UNL A   1      34.188  31.201  27.398  1.00  0.00     0.261 C 
BRANCH   4   5
ATOM      5  O   UNL A   1      33.673  29.861  27.336  1.00  0.00    -0.463 OA
BRANCH   5   6
ATOM      6  C   UNL A   1      32.390  29.752  26.927  1.00  0.00     0.307 C 
ATOM      7  O   UNL A   1      31.731  30.695  26.494  1.00  0.00    -0.252 OA
BRANCH   6   8
ATOM      8  C   UNL A   1      31.768  28.379  27.021  1.00  0.00     0.147 C 
BRANCH   8   9
ATOM      9  C   UNL A   1      31.396  27.539  25.789  1.00  0.00     0.094 C 
ATOM     10  C   UNL A   1      32.128  27.941  24.501  1.00  0.00     0.032 C 
BRANCH   9  11
ATOM     11  N   UNL A   1      31.528  26.079  26.112  1.00  0.00    -0.322 N 
BRANCH  11  12
ATOM     12  C   UNL A   1      32.880  25.606  26.475  1.00  0.00     0.118 C 
ATOM     13  C   UNL A   1      33.991  25.779  25.448  1.00  0.00     0.027 C 
ENDBRANCH  11  12
BRANCH  11  14
ATOM     14  C   UNL A   1      30.421  25.280  25.911  1.00  0.00     0.322 C 
ATOM     15  O   UNL A   1      29.364  25.469  26.525  1.00  0.00    -0.248 OA
ATOM     16  N   UNL A   1      30.345  24.327  24.956  1.00  0.00    -0.305 N 
ATOM     17  H   UNL A   1      29.418  24.047  24.776  1.00  0.00     0.171 HD
BRANCH  16  18
ATOM     18  C   UNL A   1      31.274  23.646  24.162  1.00  0.00     0.082 A 
ATOM     19  C   UNL A   1      31.754  24.352  23.056  1.00  0.00     0.075 A 
ATOM     20  C   UNL A   1      31.801  22.385  24.443  1.00  0.00     0.147 A 
ATOM     21  C   UNL A   1      32.866  23.893  22.348  1.00  0.00     0.121 A 
ATOM     22  C   UNL A   1      32.897  21.906  23.728  1.00  0.00     0.045 A 
ATOM     23  F   UNL A   1      31.308  21.638  25.441  1.00  0.00    -0.205 F 
ATOM     24  C   UNL A   1      33.453  22.676  22.700  1.00  0.00     0.049 A 
BRANCH  21  25
ATOM     25  O   UNL A   1      33.290  24.750  21.373  1.00  0.00    -0.497 OA
ATOM     26  C   UNL A   1      32.532  25.934  21.172  1.00  0.00     0.278 C 
ENDBRANCH  21  25
ENDBRANCH  16  18
ENDBRANCH  11  14
ENDBRANCH   9  11
ENDBRANCH   8   9
ENDBRANCH   6   8
ENDBRANCH   5   6
ENDBRANCH   4   5
ENDBRANCH   3   4
ENDBRANCH   2   3
ENDBRANCH   1   2
BRANCH   1  27
ATOM     27  C   UNL A   1      33.991  35.208  28.058  1.00  0.00     0.188 C 
BRANCH  27  28
ATOM     28  O   UNL A   1      33.788  36.100  29.135  1.00  0.00    -0.377 OA
BRANCH  28  29
ATOM     29  C   UNL A   1      32.647  35.953  29.974  1.00  0.00     0.188 C 
BRANCH  29  30
ATOM     30  C   UNL A   1      32.710  36.294  31.476  1.00  0.00     0.188 C 
BRANCH  30  31
ATOM     31  O   UNL A   1      33.976  36.106  32.085  1.00  0.00    -0.376 OA
BRANCH  31  32
ATOM     32  C   UNL A   1      34.240  34.878  32.745  1.00  0.00     0.202 C 
BRANCH  32  33
ATOM     33  C   UNL A   1      35.646  34.274  32.601  1.00  0.00     0.261 C 
BRANCH  33  34
ATOM     34  O   UNL A   1      35.722  32.840  32.583  1.00  0.00    -0.460 OA
BRANCH  34  35
ATOM     35  C   UNL A   1      36.650  32.243  33.357  1.00  0.00     0.338 C 
ATOM     36  O   UNL A   1      36.685  32.196  34.577  1.00  0.00    -0.246 OA
BRANCH  35  37
ATOM     37  C   UNL A   1      37.550  31.481  32.473  1.00  0.00     0.060 A 
ATOM     38  C   UNL A   1      38.458  30.577  33.041  1.00  0.00     0.016 A 
ATOM     39  C   UNL A   1      37.510  31.675  31.091  1.00  0.00     0.016 A 
ATOM     40  C   UNL A   1      39.363  29.897  32.228  1.00  0.00     0.010 A 
ATOM     41  C   UNL A   1      38.430  31.007  30.280  1.00  0.00     0.010 A 
ATOM     42  C   UNL A   1      39.385  30.145  30.850  1.00  0.00    -0.014 A 
BRANCH  42  43
ATOM     43  C   UNL A   1      40.526  29.666  30.035  1.00  0.00     0.031 A 
ATOM     44  C   UNL A   1      41.673  30.604  29.787  1.00  0.00     0.074 A 
ATOM     45  C   UNL A   1      40.561  28.415  29.548  1.00  0.00     0.049 A 
ATOM     46  N   UNL A   1      42.754  30.430  29.072  1.00  0.00    -0.248 NA
ATOM     47  C   UNL A   1      41.585  31.923  30.436  1.00  0.00     0.031 C 
ATOM     48  C   UNL A   1      39.539  27.396  29.768  1.00  0.00     0.029 A 
ATOM     49  N   UNL A   1      41.499  27.793  28.761  1.00  0.00    -0.354 N 
ATOM     50  C   UNL A   1      43.473  31.612  29.184  1.00  0.00     0.074 A 
ATOM     51  C   UNL A   1      42.686  32.512  29.998  1.00  0.00     0.031 C 
ATOM     52  C   UNL A   1      39.904  26.272  29.130  1.00  0.00     0.029 A 
ATOM     53  C   UNL A   1      41.167  26.504  28.426  1.00  0.00     0.049 A 
ATOM     54  H   UNL A   1      42.332  28.229  28.468  1.00  0.00     0.167 HD
ATOM     55  C   UNL A   1      44.688  31.913  28.669  1.00  0.00     0.037 A 
ATOM     56  C   UNL A   1      41.800  25.623  27.628  1.00  0.00     0.037 A 
ATOM     57  C   UNL A   1      45.459  31.018  27.848  1.00  0.00     0.049 A 
ATOM     58  C   UNL A   1      43.099  26.012  26.974  1.00  0.00     0.074 A 
ATOM     59  C   UNL A   1      46.700  31.230  27.272  1.00  0.00     0.029 A 
ATOM     60  N   UNL A   1      45.058  29.742  27.476  1.00  0.00    -0.354 N 
ATOM     61  N   UNL A   1      43.778  27.129  27.083  1.00  0.00    -0.248 NA
ATOM     62  C   UNL A   1      43.722  25.020  26.085  1.00  0.00     0.031 C 
ATOM     63  C   UNL A   1      47.019  30.108  26.501  1.00  0.00     0.029 A 
ATOM     64  C   UNL A   1      46.013  29.167  26.652  1.00  0.00     0.049 A 
ATOM     65  H   UNL A   1      44.219  29.309  27.757  1.00  0.00     0.167 HD
ATOM     66  C   UNL A   1      44.914  26.968  26.301  1.00  0.00     0.074 A 
ATOM     67  C   UNL A   1      44.839  25.640  25.727  1.00  0.00     0.031 C 
ATOM     68  C   UNL A   1      45.930  27.843  26.085  1.00  0.00     0.037 A 
BRANCH  55  69
ATOM     69  C   UNL A   1      45.242  33.280  28.957  1.00  0.00     0.064 A 
ATOM     70  C   UNL A   1      46.092  33.487  30.054  1.00  0.00     0.173 A 
ATOM     71  C   UNL A   1      44.917  34.391  28.163  1.00  0.00     0.173 A 
ATOM     72  F   UNL A   1      46.433  32.462  30.849  1.00  0.00    -0.203 F 
ATOM     73  C   UNL A   1      46.593  34.753  30.346  1.00  0.00     0.198 A 
ATOM     74  C   UNL A   1      45.448  35.649  28.436  1.00  0.00     0.198 A 
ATOM     75  F   UNL A   1      44.119  34.246  27.093  1.00  0.00    -0.203 F 
ATOM     76  F   UNL A   1      47.382  34.930  31.414  1.00  0.00    -0.200 F 
ATOM     77  C   UNL A   1      46.279  35.830  29.531  1.00  0.00     0.200 A 
ATOM     78  F   UNL A   1      45.170  36.681  27.629  1.00  0.00    -0.200 F 
ATOM     79  F   UNL A   1      46.783  37.043  29.797  1.00  0.00    -0.200 F 
ENDBRANCH  55  69
BRANCH  56  80
ATOM     80  C   UNL A   1      41.208  24.275  27.431  1.00  0.00     0.064 A 
ATOM     81  C   UNL A   1      41.808  23.128  27.971  1.00  0.00     0.173 A 
ATOM     82  C   UNL A   1      40.063  24.103  26.640  1.00  0.00     0.173 A 
ATOM     83  F   UNL A   1      42.902  23.241  28.738  1.00  0.00    -0.203 F 
ATOM     84  C   UNL A   1      41.310  21.856  27.694  1.00  0.00     0.198 A 
ATOM     85  C   UNL A   1      39.551  22.832  26.385  1.00  0.00     0.198 A 
ATOM     86  F   UNL A   1      39.439  25.171  26.125  1.00  0.00    -0.203 F 
ATOM     87  F   UNL A   1      41.930  20.774  28.182  1.00  0.00    -0.200 F 
ATOM     88  C   UNL A   1      40.182  21.710  26.900  1.00  0.00     0.200 A 
ATOM     89  F   UNL A   1      38.449  22.696  25.635  1.00  0.00    -0.200 F 
ATOM     90  F   UNL A   1      39.705  20.487  26.629  1.00  0.00    -0.200 F 
ENDBRANCH  56  80
BRANCH  68  91
ATOM     91  C   UNL A   1      47.067  27.400  25.208  1.00  0.00     0.064 A 
ATOM     92  C   UNL A   1      48.120  26.639  25.741  1.00  0.00     0.173 A 
ATOM     93  C   UNL A   1      47.169  27.809  23.870  1.00  0.00     0.173 A 
ATOM     94  F   UNL A   1      48.078  26.230  27.019  1.00  0.00    -0.203 F 
ATOM     95  C   UNL A   1      49.241  26.326  24.978  1.00  0.00     0.198 A 
ATOM     96  C   UNL A   1      48.277  27.466  23.098  1.00  0.00     0.198 A 
ATOM     97  F   UNL A   1      46.187  28.528  23.307  1.00  0.00    -0.203 F 
ATOM     98  F   UNL A   1      50.253  25.639  25.525  1.00  0.00    -0.200 F 
ATOM     99  C   UNL A   1      49.317  26.736  23.656  1.00  0.00     0.200 A 
ATOM    100  F   UNL A   1      48.340  27.843  21.814  1.00  0.00    -0.200 F 
ATOM    101  F   UNL A   1      50.394  26.430  22.919  1.00  0.00    -0.200 F 
ENDBRANCH  68  91
ENDBRANCH  42  43
ENDBRANCH  35  37
ENDBRANCH  34  35
ENDBRANCH  33  34
ENDBRANCH  32  33
ENDBRANCH  31  32
ENDBRANCH  30  31
ENDBRANCH  29  30
ENDBRANCH  28  29
ENDBRANCH  27  28
ENDBRANCH   1  27
TORSDOF 26
ENDMDL
MODEL 3
REMARK VINA RESULT:     -10.1      1.158      7.178
REMARK SMILES CCN(C(=O)Nc1cc(OC)ccc1F)[C@H](C)CC(=O)OCCOCCOCCOCCOC(=O)c1ccc(-c2c3nc(c(-c4c(F)c(F)c(F)c(F)c4F)c4ccc([nH]4)c(-c4c(F)c(F)c(F)c(F)c4F)c4nc(c(-c5c(F)c(F)c(F)c(F)c5F)c5ccc2[nH]5)C=C4)C=C3)cc1
REMARK SMILES IDX 25 1 24 2 23 3 22 4 21 5 19 6 20 7 18 8 16 9 17 10 3 11 2 12
REMARK SMILES IDX 1 13 4 14 5 15 6 16 7 18 8 19 14 20 9 21 13 22 15 23 12 24
REMARK SMILES IDX 10 25 11 26 26 27 27 28 28 29 29 30 30 31 31 32 32 33 33 34
REMARK SMILES IDX 34 35 35 36 36 37 37 38 98 39 38 40 97 41 39 42 40 43 41 44
REMARK SMILES IDX 91 45 42 46 96 47 90 48 92 49 43 50 95 51 89 52 88 53 44 55
REMARK SMILES IDX 76 56 56 57 75 58 57 59 60 60 74 61 93 62 58 63 59 64 73 66
REMARK SMILES IDX 94 67 61 68 45 69 46 70 54 71 47 72 48 73 52 74 55 75 49 76
REMARK SMILES IDX 50 77 53 78 51 79 77 80 78 81 86 82 79 83 80 84 84 85 87 86
REMARK SMILES IDX 81 87 82 88 85 89 83 90 62 91 63 92 71 93 64 94 65 95 69 96
REMARK SMILES IDX 72 97 66 98 67 99 70 100 68 101
REMARK H PARENT 6 17 92 54 60 65
REMARK Flexibility Score: inf
ROOT
ATOM      1  C   UNL A   1      33.984  27.181  22.357  1.00  0.00     0.188 C 
ENDROOT
BRANCH   1   2
ATOM      2  O   UNL A   1      32.880  26.760  21.590  1.00  0.00    -0.376 OA
BRANCH   2   3
ATOM      3  C   UNL A   1      31.836  25.997  22.171  1.00  0.00     0.202 C 
BRANCH   3   4
ATOM      4  C   UNL A   1      31.360  26.090  23.634  1.00  0.00     0.261 C 
BRANCH   4   5
ATOM      5  O   UNL A   1      31.309  24.883  24.411  1.00  0.00    -0.463 OA
BRANCH   5   6
ATOM      6  C   UNL A   1      31.713  25.003  25.696  1.00  0.00     0.307 C 
ATOM      7  O   UNL A   1      31.286  25.862  26.465  1.00  0.00    -0.252 OA
BRANCH   6   8
ATOM      8  C   UNL A   1      32.743  24.007  26.174  1.00  0.00     0.147 C 
BRANCH   8   9
ATOM      9  C   UNL A   1      33.821  23.407  25.258  1.00  0.00     0.094 C 
ATOM     10  C   UNL A   1      34.842  24.424  24.728  1.00  0.00     0.032 C 
BRANCH   9  11
ATOM     11  N   UNL A   1      34.458  22.227  25.930  1.00  0.00    -0.322 N 
BRANCH  11  12
ATOM     12  C   UNL A   1      35.799  21.839  25.447  1.00  0.00     0.118 C 
ATOM     13  C   UNL A   1      35.997  20.404  24.981  1.00  0.00     0.027 C 
ENDBRANCH  11  12
BRANCH  11  14
ATOM     14  C   UNL A   1      33.692  21.522  26.837  1.00  0.00     0.322 C 
ATOM     15  O   UNL A   1      33.703  21.793  28.045  1.00  0.00    -0.248 OA
ATOM     16  N   UNL A   1      32.783  20.585  26.487  1.00  0.00    -0.305 N 
ATOM     17  H   UNL A   1      32.151  20.382  27.214  1.00  0.00     0.171 HD
BRANCH  16  18
ATOM     18  C   UNL A   1      32.530  19.836  25.333  1.00  0.00     0.082 A 
ATOM     19  C   UNL A   1      32.183  20.574  24.199  1.00  0.00     0.075 A 
ATOM     20  C   UNL A   1      32.684  18.453  25.221  1.00  0.00     0.147 A 
ATOM     21  C   UNL A   1      32.167  19.975  22.938  1.00  0.00     0.121 A 
ATOM     22  C   UNL A   1      32.647  17.840  23.971  1.00  0.00     0.045 A 
ATOM     23  F   UNL A   1      32.929  17.697  26.301  1.00  0.00    -0.205 F 
ATOM     24  C   UNL A   1      32.422  18.608  22.822  1.00  0.00     0.049 A 
BRANCH  21  25
ATOM     25  O   UNL A   1      31.930  20.850  21.916  1.00  0.00    -0.497 OA
ATOM     26  C   UNL A   1      32.208  22.221  22.155  1.00  0.00     0.278 C 
ENDBRANCH  21  25
ENDBRANCH  16  18
ENDBRANCH  11  14
ENDBRANCH   9  11
ENDBRANCH   8   9
ENDBRANCH   6   8
ENDBRANCH   5   6
ENDBRANCH   4   5
ENDBRANCH   3   4
ENDBRANCH   2   3
ENDBRANCH   1   2
BRANCH   1  27
ATOM     27  C   UNL A   1      34.014  28.639  22.820  1.00  0.00     0.188 C 
BRANCH  27  28
ATOM     28  O   UNL A   1      32.898  29.137  23.529  1.00  0.00    -0.377 OA
BRANCH  28  29
ATOM     29  C   UNL A   1      32.977  29.326  24.938  1.00  0.00     0.188 C 
BRANCH  29  30
ATOM     30  C   UNL A   1      31.756  29.799  25.751  1.00  0.00     0.188 C 
BRANCH  30  31
ATOM     31  O   UNL A   1      32.028  30.785  26.730  1.00  0.00    -0.376 OA
BRANCH  31  32
ATOM     32  C   UNL A   1      33.331  30.852  27.290  1.00  0.00     0.202 C 
BRANCH  32  33
ATOM     33  C   UNL A   1      33.882  32.238  27.659  1.00  0.00     0.261 C 
BRANCH  33  34
ATOM     34  O   UNL A   1      32.944  33.326  27.619  1.00  0.00    -0.460 OA
BRANCH  34  35
ATOM     35  C   UNL A   1      33.176  34.394  28.407  1.00  0.00     0.338 C 
ATOM     36  O   UNL A   1      32.520  35.421  28.483  1.00  0.00    -0.246 OA
BRANCH  35  37
ATOM     37  C   UNL A   1      34.280  34.047  29.321  1.00  0.00     0.060 A 
ATOM     38  C   UNL A   1      35.589  34.406  28.975  1.00  0.00     0.016 A 
ATOM     39  C   UNL A   1      34.022  33.351  30.504  1.00  0.00     0.016 A 
ATOM     40  C   UNL A   1      36.652  34.028  29.793  1.00  0.00     0.010 A 
ATOM     41  C   UNL A   1      35.090  32.957  31.311  1.00  0.00     0.010 A 
ATOM     42  C   UNL A   1      36.412  33.260  30.939  1.00  0.00    -0.014 A 
BRANCH  42  43
ATOM     43  C   UNL A   1      37.544  32.605  31.635  1.00  0.00     0.031 A 
ATOM     44  C   UNL A   1      38.199  31.421  30.982  1.00  0.00     0.074 A 
ATOM     45  C   UNL A   1      38.004  33.066  32.810  1.00  0.00     0.049 A 
ATOM     46  N   UNL A   1      39.169  30.659  31.415  1.00  0.00    -0.248 NA
ATOM     47  C   UNL A   1      37.683  31.045  29.655  1.00  0.00     0.031 C 
ATOM     48  C   UNL A   1      37.491  34.238  33.514  1.00  0.00     0.029 A 
ATOM     49  N   UNL A   1      39.010  32.596  33.618  1.00  0.00    -0.354 N 
ATOM     50  C   UNL A   1      39.381  29.717  30.418  1.00  0.00     0.074 A 
ATOM     51  C   UNL A   1      38.409  29.973  29.378  1.00  0.00     0.031 C 
ATOM     52  C   UNL A   1      38.186  34.397  34.653  1.00  0.00     0.029 A 
ATOM     53  C   UNL A   1      39.166  33.316  34.775  1.00  0.00     0.049 A 
ATOM     54  H   UNL A   1      39.567  31.817  33.388  1.00  0.00     0.167 HD
ATOM     55  C   UNL A   1      40.312  28.737  30.368  1.00  0.00     0.037 A 
ATOM     56  C   UNL A   1      39.992  33.114  35.820  1.00  0.00     0.037 A 
ATOM     57  C   UNL A   1      41.268  28.478  31.412  1.00  0.00     0.049 A 
ATOM     58  C   UNL A   1      40.951  31.953  35.796  1.00  0.00     0.074 A 
ATOM     59  C   UNL A   1      42.250  27.505  31.460  1.00  0.00     0.029 A 
ATOM     60  N   UNL A   1      41.352  29.191  32.601  1.00  0.00    -0.354 N 
ATOM     61  N   UNL A   1      41.150  31.065  34.852  1.00  0.00    -0.248 NA
ATOM     62  C   UNL A   1      41.799  31.764  36.982  1.00  0.00     0.031 C 
ATOM     63  C   UNL A   1      42.886  27.588  32.702  1.00  0.00     0.029 A 
ATOM     64  C   UNL A   1      42.351  28.658  33.402  1.00  0.00     0.049 A 
ATOM     65  H   UNL A   1      40.787  29.961  32.839  1.00  0.00     0.167 HD
ATOM     66  C   UNL A   1      42.158  30.229  35.315  1.00  0.00     0.074 A 
ATOM     67  C   UNL A   1      42.537  30.721  36.624  1.00  0.00     0.031 C 
ATOM     68  C   UNL A   1      42.721  29.155  34.705  1.00  0.00     0.037 A 
BRANCH  55  69
ATOM     69  C   UNL A   1      40.322  27.854  29.151  1.00  0.00     0.064 A 
ATOM     70  C   UNL A   1      41.038  28.230  28.005  1.00  0.00     0.173 A 
ATOM     71  C   UNL A   1      39.608  26.646  29.110  1.00  0.00     0.173 A 
ATOM     72  F   UNL A   1      41.736  29.375  27.987  1.00  0.00    -0.203 F 
ATOM     73  C   UNL A   1      41.035  27.433  26.863  1.00  0.00     0.198 A 
ATOM     74  C   UNL A   1      39.637  25.834  27.980  1.00  0.00     0.198 A 
ATOM     75  F   UNL A   1      38.918  26.232  30.184  1.00  0.00    -0.203 F 
ATOM     76  F   UNL A   1      41.706  27.826  25.772  1.00  0.00    -0.200 F 
ATOM     77  C   UNL A   1      40.344  26.231  26.855  1.00  0.00     0.200 A 
ATOM     78  F   UNL A   1      38.995  24.658  27.985  1.00  0.00    -0.200 F 
ATOM     79  F   UNL A   1      40.365  25.451  25.765  1.00  0.00    -0.200 F 
ENDBRANCH  55  69
BRANCH  56  80
ATOM     80  C   UNL A   1      39.951  34.060  36.965  1.00  0.00     0.064 A 
ATOM     81  C   UNL A   1      40.888  35.096  37.090  1.00  0.00     0.173 A 
ATOM     82  C   UNL A   1      39.010  33.902  37.991  1.00  0.00     0.173 A 
ATOM     83  F   UNL A   1      41.806  35.290  36.131  1.00  0.00    -0.203 F 
ATOM     84  C   UNL A   1      40.912  35.913  38.218  1.00  0.00     0.198 A 
ATOM     85  C   UNL A   1      39.019  34.737  39.108  1.00  0.00     0.198 A 
ATOM     86  F   UNL A   1      38.077  32.943  37.904  1.00  0.00    -0.203 F 
ATOM     87  F   UNL A   1      41.848  36.864  38.335  1.00  0.00    -0.200 F 
ATOM     88  C   UNL A   1      39.978  35.732  39.227  1.00  0.00     0.200 A 
ATOM     89  F   UNL A   1      38.101  34.573  40.070  1.00  0.00    -0.200 F 
ATOM     90  F   UNL A   1      40.003  36.514  40.314  1.00  0.00    -0.200 F 
ENDBRANCH  56  80
BRANCH  68  91
ATOM     91  C   UNL A   1      43.828  28.435  35.424  1.00  0.00     0.064 A 
ATOM     92  C   UNL A   1      43.530  27.434  36.362  1.00  0.00     0.173 A 
ATOM     93  C   UNL A   1      45.172  28.801  35.261  1.00  0.00     0.173 A 
ATOM     94  F   UNL A   1      42.260  27.052  36.564  1.00  0.00    -0.203 F 
ATOM     95  C   UNL A   1      44.533  26.844  37.127  1.00  0.00     0.198 A 
ATOM     96  C   UNL A   1      46.176  28.186  36.005  1.00  0.00     0.198 A 
ATOM     97  F   UNL A   1      45.513  29.745  34.371  1.00  0.00    -0.203 F 
ATOM     98  F   UNL A   1      44.218  25.924  38.049  1.00  0.00    -0.200 F 
ATOM     99  C   UNL A   1      45.855  27.218  36.945  1.00  0.00     0.200 A 
ATOM    100  F   UNL A   1      47.457  28.530  35.814  1.00  0.00    -0.200 F 
ATOM    101  F   UNL A   1      46.821  26.646  37.678  1.00  0.00    -0.200 F 
ENDBRANCH  68  91
ENDBRANCH  42  43
ENDBRANCH  35  37
ENDBRANCH  34  35
ENDBRANCH  33  34
ENDBRANCH  32  33
ENDBRANCH  31  32
ENDBRANCH  30  31
ENDBRANCH  29  30
ENDBRANCH  28  29
ENDBRANCH  27  28
ENDBRANCH   1  27
TORSDOF 26
ENDMDL
