MODEL 1
REMARK VINA RESULT:     -10.1      0.000      0.000
REMARK SMILES O=C(Cn1cccc1C(=O)NCCC1CCCCC1)OCCOCCOCCOCCOC(=O)c1ccc(-c2c3nc(c(-c4c(F)c(F)c(F)c(F)c4F)c4ccc([nH]4)c(-c4c(F)c(F)c(F)c(F)c4F)c4nc(c(-c5c(F)c(F)c(F)c(F)c5F)c5ccc2[nH]5)C=C4)C=C3)cc1
REMARK SMILES IDX 24 1 23 2 22 3 21 4 20 5 2 6 1 7 3 8 4 9 5 10 8 11 6 12 7 13
REMARK SMILES IDX 9 14 10 15 11 16 12 18 13 19 14 20 15 21 19 22 16 23 18 24
REMARK SMILES IDX 17 25 25 26 26 27 27 28 28 29 29 30 30 31 31 32 32 33 33 34
REMARK SMILES IDX 34 35 35 36 36 37 97 38 37 39 96 40 38 41 39 42 40 43 90 44
REMARK SMILES IDX 41 45 95 46 89 47 91 48 42 49 94 50 88 51 87 52 43 54 75 55
REMARK SMILES IDX 55 56 74 57 56 58 59 59 73 60 92 61 57 62 58 63 72 65 93 66
REMARK SMILES IDX 60 67 44 68 45 69 53 70 46 71 47 72 51 73 54 74 48 75 49 76
REMARK SMILES IDX 52 77 50 78 76 79 77 80 85 81 78 82 79 83 83 84 86 85 80 86
REMARK SMILES IDX 81 87 84 88 82 89 61 90 62 91 70 92 63 93 64 94 68 95 71 96
REMARK SMILES IDX 65 97 66 98 69 99 67 100
REMARK H PARENT 11 17 91 53 59 64
REMARK Flexibility Score: inf
ROOT
ATOM      1  C   UNL A   1      38.339  22.432  26.022  1.00  0.00     0.188 C 
ENDROOT
BRANCH   1   2
ATOM      2  O   UNL A   1      37.374  22.165  25.008  1.00  0.00    -0.376 OA
BRANCH   2   3
ATOM      3  C   UNL A   1      37.201  20.796  24.627  1.00  0.00     0.202 C 
BRANCH   3   4
ATOM      4  C   UNL A   1      35.869  20.164  25.039  1.00  0.00     0.261 C 
BRANCH   4   5
ATOM      5  O   UNL A   1      34.764  20.770  24.335  1.00  0.00    -0.462 OA
BRANCH   5   6
ATOM      6  C   UNL A   1      33.479  20.578  24.744  1.00  0.00     0.326 C 
ATOM      7  O   UNL A   1      32.873  19.567  24.411  1.00  0.00    -0.250 OA
BRANCH   6   8
ATOM      8  C   UNL A   1      32.829  21.778  25.378  1.00  0.00     0.244 C 
BRANCH   8   9
ATOM      9  N   UNL A   1      33.573  23.011  25.299  1.00  0.00    -0.332 N 
ATOM     10  C   UNL A   1      34.347  23.425  26.363  1.00  0.00     0.087 A 
ATOM     11  C   UNL A   1      33.617  23.925  24.270  1.00  0.00     0.107 A 
ATOM     12  C   UNL A   1      34.717  24.720  26.128  1.00  0.00     0.020 A 
ATOM     13  C   UNL A   1      34.254  25.036  24.834  1.00  0.00     0.033 A 
BRANCH  11  14
ATOM     14  C   UNL A   1      32.973  23.947  22.963  1.00  0.00     0.267 C 
ATOM     15  O   UNL A   1      33.609  23.632  21.951  1.00  0.00    -0.268 OA
ATOM     16  N   UNL A   1      31.658  24.246  22.710  1.00  0.00    -0.351 N 
ATOM     17  H   UNL A   1      31.517  24.473  21.763  1.00  0.00     0.163 HD
BRANCH  16  18
ATOM     18  C   UNL A   1      30.416  24.316  23.466  1.00  0.00     0.116 C 
BRANCH  18  19
ATOM     19  C   UNL A   1      29.789  25.726  23.482  1.00  0.00     0.025 C 
BRANCH  19  20
ATOM     20  C   UNL A   1      30.379  26.815  24.412  1.00  0.00    -0.009 C 
ATOM     21  C   UNL A   1      31.101  26.247  25.639  1.00  0.00     0.003 C 
ATOM     22  C   UNL A   1      31.254  27.827  23.654  1.00  0.00     0.003 C 
ATOM     23  C   UNL A   1      31.656  27.344  26.544  1.00  0.00     0.000 C 
ATOM     24  C   UNL A   1      31.832  28.898  24.582  1.00  0.00     0.000 C 
ATOM     25  C   UNL A   1      32.572  28.279  25.763  1.00  0.00     0.000 C 
ENDBRANCH  19  20
ENDBRANCH  18  19
ENDBRANCH  16  18
ENDBRANCH  11  14
ENDBRANCH   8   9
ENDBRANCH   6   8
ENDBRANCH   5   6
ENDBRANCH   4   5
ENDBRANCH   3   4
ENDBRANCH   2   3
ENDBRANCH   1   2
BRANCH   1  26
ATOM     26  C   UNL A   1      39.602  21.600  25.930  1.00  0.00     0.188 C 
BRANCH  26  27
ATOM     27  O   UNL A   1      40.273  21.520  27.185  1.00  0.00    -0.377 OA
BRANCH  27  28
ATOM     28  C   UNL A   1      41.668  21.255  27.120  1.00  0.00     0.188 C 
BRANCH  28  29
ATOM     29  C   UNL A   1      42.103  20.149  26.146  1.00  0.00     0.188 C 
BRANCH  29  30
ATOM     30  O   UNL A   1      43.147  20.374  25.197  1.00  0.00    -0.376 OA
BRANCH  30  31
ATOM     31  C   UNL A   1      44.151  21.358  25.408  1.00  0.00     0.202 C 
BRANCH  31  32
ATOM     32  C   UNL A   1      44.099  22.581  24.504  1.00  0.00     0.261 C 
BRANCH  32  33
ATOM     33  O   UNL A   1      43.078  23.485  24.899  1.00  0.00    -0.460 OA
BRANCH  33  34
ATOM     34  C   UNL A   1      43.538  24.741  25.007  1.00  0.00     0.338 C 
ATOM     35  O   UNL A   1      44.703  25.138  24.943  1.00  0.00    -0.246 OA
BRANCH  34  36
ATOM     36  C   UNL A   1      42.454  25.645  25.345  1.00  0.00     0.060 A 
ATOM     37  C   UNL A   1      42.788  27.005  25.350  1.00  0.00     0.016 A 
ATOM     38  C   UNL A   1      41.459  25.095  26.157  1.00  0.00     0.016 A 
ATOM     39  C   UNL A   1      42.319  27.775  26.383  1.00  0.00     0.010 A 
ATOM     40  C   UNL A   1      41.035  25.849  27.220  1.00  0.00     0.010 A 
ATOM     41  C   UNL A   1      41.535  27.153  27.359  1.00  0.00    -0.014 A 
BRANCH  41  42
ATOM     42  C   UNL A   1      41.198  27.907  28.563  1.00  0.00     0.031 A 
ATOM     43  C   UNL A   1      42.104  27.539  29.717  1.00  0.00     0.074 A 
ATOM     44  C   UNL A   1      40.175  28.799  28.423  1.00  0.00     0.049 A 
ATOM     45  N   UNL A   1      41.991  27.820  30.974  1.00  0.00    -0.248 NA
ATOM     46  C   UNL A   1      43.309  26.705  29.439  1.00  0.00     0.031 C 
ATOM     47  C   UNL A   1      39.406  28.993  27.176  1.00  0.00     0.029 A 
ATOM     48  N   UNL A   1      39.572  29.707  29.267  1.00  0.00    -0.354 N 
ATOM     49  C   UNL A   1      43.185  27.407  31.578  1.00  0.00     0.074 A 
ATOM     50  C   UNL A   1      43.908  26.629  30.622  1.00  0.00     0.031 C 
ATOM     51  C   UNL A   1      38.415  29.884  27.361  1.00  0.00     0.029 A 
ATOM     52  C   UNL A   1      38.459  30.392  28.717  1.00  0.00     0.049 A 
ATOM     53  H   UNL A   1      39.890  29.866  30.184  1.00  0.00     0.167 HD
ATOM     54  C   UNL A   1      43.593  27.853  32.793  1.00  0.00     0.037 A 
ATOM     55  C   UNL A   1      37.618  31.289  29.321  1.00  0.00     0.037 A 
ATOM     56  C   UNL A   1      42.598  28.657  33.417  1.00  0.00     0.049 A 
ATOM     57  C   UNL A   1      38.223  31.562  30.638  1.00  0.00     0.074 A 
ATOM     58  C   UNL A   1      41.411  28.348  34.025  1.00  0.00     0.029 A 
ATOM     59  N   UNL A   1      42.622  30.006  33.160  1.00  0.00    -0.354 N 
ATOM     60  N   UNL A   1      39.301  32.268  30.821  1.00  0.00    -0.248 NA
ATOM     61  C   UNL A   1      37.655  30.930  31.834  1.00  0.00     0.031 C 
ATOM     62  C   UNL A   1      40.590  29.479  33.821  1.00  0.00     0.029 A 
ATOM     63  C   UNL A   1      41.320  30.458  33.139  1.00  0.00     0.049 A 
ATOM     64  H   UNL A   1      43.426  30.554  33.016  1.00  0.00     0.167 HD
ATOM     65  C   UNL A   1      39.706  31.888  32.082  1.00  0.00     0.074 A 
ATOM     66  C   UNL A   1      38.545  31.333  32.736  1.00  0.00     0.031 C 
ATOM     67  C   UNL A   1      41.014  31.608  32.315  1.00  0.00     0.037 A 
BRANCH  54  68
ATOM     68  C   UNL A   1      44.951  27.764  33.399  1.00  0.00     0.064 A 
ATOM     69  C   UNL A   1      45.917  28.723  33.035  1.00  0.00     0.173 A 
ATOM     70  C   UNL A   1      45.411  26.624  34.075  1.00  0.00     0.173 A 
ATOM     71  F   UNL A   1      45.554  29.847  32.398  1.00  0.00    -0.203 F 
ATOM     72  C   UNL A   1      47.273  28.513  33.259  1.00  0.00     0.198 A 
ATOM     73  C   UNL A   1      46.767  26.437  34.337  1.00  0.00     0.198 A 
ATOM     74  F   UNL A   1      44.574  25.631  34.410  1.00  0.00    -0.203 F 
ATOM     75  F   UNL A   1      48.168  29.399  32.804  1.00  0.00    -0.200 F 
ATOM     76  C   UNL A   1      47.699  27.364  33.902  1.00  0.00     0.200 A 
ATOM     77  F   UNL A   1      47.176  25.319  34.956  1.00  0.00    -0.200 F 
ATOM     78  F   UNL A   1      49.008  27.134  34.071  1.00  0.00    -0.200 F 
ENDBRANCH  54  68
BRANCH  55  79
ATOM     79  C   UNL A   1      36.304  31.970  28.998  1.00  0.00     0.064 A 
ATOM     80  C   UNL A   1      36.042  33.346  29.065  1.00  0.00     0.173 A 
ATOM     81  C   UNL A   1      35.205  31.203  28.511  1.00  0.00     0.173 A 
ATOM     82  F   UNL A   1      36.910  34.198  29.612  1.00  0.00    -0.203 F 
ATOM     83  C   UNL A   1      34.847  33.913  28.585  1.00  0.00     0.198 A 
ATOM     84  C   UNL A   1      34.029  31.765  28.011  1.00  0.00     0.198 A 
ATOM     85  F   UNL A   1      35.234  29.864  28.497  1.00  0.00    -0.203 F 
ATOM     86  F   UNL A   1      34.668  35.240  28.656  1.00  0.00    -0.200 F 
ATOM     87  C   UNL A   1      33.856  33.127  28.030  1.00  0.00     0.200 A 
ATOM     88  F   UNL A   1      33.080  30.971  27.495  1.00  0.00    -0.200 F 
ATOM     89  F   UNL A   1      32.740  33.676  27.531  1.00  0.00    -0.200 F 
ENDBRANCH  55  79
BRANCH  67  90
ATOM     90  C   UNL A   1      41.944  32.261  31.315  1.00  0.00     0.064 A 
ATOM     91  C   UNL A   1      42.165  33.645  31.360  1.00  0.00     0.173 A 
ATOM     92  C   UNL A   1      42.502  31.578  30.222  1.00  0.00     0.173 A 
ATOM     93  F   UNL A   1      41.674  34.368  32.378  1.00  0.00    -0.203 F 
ATOM     94  C   UNL A   1      42.883  34.304  30.357  1.00  0.00     0.198 A 
ATOM     95  C   UNL A   1      43.225  32.229  29.223  1.00  0.00     0.198 A 
ATOM     96  F   UNL A   1      42.360  30.260  30.104  1.00  0.00    -0.203 F 
ATOM     97  F   UNL A   1      43.065  35.630  30.428  1.00  0.00    -0.200 F 
ATOM     98  C   UNL A   1      43.408  33.597  29.287  1.00  0.00     0.200 A 
ATOM     99  F   UNL A   1      43.743  31.526  28.204  1.00  0.00    -0.200 F 
ATOM    100  F   UNL A   1      44.099  34.228  28.327  1.00  0.00    -0.200 F 
ENDBRANCH  67  90
ENDBRANCH  41  42
ENDBRANCH  34  36
ENDBRANCH  33  34
ENDBRANCH  32  33
ENDBRANCH  31  32
ENDBRANCH  30  31
ENDBRANCH  29  30
ENDBRANCH  28  29
ENDBRANCH  27  28
ENDBRANCH  26  27
ENDBRANCH   1  26
TORSDOF 25
ENDMDL
MODEL 2
REMARK VINA RESULT:      -9.5      1.634      2.490
REMARK SMILES O=C(Cn1cccc1C(=O)NCCC1CCCCC1)OCCOCCOCCOCCOC(=O)c1ccc(-c2c3nc(c(-c4c(F)c(F)c(F)c(F)c4F)c4ccc([nH]4)c(-c4c(F)c(F)c(F)c(F)c4F)c4nc(c(-c5c(F)c(F)c(F)c(F)c5F)c5ccc2[nH]5)C=C4)C=C3)cc1
REMARK SMILES IDX 24 1 23 2 22 3 21 4 20 5 2 6 1 7 3 8 4 9 5 10 8 11 6 12 7 13
REMARK SMILES IDX 9 14 10 15 11 16 12 18 13 19 14 20 15 21 19 22 16 23 18 24
REMARK SMILES IDX 17 25 25 26 26 27 27 28 28 29 29 30 30 31 31 32 32 33 33 34
REMARK SMILES IDX 34 35 35 36 36 37 97 38 37 39 96 40 38 41 39 42 40 43 90 44
REMARK SMILES IDX 41 45 95 46 89 47 91 48 42 49 94 50 88 51 87 52 43 54 75 55
REMARK SMILES IDX 55 56 74 57 56 58 59 59 73 60 92 61 57 62 58 63 72 65 93 66
REMARK SMILES IDX 60 67 44 68 45 69 53 70 46 71 47 72 51 73 54 74 48 75 49 76
REMARK SMILES IDX 52 77 50 78 76 79 77 80 85 81 78 82 79 83 83 84 86 85 80 86
REMARK SMILES IDX 81 87 84 88 82 89 61 90 62 91 70 92 63 93 64 94 68 95 71 96
REMARK SMILES IDX 65 97 66 98 69 99 67 100
REMARK H PARENT 11 17 91 53 59 64
REMARK Flexibility Score: inf
ROOT
ATOM      1  C   UNL A   1      38.666  22.631  26.123  1.00  0.00     0.188 C 
ENDROOT
BRANCH   1   2
ATOM      2  O   UNL A   1      37.544  22.513  25.253  1.00  0.00    -0.376 OA
BRANCH   2   3
ATOM      3  C   UNL A   1      37.346  21.241  24.627  1.00  0.00     0.202 C 
BRANCH   3   4
ATOM      4  C   UNL A   1      36.092  20.481  25.071  1.00  0.00     0.261 C 
BRANCH   4   5
ATOM      5  O   UNL A   1      34.899  21.072  24.513  1.00  0.00    -0.462 OA
BRANCH   5   6
ATOM      6  C   UNL A   1      33.693  20.937  25.131  1.00  0.00     0.326 C 
ATOM      7  O   UNL A   1      33.296  19.828  25.467  1.00  0.00    -0.250 OA
BRANCH   6   8
ATOM      8  C   UNL A   1      32.832  22.170  25.117  1.00  0.00     0.244 C 
BRANCH   8   9
ATOM      9  N   UNL A   1      33.531  23.425  24.979  1.00  0.00    -0.332 N 
ATOM     10  C   UNL A   1      34.355  23.875  25.988  1.00  0.00     0.087 A 
ATOM     11  C   UNL A   1      33.485  24.326  23.938  1.00  0.00     0.107 A 
ATOM     12  C   UNL A   1      34.671  25.178  25.717  1.00  0.00     0.020 A 
ATOM     13  C   UNL A   1      34.121  25.462  24.449  1.00  0.00     0.033 A 
BRANCH  11  14
ATOM     14  C   UNL A   1      32.763  24.310  22.673  1.00  0.00     0.267 C 
ATOM     15  O   UNL A   1      33.300  23.859  21.655  1.00  0.00    -0.268 OA
ATOM     16  N   UNL A   1      31.468  24.717  22.472  1.00  0.00    -0.351 N 
ATOM     17  H   UNL A   1      31.288  24.884  21.518  1.00  0.00     0.163 HD
BRANCH  16  18
ATOM     18  C   UNL A   1      30.289  24.966  23.288  1.00  0.00     0.116 C 
BRANCH  18  19
ATOM     19  C   UNL A   1      30.079  26.458  23.621  1.00  0.00     0.025 C 
BRANCH  19  20
ATOM     20  C   UNL A   1      31.057  27.171  24.587  1.00  0.00    -0.009 C 
ATOM     21  C   UNL A   1      30.980  28.701  24.520  1.00  0.00     0.003 C 
ATOM     22  C   UNL A   1      30.937  26.657  26.032  1.00  0.00     0.003 C 
ATOM     23  C   UNL A   1      31.967  29.373  25.471  1.00  0.00     0.000 C 
ATOM     24  C   UNL A   1      31.907  27.368  26.979  1.00  0.00     0.000 C 
ATOM     25  C   UNL A   1      31.761  28.884  26.900  1.00  0.00     0.000 C 
ENDBRANCH  19  20
ENDBRANCH  18  19
ENDBRANCH  16  18
ENDBRANCH  11  14
ENDBRANCH   8   9
ENDBRANCH   6   8
ENDBRANCH   5   6
ENDBRANCH   4   5
ENDBRANCH   3   4
ENDBRANCH   2   3
ENDBRANCH   1   2
BRANCH   1  26
ATOM     26  C   UNL A   1      39.637  21.469  26.068  1.00  0.00     0.188 C 
BRANCH  26  27
ATOM     27  O   UNL A   1      40.094  21.102  27.368  1.00  0.00    -0.377 OA
BRANCH  27  28
ATOM     28  C   UNL A   1      41.245  20.268  27.401  1.00  0.00     0.188 C 
BRANCH  28  29
ATOM     29  C   UNL A   1      41.608  19.562  26.085  1.00  0.00     0.188 C 
BRANCH  29  30
ATOM     30  O   UNL A   1      42.700  20.018  25.285  1.00  0.00    -0.376 OA
BRANCH  30  31
ATOM     31  C   UNL A   1      43.886  20.544  25.866  1.00  0.00     0.202 C 
BRANCH  31  32
ATOM     32  C   UNL A   1      44.128  22.034  25.676  1.00  0.00     0.261 C 
BRANCH  32  33
ATOM     33  O   UNL A   1      43.064  22.812  26.203  1.00  0.00    -0.460 OA
BRANCH  33  34
ATOM     34  C   UNL A   1      42.858  23.928  25.486  1.00  0.00     0.338 C 
ATOM     35  O   UNL A   1      43.437  24.297  24.462  1.00  0.00    -0.246 OA
BRANCH  34  36
ATOM     36  C   UNL A   1      41.888  24.779  26.149  1.00  0.00     0.060 A 
ATOM     37  C   UNL A   1      41.787  26.081  25.641  1.00  0.00     0.016 A 
ATOM     38  C   UNL A   1      41.632  24.453  27.483  1.00  0.00     0.016 A 
ATOM     39  C   UNL A   1      41.706  27.113  26.540  1.00  0.00     0.010 A 
ATOM     40  C   UNL A   1      41.606  25.485  28.384  1.00  0.00     0.010 A 
ATOM     41  C   UNL A   1      41.724  26.798  27.902  1.00  0.00    -0.014 A 
BRANCH  41  42
ATOM     42  C   UNL A   1      41.841  27.889  28.865  1.00  0.00     0.031 A 
ATOM     43  C   UNL A   1      43.169  27.847  29.588  1.00  0.00     0.074 A 
ATOM     44  C   UNL A   1      40.774  28.738  28.915  1.00  0.00     0.049 A 
ATOM     45  N   UNL A   1      43.555  28.494  30.639  1.00  0.00    -0.248 NA
ATOM     46  C   UNL A   1      44.226  26.922  29.086  1.00  0.00     0.031 C 
ATOM     47  C   UNL A   1      39.549  28.581  28.104  1.00  0.00     0.029 A 
ATOM     48  N   UNL A   1      40.489  29.878  29.634  1.00  0.00    -0.354 N 
ATOM     49  C   UNL A   1      44.924  28.234  30.782  1.00  0.00     0.074 A 
ATOM     50  C   UNL A   1      45.261  27.180  29.878  1.00  0.00     0.031 C 
ATOM     51  C   UNL A   1      38.643  29.525  28.422  1.00  0.00     0.029 A 
ATOM     52  C   UNL A   1      39.192  30.411  29.427  1.00  0.00     0.049 A 
ATOM     53  H   UNL A   1      41.138  30.292  30.247  1.00  0.00     0.167 HD
ATOM     54  C   UNL A   1      45.749  29.006  31.532  1.00  0.00     0.037 A 
ATOM     55  C   UNL A   1      38.592  31.479  30.042  1.00  0.00     0.037 A 
ATOM     56  C   UNL A   1      45.028  29.997  32.254  1.00  0.00     0.049 A 
ATOM     57  C   UNL A   1      39.655  32.109  30.848  1.00  0.00     0.074 A 
ATOM     58  C   UNL A   1      44.226  29.930  33.363  1.00  0.00     0.029 A 
ATOM     59  N   UNL A   1      44.822  31.206  31.636  1.00  0.00    -0.354 N 
ATOM     60  N   UNL A   1      40.645  32.795  30.354  1.00  0.00    -0.248 NA
ATOM     61  C   UNL A   1      39.685  31.885  32.297  1.00  0.00     0.031 C 
ATOM     62  C   UNL A   1      43.294  30.980  33.204  1.00  0.00     0.029 A 
ATOM     63  C   UNL A   1      43.590  31.682  32.031  1.00  0.00     0.049 A 
ATOM     64  H   UNL A   1      45.444  31.655  31.020  1.00  0.00     0.167 HD
ATOM     65  C   UNL A   1      41.562  32.792  31.382  1.00  0.00     0.074 A 
ATOM     66  C   UNL A   1      40.826  32.503  32.589  1.00  0.00     0.031 C 
ATOM     67  C   UNL A   1      42.871  32.544  31.118  1.00  0.00     0.037 A 
BRANCH  54  68
ATOM     68  C   UNL A   1      47.238  29.049  31.514  1.00  0.00     0.064 A 
ATOM     69  C   UNL A   1      47.883  29.654  30.417  1.00  0.00     0.173 A 
ATOM     70  C   UNL A   1      48.034  28.272  32.369  1.00  0.00     0.173 A 
ATOM     71  F   UNL A   1      47.194  30.424  29.562  1.00  0.00    -0.203 F 
ATOM     72  C   UNL A   1      49.228  29.424  30.145  1.00  0.00     0.198 A 
ATOM     73  C   UNL A   1      49.392  28.079  32.118  1.00  0.00     0.198 A 
ATOM     74  F   UNL A   1      47.498  27.612  33.405  1.00  0.00    -0.203 F 
ATOM     75  F   UNL A   1      49.779  29.931  29.035  1.00  0.00    -0.200 F 
ATOM     76  C   UNL A   1      49.980  28.628  30.990  1.00  0.00     0.200 A 
ATOM     77  F   UNL A   1      50.115  27.303  32.937  1.00  0.00    -0.200 F 
ATOM     78  F   UNL A   1      51.261  28.362  30.701  1.00  0.00    -0.200 F 
ENDBRANCH  54  68
BRANCH  55  79
ATOM     79  C   UNL A   1      37.205  32.083  30.116  1.00  0.00     0.064 A 
ATOM     80  C   UNL A   1      36.251  31.853  31.118  1.00  0.00     0.173 A 
ATOM     81  C   UNL A   1      36.791  33.036  29.141  1.00  0.00     0.173 A 
ATOM     82  F   UNL A   1      36.418  30.903  32.040  1.00  0.00    -0.203 F 
ATOM     83  C   UNL A   1      35.052  32.585  31.203  1.00  0.00     0.198 A 
ATOM     84  C   UNL A   1      35.614  33.782  29.238  1.00  0.00     0.198 A 
ATOM     85  F   UNL A   1      37.522  33.287  28.048  1.00  0.00    -0.203 F 
ATOM     86  F   UNL A   1      34.192  32.333  32.200  1.00  0.00    -0.200 F 
ATOM     87  C   UNL A   1      34.749  33.569  30.283  1.00  0.00     0.200 A 
ATOM     88  F   UNL A   1      35.343  34.718  28.317  1.00  0.00    -0.200 F 
ATOM     89  F   UNL A   1      33.629  34.296  30.395  1.00  0.00    -0.200 F 
ENDBRANCH  55  79
BRANCH  67  90
ATOM     90  C   UNL A   1      43.248  32.834  29.680  1.00  0.00     0.064 A 
ATOM     91  C   UNL A   1      43.550  31.779  28.807  1.00  0.00     0.173 A 
ATOM     92  C   UNL A   1      43.466  34.131  29.188  1.00  0.00     0.173 A 
ATOM     93  F   UNL A   1      43.359  30.510  29.199  1.00  0.00    -0.203 F 
ATOM     94  C   UNL A   1      44.060  32.014  27.526  1.00  0.00     0.198 A 
ATOM     95  C   UNL A   1      43.967  34.370  27.910  1.00  0.00     0.198 A 
ATOM     96  F   UNL A   1      43.191  35.195  29.939  1.00  0.00    -0.203 F 
ATOM     97  F   UNL A   1      44.347  30.981  26.722  1.00  0.00    -0.200 F 
ATOM     98  C   UNL A   1      44.273  33.309  27.080  1.00  0.00     0.200 A 
ATOM     99  F   UNL A   1      44.150  35.631  27.486  1.00  0.00    -0.200 F 
ATOM    100  F   UNL A   1      44.759  33.534  25.851  1.00  0.00    -0.200 F 
ENDBRANCH  67  90
ENDBRANCH  41  42
ENDBRANCH  34  36
ENDBRANCH  33  34
ENDBRANCH  32  33
ENDBRANCH  31  32
ENDBRANCH  30  31
ENDBRANCH  29  30
ENDBRANCH  28  29
ENDBRANCH  27  28
ENDBRANCH  26  27
ENDBRANCH   1  26
TORSDOF 25
ENDMDL
MODEL 3
REMARK VINA RESULT:      -9.3      1.872      2.939
REMARK SMILES O=C(Cn1cccc1C(=O)NCCC1CCCCC1)OCCOCCOCCOCCOC(=O)c1ccc(-c2c3nc(c(-c4c(F)c(F)c(F)c(F)c4F)c4ccc([nH]4)c(-c4c(F)c(F)c(F)c(F)c4F)c4nc(c(-c5c(F)c(F)c(F)c(F)c5F)c5ccc2[nH]5)C=C4)C=C3)cc1
REMARK SMILES IDX 24 1 23 2 22 3 21 4 20 5 2 6 1 7 3 8 4 9 5 10 8 11 6 12 7 13
REMARK SMILES IDX 9 14 10 15 11 16 12 18 13 19 14 20 15 21 19 22 16 23 18 24
REMARK SMILES IDX 17 25 25 26 26 27 27 28 28 29 29 30 30 31 31 32 32 33 33 34
REMARK SMILES IDX 34 35 35 36 36 37 97 38 37 39 96 40 38 41 39 42 40 43 90 44
REMARK SMILES IDX 41 45 95 46 89 47 91 48 42 49 94 50 88 51 87 52 43 54 75 55
REMARK SMILES IDX 55 56 74 57 56 58 59 59 73 60 92 61 57 62 58 63 72 65 93 66
REMARK SMILES IDX 60 67 44 68 45 69 53 70 46 71 47 72 51 73 54 74 48 75 49 76
REMARK SMILES IDX 52 77 50 78 76 79 77 80 85 81 78 82 79 83 83 84 86 85 80 86
REMARK SMILES IDX 81 87 84 88 82 89 61 90 62 91 70 92 63 93 64 94 68 95 71 96
REMARK SMILES IDX 65 97 66 98 69 99 67 100
REMARK H PARENT 11 17 91 53 59 64
REMARK Flexibility Score: inf
ROOT
ATOM      1  C   UNL A   1      38.800  22.658  26.290  1.00  0.00     0.188 C 
ENDROOT
BRANCH   1   2
ATOM      2  O   UNL A   1      37.689  22.662  25.398  1.00  0.00    -0.376 OA
BRANCH   2   3
ATOM      3  C   UNL A   1      37.456  21.462  24.653  1.00  0.00     0.202 C 
BRANCH   3   4
ATOM      4  C   UNL A   1      36.269  20.618  25.126  1.00  0.00     0.261 C 
BRANCH   4   5
ATOM      5  O   UNL A   1      35.051  21.010  24.458  1.00  0.00    -0.462 OA
BRANCH   5   6
ATOM      6  C   UNL A   1      33.832  20.742  25.005  1.00  0.00     0.326 C 
ATOM      7  O   UNL A   1      33.426  19.588  25.065  1.00  0.00    -0.250 OA
BRANCH   6   8
ATOM      8  C   UNL A   1      32.975  21.950  25.264  1.00  0.00     0.244 C 
BRANCH   8   9
ATOM      9  N   UNL A   1      33.624  23.229  25.110  1.00  0.00    -0.332 N 
ATOM     10  C   UNL A   1      34.443  23.717  26.106  1.00  0.00     0.087 A 
ATOM     11  C   UNL A   1      33.532  24.120  24.064  1.00  0.00     0.107 A 
ATOM     12  C   UNL A   1      34.707  25.028  25.822  1.00  0.00     0.020 A 
ATOM     13  C   UNL A   1      34.131  25.283  24.559  1.00  0.00     0.033 A 
BRANCH  11  14
ATOM     14  C   UNL A   1      32.795  24.069  22.808  1.00  0.00     0.267 C 
ATOM     15  O   UNL A   1      33.236  23.418  21.854  1.00  0.00    -0.268 OA
ATOM     16  N   UNL A   1      31.579  24.652  22.555  1.00  0.00    -0.351 N 
ATOM     17  H   UNL A   1      31.412  24.730  21.588  1.00  0.00     0.163 HD
BRANCH  16  18
ATOM     18  C   UNL A   1      30.469  25.184  23.332  1.00  0.00     0.116 C 
BRANCH  18  19
ATOM     19  C   UNL A   1      30.495  26.722  23.460  1.00  0.00     0.025 C 
BRANCH  19  20
ATOM     20  C   UNL A   1      31.338  27.382  24.579  1.00  0.00    -0.009 C 
ATOM     21  C   UNL A   1      31.337  28.914  24.526  1.00  0.00     0.003 C 
ATOM     22  C   UNL A   1      30.971  26.861  25.979  1.00  0.00     0.003 C 
ATOM     23  C   UNL A   1      32.189  29.534  25.630  1.00  0.00     0.000 C 
ATOM     24  C   UNL A   1      31.809  27.520  27.077  1.00  0.00     0.000 C 
ATOM     25  C   UNL A   1      31.741  29.041  27.001  1.00  0.00     0.000 C 
ENDBRANCH  19  20
ENDBRANCH  18  19
ENDBRANCH  16  18
ENDBRANCH  11  14
ENDBRANCH   8   9
ENDBRANCH   6   8
ENDBRANCH   5   6
ENDBRANCH   4   5
ENDBRANCH   3   4
ENDBRANCH   2   3
ENDBRANCH   1   2
BRANCH   1  26
ATOM     26  C   UNL A   1      39.678  21.426  26.203  1.00  0.00     0.188 C 
BRANCH  26  27
ATOM     27  O   UNL A   1      40.331  21.155  27.441  1.00  0.00    -0.377 OA
BRANCH  27  28
ATOM     28  C   UNL A   1      41.504  20.358  27.356  1.00  0.00     0.188 C 
BRANCH  28  29
ATOM     29  C   UNL A   1      41.571  19.375  26.176  1.00  0.00     0.188 C 
BRANCH  29  30
ATOM     30  O   UNL A   1      42.546  19.531  25.144  1.00  0.00    -0.376 OA
BRANCH  30  31
ATOM     31  C   UNL A   1      43.919  19.753  25.439  1.00  0.00     0.202 C 
BRANCH  31  32
ATOM     32  C   UNL A   1      44.526  21.041  24.904  1.00  0.00     0.261 C 
BRANCH  32  33
ATOM     33  O   UNL A   1      43.949  22.188  25.513  1.00  0.00    -0.460 OA
BRANCH  33  34
ATOM     34  C   UNL A   1      44.180  23.301  24.800  1.00  0.00     0.338 C 
ATOM     35  O   UNL A   1      45.027  23.486  23.924  1.00  0.00    -0.246 OA
BRANCH  34  36
ATOM     36  C   UNL A   1      43.343  24.386  25.278  1.00  0.00     0.060 A 
ATOM     37  C   UNL A   1      43.973  25.633  25.367  1.00  0.00     0.016 A 
ATOM     38  C   UNL A   1      42.289  23.995  26.108  1.00  0.00     0.016 A 
ATOM     39  C   UNL A   1      43.737  26.390  26.487  1.00  0.00     0.010 A 
ATOM     40  C   UNL A   1      42.095  24.724  27.252  1.00  0.00     0.010 A 
ATOM     41  C   UNL A   1      42.880  25.869  27.459  1.00  0.00    -0.014 A 
BRANCH  41  42
ATOM     42  C   UNL A   1      42.776  26.566  28.738  1.00  0.00     0.031 A 
ATOM     43  C   UNL A   1      43.672  25.939  29.783  1.00  0.00     0.074 A 
ATOM     44  C   UNL A   1      41.936  27.641  28.749  1.00  0.00     0.049 A 
ATOM     45  N   UNL A   1      43.702  26.127  31.062  1.00  0.00    -0.248 NA
ATOM     46  C   UNL A   1      44.674  24.923  29.347  1.00  0.00     0.031 C 
ATOM     47  C   UNL A   1      41.134  28.080  27.588  1.00  0.00     0.029 A 
ATOM     48  N   UNL A   1      41.577  28.568  29.703  1.00  0.00    -0.354 N 
ATOM     49  C   UNL A   1      44.834  25.449  31.534  1.00  0.00     0.074 A 
ATOM     50  C   UNL A   1      45.328  24.636  30.467  1.00  0.00     0.031 C 
ATOM     51  C   UNL A   1      40.347  29.120  27.918  1.00  0.00     0.029 A 
ATOM     52  C   UNL A   1      40.580  29.492  29.298  1.00  0.00     0.049 A 
ATOM     53  H   UNL A   1      41.982  28.586  30.599  1.00  0.00     0.167 HD
ATOM     54  C   UNL A   1      45.401  25.705  32.739  1.00  0.00     0.037 A 
ATOM     55  C   UNL A   1      39.969  30.474  30.033  1.00  0.00     0.037 A 
ATOM     56  C   UNL A   1      44.624  26.623  33.500  1.00  0.00     0.049 A 
ATOM     57  C   UNL A   1      40.704  30.516  31.312  1.00  0.00     0.074 A 
ATOM     58  C   UNL A   1      43.444  26.488  34.182  1.00  0.00     0.029 A 
ATOM     59  N   UNL A   1      44.887  27.961  33.339  1.00  0.00    -0.354 N 
ATOM     60  N   UNL A   1      41.907  30.992  31.454  1.00  0.00    -0.248 NA
ATOM     61  C   UNL A   1      40.109  29.900  32.502  1.00  0.00     0.031 C 
ATOM     62  C   UNL A   1      42.842  27.765  34.128  1.00  0.00     0.029 A 
ATOM     63  C   UNL A   1      43.697  28.647  33.460  1.00  0.00     0.049 A 
ATOM     64  H   UNL A   1      45.769  28.361  33.168  1.00  0.00     0.167 HD
ATOM     65  C   UNL A   1      42.318  30.436  32.646  1.00  0.00     0.074 A 
ATOM     66  C   UNL A   1      41.120  30.051  33.353  1.00  0.00     0.031 C 
ATOM     67  C   UNL A   1      43.561  29.900  32.748  1.00  0.00     0.037 A 
BRANCH  54  68
ATOM     68  C   UNL A   1      46.755  25.315  33.221  1.00  0.00     0.064 A 
ATOM     69  C   UNL A   1      47.884  25.866  32.583  1.00  0.00     0.173 A 
ATOM     70  C   UNL A   1      46.977  24.218  34.067  1.00  0.00     0.173 A 
ATOM     71  F   UNL A   1      47.758  26.926  31.770  1.00  0.00    -0.203 F 
ATOM     72  C   UNL A   1      49.147  25.299  32.719  1.00  0.00     0.198 A 
ATOM     73  C   UNL A   1      48.251  23.679  34.235  1.00  0.00     0.198 A 
ATOM     74  F   UNL A   1      45.957  23.592  34.672  1.00  0.00    -0.203 F 
ATOM     75  F   UNL A   1      50.175  25.788  32.013  1.00  0.00    -0.200 F 
ATOM     76  C   UNL A   1      49.329  24.198  33.537  1.00  0.00     0.200 A 
ATOM     77  F   UNL A   1      48.421  22.609  35.025  1.00  0.00    -0.200 F 
ATOM     78  F   UNL A   1      50.533  23.618  33.627  1.00  0.00    -0.200 F 
ENDBRANCH  54  68
BRANCH  55  79
ATOM     79  C   UNL A   1      38.790  31.411  29.871  1.00  0.00     0.064 A 
ATOM     80  C   UNL A   1      37.434  31.057  29.918  1.00  0.00     0.173 A 
ATOM     81  C   UNL A   1      39.010  32.811  29.720  1.00  0.00     0.173 A 
ATOM     82  F   UNL A   1      37.043  29.781  29.931  1.00  0.00    -0.203 F 
ATOM     83  C   UNL A   1      36.402  32.014  29.929  1.00  0.00     0.198 A 
ATOM     84  C   UNL A   1      37.989  33.764  29.757  1.00  0.00     0.198 A 
ATOM     85  F   UNL A   1      40.237  33.314  29.534  1.00  0.00    -0.203 F 
ATOM     86  F   UNL A   1      35.125  31.610  29.999  1.00  0.00    -0.200 F 
ATOM     87  C   UNL A   1      36.681  33.366  29.881  1.00  0.00     0.200 A 
ATOM     88  F   UNL A   1      38.295  35.068  29.690  1.00  0.00    -0.200 F 
ATOM     89  F   UNL A   1      35.698  34.274  29.939  1.00  0.00    -0.200 F 
ENDBRANCH  55  79
BRANCH  67  90
ATOM     90  C   UNL A   1      44.528  30.454  31.723  1.00  0.00     0.064 A 
ATOM     91  C   UNL A   1      44.938  29.660  30.642  1.00  0.00     0.173 A 
ATOM     92  C   UNL A   1      45.176  31.691  31.867  1.00  0.00     0.173 A 
ATOM     93  F   UNL A   1      44.359  28.468  30.430  1.00  0.00    -0.203 F 
ATOM     94  C   UNL A   1      45.951  30.075  29.772  1.00  0.00     0.198 A 
ATOM     95  C   UNL A   1      46.182  32.113  30.998  1.00  0.00     0.198 A 
ATOM     96  F   UNL A   1      44.842  32.520  32.853  1.00  0.00    -0.203 F 
ATOM     97  F   UNL A   1      46.323  29.286  28.755  1.00  0.00    -0.200 F 
ATOM     98  C   UNL A   1      46.575  31.299  29.954  1.00  0.00     0.200 A 
ATOM     99  F   UNL A   1      46.763  33.310  31.176  1.00  0.00    -0.200 F 
ATOM    100  F   UNL A   1      47.544  31.699  29.118  1.00  0.00    -0.200 F 
ENDBRANCH  67  90
ENDBRANCH  41  42
ENDBRANCH  34  36
ENDBRANCH  33  34
ENDBRANCH  32  33
ENDBRANCH  31  32
ENDBRANCH  30  31
ENDBRANCH  29  30
ENDBRANCH  28  29
ENDBRANCH  27  28
ENDBRANCH  26  27
ENDBRANCH   1  26
TORSDOF 25
ENDMDL
