MODEL 1
REMARK VINA RESULT:     -10.0      0.000      0.000
REMARK SMILES CCc1[nH]nc(-n2cccc2)c1C(=O)OCCOCCOCCOCCOC(=O)c1ccc(-c2c3nc(c(-c4c(F)c(F)c(F)c(F)c4F)c4ccc([nH]4)c(-c4c(F)c(F)c(F)c(F)c4F)c4nc(c(-c5c(F)c(F)c(F)c(F)c5F)c5ccc2[nH]5)C=C4)C=C3)cc1
REMARK SMILES IDX 22 1 21 2 20 3 19 4 18 5 17 6 16 7 15 8 13 9 14 10 12 11
REMARK SMILES IDX 3 12 4 13 5 14 6 16 2 17 1 18 7 19 8 20 11 21 9 22 10 23
REMARK SMILES IDX 23 24 24 25 25 26 26 27 27 28 28 29 29 30 30 31 31 32 92 33
REMARK SMILES IDX 32 34 91 35 33 36 34 37 35 38 85 39 36 40 90 41 84 42 86 43
REMARK SMILES IDX 37 44 89 45 83 46 82 47 38 49 70 50 50 51 69 52 51 53 54 54
REMARK SMILES IDX 68 55 87 56 52 57 53 58 67 60 88 61 55 62 39 63 40 64 48 65
REMARK SMILES IDX 41 66 42 67 46 68 49 69 43 70 44 71 47 72 45 73 71 74 72 75
REMARK SMILES IDX 80 76 73 77 74 78 78 79 81 80 75 81 76 82 79 83 77 84 56 85
REMARK SMILES IDX 57 86 65 87 58 88 59 89 63 90 66 91 60 92 61 93 64 94 62 95
REMARK H PARENT 4 15 86 48 54 59
REMARK Flexibility Score: inf
ROOT
ATOM      1  C   UNL A   1      35.328  22.086  24.214  1.00  0.00     0.188 C 
ENDROOT
BRANCH   1   2
ATOM      2  O   UNL A   1      34.123  22.799  23.985  1.00  0.00    -0.377 OA
BRANCH   2   3
ATOM      3  C   UNL A   1      33.708  23.066  22.647  1.00  0.00     0.188 C 
BRANCH   3   4
ATOM      4  C   UNL A   1      32.850  24.295  22.268  1.00  0.00     0.188 C 
BRANCH   4   5
ATOM      5  O   UNL A   1      33.617  25.465  22.030  1.00  0.00    -0.376 OA
BRANCH   5   6
ATOM      6  C   UNL A   1      32.902  26.677  21.903  1.00  0.00     0.202 C 
BRANCH   6   7
ATOM      7  C   UNL A   1      33.034  27.602  23.116  1.00  0.00     0.261 C 
BRANCH   7   8
ATOM      8  O   UNL A   1      34.188  27.380  23.941  1.00  0.00    -0.459 OA
BRANCH   8   9
ATOM      9  C   UNL A   1      34.057  26.567  25.032  1.00  0.00     0.343 C 
ATOM     10  O   UNL A   1      34.787  25.635  25.280  1.00  0.00    -0.246 OA
BRANCH   9  11
ATOM     11  C   UNL A   1      33.012  27.058  25.928  1.00  0.00     0.125 A 
ATOM     12  C   UNL A   1      33.019  28.215  26.705  1.00  0.00     0.052 A 
ATOM     13  N   UNL A   1      31.855  28.194  27.428  1.00  0.00    -0.280 N 
ATOM     14  N   UNL A   1      31.170  27.050  27.309  1.00  0.00    -0.156 NA
ATOM     15  H   UNL A   1      31.551  28.950  27.982  1.00  0.00     0.190 HD
ATOM     16  C   UNL A   1      31.845  26.381  26.368  1.00  0.00     0.173 A 
BRANCH  12  17
ATOM     17  C   UNL A   1      34.036  29.287  26.920  1.00  0.00     0.053 C 
ATOM     18  C   UNL A   1      33.409  30.624  27.267  1.00  0.00     0.011 C 
ENDBRANCH  12  17
BRANCH  16  19
ATOM     19  N   UNL A   1      31.542  25.002  26.209  1.00  0.00    -0.306 N 
ATOM     20  C   UNL A   1      30.681  24.482  25.260  1.00  0.00     0.093 A 
ATOM     21  C   UNL A   1      32.075  23.952  26.919  1.00  0.00     0.093 A 
ATOM     22  C   UNL A   1      30.613  23.116  25.423  1.00  0.00     0.020 A 
ATOM     23  C   UNL A   1      31.517  22.778  26.455  1.00  0.00     0.020 A 
ENDBRANCH  16  19
ENDBRANCH   9  11
ENDBRANCH   8   9
ENDBRANCH   7   8
ENDBRANCH   6   7
ENDBRANCH   5   6
ENDBRANCH   4   5
ENDBRANCH   3   4
ENDBRANCH   2   3
ENDBRANCH   1   2
BRANCH   1  24
ATOM     24  C   UNL A   1      36.660  22.792  23.867  1.00  0.00     0.188 C 
BRANCH  24  25
ATOM     25  O   UNL A   1      37.349  23.354  24.977  1.00  0.00    -0.376 OA
BRANCH  25  26
ATOM     26  C   UNL A   1      37.829  22.553  26.042  1.00  0.00     0.202 C 
BRANCH  26  27
ATOM     27  C   UNL A   1      38.653  21.306  25.698  1.00  0.00     0.261 C 
BRANCH  27  28
ATOM     28  O   UNL A   1      39.643  20.993  26.659  1.00  0.00    -0.460 OA
BRANCH  28  29
ATOM     29  C   UNL A   1      40.512  20.075  26.219  1.00  0.00     0.338 C 
ATOM     30  O   UNL A   1      40.279  18.987  25.717  1.00  0.00    -0.246 OA
BRANCH  29  31
ATOM     31  C   UNL A   1      41.863  20.547  26.489  1.00  0.00     0.060 A 
ATOM     32  C   UNL A   1      42.075  20.870  27.833  1.00  0.00     0.016 A 
ATOM     33  C   UNL A   1      42.395  21.267  25.417  1.00  0.00     0.016 A 
ATOM     34  C   UNL A   1      42.512  22.137  28.098  1.00  0.00     0.010 A 
ATOM     35  C   UNL A   1      42.773  22.553  25.677  1.00  0.00     0.010 A 
ATOM     36  C   UNL A   1      42.757  22.983  27.010  1.00  0.00    -0.014 A 
BRANCH  36  37
ATOM     37  C   UNL A   1      43.134  24.351  27.313  1.00  0.00     0.031 A 
ATOM     38  C   UNL A   1      41.867  25.185  27.526  1.00  0.00     0.074 A 
ATOM     39  C   UNL A   1      44.484  24.571  27.290  1.00  0.00     0.049 A 
ATOM     40  N   UNL A   1      41.698  26.467  27.505  1.00  0.00    -0.248 NA
ATOM     41  C   UNL A   1      40.566  24.481  27.759  1.00  0.00     0.031 C 
ATOM     42  C   UNL A   1      45.527  23.539  27.056  1.00  0.00     0.029 A 
ATOM     43  N   UNL A   1      45.257  25.696  27.430  1.00  0.00    -0.354 N 
ATOM     44  C   UNL A   1      40.378  26.719  27.928  1.00  0.00     0.074 A 
ATOM     45  C   UNL A   1      39.699  25.467  27.976  1.00  0.00     0.031 C 
ATOM     46  C   UNL A   1      46.755  24.099  26.976  1.00  0.00     0.029 A 
ATOM     47  C   UNL A   1      46.642  25.529  27.167  1.00  0.00     0.049 A 
ATOM     48  H   UNL A   1      44.875  26.564  27.697  1.00  0.00     0.167 HD
ATOM     49  C   UNL A   1      39.955  27.949  28.325  1.00  0.00     0.037 A 
ATOM     50  C   UNL A   1      47.602  26.501  27.058  1.00  0.00     0.037 A 
ATOM     51  C   UNL A   1      40.977  28.915  28.109  1.00  0.00     0.049 A 
ATOM     52  C   UNL A   1      46.895  27.736  27.433  1.00  0.00     0.074 A 
ATOM     53  C   UNL A   1      41.406  29.519  26.956  1.00  0.00     0.029 A 
ATOM     54  N   UNL A   1      41.942  29.053  29.075  1.00  0.00    -0.354 N 
ATOM     55  N   UNL A   1      46.516  28.025  28.641  1.00  0.00    -0.248 NA
ATOM     56  C   UNL A   1      46.447  28.642  26.371  1.00  0.00     0.031 C 
ATOM     57  C   UNL A   1      42.801  29.617  27.128  1.00  0.00     0.029 A 
ATOM     58  C   UNL A   1      43.145  29.251  28.434  1.00  0.00     0.049 A 
ATOM     59  H   UNL A   1      41.801  29.018  30.048  1.00  0.00     0.167 HD
ATOM     60  C   UNL A   1      45.524  28.954  28.430  1.00  0.00     0.074 A 
ATOM     61  C   UNL A   1      45.743  29.495  27.107  1.00  0.00     0.031 C 
ATOM     62  C   UNL A   1      44.358  28.873  29.123  1.00  0.00     0.037 A 
BRANCH  49  63
ATOM     63  C   UNL A   1      38.718  28.371  29.047  1.00  0.00     0.064 A 
ATOM     64  C   UNL A   1      37.906  29.363  28.455  1.00  0.00     0.173 A 
ATOM     65  C   UNL A   1      38.488  28.097  30.401  1.00  0.00     0.173 A 
ATOM     66  F   UNL A   1      38.016  29.649  27.148  1.00  0.00    -0.203 F 
ATOM     67  C   UNL A   1      37.021  30.131  29.204  1.00  0.00     0.198 A 
ATOM     68  C   UNL A   1      37.563  28.839  31.141  1.00  0.00     0.198 A 
ATOM     69  F   UNL A   1      39.213  27.179  31.056  1.00  0.00    -0.203 F 
ATOM     70  F   UNL A   1      36.370  31.151  28.626  1.00  0.00    -0.200 F 
ATOM     71  C   UNL A   1      36.865  29.882  30.552  1.00  0.00     0.200 A 
ATOM     72  F   UNL A   1      37.403  28.588  32.448  1.00  0.00    -0.200 F 
ATOM     73  F   UNL A   1      36.065  30.663  31.292  1.00  0.00    -0.200 F 
ENDBRANCH  49  63
BRANCH  50  74
ATOM     74  C   UNL A   1      49.031  26.650  26.582  1.00  0.00     0.064 A 
ATOM     75  C   UNL A   1      49.449  26.873  25.264  1.00  0.00     0.173 A 
ATOM     76  C   UNL A   1      50.091  26.667  27.535  1.00  0.00     0.173 A 
ATOM     77  F   UNL A   1      48.598  26.762  24.240  1.00  0.00    -0.203 F 
ATOM     78  C   UNL A   1      50.782  27.211  24.951  1.00  0.00     0.198 A 
ATOM     79  C   UNL A   1      51.398  27.051  27.235  1.00  0.00     0.198 A 
ATOM     80  F   UNL A   1      49.891  26.320  28.814  1.00  0.00    -0.203 F 
ATOM     81  F   UNL A   1      51.131  27.429  23.675  1.00  0.00    -0.200 F 
ATOM     82  C   UNL A   1      51.742  27.343  25.940  1.00  0.00     0.200 A 
ATOM     83  F   UNL A   1      52.302  27.156  28.220  1.00  0.00    -0.200 F 
ATOM     84  F   UNL A   1      52.988  27.737  25.647  1.00  0.00    -0.200 F 
ENDBRANCH  50  74
BRANCH  62  85
ATOM     85  C   UNL A   1      44.459  28.036  30.390  1.00  0.00     0.064 A 
ATOM     86  C   UNL A   1      45.187  28.516  31.488  1.00  0.00     0.173 A 
ATOM     87  C   UNL A   1      43.978  26.719  30.507  1.00  0.00     0.173 A 
ATOM     88  F   UNL A   1      45.662  29.770  31.478  1.00  0.00    -0.203 F 
ATOM     89  C   UNL A   1      45.442  27.719  32.610  1.00  0.00     0.198 A 
ATOM     90  C   UNL A   1      44.229  25.919  31.623  1.00  0.00     0.198 A 
ATOM     91  F   UNL A   1      43.239  26.176  29.545  1.00  0.00    -0.203 F 
ATOM     92  F   UNL A   1      46.146  28.217  33.636  1.00  0.00    -0.200 F 
ATOM     93  C   UNL A   1      44.968  26.418  32.675  1.00  0.00     0.200 A 
ATOM     94  F   UNL A   1      43.742  24.669  31.677  1.00  0.00    -0.200 F 
ATOM     95  F   UNL A   1      45.206  25.658  33.752  1.00  0.00    -0.200 F 
ENDBRANCH  62  85
ENDBRANCH  36  37
ENDBRANCH  29  31
ENDBRANCH  28  29
ENDBRANCH  27  28
ENDBRANCH  26  27
ENDBRANCH  25  26
ENDBRANCH  24  25
ENDBRANCH   1  24
TORSDOF 22
ENDMDL
MODEL 2
REMARK VINA RESULT:     -10.0      1.594      2.129
REMARK SMILES CCc1[nH]nc(-n2cccc2)c1C(=O)OCCOCCOCCOCCOC(=O)c1ccc(-c2c3nc(c(-c4c(F)c(F)c(F)c(F)c4F)c4ccc([nH]4)c(-c4c(F)c(F)c(F)c(F)c4F)c4nc(c(-c5c(F)c(F)c(F)c(F)c5F)c5ccc2[nH]5)C=C4)C=C3)cc1
REMARK SMILES IDX 22 1 21 2 20 3 19 4 18 5 17 6 16 7 15 8 13 9 14 10 12 11
REMARK SMILES IDX 3 12 4 13 5 14 6 16 2 17 1 18 7 19 8 20 11 21 9 22 10 23
REMARK SMILES IDX 23 24 24 25 25 26 26 27 27 28 28 29 29 30 30 31 31 32 92 33
REMARK SMILES IDX 32 34 91 35 33 36 34 37 35 38 85 39 36 40 90 41 84 42 86 43
REMARK SMILES IDX 37 44 89 45 83 46 82 47 38 49 70 50 50 51 69 52 51 53 54 54
REMARK SMILES IDX 68 55 87 56 52 57 53 58 67 60 88 61 55 62 39 63 40 64 48 65
REMARK SMILES IDX 41 66 42 67 46 68 49 69 43 70 44 71 47 72 45 73 71 74 72 75
REMARK SMILES IDX 80 76 73 77 74 78 78 79 81 80 75 81 76 82 79 83 77 84 56 85
REMARK SMILES IDX 57 86 65 87 58 88 59 89 63 90 66 91 60 92 61 93 64 94 62 95
REMARK H PARENT 4 15 86 48 54 59
REMARK Flexibility Score: inf
ROOT
ATOM      1  C   UNL A   1      34.758  21.388  24.985  1.00  0.00     0.188 C 
ENDROOT
BRANCH   1   2
ATOM      2  O   UNL A   1      34.425  22.135  23.825  1.00  0.00    -0.377 OA
BRANCH   2   3
ATOM      3  C   UNL A   1      33.175  22.820  23.766  1.00  0.00     0.188 C 
BRANCH   3   4
ATOM      4  C   UNL A   1      32.847  23.867  22.677  1.00  0.00     0.188 C 
BRANCH   4   5
ATOM      5  O   UNL A   1      33.877  24.824  22.487  1.00  0.00    -0.376 OA
BRANCH   5   6
ATOM      6  C   UNL A   1      33.789  26.011  23.248  1.00  0.00     0.202 C 
BRANCH   6   7
ATOM      7  C   UNL A   1      33.095  27.164  22.516  1.00  0.00     0.261 C 
BRANCH   7   8
ATOM      8  O   UNL A   1      31.666  27.217  22.660  1.00  0.00    -0.459 OA
BRANCH   8   9
ATOM      9  C   UNL A   1      31.143  27.267  23.921  1.00  0.00     0.343 C 
ATOM     10  O   UNL A   1      30.614  26.332  24.478  1.00  0.00    -0.246 OA
BRANCH   9  11
ATOM     11  C   UNL A   1      31.434  28.550  24.558  1.00  0.00     0.125 A 
ATOM     12  C   UNL A   1      32.294  28.806  25.624  1.00  0.00     0.052 A 
ATOM     13  N   UNL A   1      32.163  30.141  25.905  1.00  0.00    -0.280 N 
ATOM     14  N   UNL A   1      31.179  30.739  25.223  1.00  0.00    -0.156 NA
ATOM     15  H   UNL A   1      32.739  30.614  26.549  1.00  0.00     0.190 HD
ATOM     16  C   UNL A   1      30.768  29.790  24.374  1.00  0.00     0.173 A 
BRANCH  12  17
ATOM     17  C   UNL A   1      33.149  27.923  26.473  1.00  0.00     0.053 C 
ATOM     18  C   UNL A   1      34.454  28.586  26.871  1.00  0.00     0.011 C 
ENDBRANCH  12  17
BRANCH  16  19
ATOM     19  N   UNL A   1      29.538  30.012  23.699  1.00  0.00    -0.306 N 
ATOM     20  C   UNL A   1      28.866  31.219  23.648  1.00  0.00     0.093 A 
ATOM     21  C   UNL A   1      28.832  29.100  22.949  1.00  0.00     0.093 A 
ATOM     22  C   UNL A   1      27.703  31.050  22.932  1.00  0.00     0.020 A 
ATOM     23  C   UNL A   1      27.695  29.715  22.466  1.00  0.00     0.020 A 
ENDBRANCH  16  19
ENDBRANCH   9  11
ENDBRANCH   8   9
ENDBRANCH   7   8
ENDBRANCH   6   7
ENDBRANCH   5   6
ENDBRANCH   4   5
ENDBRANCH   3   4
ENDBRANCH   2   3
ENDBRANCH   1   2
BRANCH   1  24
ATOM     24  C   UNL A   1      35.517  22.116  26.118  1.00  0.00     0.188 C 
BRANCH  24  25
ATOM     25  O   UNL A   1      36.857  22.479  25.809  1.00  0.00    -0.376 OA
BRANCH  25  26
ATOM     26  C   UNL A   1      37.823  21.513  25.430  1.00  0.00     0.202 C 
BRANCH  26  27
ATOM     27  C   UNL A   1      39.273  21.721  25.884  1.00  0.00     0.261 C 
BRANCH  27  28
ATOM     28  O   UNL A   1      39.723  20.757  26.816  1.00  0.00    -0.460 OA
BRANCH  28  29
ATOM     29  C   UNL A   1      40.642  19.934  26.297  1.00  0.00     0.338 C 
ATOM     30  O   UNL A   1      40.470  18.909  25.657  1.00  0.00    -0.246 OA
BRANCH  29  31
ATOM     31  C   UNL A   1      41.964  20.418  26.672  1.00  0.00     0.060 A 
ATOM     32  C   UNL A   1      42.031  20.869  27.993  1.00  0.00     0.016 A 
ATOM     33  C   UNL A   1      42.626  21.025  25.602  1.00  0.00     0.016 A 
ATOM     34  C   UNL A   1      42.461  22.151  28.183  1.00  0.00     0.010 A 
ATOM     35  C   UNL A   1      42.999  22.327  25.779  1.00  0.00     0.010 A 
ATOM     36  C   UNL A   1      42.842  22.885  27.054  1.00  0.00    -0.014 A 
BRANCH  36  37
ATOM     37  C   UNL A   1      43.211  24.273  27.264  1.00  0.00     0.031 A 
ATOM     38  C   UNL A   1      41.939  25.105  27.454  1.00  0.00     0.074 A 
ATOM     39  C   UNL A   1      44.557  24.505  27.198  1.00  0.00     0.049 A 
ATOM     40  N   UNL A   1      41.756  26.382  27.359  1.00  0.00    -0.248 NA
ATOM     41  C   UNL A   1      40.651  24.405  27.758  1.00  0.00     0.031 C 
ATOM     42  C   UNL A   1      45.607  23.470  27.004  1.00  0.00     0.029 A 
ATOM     43  N   UNL A   1      45.320  25.644  27.253  1.00  0.00    -0.354 N 
ATOM     44  C   UNL A   1      40.442  26.647  27.795  1.00  0.00     0.074 A 
ATOM     45  C   UNL A   1      39.779  25.393  27.934  1.00  0.00     0.031 C 
ATOM     46  C   UNL A   1      46.826  24.037  26.863  1.00  0.00     0.029 A 
ATOM     47  C   UNL A   1      46.702  25.475  26.970  1.00  0.00     0.049 A 
ATOM     48  H   UNL A   1      44.934  26.523  27.474  1.00  0.00     0.167 HD
ATOM     49  C   UNL A   1      40.014  27.894  28.126  1.00  0.00     0.037 A 
ATOM     50  C   UNL A   1      47.648  26.448  26.780  1.00  0.00     0.037 A 
ATOM     51  C   UNL A   1      41.020  28.855  27.828  1.00  0.00     0.049 A 
ATOM     52  C   UNL A   1      46.935  27.696  27.095  1.00  0.00     0.074 A 
ATOM     53  C   UNL A   1      41.417  29.392  26.632  1.00  0.00     0.029 A 
ATOM     54  N   UNL A   1      42.004  29.062  28.763  1.00  0.00    -0.354 N 
ATOM     55  N   UNL A   1      46.579  28.055  28.291  1.00  0.00    -0.248 NA
ATOM     56  C   UNL A   1      46.454  28.531  25.990  1.00  0.00     0.031 C 
ATOM     57  C   UNL A   1      42.815  29.514  26.766  1.00  0.00     0.029 A 
ATOM     58  C   UNL A   1      43.191  29.232  28.084  1.00  0.00     0.049 A 
ATOM     59  H   UNL A   1      41.884  29.084  29.739  1.00  0.00     0.167 HD
ATOM     60  C   UNL A   1      45.572  28.959  28.046  1.00  0.00     0.074 A 
ATOM     61  C   UNL A   1      45.756  29.421  26.688  1.00  0.00     0.031 C 
ATOM     62  C   UNL A   1      44.422  28.909  28.768  1.00  0.00     0.037 A 
BRANCH  49  63
ATOM     63  C   UNL A   1      38.788  28.347  28.848  1.00  0.00     0.064 A 
ATOM     64  C   UNL A   1      38.017  29.381  28.270  1.00  0.00     0.173 A 
ATOM     65  C   UNL A   1      38.538  28.054  30.195  1.00  0.00     0.173 A 
ATOM     66  F   UNL A   1      38.147  29.688  26.970  1.00  0.00    -0.203 F 
ATOM     67  C   UNL A   1      37.156  30.165  29.029  1.00  0.00     0.198 A 
ATOM     68  C   UNL A   1      37.636  28.815  30.943  1.00  0.00     0.198 A 
ATOM     69  F   UNL A   1      39.224  27.098  30.836  1.00  0.00    -0.203 F 
ATOM     70  F   UNL A   1      36.547  31.220  28.468  1.00  0.00    -0.200 F 
ATOM     71  C   UNL A   1      36.980  29.895  30.371  1.00  0.00     0.200 A 
ATOM     72  F   UNL A   1      37.457  28.544  32.243  1.00  0.00    -0.200 F 
ATOM     73  F   UNL A   1      36.205  30.690  31.122  1.00  0.00    -0.200 F 
ENDBRANCH  49  63
BRANCH  50  74
ATOM     74  C   UNL A   1      49.064  26.582  26.265  1.00  0.00     0.064 A 
ATOM     75  C   UNL A   1      49.470  26.532  24.925  1.00  0.00     0.173 A 
ATOM     76  C   UNL A   1      50.118  26.882  27.176  1.00  0.00     0.173 A 
ATOM     77  F   UNL A   1      48.630  26.137  23.963  1.00  0.00    -0.203 F 
ATOM     78  C   UNL A   1      50.777  26.879  24.527  1.00  0.00     0.198 A 
ATOM     79  C   UNL A   1      51.397  27.276  26.781  1.00  0.00     0.198 A 
ATOM     80  F   UNL A   1      49.940  26.817  28.503  1.00  0.00    -0.203 F 
ATOM     81  F   UNL A   1      51.113  26.829  23.230  1.00  0.00    -0.200 F 
ATOM     82  C   UNL A   1      51.723  27.293  25.449  1.00  0.00     0.200 A 
ATOM     83  F   UNL A   1      52.289  27.659  27.706  1.00  0.00    -0.200 F 
ATOM     84  F   UNL A   1      52.941  27.694  25.059  1.00  0.00    -0.200 F 
ENDBRANCH  50  74
BRANCH  62  85
ATOM     85  C   UNL A   1      44.560  28.152  30.081  1.00  0.00     0.064 A 
ATOM     86  C   UNL A   1      45.328  28.692  31.122  1.00  0.00     0.173 A 
ATOM     87  C   UNL A   1      44.073  26.849  30.297  1.00  0.00     0.173 A 
ATOM     88  F   UNL A   1      45.813  29.939  31.017  1.00  0.00    -0.203 F 
ATOM     89  C   UNL A   1      45.615  27.964  32.283  1.00  0.00     0.198 A 
ATOM     90  C   UNL A   1      44.355  26.119  31.452  1.00  0.00     0.198 A 
ATOM     91  F   UNL A   1      43.297  26.255  29.397  1.00  0.00    -0.203 F 
ATOM     92  F   UNL A   1      46.358  28.519  33.251  1.00  0.00    -0.200 F 
ATOM     93  C   UNL A   1      45.134  26.675  32.445  1.00  0.00     0.200 A 
ATOM     94  F   UNL A   1      43.861  24.880  31.600  1.00  0.00    -0.200 F 
ATOM     95  F   UNL A   1      45.403  25.982  33.560  1.00  0.00    -0.200 F 
ENDBRANCH  62  85
ENDBRANCH  36  37
ENDBRANCH  29  31
ENDBRANCH  28  29
ENDBRANCH  27  28
ENDBRANCH  26  27
ENDBRANCH  25  26
ENDBRANCH  24  25
ENDBRANCH   1  24
TORSDOF 22
ENDMDL
MODEL 3
REMARK VINA RESULT:      -9.9      1.143      2.161
REMARK SMILES CCc1[nH]nc(-n2cccc2)c1C(=O)OCCOCCOCCOCCOC(=O)c1ccc(-c2c3nc(c(-c4c(F)c(F)c(F)c(F)c4F)c4ccc([nH]4)c(-c4c(F)c(F)c(F)c(F)c4F)c4nc(c(-c5c(F)c(F)c(F)c(F)c5F)c5ccc2[nH]5)C=C4)C=C3)cc1
REMARK SMILES IDX 22 1 21 2 20 3 19 4 18 5 17 6 16 7 15 8 13 9 14 10 12 11
REMARK SMILES IDX 3 12 4 13 5 14 6 16 2 17 1 18 7 19 8 20 11 21 9 22 10 23
REMARK SMILES IDX 23 24 24 25 25 26 26 27 27 28 28 29 29 30 30 31 31 32 92 33
REMARK SMILES IDX 32 34 91 35 33 36 34 37 35 38 85 39 36 40 90 41 84 42 86 43
REMARK SMILES IDX 37 44 89 45 83 46 82 47 38 49 70 50 50 51 69 52 51 53 54 54
REMARK SMILES IDX 68 55 87 56 52 57 53 58 67 60 88 61 55 62 39 63 40 64 48 65
REMARK SMILES IDX 41 66 42 67 46 68 49 69 43 70 44 71 47 72 45 73 71 74 72 75
REMARK SMILES IDX 80 76 73 77 74 78 78 79 81 80 75 81 76 82 79 83 77 84 56 85
REMARK SMILES IDX 57 86 65 87 58 88 59 89 63 90 66 91 60 92 61 93 64 94 62 95
REMARK H PARENT 4 15 86 48 54 59
REMARK Flexibility Score: inf
ROOT
ATOM      1  C   UNL A   1      35.170  22.387  23.771  1.00  0.00     0.188 C 
ENDROOT
BRANCH   1   2
ATOM      2  O   UNL A   1      34.022  23.219  23.717  1.00  0.00    -0.377 OA
BRANCH   2   3
ATOM      3  C   UNL A   1      33.711  23.908  22.508  1.00  0.00     0.188 C 
BRANCH   3   4
ATOM      4  C   UNL A   1      32.879  25.211  22.479  1.00  0.00     0.188 C 
BRANCH   4   5
ATOM      5  O   UNL A   1      31.482  24.991  22.583  1.00  0.00    -0.376 OA
BRANCH   5   6
ATOM      6  C   UNL A   1      30.672  26.132  22.778  1.00  0.00     0.202 C 
BRANCH   6   7
ATOM      7  C   UNL A   1      29.526  25.914  23.770  1.00  0.00     0.261 C 
BRANCH   7   8
ATOM      8  O   UNL A   1      29.730  26.463  25.082  1.00  0.00    -0.459 OA
BRANCH   8   9
ATOM      9  C   UNL A   1      30.172  25.630  26.071  1.00  0.00     0.343 C 
ATOM     10  O   UNL A   1      29.447  24.983  26.793  1.00  0.00    -0.246 OA
BRANCH   9  11
ATOM     11  C   UNL A   1      31.628  25.514  26.046  1.00  0.00     0.125 A 
ATOM     12  C   UNL A   1      32.406  24.385  26.293  1.00  0.00     0.052 A 
ATOM     13  N   UNL A   1      33.710  24.800  26.229  1.00  0.00    -0.280 N 
ATOM     14  N   UNL A   1      33.846  26.127  26.121  1.00  0.00    -0.156 NA
ATOM     15  H   UNL A   1      34.475  24.180  26.258  1.00  0.00     0.190 HD
ATOM     16  C   UNL A   1      32.588  26.556  25.964  1.00  0.00     0.173 A 
BRANCH  12  17
ATOM     17  C   UNL A   1      32.065  22.983  26.679  1.00  0.00     0.053 C 
ATOM     18  C   UNL A   1      33.281  22.188  27.118  1.00  0.00     0.011 C 
ENDBRANCH  12  17
BRANCH  16  19
ATOM     19  N   UNL A   1      32.356  27.950  26.107  1.00  0.00    -0.306 N 
ATOM     20  C   UNL A   1      32.115  28.826  25.065  1.00  0.00     0.093 A 
ATOM     21  C   UNL A   1      32.280  28.659  27.283  1.00  0.00     0.093 A 
ATOM     22  C   UNL A   1      31.964  30.095  25.577  1.00  0.00     0.020 A 
ATOM     23  C   UNL A   1      32.040  29.985  26.984  1.00  0.00     0.020 A 
ENDBRANCH  16  19
ENDBRANCH   9  11
ENDBRANCH   8   9
ENDBRANCH   7   8
ENDBRANCH   6   7
ENDBRANCH   5   6
ENDBRANCH   4   5
ENDBRANCH   3   4
ENDBRANCH   2   3
ENDBRANCH   1   2
BRANCH   1  24
ATOM     24  C   UNL A   1      36.550  23.046  23.541  1.00  0.00     0.188 C 
BRANCH  24  25
ATOM     25  O   UNL A   1      37.267  23.370  24.725  1.00  0.00    -0.376 OA
BRANCH  25  26
ATOM     26  C   UNL A   1      37.500  22.411  25.743  1.00  0.00     0.202 C 
BRANCH  26  27
ATOM     27  C   UNL A   1      38.442  21.241  25.435  1.00  0.00     0.261 C 
BRANCH  27  28
ATOM     28  O   UNL A   1      39.330  20.931  26.492  1.00  0.00    -0.460 OA
BRANCH  28  29
ATOM     29  C   UNL A   1      40.180  19.946  26.173  1.00  0.00     0.338 C 
ATOM     30  O   UNL A   1      39.930  18.849  25.703  1.00  0.00    -0.246 OA
BRANCH  29  31
ATOM     31  C   UNL A   1      41.528  20.359  26.542  1.00  0.00     0.060 A 
ATOM     32  C   UNL A   1      41.630  20.780  27.872  1.00  0.00     0.016 A 
ATOM     33  C   UNL A   1      42.207  20.955  25.477  1.00  0.00     0.016 A 
ATOM     34  C   UNL A   1      42.124  22.035  28.082  1.00  0.00     0.010 A 
ATOM     35  C   UNL A   1      42.643  22.234  25.675  1.00  0.00     0.010 A 
ATOM     36  C   UNL A   1      42.528  22.773  26.963  1.00  0.00    -0.014 A 
BRANCH  36  37
ATOM     37  C   UNL A   1      42.965  24.137  27.197  1.00  0.00     0.031 A 
ATOM     38  C   UNL A   1      41.736  25.026  27.414  1.00  0.00     0.074 A 
ATOM     39  C   UNL A   1      44.320  24.305  27.123  1.00  0.00     0.049 A 
ATOM     40  N   UNL A   1      41.615  26.312  27.346  1.00  0.00    -0.248 NA
ATOM     41  C   UNL A   1      40.419  24.382  27.717  1.00  0.00     0.031 C 
ATOM     42  C   UNL A   1      45.317  23.225  26.899  1.00  0.00     0.029 A 
ATOM     43  N   UNL A   1      45.138  25.404  27.192  1.00  0.00    -0.354 N 
ATOM     44  C   UNL A   1      40.319  26.631  27.799  1.00  0.00     0.074 A 
ATOM     45  C   UNL A   1      39.596  25.408  27.920  1.00  0.00     0.031 C 
ATOM     46  C   UNL A   1      46.561  23.734  26.757  1.00  0.00     0.029 A 
ATOM     47  C   UNL A   1      46.507  25.174  26.893  1.00  0.00     0.049 A 
ATOM     48  H   UNL A   1      44.797  26.296  27.434  1.00  0.00     0.167 HD
ATOM     49  C   UNL A   1      39.955  27.891  28.158  1.00  0.00     0.037 A 
ATOM     50  C   UNL A   1      47.497  26.104  26.713  1.00  0.00     0.037 A 
ATOM     51  C   UNL A   1      41.003  28.808  27.870  1.00  0.00     0.049 A 
ATOM     52  C   UNL A   1      46.849  27.379  27.059  1.00  0.00     0.074 A 
ATOM     53  C   UNL A   1      41.416  29.348  26.680  1.00  0.00     0.029 A 
ATOM     54  N   UNL A   1      42.004  28.948  28.798  1.00  0.00    -0.354 N 
ATOM     55  N   UNL A   1      46.520  27.731  28.265  1.00  0.00    -0.248 NA
ATOM     56  C   UNL A   1      46.400  28.258  25.974  1.00  0.00     0.031 C 
ATOM     57  C   UNL A   1      42.819  29.400  26.804  1.00  0.00     0.029 A 
ATOM     58  C   UNL A   1      43.192  29.074  28.112  1.00  0.00     0.049 A 
ATOM     59  H   UNL A   1      41.893  28.957  29.776  1.00  0.00     0.167 HD
ATOM     60  C   UNL A   1      45.557  28.687  28.046  1.00  0.00     0.074 A 
ATOM     61  C   UNL A   1      45.752  29.166  26.696  1.00  0.00     0.031 C 
ATOM     62  C   UNL A   1      44.412  28.678  28.779  1.00  0.00     0.037 A 
BRANCH  49  63
ATOM     63  C   UNL A   1      38.758  28.388  28.900  1.00  0.00     0.064 A 
ATOM     64  C   UNL A   1      38.015  29.448  28.334  1.00  0.00     0.173 A 
ATOM     65  C   UNL A   1      38.520  28.105  30.251  1.00  0.00     0.173 A 
ATOM     66  F   UNL A   1      38.134  29.749  27.032  1.00  0.00    -0.203 F 
ATOM     67  C   UNL A   1      37.195  30.264  29.106  1.00  0.00     0.198 A 
ATOM     68  C   UNL A   1      37.659  28.899  31.014  1.00  0.00     0.198 A 
ATOM     69  F   UNL A   1      39.182  27.125  30.882  1.00  0.00    -0.203 F 
ATOM     70  F   UNL A   1      36.616  31.339  28.554  1.00  0.00    -0.200 F 
ATOM     71  C   UNL A   1      37.033  30.001  30.452  1.00  0.00     0.200 A 
ATOM     72  F   UNL A   1      37.493  28.635  32.317  1.00  0.00    -0.200 F 
ATOM     73  F   UNL A   1      36.300  30.824  31.214  1.00  0.00    -0.200 F 
ENDBRANCH  49  63
BRANCH  50  74
ATOM     74  C   UNL A   1      48.914  26.179  26.187  1.00  0.00     0.064 A 
ATOM     75  C   UNL A   1      49.301  26.526  24.886  1.00  0.00     0.173 A 
ATOM     76  C   UNL A   1      50.007  25.980  27.080  1.00  0.00     0.173 A 
ATOM     77  F   UNL A   1      48.403  26.622  23.900  1.00  0.00    -0.203 F 
ATOM     78  C   UNL A   1      50.647  26.776  24.549  1.00  0.00     0.198 A 
ATOM     79  C   UNL A   1      51.333  26.277  26.763  1.00  0.00     0.198 A 
ATOM     80  F   UNL A   1      49.825  25.495  28.316  1.00  0.00    -0.203 F 
ATOM     81  F   UNL A   1      50.965  27.120  23.292  1.00  0.00    -0.200 F 
ATOM     82  C   UNL A   1      51.653  26.696  25.497  1.00  0.00     0.200 A 
ATOM     83  F   UNL A   1      52.280  26.175  27.707  1.00  0.00    -0.200 F 
ATOM     84  F   UNL A   1      52.920  27.007  25.191  1.00  0.00    -0.200 F 
ENDBRANCH  50  74
BRANCH  62  85
ATOM     85  C   UNL A   1      44.524  27.890  30.075  1.00  0.00     0.064 A 
ATOM     86  C   UNL A   1      45.307  28.384  31.128  1.00  0.00     0.173 A 
ATOM     87  C   UNL A   1      43.996  26.599  30.262  1.00  0.00     0.173 A 
ATOM     88  F   UNL A   1      45.830  29.617  31.050  1.00  0.00    -0.203 F 
ATOM     89  C   UNL A   1      45.569  27.623  32.273  1.00  0.00     0.198 A 
ATOM     90  C   UNL A   1      44.254  25.836  31.403  1.00  0.00     0.198 A 
ATOM     91  F   UNL A   1      43.204  26.048  29.350  1.00  0.00    -0.203 F 
ATOM     92  F   UNL A   1      46.327  28.134  33.253  1.00  0.00    -0.200 F 
ATOM     93  C   UNL A   1      45.048  26.347  32.408  1.00  0.00     0.200 A 
ATOM     94  F   UNL A   1      43.721  24.610  31.524  1.00  0.00    -0.200 F 
ATOM     95  F   UNL A   1      45.293  25.622  33.508  1.00  0.00    -0.200 F 
ENDBRANCH  62  85
ENDBRANCH  36  37
ENDBRANCH  29  31
ENDBRANCH  28  29
ENDBRANCH  27  28
ENDBRANCH  26  27
ENDBRANCH  25  26
ENDBRANCH  24  25
ENDBRANCH   1  24
TORSDOF 22
ENDMDL
