MODEL 1
REMARK VINA RESULT:      -9.2      0.000      0.000
REMARK SMILES CCN(CC)S(=O)(=O)c1cccc(C(=O)N2C[C@H](O)C[C@H]2C(=O)OCCOCCOCCOCCOC(=O)c2ccc(-c3c4nc(c(-c5c(F)c(F)c(F)c(F)c5F)c5ccc([nH]5)c(-c5c(F)c(F)c(F)c(F)c5F)c5nc(c(-c6c(F)c(F)c(F)c(F)c6F)c6ccc3[nH]6)C=C5)C=C4)cc2)c1
REMARK SMILES IDX 28 1 27 2 26 3 25 4 24 5 22 6 23 7 21 8 16 9 17 10 18 11
REMARK SMILES IDX 20 12 14 13 15 14 13 15 9 16 10 17 102 18 11 19 12 20 6 21
REMARK SMILES IDX 7 22 8 23 3 24 2 25 1 26 4 27 5 28 19 29 29 31 30 32 31 33
REMARK SMILES IDX 32 34 33 35 34 36 35 37 36 38 37 39 38 40 39 41 40 42 101 43
REMARK SMILES IDX 41 44 100 45 42 46 43 47 44 48 94 49 45 50 99 51 93 52 95 53
REMARK SMILES IDX 46 54 98 55 92 56 91 57 47 59 79 60 59 61 78 62 60 63 63 64
REMARK SMILES IDX 77 65 96 66 61 67 62 68 76 70 97 71 64 72 48 73 49 74 57 75
REMARK SMILES IDX 50 76 51 77 55 78 58 79 52 80 53 81 56 82 54 83 80 84 81 85
REMARK SMILES IDX 89 86 82 87 83 88 87 89 90 90 84 91 85 92 88 93 86 94 65 95
REMARK SMILES IDX 66 96 74 97 67 98 68 99 72 100 75 101 69 102 70 103 73 104
REMARK SMILES IDX 71 105
REMARK H PARENT 19 30 95 58 63 69
REMARK Flexibility Score: inf
ROOT
ATOM      1  C   UNL A   1      36.303  20.129  25.038  1.00  0.00     0.188 C 
ENDROOT
BRANCH   1   2
ATOM      2  O   UNL A   1      35.753  21.218  25.758  1.00  0.00    -0.376 OA
BRANCH   2   3
ATOM      3  C   UNL A   1      36.484  22.435  25.858  1.00  0.00     0.202 C 
BRANCH   3   4
ATOM      4  C   UNL A   1      35.773  23.802  25.805  1.00  0.00     0.261 C 
BRANCH   4   5
ATOM      5  O   UNL A   1      35.543  24.345  24.477  1.00  0.00    -0.462 OA
BRANCH   5   6
ATOM      6  C   UNL A   1      34.244  24.492  24.124  1.00  0.00     0.329 C 
ATOM      7  O   UNL A   1      33.878  25.263  23.232  1.00  0.00    -0.250 OA
BRANCH   6   8
ATOM      8  C   UNL A   1      33.176  23.668  24.888  1.00  0.00     0.198 C 
ATOM      9  N   UNL A   1      31.745  23.949  25.129  1.00  0.00    -0.322 N 
ATOM     10  C   UNL A   1      30.891  22.934  24.533  1.00  0.00     0.152 C 
ATOM     11  C   UNL A   1      31.801  21.724  24.361  1.00  0.00     0.136 C 
ATOM     12  C   UNL A   1      33.142  22.355  24.059  1.00  0.00     0.071 C 
BRANCH   9  13
ATOM     13  C   UNL A   1      31.200  24.844  26.034  1.00  0.00     0.254 C 
ATOM     14  O   UNL A   1      30.943  24.487  27.183  1.00  0.00    -0.269 OA
BRANCH  13  15
ATOM     15  C   UNL A   1      31.161  26.327  25.739  1.00  0.00     0.041 A 
ATOM     16  C   UNL A   1      31.029  28.255  24.265  1.00  0.00     0.083 A 
ATOM     17  C   UNL A   1      31.444  29.120  25.277  1.00  0.00     0.022 A 
ATOM     18  C   UNL A   1      30.838  26.878  24.498  1.00  0.00     0.035 A 
ATOM     19  C   UNL A   1      31.757  28.587  26.517  1.00  0.00     0.002 A 
ATOM     20  C   UNL A   1      31.649  27.205  26.727  1.00  0.00     0.014 A 
BRANCH  16  21
ATOM     21  S   UNL A   1      30.883  28.859  22.595  1.00  0.00     0.243 S 
ATOM     22  O   UNL A   1      30.404  27.769  21.757  1.00  0.00    -0.207 OA
ATOM     23  O   UNL A   1      32.118  29.527  22.297  1.00  0.00    -0.207 OA
BRANCH  21  24
ATOM     24  N   UNL A   1      29.614  30.005  22.747  1.00  0.00    -0.198 NA
BRANCH  24  25
ATOM     25  C   UNL A   1      29.192  30.688  21.489  1.00  0.00     0.099 C 
ATOM     26  C   UNL A   1      28.443  31.982  21.749  1.00  0.00     0.022 C 
ENDBRANCH  24  25
BRANCH  24  27
ATOM     27  C   UNL A   1      28.441  29.643  23.606  1.00  0.00     0.099 C 
ATOM     28  C   UNL A   1      27.424  28.735  22.936  1.00  0.00     0.022 C 
ENDBRANCH  24  27
ENDBRANCH  21  24
ENDBRANCH  16  21
ENDBRANCH  13  15
ENDBRANCH   9  13
BRANCH  11  29
ATOM     29  O   UNL A   1      31.874  20.930  25.540  1.00  0.00    -0.391 OA
ATOM     30  H   UNL A   1      32.707  21.114  26.002  1.00  0.00     0.211 HD
ENDBRANCH  11  29
ENDBRANCH   6   8
ENDBRANCH   5   6
ENDBRANCH   4   5
ENDBRANCH   3   4
ENDBRANCH   2   3
ENDBRANCH   1   2
BRANCH   1  31
ATOM     31  C   UNL A   1      37.753  20.253  24.562  1.00  0.00     0.188 C 
BRANCH  31  32
ATOM     32  O   UNL A   1      38.628  19.235  25.004  1.00  0.00    -0.377 OA
BRANCH  32  33
ATOM     33  C   UNL A   1      39.665  19.525  25.944  1.00  0.00     0.188 C 
BRANCH  33  34
ATOM     34  C   UNL A   1      40.044  20.991  26.171  1.00  0.00     0.188 C 
BRANCH  34  35
ATOM     35  O   UNL A   1      40.625  21.340  27.432  1.00  0.00    -0.376 OA
BRANCH  35  36
ATOM     36  C   UNL A   1      41.993  21.010  27.654  1.00  0.00     0.202 C 
BRANCH  36  37
ATOM     37  C   UNL A   1      42.882  21.083  26.415  1.00  0.00     0.261 C 
BRANCH  37  38
ATOM     38  O   UNL A   1      43.662  22.286  26.389  1.00  0.00    -0.460 OA
BRANCH  38  39
ATOM     39  C   UNL A   1      43.237  23.215  25.503  1.00  0.00     0.338 C 
ATOM     40  O   UNL A   1      43.029  23.067  24.311  1.00  0.00    -0.246 OA
BRANCH  39  41
ATOM     41  C   UNL A   1      42.926  24.469  26.212  1.00  0.00     0.060 A 
ATOM     42  C   UNL A   1      42.681  25.610  25.439  1.00  0.00     0.016 A 
ATOM     43  C   UNL A   1      42.964  24.545  27.607  1.00  0.00     0.016 A 
ATOM     44  C   UNL A   1      42.534  26.848  26.055  1.00  0.00     0.010 A 
ATOM     45  C   UNL A   1      42.826  25.788  28.225  1.00  0.00     0.010 A 
ATOM     46  C   UNL A   1      42.657  26.946  27.447  1.00  0.00    -0.014 A 
BRANCH  46  47
ATOM     47  C   UNL A   1      42.806  28.281  28.065  1.00  0.00     0.031 A 
ATOM     48  C   UNL A   1      44.176  28.895  28.117  1.00  0.00     0.074 A 
ATOM     49  C   UNL A   1      41.735  28.937  28.539  1.00  0.00     0.049 A 
ATOM     50  N   UNL A   1      44.557  30.039  28.625  1.00  0.00    -0.248 NA
ATOM     51  C   UNL A   1      45.266  28.109  27.518  1.00  0.00     0.031 C 
ATOM     52  C   UNL A   1      40.360  28.443  28.500  1.00  0.00     0.029 A 
ATOM     53  N   UNL A   1      41.641  30.159  29.150  1.00  0.00    -0.354 N 
ATOM     54  C   UNL A   1      45.928  30.103  28.416  1.00  0.00     0.074 A 
ATOM     55  C   UNL A   1      46.319  28.871  27.766  1.00  0.00     0.031 C 
ATOM     56  C   UNL A   1      39.556  29.357  29.070  1.00  0.00     0.029 A 
ATOM     57  C   UNL A   1      40.366  30.479  29.540  1.00  0.00     0.049 A 
ATOM     58  H   UNL A   1      42.415  30.750  29.296  1.00  0.00     0.167 HD
ATOM     59  C   UNL A   1      46.781  31.105  28.733  1.00  0.00     0.037 A 
ATOM     60  C   UNL A   1      39.915  31.552  30.216  1.00  0.00     0.037 A 
ATOM     61  C   UNL A   1      46.375  32.325  29.381  1.00  0.00     0.049 A 
ATOM     62  C   UNL A   1      40.894  32.625  30.617  1.00  0.00     0.074 A 
ATOM     63  C   UNL A   1      47.146  33.420  29.725  1.00  0.00     0.029 A 
ATOM     64  N   UNL A   1      45.079  32.601  29.795  1.00  0.00    -0.354 N 
ATOM     65  N   UNL A   1      42.184  32.699  30.388  1.00  0.00    -0.248 NA
ATOM     66  C   UNL A   1      40.354  33.764  31.369  1.00  0.00     0.031 C 
ATOM     67  C   UNL A   1      46.329  34.332  30.401  1.00  0.00     0.029 A 
ATOM     68  C   UNL A   1      45.035  33.835  30.423  1.00  0.00     0.049 A 
ATOM     69  H   UNL A   1      44.305  32.007  29.664  1.00  0.00     0.167 HD
ATOM     70  C   UNL A   1      42.603  33.902  30.939  1.00  0.00     0.074 A 
ATOM     71  C   UNL A   1      41.426  34.531  31.503  1.00  0.00     0.031 C 
ATOM     72  C   UNL A   1      43.848  34.440  30.976  1.00  0.00     0.037 A 
BRANCH  59  73
ATOM     73  C   UNL A   1      48.236  30.904  28.418  1.00  0.00     0.064 A 
ATOM     74  C   UNL A   1      48.848  31.513  27.311  1.00  0.00     0.173 A 
ATOM     75  C   UNL A   1      49.031  30.093  29.240  1.00  0.00     0.173 A 
ATOM     76  F   UNL A   1      48.130  32.286  26.483  1.00  0.00    -0.203 F 
ATOM     77  C   UNL A   1      50.192  31.290  27.023  1.00  0.00     0.198 A 
ATOM     78  C   UNL A   1      50.383  29.897  28.967  1.00  0.00     0.198 A 
ATOM     79  F   UNL A   1      48.499  29.486  30.312  1.00  0.00    -0.203 F 
ATOM     80  F   UNL A   1      50.741  31.835  25.927  1.00  0.00    -0.200 F 
ATOM     81  C   UNL A   1      50.960  30.487  27.853  1.00  0.00     0.200 A 
ATOM     82  F   UNL A   1      51.125  29.130  29.778  1.00  0.00    -0.200 F 
ATOM     83  F   UNL A   1      52.253  30.274  27.575  1.00  0.00    -0.200 F 
ENDBRANCH  59  73
BRANCH  60  84
ATOM     84  C   UNL A   1      38.471  31.665  30.547  1.00  0.00     0.064 A 
ATOM     85  C   UNL A   1      38.004  31.402  31.841  1.00  0.00     0.173 A 
ATOM     86  C   UNL A   1      37.529  32.043  29.579  1.00  0.00     0.173 A 
ATOM     87  F   UNL A   1      38.863  31.015  32.797  1.00  0.00    -0.203 F 
ATOM     88  C   UNL A   1      36.650  31.499  32.153  1.00  0.00     0.198 A 
ATOM     89  C   UNL A   1      36.179  32.169  29.898  1.00  0.00     0.198 A 
ATOM     90  F   UNL A   1      37.923  32.307  28.324  1.00  0.00    -0.203 F 
ATOM     91  F   UNL A   1      36.226  31.204  33.388  1.00  0.00    -0.200 F 
ATOM     92  C   UNL A   1      35.738  31.890  31.182  1.00  0.00     0.200 A 
ATOM     93  F   UNL A   1      35.304  32.560  28.961  1.00  0.00    -0.200 F 
ATOM     94  F   UNL A   1      34.438  31.993  31.485  1.00  0.00    -0.200 F 
ENDBRANCH  60  84
BRANCH  72  95
ATOM     95  C   UNL A   1      43.993  35.789  31.619  1.00  0.00     0.064 A 
ATOM     96  C   UNL A   1      44.237  35.930  32.994  1.00  0.00     0.173 A 
ATOM     97  C   UNL A   1      43.925  36.956  30.841  1.00  0.00     0.173 A 
ATOM     98  F   UNL A   1      44.296  34.847  33.783  1.00  0.00    -0.203 F 
ATOM     99  C   UNL A   1      44.376  37.190  33.570  1.00  0.00     0.198 A 
ATOM    100  C   UNL A   1      44.100  38.211  31.415  1.00  0.00     0.198 A 
ATOM    101  F   UNL A   1      43.704  36.877  29.521  1.00  0.00    -0.203 F 
ATOM    102  F   UNL A   1      44.554  37.303  34.893  1.00  0.00    -0.200 F 
ATOM    103  C   UNL A   1      44.316  38.328  32.779  1.00  0.00     0.200 A 
ATOM    104  F   UNL A   1      44.058  39.309  30.647  1.00  0.00    -0.200 F 
ATOM    105  F   UNL A   1      44.458  39.540  33.336  1.00  0.00    -0.200 F 
ENDBRANCH  72  95
ENDBRANCH  46  47
ENDBRANCH  39  41
ENDBRANCH  38  39
ENDBRANCH  37  38
ENDBRANCH  36  37
ENDBRANCH  35  36
ENDBRANCH  34  35
ENDBRANCH  33  34
ENDBRANCH  32  33
ENDBRANCH  31  32
ENDBRANCH   1  31
TORSDOF 27
ENDMDL
MODEL 2
REMARK VINA RESULT:      -8.1      3.446      6.271
REMARK SMILES CCN(CC)S(=O)(=O)c1cccc(C(=O)N2C[C@H](O)C[C@H]2C(=O)OCCOCCOCCOCCOC(=O)c2ccc(-c3c4nc(c(-c5c(F)c(F)c(F)c(F)c5F)c5ccc([nH]5)c(-c5c(F)c(F)c(F)c(F)c5F)c5nc(c(-c6c(F)c(F)c(F)c(F)c6F)c6ccc3[nH]6)C=C5)C=C4)cc2)c1
REMARK SMILES IDX 28 1 27 2 26 3 25 4 24 5 22 6 23 7 21 8 16 9 17 10 18 11
REMARK SMILES IDX 20 12 14 13 15 14 13 15 9 16 10 17 102 18 11 19 12 20 6 21
REMARK SMILES IDX 7 22 8 23 3 24 2 25 1 26 4 27 5 28 19 29 29 31 30 32 31 33
REMARK SMILES IDX 32 34 33 35 34 36 35 37 36 38 37 39 38 40 39 41 40 42 101 43
REMARK SMILES IDX 41 44 100 45 42 46 43 47 44 48 94 49 45 50 99 51 93 52 95 53
REMARK SMILES IDX 46 54 98 55 92 56 91 57 47 59 79 60 59 61 78 62 60 63 63 64
REMARK SMILES IDX 77 65 96 66 61 67 62 68 76 70 97 71 64 72 48 73 49 74 57 75
REMARK SMILES IDX 50 76 51 77 55 78 58 79 52 80 53 81 56 82 54 83 80 84 81 85
REMARK SMILES IDX 89 86 82 87 83 88 87 89 90 90 84 91 85 92 88 93 86 94 65 95
REMARK SMILES IDX 66 96 74 97 67 98 68 99 72 100 75 101 69 102 70 103 73 104
REMARK SMILES IDX 71 105
REMARK H PARENT 19 30 95 58 63 69
REMARK Flexibility Score: inf
ROOT
ATOM      1  C   UNL A   1      39.332  27.152  28.381  1.00  0.00     0.188 C 
ENDROOT
BRANCH   1   2
ATOM      2  O   UNL A   1      39.145  28.446  28.927  1.00  0.00    -0.376 OA
BRANCH   2   3
ATOM      3  C   UNL A   1      38.230  29.344  28.308  1.00  0.00     0.202 C 
BRANCH   3   4
ATOM      4  C   UNL A   1      36.749  29.395  28.735  1.00  0.00     0.261 C 
BRANCH   4   5
ATOM      5  O   UNL A   1      35.777  29.202  27.673  1.00  0.00    -0.462 OA
BRANCH   5   6
ATOM      6  C   UNL A   1      35.070  30.301  27.322  1.00  0.00     0.329 C 
ATOM      7  O   UNL A   1      35.328  31.428  27.755  1.00  0.00    -0.250 OA
BRANCH   6   8
ATOM      8  C   UNL A   1      33.878  30.128  26.346  1.00  0.00     0.198 C 
ATOM      9  N   UNL A   1      33.182  28.904  25.895  1.00  0.00    -0.322 N 
ATOM     10  C   UNL A   1      31.781  28.910  26.282  1.00  0.00     0.152 C 
ATOM     11  C   UNL A   1      31.458  30.380  26.522  1.00  0.00     0.136 C 
ATOM     12  C   UNL A   1      32.759  30.920  27.075  1.00  0.00     0.071 C 
BRANCH   9  13
ATOM     13  C   UNL A   1      33.624  27.972  24.972  1.00  0.00     0.254 C 
ATOM     14  O   UNL A   1      34.301  28.325  24.007  1.00  0.00    -0.269 OA
BRANCH  13  15
ATOM     15  C   UNL A   1      33.533  26.489  25.254  1.00  0.00     0.041 A 
ATOM     16  C   UNL A   1      33.722  24.140  24.660  1.00  0.00     0.083 A 
ATOM     17  C   UNL A   1      32.998  23.745  25.784  1.00  0.00     0.022 A 
ATOM     18  C   UNL A   1      34.035  25.492  24.416  1.00  0.00     0.035 A 
ATOM     19  C   UNL A   1      32.503  24.724  26.631  1.00  0.00     0.002 A 
ATOM     20  C   UNL A   1      32.742  26.076  26.344  1.00  0.00     0.014 A 
BRANCH  16  21
ATOM     21  S   UNL A   1      34.135  22.936  23.412  1.00  0.00     0.243 S 
ATOM     22  O   UNL A   1      34.366  23.641  22.158  1.00  0.00    -0.207 OA
ATOM     23  O   UNL A   1      33.143  21.903  23.502  1.00  0.00    -0.207 OA
BRANCH  21  24
ATOM     24  N   UNL A   1      35.648  22.352  23.975  1.00  0.00    -0.198 NA
BRANCH  24  25
ATOM     25  C   UNL A   1      36.741  23.361  24.087  1.00  0.00     0.099 C 
ATOM     26  C   UNL A   1      37.126  23.650  25.525  1.00  0.00     0.022 C 
ENDBRANCH  24  25
BRANCH  24  27
ATOM     27  C   UNL A   1      35.645  21.401  25.131  1.00  0.00     0.099 C 
ATOM     28  C   UNL A   1      36.518  20.172  24.941  1.00  0.00     0.022 C 
ENDBRANCH  24  27
ENDBRANCH  21  24
ENDBRANCH  16  21
ENDBRANCH  13  15
ENDBRANCH   9  13
BRANCH  11  29
ATOM     29  O   UNL A   1      31.102  31.059  25.324  1.00  0.00    -0.391 OA
ATOM     30  H   UNL A   1      30.369  30.592  24.894  1.00  0.00     0.211 HD
ENDBRANCH  11  29
ENDBRANCH   6   8
ENDBRANCH   5   6
ENDBRANCH   4   5
ENDBRANCH   3   4
ENDBRANCH   2   3
ENDBRANCH   1   2
BRANCH   1  31
ATOM     31  C   UNL A   1      40.051  27.047  27.034  1.00  0.00     0.188 C 
BRANCH  31  32
ATOM     32  O   UNL A   1      40.181  25.739  26.514  1.00  0.00    -0.377 OA
BRANCH  32  33
ATOM     33  C   UNL A   1      41.238  24.883  26.953  1.00  0.00     0.188 C 
BRANCH  33  34
ATOM     34  C   UNL A   1      40.904  23.787  27.969  1.00  0.00     0.188 C 
BRANCH  34  35
ATOM     35  O   UNL A   1      40.158  22.656  27.505  1.00  0.00    -0.376 OA
BRANCH  35  36
ATOM     36  C   UNL A   1      40.836  21.410  27.384  1.00  0.00     0.202 C 
BRANCH  36  37
ATOM     37  C   UNL A   1      41.658  21.245  26.108  1.00  0.00     0.261 C 
BRANCH  37  38
ATOM     38  O   UNL A   1      43.025  20.921  26.392  1.00  0.00    -0.460 OA
BRANCH  38  39
ATOM     39  C   UNL A   1      43.867  21.053  25.342  1.00  0.00     0.338 C 
ATOM     40  O   UNL A   1      43.929  20.354  24.345  1.00  0.00    -0.246 OA
BRANCH  39  41
ATOM     41  C   UNL A   1      44.665  22.281  25.500  1.00  0.00     0.060 A 
ATOM     42  C   UNL A   1      45.553  22.346  26.581  1.00  0.00     0.016 A 
ATOM     43  C   UNL A   1      44.481  23.382  24.660  1.00  0.00     0.016 A 
ATOM     44  C   UNL A   1      46.216  23.534  26.865  1.00  0.00     0.010 A 
ATOM     45  C   UNL A   1      45.140  24.578  24.949  1.00  0.00     0.010 A 
ATOM     46  C   UNL A   1      45.971  24.667  26.079  1.00  0.00    -0.014 A 
BRANCH  46  47
ATOM     47  C   UNL A   1      46.431  25.988  26.556  1.00  0.00     0.031 A 
ATOM     48  C   UNL A   1      47.786  26.472  26.123  1.00  0.00     0.074 A 
ATOM     49  C   UNL A   1      45.642  26.747  27.333  1.00  0.00     0.049 A 
ATOM     50  N   UNL A   1      48.412  27.580  26.428  1.00  0.00    -0.248 NA
ATOM     51  C   UNL A   1      48.541  25.580  25.228  1.00  0.00     0.031 C 
ATOM     52  C   UNL A   1      44.297  26.384  27.775  1.00  0.00     0.029 A 
ATOM     53  N   UNL A   1      45.863  27.979  27.889  1.00  0.00    -0.354 N 
ATOM     54  C   UNL A   1      49.633  27.512  25.771  1.00  0.00     0.074 A 
ATOM     55  C   UNL A   1      49.677  26.242  25.079  1.00  0.00     0.031 C 
ATOM     56  C   UNL A   1      43.811  27.375  28.542  1.00  0.00     0.029 A 
ATOM     57  C   UNL A   1      44.825  28.421  28.668  1.00  0.00     0.049 A 
ATOM     58  H   UNL A   1      46.688  28.496  27.744  1.00  0.00     0.167 HD
ATOM     59  C   UNL A   1      50.625  28.433  25.743  1.00  0.00     0.037 A 
ATOM     60  C   UNL A   1      44.720  29.539  29.410  1.00  0.00     0.037 A 
ATOM     61  C   UNL A   1      50.566  29.692  26.439  1.00  0.00     0.049 A 
ATOM     62  C   UNL A   1      45.864  30.519  29.418  1.00  0.00     0.074 A 
ATOM     63  C   UNL A   1      51.497  30.714  26.460  1.00  0.00     0.029 A 
ATOM     64  N   UNL A   1      49.512  30.093  27.249  1.00  0.00    -0.354 N 
ATOM     65  N   UNL A   1      47.003  30.470  28.769  1.00  0.00    -0.248 NA
ATOM     66  C   UNL A   1      45.707  31.712  30.259  1.00  0.00     0.031 C 
ATOM     67  C   UNL A   1      51.035  31.705  27.331  1.00  0.00     0.029 A 
ATOM     68  C   UNL A   1      49.786  31.333  27.805  1.00  0.00     0.049 A 
ATOM     69  H   UNL A   1      48.691  29.573  27.408  1.00  0.00     0.167 HD
ATOM     70  C   UNL A   1      47.684  31.633  29.099  1.00  0.00     0.074 A 
ATOM     71  C   UNL A   1      46.823  32.376  29.996  1.00  0.00     0.031 C 
ATOM     72  C   UNL A   1      48.910  32.052  28.696  1.00  0.00     0.037 A 
BRANCH  59  73
ATOM     73  C   UNL A   1      51.867  28.093  24.970  1.00  0.00     0.064 A 
ATOM     74  C   UNL A   1      51.974  28.333  23.591  1.00  0.00     0.173 A 
ATOM     75  C   UNL A   1      52.970  27.522  25.621  1.00  0.00     0.173 A 
ATOM     76  F   UNL A   1      50.942  28.862  22.917  1.00  0.00    -0.203 F 
ATOM     77  C   UNL A   1      53.125  27.984  22.890  1.00  0.00     0.198 A 
ATOM     78  C   UNL A   1      54.132  27.203  24.923  1.00  0.00     0.198 A 
ATOM     79  F   UNL A   1      52.925  27.271  26.938  1.00  0.00    -0.203 F 
ATOM     80  F   UNL A   1      53.181  28.168  21.563  1.00  0.00    -0.200 F 
ATOM     81  C   UNL A   1      54.205  27.424  23.555  1.00  0.00     0.200 A 
ATOM     82  F   UNL A   1      55.179  26.674  25.571  1.00  0.00    -0.200 F 
ATOM     83  F   UNL A   1      55.312  27.090  22.879  1.00  0.00    -0.200 F 
ENDBRANCH  59  73
BRANCH  60  84
ATOM     84  C   UNL A   1      43.486  29.791  30.199  1.00  0.00     0.064 A 
ATOM     85  C   UNL A   1      43.325  29.249  31.480  1.00  0.00     0.173 A 
ATOM     86  C   UNL A   1      42.445  30.582  29.690  1.00  0.00     0.173 A 
ATOM     87  F   UNL A   1      44.282  28.467  32.002  1.00  0.00    -0.203 F 
ATOM     88  C   UNL A   1      42.166  29.477  32.219  1.00  0.00     0.198 A 
ATOM     89  C   UNL A   1      41.299  30.834  30.441  1.00  0.00     0.198 A 
ATOM     90  F   UNL A   1      42.549  31.125  28.468  1.00  0.00    -0.203 F 
ATOM     91  F   UNL A   1      42.021  28.915  33.426  1.00  0.00    -0.200 F 
ATOM     92  C   UNL A   1      41.156  30.276  31.702  1.00  0.00     0.200 A 
ATOM     93  F   UNL A   1      40.332  31.618  29.943  1.00  0.00    -0.200 F 
ATOM     94  F   UNL A   1      40.046  30.503  32.416  1.00  0.00    -0.200 F 
ENDBRANCH  60  84
BRANCH  72  95
ATOM     95  C   UNL A   1      49.377  33.389  29.197  1.00  0.00     0.064 A 
ATOM     96  C   UNL A   1      49.073  34.579  28.521  1.00  0.00     0.173 A 
ATOM     97  C   UNL A   1      50.107  33.481  30.393  1.00  0.00     0.173 A 
ATOM     98  F   UNL A   1      48.390  34.544  27.366  1.00  0.00    -0.203 F 
ATOM     99  C   UNL A   1      49.508  35.809  29.006  1.00  0.00     0.198 A 
ATOM    100  C   UNL A   1      50.511  34.715  30.893  1.00  0.00     0.198 A 
ATOM    101  F   UNL A   1      50.417  32.374  31.084  1.00  0.00    -0.203 F 
ATOM    102  F   UNL A   1      49.252  36.928  28.315  1.00  0.00    -0.200 F 
ATOM    103  C   UNL A   1      50.219  35.877  30.196  1.00  0.00     0.200 A 
ATOM    104  F   UNL A   1      51.183  34.780  32.051  1.00  0.00    -0.200 F 
ATOM    105  F   UNL A   1      50.630  37.063  30.665  1.00  0.00    -0.200 F 
ENDBRANCH  72  95
ENDBRANCH  46  47
ENDBRANCH  39  41
ENDBRANCH  38  39
ENDBRANCH  37  38
ENDBRANCH  36  37
ENDBRANCH  35  36
ENDBRANCH  34  35
ENDBRANCH  33  34
ENDBRANCH  32  33
ENDBRANCH  31  32
ENDBRANCH   1  31
TORSDOF 27
ENDMDL
MODEL 3
REMARK VINA RESULT:      -8.1      5.410      9.162
REMARK SMILES CCN(CC)S(=O)(=O)c1cccc(C(=O)N2C[C@H](O)C[C@H]2C(=O)OCCOCCOCCOCCOC(=O)c2ccc(-c3c4nc(c(-c5c(F)c(F)c(F)c(F)c5F)c5ccc([nH]5)c(-c5c(F)c(F)c(F)c(F)c5F)c5nc(c(-c6c(F)c(F)c(F)c(F)c6F)c6ccc3[nH]6)C=C5)C=C4)cc2)c1
REMARK SMILES IDX 28 1 27 2 26 3 25 4 24 5 22 6 23 7 21 8 16 9 17 10 18 11
REMARK SMILES IDX 20 12 14 13 15 14 13 15 9 16 10 17 102 18 11 19 12 20 6 21
REMARK SMILES IDX 7 22 8 23 3 24 2 25 1 26 4 27 5 28 19 29 29 31 30 32 31 33
REMARK SMILES IDX 32 34 33 35 34 36 35 37 36 38 37 39 38 40 39 41 40 42 101 43
REMARK SMILES IDX 41 44 100 45 42 46 43 47 44 48 94 49 45 50 99 51 93 52 95 53
REMARK SMILES IDX 46 54 98 55 92 56 91 57 47 59 79 60 59 61 78 62 60 63 63 64
REMARK SMILES IDX 77 65 96 66 61 67 62 68 76 70 97 71 64 72 48 73 49 74 57 75
REMARK SMILES IDX 50 76 51 77 55 78 58 79 52 80 53 81 56 82 54 83 80 84 81 85
REMARK SMILES IDX 89 86 82 87 83 88 87 89 90 90 84 91 85 92 88 93 86 94 65 95
REMARK SMILES IDX 66 96 74 97 67 98 68 99 72 100 75 101 69 102 70 103 73 104
REMARK SMILES IDX 71 105
REMARK H PARENT 19 30 95 58 63 69
REMARK Flexibility Score: inf
ROOT
ATOM      1  C   UNL A   1      50.660  24.446  32.494  1.00  0.00     0.188 C 
ENDROOT
BRANCH   1   2
ATOM      2  O   UNL A   1      50.536  24.147  31.115  1.00  0.00    -0.376 OA
BRANCH   2   3
ATOM      3  C   UNL A   1      50.542  25.207  30.164  1.00  0.00     0.202 C 
BRANCH   3   4
ATOM      4  C   UNL A   1      49.282  25.555  29.347  1.00  0.00     0.261 C 
BRANCH   4   5
ATOM      5  O   UNL A   1      49.137  24.861  28.079  1.00  0.00    -0.462 OA
BRANCH   5   6
ATOM      6  C   UNL A   1      49.051  25.655  26.986  1.00  0.00     0.329 C 
ATOM      7  O   UNL A   1      50.035  25.971  26.311  1.00  0.00    -0.250 OA
BRANCH   6   8
ATOM      8  C   UNL A   1      47.657  26.200  26.581  1.00  0.00     0.198 C 
ATOM      9  N   UNL A   1      46.867  27.315  27.144  1.00  0.00    -0.322 N 
ATOM     10  C   UNL A   1      46.634  28.359  26.159  1.00  0.00     0.152 C 
ATOM     11  C   UNL A   1      46.828  27.665  24.816  1.00  0.00     0.136 C 
ATOM     12  C   UNL A   1      47.912  26.654  25.118  1.00  0.00     0.071 C 
BRANCH   9  13
ATOM     13  C   UNL A   1      46.144  27.327  28.325  1.00  0.00     0.254 C 
ATOM     14  O   UNL A   1      46.639  27.787  29.353  1.00  0.00    -0.269 OA
BRANCH  13  15
ATOM     15  C   UNL A   1      44.659  27.039  28.334  1.00  0.00     0.041 A 
ATOM     16  C   UNL A   1      42.632  26.006  27.479  1.00  0.00     0.083 A 
ATOM     17  C   UNL A   1      41.822  26.846  28.242  1.00  0.00     0.022 A 
ATOM     18  C   UNL A   1      44.038  26.061  27.556  1.00  0.00     0.035 A 
ATOM     19  C   UNL A   1      42.426  27.815  29.027  1.00  0.00     0.002 A 
ATOM     20  C   UNL A   1      43.824  27.927  29.040  1.00  0.00     0.014 A 
BRANCH  16  21
ATOM     21  S   UNL A   1      41.892  24.940  26.258  1.00  0.00     0.243 S 
ATOM     22  O   UNL A   1      42.602  25.126  25.000  1.00  0.00    -0.207 OA
ATOM     23  O   UNL A   1      40.475  25.153  26.340  1.00  0.00    -0.207 OA
BRANCH  21  24
ATOM     24  N   UNL A   1      42.290  23.384  26.863  1.00  0.00    -0.198 NA
BRANCH  24  25
ATOM     25  C   UNL A   1      41.903  23.110  28.278  1.00  0.00     0.099 C 
ATOM     26  C   UNL A   1      43.101  22.989  29.200  1.00  0.00     0.022 C 
ENDBRANCH  24  25
BRANCH  24  27
ATOM     27  C   UNL A   1      42.041  22.202  25.977  1.00  0.00     0.099 C 
ATOM     28  C   UNL A   1      42.356  20.858  26.613  1.00  0.00     0.022 C 
ENDBRANCH  24  27
ENDBRANCH  21  24
ENDBRANCH  16  21
ENDBRANCH  13  15
ENDBRANCH   9  13
BRANCH  11  29
ATOM     29  O   UNL A   1      45.646  27.015  24.367  1.00  0.00    -0.391 OA
ATOM     30  H   UNL A   1      45.215  27.560  23.690  1.00  0.00     0.211 HD
ENDBRANCH  11  29
ENDBRANCH   6   8
ENDBRANCH   5   6
ENDBRANCH   4   5
ENDBRANCH   3   4
ENDBRANCH   2   3
ENDBRANCH   1   2
BRANCH   1  31
ATOM     31  C   UNL A   1      50.544  23.285  33.485  1.00  0.00     0.188 C 
BRANCH  31  32
ATOM     32  O   UNL A   1      50.547  21.993  32.911  1.00  0.00    -0.377 OA
BRANCH  32  33
ATOM     33  C   UNL A   1      50.767  20.838  33.724  1.00  0.00     0.188 C 
BRANCH  33  34
ATOM     34  C   UNL A   1      49.562  19.958  34.069  1.00  0.00     0.188 C 
BRANCH  34  35
ATOM     35  O   UNL A   1      48.268  20.413  33.657  1.00  0.00    -0.376 OA
BRANCH  35  36
ATOM     36  C   UNL A   1      47.544  21.263  34.541  1.00  0.00     0.202 C 
BRANCH  36  37
ATOM     37  C   UNL A   1      46.025  21.152  34.442  1.00  0.00     0.261 C 
BRANCH  37  38
ATOM     38  O   UNL A   1      45.428  22.377  33.997  1.00  0.00    -0.460 OA
BRANCH  38  39
ATOM     39  C   UNL A   1      44.874  23.125  34.978  1.00  0.00     0.338 C 
ATOM     40  O   UNL A   1      44.856  22.887  36.174  1.00  0.00    -0.246 OA
BRANCH  39  41
ATOM     41  C   UNL A   1      44.371  24.389  34.413  1.00  0.00     0.060 A 
ATOM     42  C   UNL A   1      44.480  24.573  33.029  1.00  0.00     0.016 A 
ATOM     43  C   UNL A   1      43.886  25.411  35.233  1.00  0.00     0.016 A 
ATOM     44  C   UNL A   1      44.162  25.802  32.464  1.00  0.00     0.010 A 
ATOM     45  C   UNL A   1      43.575  26.648  34.669  1.00  0.00     0.010 A 
ATOM     46  C   UNL A   1      43.758  26.858  33.291  1.00  0.00    -0.014 A 
BRANCH  46  47
ATOM     47  C   UNL A   1      43.716  28.229  32.740  1.00  0.00     0.031 A 
ATOM     48  C   UNL A   1      45.018  28.934  32.480  1.00  0.00     0.074 A 
ATOM     49  C   UNL A   1      42.544  28.816  32.453  1.00  0.00     0.049 A 
ATOM     50  N   UNL A   1      45.235  30.141  32.023  1.00  0.00    -0.248 NA
ATOM     51  C   UNL A   1      46.242  28.174  32.782  1.00  0.00     0.031 C 
ATOM     52  C   UNL A   1      41.230  28.201  32.632  1.00  0.00     0.029 A 
ATOM     53  N   UNL A   1      42.272  30.061  31.952  1.00  0.00    -0.354 N 
ATOM     54  C   UNL A   1      46.616  30.286  31.993  1.00  0.00     0.074 A 
ATOM     55  C   UNL A   1      47.186  29.061  32.509  1.00  0.00     0.031 C 
ATOM     56  C   UNL A   1      40.286  29.078  32.249  1.00  0.00     0.029 A 
ATOM     57  C   UNL A   1      40.931  30.322  31.831  1.00  0.00     0.049 A 
ATOM     58  H   UNL A   1      42.972  30.708  31.704  1.00  0.00     0.167 HD
ATOM     59  C   UNL A   1      47.340  31.347  31.566  1.00  0.00     0.037 A 
ATOM     60  C   UNL A   1      40.303  31.447  31.443  1.00  0.00     0.037 A 
ATOM     61  C   UNL A   1      46.756  32.560  31.057  1.00  0.00     0.049 A 
ATOM     62  C   UNL A   1      41.130  32.639  31.035  1.00  0.00     0.074 A 
ATOM     63  C   UNL A   1      47.391  33.688  30.570  1.00  0.00     0.029 A 
ATOM     64  N   UNL A   1      45.391  32.804  30.982  1.00  0.00    -0.354 N 
ATOM     65  N   UNL A   1      42.435  32.762  30.975  1.00  0.00    -0.248 NA
ATOM     66  C   UNL A   1      40.396  33.847  30.638  1.00  0.00     0.031 C 
ATOM     67  C   UNL A   1      46.412  34.637  30.258  1.00  0.00     0.029 A 
ATOM     68  C   UNL A   1      45.164  34.079  30.490  1.00  0.00     0.049 A 
ATOM     69  H   UNL A   1      44.688  32.166  31.242  1.00  0.00     0.167 HD
ATOM     70  C   UNL A   1      42.678  34.046  30.508  1.00  0.00     0.074 A 
ATOM     71  C   UNL A   1      41.383  34.658  30.287  1.00  0.00     0.031 C 
ATOM     72  C   UNL A   1      43.864  34.665  30.279  1.00  0.00     0.037 A 
BRANCH  59  73
ATOM     73  C   UNL A   1      48.836  31.253  31.670  1.00  0.00     0.064 A 
ATOM     74  C   UNL A   1      49.624  30.752  30.622  1.00  0.00     0.173 A 
ATOM     75  C   UNL A   1      49.491  31.677  32.836  1.00  0.00     0.173 A 
ATOM     76  F   UNL A   1      49.047  30.318  29.491  1.00  0.00    -0.203 F 
ATOM     77  C   UNL A   1      51.006  30.648  30.751  1.00  0.00     0.198 A 
ATOM     78  C   UNL A   1      50.877  31.601  32.949  1.00  0.00     0.198 A 
ATOM     79  F   UNL A   1      48.788  32.165  33.868  1.00  0.00    -0.203 F 
ATOM     80  F   UNL A   1      51.733  30.111  29.760  1.00  0.00    -0.200 F 
ATOM     81  C   UNL A   1      51.633  31.078  31.911  1.00  0.00     0.200 A 
ATOM     82  F   UNL A   1      51.481  32.028  34.067  1.00  0.00    -0.200 F 
ATOM     83  F   UNL A   1      52.963  30.978  32.034  1.00  0.00    -0.200 F 
ENDBRANCH  59  73
BRANCH  60  84
ATOM     84  C   UNL A   1      38.819  31.495  31.416  1.00  0.00     0.064 A 
ATOM     85  C   UNL A   1      38.087  31.864  32.552  1.00  0.00     0.173 A 
ATOM     86  C   UNL A   1      38.101  31.178  30.253  1.00  0.00     0.173 A 
ATOM     87  F   UNL A   1      38.727  32.155  33.695  1.00  0.00    -0.203 F 
ATOM     88  C   UNL A   1      36.694  31.902  32.532  1.00  0.00     0.198 A 
ATOM     89  C   UNL A   1      36.709  31.244  30.225  1.00  0.00     0.198 A 
ATOM     90  F   UNL A   1      38.753  30.817  29.137  1.00  0.00    -0.203 F 
ATOM     91  F   UNL A   1      36.019  32.221  33.644  1.00  0.00    -0.200 F 
ATOM     92  C   UNL A   1      36.006  31.599  31.366  1.00  0.00     0.200 A 
ATOM     93  F   UNL A   1      36.049  30.964  29.093  1.00  0.00    -0.200 F 
ATOM     94  F   UNL A   1      34.668  31.645  31.344  1.00  0.00    -0.200 F 
ENDBRANCH  60  84
BRANCH  72  95
ATOM     95  C   UNL A   1      43.813  36.064  29.734  1.00  0.00     0.064 A 
ATOM     96  C   UNL A   1      43.852  37.186  30.575  1.00  0.00     0.173 A 
ATOM     97  C   UNL A   1      43.765  36.283  28.348  1.00  0.00     0.173 A 
ATOM     98  F   UNL A   1      43.884  37.031  31.908  1.00  0.00    -0.203 F 
ATOM     99  C   UNL A   1      43.812  38.475  30.050  1.00  0.00     0.198 A 
ATOM    100  C   UNL A   1      43.760  37.572  27.826  1.00  0.00     0.198 A 
ATOM    101  F   UNL A   1      43.736  35.244  27.500  1.00  0.00    -0.203 F 
ATOM    102  F   UNL A   1      43.794  39.532  30.874  1.00  0.00    -0.200 F 
ATOM    103  C   UNL A   1      43.775  38.667  28.676  1.00  0.00     0.200 A 
ATOM    104  F   UNL A   1      43.741  37.756  26.499  1.00  0.00    -0.200 F 
ATOM    105  F   UNL A   1      43.745  39.909  28.173  1.00  0.00    -0.200 F 
ENDBRANCH  72  95
ENDBRANCH  46  47
ENDBRANCH  39  41
ENDBRANCH  38  39
ENDBRANCH  37  38
ENDBRANCH  36  37
ENDBRANCH  35  36
ENDBRANCH  34  35
ENDBRANCH  33  34
ENDBRANCH  32  33
ENDBRANCH  31  32
ENDBRANCH   1  31
TORSDOF 27
ENDMDL
