MODEL 1
REMARK VINA RESULT:      -8.9      0.000      0.000
REMARK SMILES CCNC(=O)NC(=O)[C@@H](C)[NH2+][C@](C)(CC)C(=O)OCCOCCOCCOCCOC(=O)c1ccc(-c2c3nc(c(-c4c(F)c(F)c(F)c(F)c4F)c4ccc([nH]4)c(-c4c(F)c(F)c(F)c(F)c4F)c4nc(c(-c5c(F)c(F)c(F)c(F)c5F)c5ccc2[nH]5)C=C4)C=C3)cc1
REMARK SMILES IDX 23 1 22 2 21 3 20 4 19 5 18 6 16 7 17 8 12 9 13 10 11 11
REMARK SMILES IDX 9 14 10 15 7 16 3 17 4 18 5 20 6 21 8 23 2 24 1 25 14 26
REMARK SMILES IDX 15 27 24 28 25 29 26 30 27 31 28 32 29 33 30 34 31 35 32 36
REMARK SMILES IDX 33 37 34 38 95 39 35 40 94 41 36 42 37 43 38 44 88 45 39 46
REMARK SMILES IDX 93 47 87 48 89 49 40 50 92 51 86 52 85 53 41 55 73 56 53 57
REMARK SMILES IDX 72 58 54 59 57 60 71 61 90 62 55 63 56 64 70 66 91 67 58 68
REMARK SMILES IDX 42 69 43 70 51 71 44 72 45 73 49 74 52 75 46 76 47 77 50 78
REMARK SMILES IDX 48 79 74 80 75 81 83 82 76 83 77 84 81 85 84 86 78 87 79 88
REMARK SMILES IDX 82 89 80 90 59 91 60 92 68 93 61 94 62 95 66 96 69 97 63 98
REMARK SMILES IDX 64 99 67 100 65 101
REMARK H PARENT 11 12 11 13 3 19 6 22 89 54 57 65
REMARK Flexibility Score: inf
ROOT
ATOM      1  C   UNL A   1      35.440  31.098  27.707  1.00  0.00     0.188 C 
ENDROOT
BRANCH   1   2
ATOM      2  C   UNL A   1      34.116  30.351  27.516  1.00  0.00     0.188 C 
BRANCH   2   3
ATOM      3  O   UNL A   1      33.991  29.191  26.695  1.00  0.00    -0.376 OA
BRANCH   3   4
ATOM      4  C   UNL A   1      33.447  29.219  25.387  1.00  0.00     0.202 C 
BRANCH   4   5
ATOM      5  C   UNL A   1      32.021  28.678  25.175  1.00  0.00     0.261 C 
BRANCH   5   6
ATOM      6  O   UNL A   1      31.847  27.300  24.793  1.00  0.00    -0.459 OA
BRANCH   6   7
ATOM      7  C   UNL A   1      31.351  26.501  25.774  1.00  0.00     0.367 C 
ATOM      8  O   UNL A   1      31.633  26.640  26.961  1.00  0.00    -0.245 OA
BRANCH   7   9
ATOM      9  C   UNL A   1      30.482  25.304  25.273  1.00  0.00     0.191 C 
ATOM     10  C   UNL A   1      29.428  25.033  26.364  1.00  0.00     0.092 C 
BRANCH   9  11
ATOM     11  N   UNL A   1      31.521  24.272  25.081  1.00  0.00    -0.322 N 
ATOM     12  H   UNL A   1      31.366  23.915  24.138  1.00  0.00     0.347 HD
ATOM     13  H   UNL A   1      32.341  24.814  25.352  1.00  0.00     0.347 HD
BRANCH  11  14
ATOM     14  C   UNL A   1      31.740  23.089  25.899  1.00  0.00     0.270 C 
ATOM     15  C   UNL A   1      32.620  23.056  27.160  1.00  0.00     0.086 C 
BRANCH  14  16
ATOM     16  C   UNL A   1      32.326  21.998  24.968  1.00  0.00     0.285 C 
ATOM     17  N   UNL A   1      34.631  24.236  24.024  1.00  0.00    -0.338 N 
ATOM     18  C   UNL A   1      33.842  23.339  23.390  1.00  0.00     0.321 C 
ATOM     19  H   UNL A   1      35.032  24.919  23.440  1.00  0.00     0.165 HD
ATOM     20  O   UNL A   1      33.710  23.431  22.168  1.00  0.00    -0.248 OA
ATOM     21  N   UNL A   1      33.344  22.246  24.053  1.00  0.00    -0.273 N 
ATOM     22  H   UNL A   1      33.834  21.424  23.821  1.00  0.00     0.175 HD
ATOM     23  O   UNL A   1      31.892  20.840  25.033  1.00  0.00    -0.268 OA
BRANCH  17  24
ATOM     24  C   UNL A   1      34.978  24.348  25.420  1.00  0.00     0.114 C 
ATOM     25  C   UNL A   1      36.250  23.611  25.812  1.00  0.00     0.027 C 
ENDBRANCH  17  24
ENDBRANCH  14  16
ENDBRANCH  11  14
ENDBRANCH   9  11
BRANCH   9  26
ATOM     26  C   UNL A   1      29.761  25.510  23.899  1.00  0.00     0.077 C 
ATOM     27  C   UNL A   1      28.698  26.608  23.764  1.00  0.00     0.011 C 
ENDBRANCH   9  26
ENDBRANCH   7   9
ENDBRANCH   6   7
ENDBRANCH   5   6
ENDBRANCH   4   5
ENDBRANCH   3   4
ENDBRANCH   2   3
ENDBRANCH   1   2
BRANCH   1  28
ATOM     28  O   UNL A   1      35.438  32.113  28.687  1.00  0.00    -0.377 OA
BRANCH  28  29
ATOM     29  C   UNL A   1      34.208  32.726  29.036  1.00  0.00     0.188 C 
BRANCH  29  30
ATOM     30  C   UNL A   1      33.723  33.908  28.191  1.00  0.00     0.188 C 
BRANCH  30  31
ATOM     31  O   UNL A   1      32.871  34.788  28.899  1.00  0.00    -0.376 OA
BRANCH  31  32
ATOM     32  C   UNL A   1      33.205  36.150  29.097  1.00  0.00     0.202 C 
BRANCH  32  33
ATOM     33  C   UNL A   1      32.751  36.956  30.329  1.00  0.00     0.261 C 
BRANCH  33  34
ATOM     34  O   UNL A   1      33.302  36.643  31.614  1.00  0.00    -0.460 OA
BRANCH  34  35
ATOM     35  C   UNL A   1      32.953  35.491  32.222  1.00  0.00     0.338 C 
ATOM     36  O   UNL A   1      31.834  35.107  32.482  1.00  0.00    -0.246 OA
BRANCH  35  37
ATOM     37  C   UNL A   1      34.186  34.671  32.332  1.00  0.00     0.060 A 
ATOM     38  C   UNL A   1      34.156  33.488  33.083  1.00  0.00     0.016 A 
ATOM     39  C   UNL A   1      35.364  35.067  31.693  1.00  0.00     0.016 A 
ATOM     40  C   UNL A   1      35.315  32.729  33.245  1.00  0.00     0.010 A 
ATOM     41  C   UNL A   1      36.531  34.322  31.875  1.00  0.00     0.010 A 
ATOM     42  C   UNL A   1      36.520  33.175  32.690  1.00  0.00    -0.014 A 
BRANCH  42  43
ATOM     43  C   UNL A   1      37.802  32.584  33.145  1.00  0.00     0.031 A 
ATOM     44  C   UNL A   1      38.444  31.537  32.276  1.00  0.00     0.074 A 
ATOM     45  C   UNL A   1      38.392  32.976  34.287  1.00  0.00     0.049 A 
ATOM     46  N   UNL A   1      39.519  30.820  32.486  1.00  0.00    -0.248 NA
ATOM     47  C   UNL A   1      37.775  31.256  30.995  1.00  0.00     0.031 C 
ATOM     48  C   UNL A   1      37.892  34.014  35.184  1.00  0.00     0.029 A 
ATOM     49  N   UNL A   1      39.541  32.529  34.890  1.00  0.00    -0.354 N 
ATOM     50  C   UNL A   1      39.646  30.000  31.372  1.00  0.00     0.074 A 
ATOM     51  C   UNL A   1      38.524  30.280  30.505  1.00  0.00     0.031 C 
ATOM     52  C   UNL A   1      38.723  34.115  36.237  1.00  0.00     0.029 A 
ATOM     53  C   UNL A   1      39.790  33.123  36.104  1.00  0.00     0.049 A 
ATOM     54  H   UNL A   1      40.131  31.849  34.492  1.00  0.00     0.167 HD
ATOM     55  C   UNL A   1      40.617  29.097  31.096  1.00  0.00     0.037 A 
ATOM     56  C   UNL A   1      40.752  32.868  37.012  1.00  0.00     0.037 A 
ATOM     57  C   UNL A   1      41.729  28.823  31.966  1.00  0.00     0.049 A 
ATOM     58  C   UNL A   1      41.776  31.798  36.719  1.00  0.00     0.074 A 
ATOM     59  C   UNL A   1      42.777  27.940  31.774  1.00  0.00     0.029 A 
ATOM     60  N   UNL A   1      41.931  29.422  33.202  1.00  0.00    -0.354 N 
ATOM     61  N   UNL A   1      41.906  31.041  35.657  1.00  0.00    -0.248 NA
ATOM     62  C   UNL A   1      42.791  31.553  37.753  1.00  0.00     0.031 C 
ATOM     63  C   UNL A   1      43.576  27.958  32.922  1.00  0.00     0.029 A 
ATOM     64  C   UNL A   1      43.069  28.904  33.797  1.00  0.00     0.049 A 
ATOM     65  H   UNL A   1      41.350  30.112  33.596  1.00  0.00     0.167 HD
ATOM     66  C   UNL A   1      43.031  30.256  35.879  1.00  0.00     0.074 A 
ATOM     67  C   UNL A   1      43.556  30.640  37.171  1.00  0.00     0.031 C 
ATOM     68  C   UNL A   1      43.583  29.305  35.083  1.00  0.00     0.037 A 
BRANCH  55  69
ATOM     69  C   UNL A   1      40.498  28.318  29.817  1.00  0.00     0.064 A 
ATOM     70  C   UNL A   1      39.700  27.168  29.720  1.00  0.00     0.173 A 
ATOM     71  C   UNL A   1      41.172  28.747  28.663  1.00  0.00     0.173 A 
ATOM     72  F   UNL A   1      39.047  26.705  30.797  1.00  0.00    -0.203 F 
ATOM     73  C   UNL A   1      39.605  26.460  28.524  1.00  0.00     0.198 A 
ATOM     74  C   UNL A   1      41.047  28.057  27.460  1.00  0.00     0.198 A 
ATOM     75  F   UNL A   1      41.947  29.841  28.699  1.00  0.00    -0.203 F 
ATOM     76  F   UNL A   1      38.881  25.333  28.470  1.00  0.00    -0.200 F 
ATOM     77  C   UNL A   1      40.272  26.910  27.394  1.00  0.00     0.200 A 
ATOM     78  F   UNL A   1      41.681  28.501  26.366  1.00  0.00    -0.200 F 
ATOM     79  F   UNL A   1      40.172  26.232  26.242  1.00  0.00    -0.200 F 
ENDBRANCH  55  69
BRANCH  56  80
ATOM     80  C   UNL A   1      40.787  33.622  38.294  1.00  0.00     0.064 A 
ATOM     81  C   UNL A   1      41.679  34.687  38.484  1.00  0.00     0.173 A 
ATOM     82  C   UNL A   1      39.947  33.278  39.364  1.00  0.00     0.173 A 
ATOM     83  F   UNL A   1      42.521  35.037  37.501  1.00  0.00    -0.203 F 
ATOM     84  C   UNL A   1      41.746  35.363  39.700  1.00  0.00     0.198 A 
ATOM     85  C   UNL A   1      39.992  33.976  40.569  1.00  0.00     0.198 A 
ATOM     86  F   UNL A   1      39.078  32.266  39.238  1.00  0.00    -0.203 F 
ATOM     87  F   UNL A   1      42.647  36.339  39.873  1.00  0.00    -0.200 F 
ATOM     88  C   UNL A   1      40.898  35.012  40.740  1.00  0.00     0.200 A 
ATOM     89  F   UNL A   1      39.162  33.640  41.566  1.00  0.00    -0.200 F 
ATOM     90  F   UNL A   1      40.962  35.663  41.909  1.00  0.00    -0.200 F 
ENDBRANCH  56  80
BRANCH  68  91
ATOM     91  C   UNL A   1      44.846  28.646  35.563  1.00  0.00     0.064 A 
ATOM     92  C   UNL A   1      44.825  27.464  36.319  1.00  0.00     0.173 A 
ATOM     93  C   UNL A   1      46.098  29.182  35.222  1.00  0.00     0.173 A 
ATOM     94  F   UNL A   1      43.656  26.915  36.682  1.00  0.00    -0.203 F 
ATOM     95  C   UNL A   1      46.008  26.863  36.741  1.00  0.00     0.198 A 
ATOM     96  C   UNL A   1      47.278  28.559  35.615  1.00  0.00     0.198 A 
ATOM     97  F   UNL A   1      46.176  30.305  34.492  1.00  0.00    -0.203 F 
ATOM     98  F   UNL A   1      45.962  25.765  37.509  1.00  0.00    -0.200 F 
ATOM     99  C   UNL A   1      47.233  27.405  36.381  1.00  0.00     0.200 A 
ATOM    100  F   UNL A   1      48.460  29.074  35.249  1.00  0.00    -0.200 F 
ATOM    101  F   UNL A   1      48.370  26.819  36.780  1.00  0.00    -0.200 F 
ENDBRANCH  68  91
ENDBRANCH  42  43
ENDBRANCH  35  37
ENDBRANCH  34  35
ENDBRANCH  33  34
ENDBRANCH  32  33
ENDBRANCH  31  32
ENDBRANCH  30  31
ENDBRANCH  29  30
ENDBRANCH  28  29
ENDBRANCH   1  28
TORSDOF 25
ENDMDL
MODEL 2
REMARK VINA RESULT:      -8.9      0.796      2.059
REMARK SMILES CCNC(=O)NC(=O)[C@@H](C)[NH2+][C@](C)(CC)C(=O)OCCOCCOCCOCCOC(=O)c1ccc(-c2c3nc(c(-c4c(F)c(F)c(F)c(F)c4F)c4ccc([nH]4)c(-c4c(F)c(F)c(F)c(F)c4F)c4nc(c(-c5c(F)c(F)c(F)c(F)c5F)c5ccc2[nH]5)C=C4)C=C3)cc1
REMARK SMILES IDX 23 1 22 2 21 3 20 4 19 5 18 6 16 7 17 8 12 9 13 10 11 11
REMARK SMILES IDX 9 14 10 15 7 16 3 17 4 18 5 20 6 21 8 23 2 24 1 25 14 26
REMARK SMILES IDX 15 27 24 28 25 29 26 30 27 31 28 32 29 33 30 34 31 35 32 36
REMARK SMILES IDX 33 37 34 38 95 39 35 40 94 41 36 42 37 43 38 44 88 45 39 46
REMARK SMILES IDX 93 47 87 48 89 49 40 50 92 51 86 52 85 53 41 55 73 56 53 57
REMARK SMILES IDX 72 58 54 59 57 60 71 61 90 62 55 63 56 64 70 66 91 67 58 68
REMARK SMILES IDX 42 69 43 70 51 71 44 72 45 73 49 74 52 75 46 76 47 77 50 78
REMARK SMILES IDX 48 79 74 80 75 81 83 82 76 83 77 84 81 85 84 86 78 87 79 88
REMARK SMILES IDX 82 89 80 90 59 91 60 92 68 93 61 94 62 95 66 96 69 97 63 98
REMARK SMILES IDX 64 99 67 100 65 101
REMARK H PARENT 11 12 11 13 3 19 6 22 89 54 57 65
REMARK Flexibility Score: inf
ROOT
ATOM      1  C   UNL A   1      35.551  31.382  27.737  1.00  0.00     0.188 C 
ENDROOT
BRANCH   1   2
ATOM      2  C   UNL A   1      34.257  30.564  27.668  1.00  0.00     0.188 C 
BRANCH   2   3
ATOM      3  O   UNL A   1      34.030  29.551  26.690  1.00  0.00    -0.376 OA
BRANCH   3   4
ATOM      4  C   UNL A   1      33.153  29.717  25.589  1.00  0.00     0.202 C 
BRANCH   4   5
ATOM      5  C   UNL A   1      31.755  29.077  25.664  1.00  0.00     0.261 C 
BRANCH   5   6
ATOM      6  O   UNL A   1      31.570  27.743  25.153  1.00  0.00    -0.459 OA
BRANCH   6   7
ATOM      7  C   UNL A   1      31.107  26.848  26.064  1.00  0.00     0.367 C 
ATOM      8  O   UNL A   1      31.336  26.936  27.267  1.00  0.00    -0.245 OA
BRANCH   7   9
ATOM      9  C   UNL A   1      30.355  25.620  25.460  1.00  0.00     0.191 C 
ATOM     10  C   UNL A   1      29.168  25.321  26.396  1.00  0.00     0.092 C 
BRANCH   9  11
ATOM     11  N   UNL A   1      31.443  24.622  25.427  1.00  0.00    -0.322 N 
ATOM     12  H   UNL A   1      31.779  24.567  26.389  1.00  0.00     0.347 HD
ATOM     13  H   UNL A   1      30.953  23.862  24.956  1.00  0.00     0.347 HD
BRANCH  11  14
ATOM     14  C   UNL A   1      32.646  24.667  24.611  1.00  0.00     0.270 C 
ATOM     15  C   UNL A   1      32.867  23.826  23.343  1.00  0.00     0.086 C 
BRANCH  14  16
ATOM     16  C   UNL A   1      33.836  24.316  25.541  1.00  0.00     0.285 C 
ATOM     17  N   UNL A   1      32.205  21.503  26.340  1.00  0.00    -0.338 N 
ATOM     18  C   UNL A   1      32.879  22.453  27.025  1.00  0.00     0.321 C 
ATOM     19  H   UNL A   1      31.631  20.924  26.892  1.00  0.00     0.165 HD
ATOM     20  O   UNL A   1      32.745  22.505  28.249  1.00  0.00    -0.248 OA
ATOM     21  N   UNL A   1      33.829  23.228  26.407  1.00  0.00    -0.273 N 
ATOM     22  H   UNL A   1      34.741  22.939  26.637  1.00  0.00     0.175 HD
ATOM     23  O   UNL A   1      34.856  25.017  25.519  1.00  0.00    -0.268 OA
BRANCH  17  24
ATOM     24  C   UNL A   1      32.194  21.203  24.928  1.00  0.00     0.114 C 
ATOM     25  C   UNL A   1      33.327  20.296  24.471  1.00  0.00     0.027 C 
ENDBRANCH  17  24
ENDBRANCH  14  16
ENDBRANCH  11  14
ENDBRANCH   9  11
BRANCH   9  26
ATOM     26  C   UNL A   1      29.827  25.793  23.996  1.00  0.00     0.077 C 
ATOM     27  C   UNL A   1      28.610  26.691  23.737  1.00  0.00     0.011 C 
ENDBRANCH   9  26
ENDBRANCH   7   9
ENDBRANCH   6   7
ENDBRANCH   5   6
ENDBRANCH   4   5
ENDBRANCH   3   4
ENDBRANCH   2   3
ENDBRANCH   1   2
BRANCH   1  28
ATOM     28  O   UNL A   1      35.576  32.416  28.697  1.00  0.00    -0.377 OA
BRANCH  28  29
ATOM     29  C   UNL A   1      34.348  32.965  29.145  1.00  0.00     0.188 C 
BRANCH  29  30
ATOM     30  C   UNL A   1      33.731  34.111  28.337  1.00  0.00     0.188 C 
BRANCH  30  31
ATOM     31  O   UNL A   1      32.876  34.937  29.104  1.00  0.00    -0.376 OA
BRANCH  31  32
ATOM     32  C   UNL A   1      33.152  36.312  29.306  1.00  0.00     0.202 C 
BRANCH  32  33
ATOM     33  C   UNL A   1      32.751  37.069  30.586  1.00  0.00     0.261 C 
BRANCH  33  34
ATOM     34  O   UNL A   1      33.306  36.666  31.844  1.00  0.00    -0.460 OA
BRANCH  34  35
ATOM     35  C   UNL A   1      32.971  35.465  32.360  1.00  0.00     0.338 C 
ATOM     36  O   UNL A   1      31.857  35.037  32.562  1.00  0.00    -0.246 OA
BRANCH  35  37
ATOM     37  C   UNL A   1      34.223  34.670  32.447  1.00  0.00     0.060 A 
ATOM     38  C   UNL A   1      34.199  33.426  33.092  1.00  0.00     0.016 A 
ATOM     39  C   UNL A   1      35.411  35.150  31.890  1.00  0.00     0.016 A 
ATOM     40  C   UNL A   1      35.373  32.686  33.232  1.00  0.00     0.010 A 
ATOM     41  C   UNL A   1      36.592  34.421  32.053  1.00  0.00     0.010 A 
ATOM     42  C   UNL A   1      36.584  33.208  32.765  1.00  0.00    -0.014 A 
BRANCH  42  43
ATOM     43  C   UNL A   1      37.865  32.613  33.217  1.00  0.00     0.031 A 
ATOM     44  C   UNL A   1      38.511  31.577  32.337  1.00  0.00     0.074 A 
ATOM     45  C   UNL A   1      38.450  32.990  34.366  1.00  0.00     0.049 A 
ATOM     46  N   UNL A   1      39.585  30.859  32.541  1.00  0.00    -0.248 NA
ATOM     47  C   UNL A   1      37.847  31.312  31.050  1.00  0.00     0.031 C 
ATOM     48  C   UNL A   1      37.947  34.016  35.274  1.00  0.00     0.029 A 
ATOM     49  N   UNL A   1      39.598  32.536  34.967  1.00  0.00    -0.354 N 
ATOM     50  C   UNL A   1      39.717  30.052  31.417  1.00  0.00     0.074 A 
ATOM     51  C   UNL A   1      38.597  30.343  30.550  1.00  0.00     0.031 C 
ATOM     52  C   UNL A   1      38.774  34.103  36.331  1.00  0.00     0.029 A 
ATOM     53  C   UNL A   1      39.841  33.114  36.190  1.00  0.00     0.049 A 
ATOM     54  H   UNL A   1      40.189  31.862  34.563  1.00  0.00     0.167 HD
ATOM     55  C   UNL A   1      40.690  29.154  31.133  1.00  0.00     0.037 A 
ATOM     56  C   UNL A   1      40.800  32.848  37.098  1.00  0.00     0.037 A 
ATOM     57  C   UNL A   1      41.798  28.869  32.003  1.00  0.00     0.049 A 
ATOM     58  C   UNL A   1      41.827  31.783  36.795  1.00  0.00     0.074 A 
ATOM     59  C   UNL A   1      42.848  27.990  31.804  1.00  0.00     0.029 A 
ATOM     60  N   UNL A   1      41.995  29.453  33.247  1.00  0.00    -0.354 N 
ATOM     61  N   UNL A   1      41.960  31.040  35.723  1.00  0.00    -0.248 NA
ATOM     62  C   UNL A   1      42.838  31.525  37.829  1.00  0.00     0.031 C 
ATOM     63  C   UNL A   1      43.643  27.993  32.954  1.00  0.00     0.029 A 
ATOM     64  C   UNL A   1      43.132  28.928  33.840  1.00  0.00     0.049 A 
ATOM     65  H   UNL A   1      41.413  30.137  33.648  1.00  0.00     0.167 HD
ATOM     66  C   UNL A   1      43.086  30.253  35.939  1.00  0.00     0.074 A 
ATOM     67  C   UNL A   1      43.606  30.620  37.238  1.00  0.00     0.031 C 
ATOM     68  C   UNL A   1      43.641  29.313  35.132  1.00  0.00     0.037 A 
BRANCH  55  69
ATOM     69  C   UNL A   1      40.575  28.392  29.844  1.00  0.00     0.064 A 
ATOM     70  C   UNL A   1      39.758  27.258  29.722  1.00  0.00     0.173 A 
ATOM     71  C   UNL A   1      41.275  28.820  28.705  1.00  0.00     0.173 A 
ATOM     72  F   UNL A   1      39.081  26.795  30.784  1.00  0.00    -0.203 F 
ATOM     73  C   UNL A   1      39.669  26.564  28.517  1.00  0.00     0.198 A 
ATOM     74  C   UNL A   1      41.155  28.146  27.492  1.00  0.00     0.198 A 
ATOM     75  F   UNL A   1      42.069  29.900  28.764  1.00  0.00    -0.203 F 
ATOM     76  F   UNL A   1      38.924  25.452  28.439  1.00  0.00    -0.200 F 
ATOM     77  C   UNL A   1      40.360  27.014  27.402  1.00  0.00     0.200 A 
ATOM     78  F   UNL A   1      41.813  28.590  26.413  1.00  0.00    -0.200 F 
ATOM     79  F   UNL A   1      40.266  26.351  26.241  1.00  0.00    -0.200 F 
ENDBRANCH  55  69
BRANCH  56  80
ATOM     80  C   UNL A   1      40.831  33.586  38.389  1.00  0.00     0.064 A 
ATOM     81  C   UNL A   1      39.953  33.260  39.432  1.00  0.00     0.173 A 
ATOM     82  C   UNL A   1      41.722  34.650  38.598  1.00  0.00     0.173 A 
ATOM     83  F   UNL A   1      39.064  32.268  39.271  1.00  0.00    -0.203 F 
ATOM     84  C   UNL A   1      39.949  33.981  40.623  1.00  0.00     0.198 A 
ATOM     85  C   UNL A   1      41.739  35.350  39.802  1.00  0.00     0.198 A 
ATOM     86  F   UNL A   1      42.581  35.007  37.633  1.00  0.00    -0.203 F 
ATOM     87  F   UNL A   1      39.060  33.684  41.581  1.00  0.00    -0.200 F 
ATOM     88  C   UNL A   1      40.846  35.022  40.811  1.00  0.00     0.200 A 
ATOM     89  F   UNL A   1      42.616  36.347  39.983  1.00  0.00    -0.200 F 
ATOM     90  F   UNL A   1      40.842  35.715  41.958  1.00  0.00    -0.200 F 
ENDBRANCH  56  80
BRANCH  68  91
ATOM     91  C   UNL A   1      44.903  28.648  35.609  1.00  0.00     0.064 A 
ATOM     92  C   UNL A   1      46.171  29.186  35.341  1.00  0.00     0.173 A 
ATOM     93  C   UNL A   1      44.838  27.479  36.384  1.00  0.00     0.173 A 
ATOM     94  F   UNL A   1      46.291  30.295  34.596  1.00  0.00    -0.203 F 
ATOM     95  C   UNL A   1      47.326  28.561  35.804  1.00  0.00     0.198 A 
ATOM     96  C   UNL A   1      45.992  26.878  36.876  1.00  0.00     0.198 A 
ATOM     97  F   UNL A   1      43.650  26.929  36.679  1.00  0.00    -0.203 F 
ATOM     98  F   UNL A   1      48.529  29.062  35.490  1.00  0.00    -0.200 F 
ATOM     99  C   UNL A   1      47.235  27.413  36.579  1.00  0.00     0.200 A 
ATOM    100  F   UNL A   1      45.901  25.781  37.640  1.00  0.00    -0.200 F 
ATOM    101  F   UNL A   1      48.348  26.819  37.032  1.00  0.00    -0.200 F 
ENDBRANCH  68  91
ENDBRANCH  42  43
ENDBRANCH  35  37
ENDBRANCH  34  35
ENDBRANCH  33  34
ENDBRANCH  32  33
ENDBRANCH  31  32
ENDBRANCH  30  31
ENDBRANCH  29  30
ENDBRANCH  28  29
ENDBRANCH   1  28
TORSDOF 25
ENDMDL
MODEL 3
REMARK VINA RESULT:      -8.6      4.639      6.838
REMARK SMILES CCNC(=O)NC(=O)[C@@H](C)[NH2+][C@](C)(CC)C(=O)OCCOCCOCCOCCOC(=O)c1ccc(-c2c3nc(c(-c4c(F)c(F)c(F)c(F)c4F)c4ccc([nH]4)c(-c4c(F)c(F)c(F)c(F)c4F)c4nc(c(-c5c(F)c(F)c(F)c(F)c5F)c5ccc2[nH]5)C=C4)C=C3)cc1
REMARK SMILES IDX 23 1 22 2 21 3 20 4 19 5 18 6 16 7 17 8 12 9 13 10 11 11
REMARK SMILES IDX 9 14 10 15 7 16 3 17 4 18 5 20 6 21 8 23 2 24 1 25 14 26
REMARK SMILES IDX 15 27 24 28 25 29 26 30 27 31 28 32 29 33 30 34 31 35 32 36
REMARK SMILES IDX 33 37 34 38 95 39 35 40 94 41 36 42 37 43 38 44 88 45 39 46
REMARK SMILES IDX 93 47 87 48 89 49 40 50 92 51 86 52 85 53 41 55 73 56 53 57
REMARK SMILES IDX 72 58 54 59 57 60 71 61 90 62 55 63 56 64 70 66 91 67 58 68
REMARK SMILES IDX 42 69 43 70 51 71 44 72 45 73 49 74 52 75 46 76 47 77 50 78
REMARK SMILES IDX 48 79 74 80 75 81 83 82 76 83 77 84 81 85 84 86 78 87 79 88
REMARK SMILES IDX 82 89 80 90 59 91 60 92 68 93 61 94 62 95 66 96 69 97 63 98
REMARK SMILES IDX 64 99 67 100 65 101
REMARK H PARENT 11 12 11 13 3 19 6 22 89 54 57 65
REMARK Flexibility Score: inf
ROOT
ATOM      1  C   UNL A   1      34.871  33.901  28.033  1.00  0.00     0.188 C 
ENDROOT
BRANCH   1   2
ATOM      2  C   UNL A   1      34.303  32.519  28.369  1.00  0.00     0.188 C 
BRANCH   2   3
ATOM      3  O   UNL A   1      33.275  31.895  27.601  1.00  0.00    -0.376 OA
BRANCH   3   4
ATOM      4  C   UNL A   1      33.397  30.595  27.050  1.00  0.00     0.202 C 
BRANCH   4   5
ATOM      5  C   UNL A   1      32.239  29.601  27.255  1.00  0.00     0.261 C 
BRANCH   5   6
ATOM      6  O   UNL A   1      31.586  29.043  26.099  1.00  0.00    -0.459 OA
BRANCH   6   7
ATOM      7  C   UNL A   1      31.343  27.708  26.177  1.00  0.00     0.367 C 
ATOM      8  O   UNL A   1      31.127  27.126  27.237  1.00  0.00    -0.245 OA
BRANCH   7   9
ATOM      9  C   UNL A   1      31.477  26.932  24.829  1.00  0.00     0.191 C 
ATOM     10  C   UNL A   1      30.786  27.791  23.752  1.00  0.00     0.092 C 
BRANCH   9  11
ATOM     11  N   UNL A   1      30.825  25.655  25.180  1.00  0.00    -0.322 N 
ATOM     12  H   UNL A   1      30.841  25.624  26.200  1.00  0.00     0.347 HD
ATOM     13  H   UNL A   1      29.971  25.752  24.631  1.00  0.00     0.347 HD
BRANCH  11  14
ATOM     14  C   UNL A   1      31.226  24.323  24.759  1.00  0.00     0.270 C 
ATOM     15  C   UNL A   1      30.657  23.593  23.530  1.00  0.00     0.086 C 
BRANCH  14  16
ATOM     16  C   UNL A   1      30.962  23.371  25.953  1.00  0.00     0.285 C 
ATOM     17  N   UNL A   1      33.522  21.510  24.859  1.00  0.00    -0.338 N 
ATOM     18  C   UNL A   1      32.273  21.260  25.309  1.00  0.00     0.321 C 
ATOM     19  H   UNL A   1      33.949  20.761  24.383  1.00  0.00     0.165 HD
ATOM     20  O   UNL A   1      31.789  20.143  25.117  1.00  0.00    -0.248 OA
ATOM     21  N   UNL A   1      31.621  22.158  26.118  1.00  0.00    -0.273 N 
ATOM     22  H   UNL A   1      31.621  21.867  27.059  1.00  0.00     0.175 HD
ATOM     23  O   UNL A   1      30.139  23.692  26.820  1.00  0.00    -0.268 OA
BRANCH  17  24
ATOM     24  C   UNL A   1      34.330  22.702  24.965  1.00  0.00     0.114 C 
ATOM     25  C   UNL A   1      35.371  22.854  23.866  1.00  0.00     0.027 C 
ENDBRANCH  17  24
ENDBRANCH  14  16
ENDBRANCH  11  14
ENDBRANCH   9  11
BRANCH   9  26
ATOM     26  C   UNL A   1      32.938  26.606  24.370  1.00  0.00     0.077 C 
ATOM     27  C   UNL A   1      34.030  26.397  25.428  1.00  0.00     0.011 C 
ENDBRANCH   9  26
ENDBRANCH   7   9
ENDBRANCH   6   7
ENDBRANCH   5   6
ENDBRANCH   4   5
ENDBRANCH   3   4
ENDBRANCH   2   3
ENDBRANCH   1   2
BRANCH   1  28
ATOM     28  O   UNL A   1      34.031  34.998  28.319  1.00  0.00    -0.377 OA
BRANCH  28  29
ATOM     29  C   UNL A   1      33.200  34.944  29.466  1.00  0.00     0.188 C 
BRANCH  29  30
ATOM     30  C   UNL A   1      33.835  35.221  30.833  1.00  0.00     0.188 C 
BRANCH  30  31
ATOM     31  O   UNL A   1      33.890  34.077  31.664  1.00  0.00    -0.376 OA
BRANCH  31  32
ATOM     32  C   UNL A   1      35.095  33.661  32.280  1.00  0.00     0.202 C 
BRANCH  32  33
ATOM     33  C   UNL A   1      36.388  33.378  31.491  1.00  0.00     0.261 C 
BRANCH  33  34
ATOM     34  O   UNL A   1      36.509  32.152  30.758  1.00  0.00    -0.460 OA
BRANCH  34  35
ATOM     35  C   UNL A   1      36.690  30.996  31.428  1.00  0.00     0.338 C 
ATOM     36  O   UNL A   1      35.896  30.430  32.145  1.00  0.00    -0.246 OA
BRANCH  35  37
ATOM     37  C   UNL A   1      37.980  30.426  30.962  1.00  0.00     0.060 A 
ATOM     38  C   UNL A   1      38.650  29.498  31.772  1.00  0.00     0.016 A 
ATOM     39  C   UNL A   1      38.523  30.805  29.731  1.00  0.00     0.016 A 
ATOM     40  C   UNL A   1      39.888  28.990  31.380  1.00  0.00     0.010 A 
ATOM     41  C   UNL A   1      39.775  30.316  29.351  1.00  0.00     0.010 A 
ATOM     42  C   UNL A   1      40.482  29.442  30.196  1.00  0.00    -0.014 A 
BRANCH  42  43
ATOM     43  C   UNL A   1      41.923  29.192  29.955  1.00  0.00     0.031 A 
ATOM     44  C   UNL A   1      42.310  27.915  29.258  1.00  0.00     0.074 A 
ATOM     45  C   UNL A   1      42.864  30.076  30.324  1.00  0.00     0.049 A 
ATOM     46  N   UNL A   1      43.497  27.431  28.998  1.00  0.00    -0.248 NA
ATOM     47  C   UNL A   1      41.200  27.064  28.797  1.00  0.00     0.031 C 
ATOM     48  C   UNL A   1      42.609  31.366  30.960  1.00  0.00     0.029 A 
ATOM     49  N   UNL A   1      44.232  30.010  30.226  1.00  0.00    -0.354 N 
ATOM     50  C   UNL A   1      43.276  26.218  28.356  1.00  0.00     0.074 A 
ATOM     51  C   UNL A   1      41.845  26.022  28.295  1.00  0.00     0.031 C 
ATOM     52  C   UNL A   1      43.787  31.966  31.211  1.00  0.00     0.029 A 
ATOM     53  C   UNL A   1      44.875  31.085  30.789  1.00  0.00     0.049 A 
ATOM     54  H   UNL A   1      44.707  29.264  29.794  1.00  0.00     0.167 HD
ATOM     55  C   UNL A   1      44.187  25.350  27.856  1.00  0.00     0.037 A 
ATOM     56  C   UNL A   1      46.191  31.311  30.967  1.00  0.00     0.037 A 
ATOM     57  C   UNL A   1      45.609  25.552  27.923  1.00  0.00     0.049 A 
ATOM     58  C   UNL A   1      47.188  30.289  30.476  1.00  0.00     0.074 A 
ATOM     59  C   UNL A   1      46.619  24.743  27.434  1.00  0.00     0.029 A 
ATOM     60  N   UNL A   1      46.225  26.639  28.528  1.00  0.00    -0.354 N 
ATOM     61  N   UNL A   1      46.975  29.156  29.851  1.00  0.00    -0.248 NA
ATOM     62  C   UNL A   1      48.608  30.582  30.713  1.00  0.00     0.031 C 
ATOM     63  C   UNL A   1      47.845  25.307  27.800  1.00  0.00     0.029 A 
ATOM     64  C   UNL A   1      47.601  26.505  28.453  1.00  0.00     0.049 A 
ATOM     65  H   UNL A   1      45.752  27.393  28.949  1.00  0.00     0.167 HD
ATOM     66  C   UNL A   1      48.230  28.619  29.590  1.00  0.00     0.074 A 
ATOM     67  C   UNL A   1      49.200  29.558  30.113  1.00  0.00     0.031 C 
ATOM     68  C   UNL A   1      48.552  27.455  28.972  1.00  0.00     0.037 A 
BRANCH  55  69
ATOM     69  C   UNL A   1      43.671  24.088  27.226  1.00  0.00     0.064 A 
ATOM     70  C   UNL A   1      43.669  23.899  25.836  1.00  0.00     0.173 A 
ATOM     71  C   UNL A   1      43.194  23.041  28.030  1.00  0.00     0.173 A 
ATOM     72  F   UNL A   1      44.098  24.875  25.020  1.00  0.00    -0.203 F 
ATOM     73  C   UNL A   1      43.183  22.721  25.273  1.00  0.00     0.198 A 
ATOM     74  C   UNL A   1      42.743  21.851  27.465  1.00  0.00     0.198 A 
ATOM     75  F   UNL A   1      43.174  23.167  29.365  1.00  0.00    -0.203 F 
ATOM     76  F   UNL A   1      43.142  22.585  23.940  1.00  0.00    -0.200 F 
ATOM     77  C   UNL A   1      42.729  21.695  26.088  1.00  0.00     0.200 A 
ATOM     78  F   UNL A   1      42.316  20.856  28.256  1.00  0.00    -0.200 F 
ATOM     79  F   UNL A   1      42.270  20.559  25.545  1.00  0.00    -0.200 F 
ENDBRANCH  55  69
BRANCH  56  80
ATOM     80  C   UNL A   1      46.650  32.547  31.657  1.00  0.00     0.064 A 
ATOM     81  C   UNL A   1      46.954  33.710  30.936  1.00  0.00     0.173 A 
ATOM     82  C   UNL A   1      46.817  32.584  33.050  1.00  0.00     0.173 A 
ATOM     83  F   UNL A   1      46.837  33.717  29.600  1.00  0.00    -0.203 F 
ATOM     84  C   UNL A   1      47.429  34.852  31.576  1.00  0.00     0.198 A 
ATOM     85  C   UNL A   1      47.260  33.737  33.694  1.00  0.00     0.198 A 
ATOM     86  F   UNL A   1      46.544  31.499  33.788  1.00  0.00    -0.203 F 
ATOM     87  F   UNL A   1      47.765  35.930  30.856  1.00  0.00    -0.200 F 
ATOM     88  C   UNL A   1      47.575  34.868  32.955  1.00  0.00     0.200 A 
ATOM     89  F   UNL A   1      47.389  33.750  35.027  1.00  0.00    -0.200 F 
ATOM     90  F   UNL A   1      48.031  35.967  33.571  1.00  0.00    -0.200 F 
ENDBRANCH  56  80
BRANCH  68  91
ATOM     91  C   UNL A   1      50.013  27.152  28.781  1.00  0.00     0.064 A 
ATOM     92  C   UNL A   1      50.691  27.482  27.598  1.00  0.00     0.173 A 
ATOM     93  C   UNL A   1      50.754  26.562  29.818  1.00  0.00     0.173 A 
ATOM     94  F   UNL A   1      50.028  28.037  26.572  1.00  0.00    -0.203 F 
ATOM     95  C   UNL A   1      52.047  27.205  27.448  1.00  0.00     0.198 A 
ATOM     96  C   UNL A   1      52.117  26.320  29.679  1.00  0.00     0.198 A 
ATOM     97  F   UNL A   1      50.158  26.237  30.974  1.00  0.00    -0.203 F 
ATOM     98  F   UNL A   1      52.662  27.478  26.289  1.00  0.00    -0.200 F 
ATOM     99  C   UNL A   1      52.761  26.633  28.492  1.00  0.00     0.200 A 
ATOM    100  F   UNL A   1      52.809  25.786  30.695  1.00  0.00    -0.200 F 
ATOM    101  F   UNL A   1      54.069  26.376  28.350  1.00  0.00    -0.200 F 
ENDBRANCH  68  91
ENDBRANCH  42  43
ENDBRANCH  35  37
ENDBRANCH  34  35
ENDBRANCH  33  34
ENDBRANCH  32  33
ENDBRANCH  31  32
ENDBRANCH  30  31
ENDBRANCH  29  30
ENDBRANCH  28  29
ENDBRANCH   1  28
TORSDOF 25
ENDMDL
