MODEL 1
REMARK VINA RESULT:     -10.4      0.000      0.000
REMARK SMILES C[C@H](O)[C@H](C)[N@H+]1Cc2ccccc2C[C@@H]1C(=O)OCCOCCOCCOCCOC(=O)c1ccc(-c2c3nc(c(-c4c(F)c(F)c(F)c(F)c4F)c4ccc([nH]4)c(-c4c(F)c(F)c(F)c(F)c4F)c4nc(c(-c5c(F)c(F)c(F)c(F)c5F)c5ccc2[nH]5)C=C4)C=C3)cc1
REMARK SMILES IDX 23 1 22 2 21 3 20 4 19 5 18 6 16 7 17 8 15 9 6 10 7 11 8 13
REMARK SMILES IDX 14 14 9 15 13 16 10 17 12 18 11 19 4 20 5 21 2 22 1 23 3 24
REMARK SMILES IDX 24 26 25 27 26 28 27 29 28 30 29 31 30 32 31 33 32 34 33 35
REMARK SMILES IDX 34 36 95 37 35 38 94 39 36 40 37 41 38 42 88 43 39 44 93 45
REMARK SMILES IDX 87 46 89 47 40 48 92 49 86 50 85 51 41 53 73 54 53 55 72 56
REMARK SMILES IDX 54 57 57 58 71 59 90 60 55 61 56 62 70 64 91 65 58 66 42 67
REMARK SMILES IDX 43 68 51 69 44 70 45 71 49 72 52 73 46 74 47 75 50 76 48 77
REMARK SMILES IDX 74 78 75 79 83 80 76 81 77 82 81 83 84 84 78 85 79 86 82 87
REMARK SMILES IDX 80 88 59 89 60 90 68 91 61 92 62 93 66 94 69 95 63 96 64 97
REMARK SMILES IDX 67 98 65 99
REMARK H PARENT 6 12 3 25 89 52 57 63
REMARK Flexibility Score: inf
ROOT
ATOM      1  C   UNL A   1      40.086  21.074  26.453  1.00  0.00     0.188 C 
ENDROOT
BRANCH   1   2
ATOM      2  C   UNL A   1      39.744  22.492  26.946  1.00  0.00     0.188 C 
BRANCH   2   3
ATOM      3  O   UNL A   1      38.670  23.206  26.349  1.00  0.00    -0.376 OA
BRANCH   3   4
ATOM      4  C   UNL A   1      37.878  22.581  25.354  1.00  0.00     0.202 C 
BRANCH   4   5
ATOM      5  C   UNL A   1      36.862  23.359  24.484  1.00  0.00     0.261 C 
BRANCH   5   6
ATOM      6  O   UNL A   1      35.457  23.166  24.741  1.00  0.00    -0.459 OA
BRANCH   6   7
ATOM      7  C   UNL A   1      34.632  24.183  24.390  1.00  0.00     0.365 C 
ATOM      8  O   UNL A   1      34.561  24.601  23.235  1.00  0.00    -0.245 OA
BRANCH   7   9
ATOM      9  C   UNL A   1      33.848  24.845  25.567  1.00  0.00     0.300 C 
ATOM     10  N   UNL A   1      32.350  24.590  25.611  1.00  0.00    -0.315 N 
ATOM     11  C   UNL A   1      31.520  25.816  25.531  1.00  0.00     0.300 C 
ATOM     12  H   UNL A   1      32.183  24.066  24.752  1.00  0.00     0.349 HD
ATOM     13  C   UNL A   1      32.029  26.828  24.540  1.00  0.00     0.010 A 
ATOM     14  C   UNL A   1      34.229  26.348  25.553  1.00  0.00     0.113 C 
ATOM     15  C   UNL A   1      31.181  27.506  23.656  1.00  0.00     0.010 A 
ATOM     16  C   UNL A   1      33.402  27.097  24.543  1.00  0.00    -0.033 A 
ATOM     17  C   UNL A   1      31.717  28.414  22.744  1.00  0.00     0.001 A 
ATOM     18  C   UNL A   1      33.936  27.999  23.623  1.00  0.00     0.004 A 
ATOM     19  C   UNL A   1      33.092  28.650  22.721  1.00  0.00     0.000 A 
BRANCH  10  20
ATOM     20  C   UNL A   1      31.910  23.719  26.748  1.00  0.00     0.210 C 
ATOM     21  C   UNL A   1      30.481  23.156  26.554  1.00  0.00     0.078 C 
BRANCH  20  22
ATOM     22  C   UNL A   1      32.845  22.511  27.155  1.00  0.00     0.169 C 
ATOM     23  C   UNL A   1      32.882  21.333  26.189  1.00  0.00     0.045 C 
BRANCH  22  24
ATOM     24  O   UNL A   1      32.535  22.029  28.469  1.00  0.00    -0.387 OA
ATOM     25  H   UNL A   1      33.259  22.255  29.075  1.00  0.00     0.211 HD
ENDBRANCH  22  24
ENDBRANCH  20  22
ENDBRANCH  10  20
ENDBRANCH   7   9
ENDBRANCH   6   7
ENDBRANCH   5   6
ENDBRANCH   4   5
ENDBRANCH   3   4
ENDBRANCH   2   3
ENDBRANCH   1   2
BRANCH   1  26
ATOM     26  O   UNL A   1      40.589  20.231  27.477  1.00  0.00    -0.377 OA
BRANCH  26  27
ATOM     27  C   UNL A   1      41.867  19.682  27.221  1.00  0.00     0.188 C 
BRANCH  27  28
ATOM     28  C   UNL A   1      42.337  19.657  25.756  1.00  0.00     0.188 C 
BRANCH  28  29
ATOM     29  O   UNL A   1      43.753  19.612  25.610  1.00  0.00    -0.376 OA
BRANCH  29  30
ATOM     30  C   UNL A   1      44.414  20.680  24.951  1.00  0.00     0.202 C 
BRANCH  30  31
ATOM     31  C   UNL A   1      43.703  22.042  24.969  1.00  0.00     0.261 C 
BRANCH  31  32
ATOM     32  O   UNL A   1      44.172  22.989  25.939  1.00  0.00    -0.460 OA
BRANCH  32  33
ATOM     33  C   UNL A   1      44.385  24.257  25.525  1.00  0.00     0.338 C 
ATOM     34  O   UNL A   1      44.946  24.615  24.506  1.00  0.00    -0.246 OA
BRANCH  33  35
ATOM     35  C   UNL A   1      43.626  25.155  26.423  1.00  0.00     0.060 A 
ATOM     36  C   UNL A   1      44.018  26.498  26.512  1.00  0.00     0.016 A 
ATOM     37  C   UNL A   1      42.512  24.696  27.130  1.00  0.00     0.016 A 
ATOM     38  C   UNL A   1      43.314  27.380  27.333  1.00  0.00     0.010 A 
ATOM     39  C   UNL A   1      41.827  25.571  27.978  1.00  0.00     0.010 A 
ATOM     40  C   UNL A   1      42.247  26.907  28.108  1.00  0.00    -0.014 A 
BRANCH  40  41
ATOM     41  C   UNL A   1      41.736  27.740  29.221  1.00  0.00     0.031 A 
ATOM     42  C   UNL A   1      42.462  27.670  30.536  1.00  0.00     0.074 A 
ATOM     43  C   UNL A   1      40.680  28.557  29.071  1.00  0.00     0.049 A 
ATOM     44  N   UNL A   1      42.198  28.267  31.670  1.00  0.00    -0.248 NA
ATOM     45  C   UNL A   1      43.651  26.804  30.574  1.00  0.00     0.031 C 
ATOM     46  C   UNL A   1      39.925  28.747  27.836  1.00  0.00     0.029 A 
ATOM     47  N   UNL A   1      40.056  29.378  29.980  1.00  0.00    -0.354 N 
ATOM     48  C   UNL A   1      43.183  27.846  32.553  1.00  0.00     0.074 A 
ATOM     49  C   UNL A   1      44.030  26.918  31.837  1.00  0.00     0.031 C 
ATOM     50  C   UNL A   1      38.927  29.620  28.067  1.00  0.00     0.029 A 
ATOM     51  C   UNL A   1      38.956  30.024  29.473  1.00  0.00     0.049 A 
ATOM     52  H   UNL A   1      40.369  29.492  30.906  1.00  0.00     0.167 HD
ATOM     53  C   UNL A   1      43.370  28.205  33.844  1.00  0.00     0.037 A 
ATOM     54  C   UNL A   1      38.065  30.828  30.085  1.00  0.00     0.037 A 
ATOM     55  C   UNL A   1      42.520  29.122  34.555  1.00  0.00     0.049 A 
ATOM     56  C   UNL A   1      38.245  31.149  31.549  1.00  0.00     0.074 A 
ATOM     57  C   UNL A   1      42.628  29.563  35.861  1.00  0.00     0.029 A 
ATOM     58  N   UNL A   1      41.392  29.727  34.019  1.00  0.00    -0.354 N 
ATOM     59  N   UNL A   1      39.192  30.770  32.373  1.00  0.00    -0.248 NA
ATOM     60  C   UNL A   1      37.231  32.016  32.168  1.00  0.00     0.031 C 
ATOM     61  C   UNL A   1      41.532  30.387  36.135  1.00  0.00     0.029 A 
ATOM     62  C   UNL A   1      40.776  30.513  34.979  1.00  0.00     0.049 A 
ATOM     63  H   UNL A   1      41.076  29.614  33.093  1.00  0.00     0.167 HD
ATOM     64  C   UNL A   1      38.908  31.373  33.592  1.00  0.00     0.074 A 
ATOM     65  C   UNL A   1      37.705  32.155  33.397  1.00  0.00     0.031 C 
ATOM     66  C   UNL A   1      39.583  31.292  34.766  1.00  0.00     0.037 A 
BRANCH  53  67
ATOM     67  C   UNL A   1      44.517  27.572  34.577  1.00  0.00     0.064 A 
ATOM     68  C   UNL A   1      44.386  26.342  35.240  1.00  0.00     0.173 A 
ATOM     69  C   UNL A   1      45.770  28.203  34.607  1.00  0.00     0.173 A 
ATOM     70  F   UNL A   1      43.204  25.708  35.258  1.00  0.00    -0.203 F 
ATOM     71  C   UNL A   1      45.458  25.783  35.930  1.00  0.00     0.198 A 
ATOM     72  C   UNL A   1      46.848  27.624  35.271  1.00  0.00     0.198 A 
ATOM     73  F   UNL A   1      45.950  29.381  33.992  1.00  0.00    -0.203 F 
ATOM     74  F   UNL A   1      45.293  24.636  36.604  1.00  0.00    -0.200 F 
ATOM     75  C   UNL A   1      46.690  26.420  35.939  1.00  0.00     0.200 A 
ATOM     76  F   UNL A   1      48.041  28.237  35.268  1.00  0.00    -0.200 F 
ATOM     77  F   UNL A   1      47.722  25.879  36.601  1.00  0.00    -0.200 F 
ENDBRANCH  53  67
BRANCH  54  78
ATOM     78  C   UNL A   1      36.910  31.377  29.325  1.00  0.00     0.064 A 
ATOM     79  C   UNL A   1      36.859  32.729  28.957  1.00  0.00     0.173 A 
ATOM     80  C   UNL A   1      35.822  30.565  28.972  1.00  0.00     0.173 A 
ATOM     81  F   UNL A   1      37.860  33.553  29.297  1.00  0.00    -0.203 F 
ATOM     82  C   UNL A   1      35.757  33.250  28.282  1.00  0.00     0.198 A 
ATOM     83  C   UNL A   1      34.734  31.081  28.269  1.00  0.00     0.198 A 
ATOM     84  F   UNL A   1      35.817  29.265  29.305  1.00  0.00    -0.203 F 
ATOM     85  F   UNL A   1      35.711  34.558  27.988  1.00  0.00    -0.200 F 
ATOM     86  C   UNL A   1      34.699  32.425  27.932  1.00  0.00     0.200 A 
ATOM     87  F   UNL A   1      33.719  30.277  27.925  1.00  0.00    -0.200 F 
ATOM     88  F   UNL A   1      33.641  32.927  27.281  1.00  0.00    -0.200 F 
ENDBRANCH  54  78
BRANCH  66  89
ATOM     89  C   UNL A   1      39.065  32.099  35.923  1.00  0.00     0.064 A 
ATOM     90  C   UNL A   1      38.231  31.540  36.903  1.00  0.00     0.173 A 
ATOM     91  C   UNL A   1      39.451  33.440  36.081  1.00  0.00     0.173 A 
ATOM     92  F   UNL A   1      37.822  30.266  36.795  1.00  0.00    -0.203 F 
ATOM     93  C   UNL A   1      37.782  32.300  37.981  1.00  0.00     0.198 A 
ATOM     94  C   UNL A   1      39.029  34.186  37.176  1.00  0.00     0.198 A 
ATOM     95  F   UNL A   1      40.257  34.022  35.179  1.00  0.00    -0.203 F 
ATOM     96  F   UNL A   1      36.945  31.759  38.877  1.00  0.00    -0.200 F 
ATOM     97  C   UNL A   1      38.188  33.619  38.121  1.00  0.00     0.200 A 
ATOM     98  F   UNL A   1      39.438  35.454  37.320  1.00  0.00    -0.200 F 
ATOM     99  F   UNL A   1      37.762  34.345  39.164  1.00  0.00    -0.200 F 
ENDBRANCH  66  89
ENDBRANCH  40  41
ENDBRANCH  33  35
ENDBRANCH  32  33
ENDBRANCH  31  32
ENDBRANCH  30  31
ENDBRANCH  29  30
ENDBRANCH  28  29
ENDBRANCH  27  28
ENDBRANCH  26  27
ENDBRANCH   1  26
TORSDOF 23
ENDMDL
MODEL 2
REMARK VINA RESULT:     -10.4      4.602      7.394
REMARK SMILES C[C@H](O)[C@H](C)[N@H+]1Cc2ccccc2C[C@@H]1C(=O)OCCOCCOCCOCCOC(=O)c1ccc(-c2c3nc(c(-c4c(F)c(F)c(F)c(F)c4F)c4ccc([nH]4)c(-c4c(F)c(F)c(F)c(F)c4F)c4nc(c(-c5c(F)c(F)c(F)c(F)c5F)c5ccc2[nH]5)C=C4)C=C3)cc1
REMARK SMILES IDX 23 1 22 2 21 3 20 4 19 5 18 6 16 7 17 8 15 9 6 10 7 11 8 13
REMARK SMILES IDX 14 14 9 15 13 16 10 17 12 18 11 19 4 20 5 21 2 22 1 23 3 24
REMARK SMILES IDX 24 26 25 27 26 28 27 29 28 30 29 31 30 32 31 33 32 34 33 35
REMARK SMILES IDX 34 36 95 37 35 38 94 39 36 40 37 41 38 42 88 43 39 44 93 45
REMARK SMILES IDX 87 46 89 47 40 48 92 49 86 50 85 51 41 53 73 54 53 55 72 56
REMARK SMILES IDX 54 57 57 58 71 59 90 60 55 61 56 62 70 64 91 65 58 66 42 67
REMARK SMILES IDX 43 68 51 69 44 70 45 71 49 72 52 73 46 74 47 75 50 76 48 77
REMARK SMILES IDX 74 78 75 79 83 80 76 81 77 82 81 83 84 84 78 85 79 86 82 87
REMARK SMILES IDX 80 88 59 89 60 90 68 91 61 92 62 93 66 94 69 95 63 96 64 97
REMARK SMILES IDX 67 98 65 99
REMARK H PARENT 6 12 3 25 89 52 57 63
REMARK Flexibility Score: inf
ROOT
ATOM      1  C   UNL A   1      32.970  20.969  24.419  1.00  0.00     0.188 C 
ENDROOT
BRANCH   1   2
ATOM      2  C   UNL A   1      32.988  22.500  24.584  1.00  0.00     0.188 C 
BRANCH   2   3
ATOM      3  O   UNL A   1      33.483  23.316  23.532  1.00  0.00    -0.376 OA
BRANCH   3   4
ATOM      4  C   UNL A   1      32.586  23.849  22.573  1.00  0.00     0.202 C 
BRANCH   4   5
ATOM      5  C   UNL A   1      31.425  24.800  22.953  1.00  0.00     0.261 C 
BRANCH   5   6
ATOM      6  O   UNL A   1      31.201  25.961  22.131  1.00  0.00    -0.459 OA
BRANCH   6   7
ATOM      7  C   UNL A   1      31.657  27.143  22.615  1.00  0.00     0.365 C 
ATOM      8  O   UNL A   1      32.812  27.525  22.430  1.00  0.00    -0.245 OA
BRANCH   7   9
ATOM      9  C   UNL A   1      30.646  27.939  23.499  1.00  0.00     0.300 C 
ATOM     10  N   UNL A   1      30.711  29.455  23.405  1.00  0.00    -0.315 N 
ATOM     11  C   UNL A   1      31.014  30.133  24.689  1.00  0.00     0.300 C 
ATOM     12  H   UNL A   1      31.513  29.611  22.795  1.00  0.00     0.349 HD
ATOM     13  C   UNL A   1      32.067  29.436  25.508  1.00  0.00     0.010 A 
ATOM     14  C   UNL A   1      30.803  27.391  24.942  1.00  0.00     0.113 C 
ATOM     15  C   UNL A   1      33.101  30.129  26.149  1.00  0.00     0.010 A 
ATOM     16  C   UNL A   1      31.968  28.046  25.635  1.00  0.00    -0.033 A 
ATOM     17  C   UNL A   1      34.060  29.424  26.873  1.00  0.00     0.001 A 
ATOM     18  C   UNL A   1      32.935  27.342  26.352  1.00  0.00     0.004 A 
ATOM     19  C   UNL A   1      33.983  28.034  26.963  1.00  0.00     0.000 A 
BRANCH  10  20
ATOM     20  C   UNL A   1      29.524  30.079  22.737  1.00  0.00     0.210 C 
ATOM     21  C   UNL A   1      28.348  29.088  22.556  1.00  0.00     0.078 C 
BRANCH  20  22
ATOM     22  C   UNL A   1      28.936  31.404  23.368  1.00  0.00     0.169 C 
ATOM     23  C   UNL A   1      27.437  31.410  23.644  1.00  0.00     0.045 C 
BRANCH  22  24
ATOM     24  O   UNL A   1      29.271  32.553  22.579  1.00  0.00    -0.387 OA
ATOM     25  H   UNL A   1      30.104  32.390  22.108  1.00  0.00     0.211 HD
ENDBRANCH  22  24
ENDBRANCH  20  22
ENDBRANCH  10  20
ENDBRANCH   7   9
ENDBRANCH   6   7
ENDBRANCH   5   6
ENDBRANCH   4   5
ENDBRANCH   3   4
ENDBRANCH   2   3
ENDBRANCH   1   2
BRANCH   1  26
ATOM     26  O   UNL A   1      34.135  20.338  24.924  1.00  0.00    -0.377 OA
BRANCH  26  27
ATOM     27  C   UNL A   1      34.961  21.164  25.720  1.00  0.00     0.188 C 
BRANCH  27  28
ATOM     28  C   UNL A   1      36.477  21.094  25.464  1.00  0.00     0.188 C 
BRANCH  28  29
ATOM     29  O   UNL A   1      36.920  19.824  24.996  1.00  0.00    -0.376 OA
BRANCH  29  30
ATOM     30  C   UNL A   1      38.296  19.635  24.709  1.00  0.00     0.202 C 
BRANCH  30  31
ATOM     31  C   UNL A   1      39.239  19.515  25.918  1.00  0.00     0.261 C 
BRANCH  31  32
ATOM     32  O   UNL A   1      40.390  20.371  25.911  1.00  0.00    -0.460 OA
BRANCH  32  33
ATOM     33  C   UNL A   1      41.143  20.416  27.030  1.00  0.00     0.338 C 
ATOM     34  O   UNL A   1      41.729  19.491  27.562  1.00  0.00    -0.246 OA
BRANCH  33  35
ATOM     35  C   UNL A   1      41.319  21.839  27.396  1.00  0.00     0.060 A 
ATOM     36  C   UNL A   1      40.639  22.811  26.648  1.00  0.00     0.016 A 
ATOM     37  C   UNL A   1      42.103  22.212  28.491  1.00  0.00     0.016 A 
ATOM     38  C   UNL A   1      40.764  24.161  26.976  1.00  0.00     0.010 A 
ATOM     39  C   UNL A   1      42.255  23.566  28.799  1.00  0.00     0.010 A 
ATOM     40  C   UNL A   1      41.614  24.547  28.021  1.00  0.00    -0.014 A 
BRANCH  40  41
ATOM     41  C   UNL A   1      42.016  25.968  28.140  1.00  0.00     0.031 A 
ATOM     42  C   UNL A   1      43.343  26.369  27.558  1.00  0.00     0.074 A 
ATOM     43  C   UNL A   1      41.223  26.885  28.718  1.00  0.00     0.049 A 
ATOM     44  N   UNL A   1      43.940  27.533  27.561  1.00  0.00    -0.248 NA
ATOM     45  C   UNL A   1      44.101  25.305  26.879  1.00  0.00     0.031 C 
ATOM     46  C   UNL A   1      39.898  26.629  29.274  1.00  0.00     0.029 A 
ATOM     47  N   UNL A   1      41.430  28.226  28.938  1.00  0.00    -0.354 N 
ATOM     48  C   UNL A   1      45.141  27.339  26.891  1.00  0.00     0.074 A 
ATOM     49  C   UNL A   1      45.206  25.943  26.525  1.00  0.00     0.031 C 
ATOM     50  C   UNL A   1      39.413  27.775  29.787  1.00  0.00     0.029 A 
ATOM     51  C   UNL A   1      40.407  28.835  29.621  1.00  0.00     0.049 A 
ATOM     52  H   UNL A   1      42.235  28.704  28.633  1.00  0.00     0.167 HD
ATOM     53  C   UNL A   1      46.102  28.247  26.601  1.00  0.00     0.037 A 
ATOM     54  C   UNL A   1      40.303  30.098  30.079  1.00  0.00     0.037 A 
ATOM     55  C   UNL A   1      46.037  29.634  26.974  1.00  0.00     0.049 A 
ATOM     56  C   UNL A   1      41.425  31.073  29.816  1.00  0.00     0.074 A 
ATOM     57  C   UNL A   1      46.951  30.640  26.719  1.00  0.00     0.029 A 
ATOM     58  N   UNL A   1      45.003  30.208  27.701  1.00  0.00    -0.354 N 
ATOM     59  N   UNL A   1      42.546  30.894  29.160  1.00  0.00    -0.248 NA
ATOM     60  C   UNL A   1      41.264  32.432  30.357  1.00  0.00     0.031 C 
ATOM     61  C   UNL A   1      46.500  31.808  27.342  1.00  0.00     0.029 A 
ATOM     62  C   UNL A   1      45.271  31.547  27.929  1.00  0.00     0.049 A 
ATOM     63  H   UNL A   1      44.197  29.731  28.008  1.00  0.00     0.167 HD
ATOM     64  C   UNL A   1      43.206  32.116  29.181  1.00  0.00     0.074 A 
ATOM     65  C   UNL A   1      42.353  33.035  29.905  1.00  0.00     0.031 C 
ATOM     66  C   UNL A   1      44.407  32.451  28.646  1.00  0.00     0.037 A 
BRANCH  53  67
ATOM     67  C   UNL A   1      47.320  27.754  25.876  1.00  0.00     0.064 A 
ATOM     68  C   UNL A   1      48.447  27.274  26.561  1.00  0.00     0.173 A 
ATOM     69  C   UNL A   1      47.355  27.752  24.473  1.00  0.00     0.173 A 
ATOM     70  F   UNL A   1      48.473  27.273  27.902  1.00  0.00    -0.203 F 
ATOM     71  C   UNL A   1      49.574  26.839  25.867  1.00  0.00     0.198 A 
ATOM     72  C   UNL A   1      48.471  27.285  23.784  1.00  0.00     0.198 A 
ATOM     73  F   UNL A   1      46.305  28.201  23.769  1.00  0.00    -0.203 F 
ATOM     74  F   UNL A   1      50.660  26.440  26.544  1.00  0.00    -0.200 F 
ATOM     75  C   UNL A   1      49.582  26.838  24.481  1.00  0.00     0.200 A 
ATOM     76  F   UNL A   1      48.471  27.275  22.443  1.00  0.00    -0.200 F 
ATOM     77  F   UNL A   1      50.667  26.416  23.816  1.00  0.00    -0.200 F 
ENDBRANCH  53  67
BRANCH  54  78
ATOM     78  C   UNL A   1      39.099  30.516  30.848  1.00  0.00     0.064 A 
ATOM     79  C   UNL A   1      39.063  30.424  32.246  1.00  0.00     0.173 A 
ATOM     80  C   UNL A   1      37.953  30.994  30.196  1.00  0.00     0.173 A 
ATOM     81  F   UNL A   1      40.123  29.946  32.913  1.00  0.00    -0.203 F 
ATOM     82  C   UNL A   1      37.920  30.777  32.961  1.00  0.00     0.198 A 
ATOM     83  C   UNL A   1      36.821  31.375  30.915  1.00  0.00     0.198 A 
ATOM     84  F   UNL A   1      37.931  31.096  28.859  1.00  0.00    -0.203 F 
ATOM     85  F   UNL A   1      37.894  30.630  34.294  1.00  0.00    -0.200 F 
ATOM     86  C   UNL A   1      36.802  31.259  32.296  1.00  0.00     0.200 A 
ATOM     87  F   UNL A   1      35.747  31.849  30.268  1.00  0.00    -0.200 F 
ATOM     88  F   UNL A   1      35.704  31.599  32.985  1.00  0.00    -0.200 F 
ENDBRANCH  54  78
BRANCH  66  89
ATOM     89  C   UNL A   1      44.857  33.878  28.784  1.00  0.00     0.064 A 
ATOM     90  C   UNL A   1      45.674  34.299  29.844  1.00  0.00     0.173 A 
ATOM     91  C   UNL A   1      44.506  34.828  27.811  1.00  0.00     0.173 A 
ATOM     92  F   UNL A   1      46.029  33.435  30.807  1.00  0.00    -0.203 F 
ATOM     93  C   UNL A   1      46.098  35.622  29.939  1.00  0.00     0.198 A 
ATOM     94  C   UNL A   1      44.960  36.140  27.890  1.00  0.00     0.198 A 
ATOM     95  F   UNL A   1      43.736  34.477  26.770  1.00  0.00    -0.203 F 
ATOM     96  F   UNL A   1      46.836  36.013  30.987  1.00  0.00    -0.200 F 
ATOM     97  C   UNL A   1      45.749  36.539  28.958  1.00  0.00     0.200 A 
ATOM     98  F   UNL A   1      44.638  37.019  26.931  1.00  0.00    -0.200 F 
ATOM     99  F   UNL A   1      46.168  37.809  29.047  1.00  0.00    -0.200 F 
ENDBRANCH  66  89
ENDBRANCH  40  41
ENDBRANCH  33  35
ENDBRANCH  32  33
ENDBRANCH  31  32
ENDBRANCH  30  31
ENDBRANCH  29  30
ENDBRANCH  28  29
ENDBRANCH  27  28
ENDBRANCH  26  27
ENDBRANCH   1  26
TORSDOF 23
ENDMDL
MODEL 3
REMARK VINA RESULT:     -10.3      1.469      3.273
REMARK SMILES C[C@H](O)[C@H](C)[N@H+]1Cc2ccccc2C[C@@H]1C(=O)OCCOCCOCCOCCOC(=O)c1ccc(-c2c3nc(c(-c4c(F)c(F)c(F)c(F)c4F)c4ccc([nH]4)c(-c4c(F)c(F)c(F)c(F)c4F)c4nc(c(-c5c(F)c(F)c(F)c(F)c5F)c5ccc2[nH]5)C=C4)C=C3)cc1
REMARK SMILES IDX 23 1 22 2 21 3 20 4 19 5 18 6 16 7 17 8 15 9 6 10 7 11 8 13
REMARK SMILES IDX 14 14 9 15 13 16 10 17 12 18 11 19 4 20 5 21 2 22 1 23 3 24
REMARK SMILES IDX 24 26 25 27 26 28 27 29 28 30 29 31 30 32 31 33 32 34 33 35
REMARK SMILES IDX 34 36 95 37 35 38 94 39 36 40 37 41 38 42 88 43 39 44 93 45
REMARK SMILES IDX 87 46 89 47 40 48 92 49 86 50 85 51 41 53 73 54 53 55 72 56
REMARK SMILES IDX 54 57 57 58 71 59 90 60 55 61 56 62 70 64 91 65 58 66 42 67
REMARK SMILES IDX 43 68 51 69 44 70 45 71 49 72 52 73 46 74 47 75 50 76 48 77
REMARK SMILES IDX 74 78 75 79 83 80 76 81 77 82 81 83 84 84 78 85 79 86 82 87
REMARK SMILES IDX 80 88 59 89 60 90 68 91 61 92 62 93 66 94 69 95 63 96 64 97
REMARK SMILES IDX 67 98 65 99
REMARK H PARENT 6 12 3 25 89 52 57 63
REMARK Flexibility Score: inf
ROOT
ATOM      1  C   UNL A   1      39.683  21.562  26.471  1.00  0.00     0.188 C 
ENDROOT
BRANCH   1   2
ATOM      2  C   UNL A   1      39.424  23.072  26.319  1.00  0.00     0.188 C 
BRANCH   2   3
ATOM      3  O   UNL A   1      38.138  23.531  25.926  1.00  0.00    -0.376 OA
BRANCH   3   4
ATOM      4  C   UNL A   1      37.086  22.600  25.739  1.00  0.00     0.202 C 
BRANCH   4   5
ATOM      5  C   UNL A   1      35.855  22.898  24.850  1.00  0.00     0.261 C 
BRANCH   5   6
ATOM      6  O   UNL A   1      35.261  21.805  24.123  1.00  0.00    -0.459 OA
BRANCH   6   7
ATOM      7  C   UNL A   1      34.010  22.009  23.639  1.00  0.00     0.365 C 
ATOM      8  O   UNL A   1      33.804  22.637  22.602  1.00  0.00    -0.245 OA
BRANCH   7   9
ATOM      9  C   UNL A   1      32.850  21.472  24.536  1.00  0.00     0.300 C 
ATOM     10  N   UNL A   1      33.241  20.961  25.913  1.00  0.00    -0.315 N 
ATOM     11  C   UNL A   1      32.906  19.536  26.153  1.00  0.00     0.300 C 
ATOM     12  H   UNL A   1      34.258  21.025  25.900  1.00  0.00     0.349 HD
ATOM     13  C   UNL A   1      33.179  18.643  24.973  1.00  0.00     0.010 A 
ATOM     14  C   UNL A   1      32.080  20.435  23.676  1.00  0.00     0.113 C 
ATOM     15  C   UNL A   1      33.797  17.394  25.103  1.00  0.00     0.010 A 
ATOM     16  C   UNL A   1      32.768  19.097  23.714  1.00  0.00    -0.033 A 
ATOM     17  C   UNL A   1      34.045  16.624  23.968  1.00  0.00     0.001 A 
ATOM     18  C   UNL A   1      33.026  18.329  22.579  1.00  0.00     0.004 A 
ATOM     19  C   UNL A   1      33.671  17.096  22.709  1.00  0.00     0.000 A 
BRANCH  10  20
ATOM     20  C   UNL A   1      32.762  21.820  27.043  1.00  0.00     0.210 C 
ATOM     21  C   UNL A   1      33.916  22.553  27.770  1.00  0.00     0.078 C 
BRANCH  20  22
ATOM     22  C   UNL A   1      31.642  22.892  26.731  1.00  0.00     0.169 C 
ATOM     23  C   UNL A   1      32.079  24.352  26.765  1.00  0.00     0.045 C 
BRANCH  22  24
ATOM     24  O   UNL A   1      30.503  22.724  27.585  1.00  0.00    -0.387 OA
ATOM     25  H   UNL A   1      30.671  23.160  28.435  1.00  0.00     0.211 HD
ENDBRANCH  22  24
ENDBRANCH  20  22
ENDBRANCH  10  20
ENDBRANCH   7   9
ENDBRANCH   6   7
ENDBRANCH   5   6
ENDBRANCH   4   5
ENDBRANCH   3   4
ENDBRANCH   2   3
ENDBRANCH   1   2
BRANCH   1  26
ATOM     26  O   UNL A   1      40.393  21.231  27.654  1.00  0.00    -0.377 OA
BRANCH  26  27
ATOM     27  C   UNL A   1      41.739  20.850  27.452  1.00  0.00     0.188 C 
BRANCH  27  28
ATOM     28  C   UNL A   1      42.098  20.249  26.081  1.00  0.00     0.188 C 
BRANCH  28  29
ATOM     29  O   UNL A   1      43.439  19.775  25.998  1.00  0.00    -0.376 OA
BRANCH  29  30
ATOM     30  C   UNL A   1      44.334  20.390  25.086  1.00  0.00     0.202 C 
BRANCH  30  31
ATOM     31  C   UNL A   1      44.046  21.857  24.727  1.00  0.00     0.261 C 
BRANCH  31  32
ATOM     32  O   UNL A   1      44.255  22.819  25.771  1.00  0.00    -0.460 OA
BRANCH  32  33
ATOM     33  C   UNL A   1      44.500  24.095  25.407  1.00  0.00     0.338 C 
ATOM     34  O   UNL A   1      45.097  24.478  24.417  1.00  0.00    -0.246 OA
BRANCH  33  35
ATOM     35  C   UNL A   1      43.730  24.976  26.312  1.00  0.00     0.060 A 
ATOM     36  C   UNL A   1      44.031  26.345  26.330  1.00  0.00     0.016 A 
ATOM     37  C   UNL A   1      42.689  24.471  27.097  1.00  0.00     0.016 A 
ATOM     38  C   UNL A   1      43.312  27.209  27.156  1.00  0.00     0.010 A 
ATOM     39  C   UNL A   1      41.991  25.331  27.949  1.00  0.00     0.010 A 
ATOM     40  C   UNL A   1      42.323  26.697  28.006  1.00  0.00    -0.014 A 
BRANCH  40  41
ATOM     41  C   UNL A   1      41.815  27.537  29.115  1.00  0.00     0.031 A 
ATOM     42  C   UNL A   1      42.557  27.493  30.423  1.00  0.00     0.074 A 
ATOM     43  C   UNL A   1      40.748  28.340  28.967  1.00  0.00     0.049 A 
ATOM     44  N   UNL A   1      42.299  28.100  31.551  1.00  0.00    -0.248 NA
ATOM     45  C   UNL A   1      43.757  26.640  30.457  1.00  0.00     0.031 C 
ATOM     46  C   UNL A   1      39.977  28.506  27.738  1.00  0.00     0.029 A 
ATOM     47  N   UNL A   1      40.125  29.165  29.873  1.00  0.00    -0.354 N 
ATOM     48  C   UNL A   1      43.299  27.701  32.428  1.00  0.00     0.074 A 
ATOM     49  C   UNL A   1      44.149  26.775  31.714  1.00  0.00     0.031 C 
ATOM     50  C   UNL A   1      38.971  29.370  27.970  1.00  0.00     0.029 A 
ATOM     51  C   UNL A   1      39.012  29.792  29.371  1.00  0.00     0.049 A 
ATOM     52  H   UNL A   1      40.447  29.294  30.794  1.00  0.00     0.167 HD
ATOM     53  C   UNL A   1      43.496  28.079  33.713  1.00  0.00     0.037 A 
ATOM     54  C   UNL A   1      38.118  30.593  29.984  1.00  0.00     0.037 A 
ATOM     55  C   UNL A   1      42.644  28.994  34.422  1.00  0.00     0.049 A 
ATOM     56  C   UNL A   1      38.311  30.934  31.441  1.00  0.00     0.074 A 
ATOM     57  C   UNL A   1      42.761  29.453  35.721  1.00  0.00     0.029 A 
ATOM     58  N   UNL A   1      41.502  29.579  33.892  1.00  0.00    -0.354 N 
ATOM     59  N   UNL A   1      39.272  30.576  32.259  1.00  0.00    -0.248 NA
ATOM     60  C   UNL A   1      37.294  31.797  32.061  1.00  0.00     0.031 C 
ATOM     61  C   UNL A   1      41.659  30.267  35.998  1.00  0.00     0.029 A 
ATOM     62  C   UNL A   1      40.889  30.370  34.849  1.00  0.00     0.049 A 
ATOM     63  H   UNL A   1      41.177  29.451  32.971  1.00  0.00     0.167 HD
ATOM     64  C   UNL A   1      38.994  31.191  33.473  1.00  0.00     0.074 A 
ATOM     65  C   UNL A   1      37.780  31.956  33.283  1.00  0.00     0.031 C 
ATOM     66  C   UNL A   1      39.684  31.132  34.641  1.00  0.00     0.037 A 
BRANCH  53  67
ATOM     67  C   UNL A   1      44.659  27.469  34.440  1.00  0.00     0.064 A 
ATOM     68  C   UNL A   1      45.923  28.079  34.464  1.00  0.00     0.173 A 
ATOM     69  C   UNL A   1      44.502  26.259  35.133  1.00  0.00     0.173 A 
ATOM     70  F   UNL A   1      46.131  29.226  33.801  1.00  0.00    -0.203 F 
ATOM     71  C   UNL A   1      46.992  27.485  35.130  1.00  0.00     0.198 A 
ATOM     72  C   UNL A   1      45.565  25.685  35.825  1.00  0.00     0.198 A 
ATOM     73  F   UNL A   1      43.316  25.632  35.141  1.00  0.00    -0.203 F 
ATOM     74  F   UNL A   1      48.203  28.057  35.090  1.00  0.00    -0.200 F 
ATOM     75  C   UNL A   1      46.811  26.293  35.815  1.00  0.00     0.200 A 
ATOM     76  F   UNL A   1      45.384  24.539  36.496  1.00  0.00    -0.200 F 
ATOM     77  F   UNL A   1      47.840  25.724  36.458  1.00  0.00    -0.200 F 
ENDBRANCH  53  67
BRANCH  54  78
ATOM     78  C   UNL A   1      36.948  31.119  29.230  1.00  0.00     0.064 A 
ATOM     79  C   UNL A   1      35.870  30.290  28.891  1.00  0.00     0.173 A 
ATOM     80  C   UNL A   1      36.897  32.457  28.812  1.00  0.00     0.173 A 
ATOM     81  F   UNL A   1      35.885  28.996  29.241  1.00  0.00    -0.203 F 
ATOM     82  C   UNL A   1      34.794  30.774  28.149  1.00  0.00     0.198 A 
ATOM     83  C   UNL A   1      35.806  32.948  28.097  1.00  0.00     0.198 A 
ATOM     84  F   UNL A   1      37.905  33.293  29.104  1.00  0.00    -0.203 F 
ATOM     85  F   UNL A   1      33.801  29.946  27.795  1.00  0.00    -0.200 F 
ATOM     86  C   UNL A   1      34.759  32.104  27.759  1.00  0.00     0.200 A 
ATOM     87  F   UNL A   1      35.772  34.236  27.730  1.00  0.00    -0.200 F 
ATOM     88  F   UNL A   1      33.724  32.570  27.047  1.00  0.00    -0.200 F 
ENDBRANCH  54  78
BRANCH  66  89
ATOM     89  C   UNL A   1      39.169  31.948  35.794  1.00  0.00     0.064 A 
ATOM     90  C   UNL A   1      38.333  31.397  36.776  1.00  0.00     0.173 A 
ATOM     91  C   UNL A   1      39.563  33.287  35.945  1.00  0.00     0.173 A 
ATOM     92  F   UNL A   1      37.918  30.125  36.674  1.00  0.00    -0.203 F 
ATOM     93  C   UNL A   1      37.887  32.165  37.850  1.00  0.00     0.198 A 
ATOM     94  C   UNL A   1      39.144  34.041  37.037  1.00  0.00     0.198 A 
ATOM     95  F   UNL A   1      40.371  33.861  35.041  1.00  0.00    -0.203 F 
ATOM     96  F   UNL A   1      37.048  31.632  38.749  1.00  0.00    -0.200 F 
ATOM     97  C   UNL A   1      38.300  33.482  37.984  1.00  0.00     0.200 A 
ATOM     98  F   UNL A   1      39.559  35.308  37.174  1.00  0.00    -0.200 F 
ATOM     99  F   UNL A   1      37.877  34.216  39.023  1.00  0.00    -0.200 F 
ENDBRANCH  66  89
ENDBRANCH  40  41
ENDBRANCH  33  35
ENDBRANCH  32  33
ENDBRANCH  31  32
ENDBRANCH  30  31
ENDBRANCH  29  30
ENDBRANCH  28  29
ENDBRANCH  27  28
ENDBRANCH  26  27
ENDBRANCH   1  26
TORSDOF 23
ENDMDL
