MODEL 1
REMARK VINA RESULT:      -9.8      0.000      0.000
REMARK SMILES O=C(CCC(=O)OCCOCCOCCOCCOC(=O)c1ccc(-c2c3nc(c(-c4c(F)c(F)c(F)c(F)c4F)c4ccc([nH]4)c(-c4c(F)c(F)c(F)c(F)c4F)c4nc(c(-c5c(F)c(F)c(F)c(F)c5F)c5ccc2[nH]5)C=C4)C=C3)cc1)/[NH+]=C1\S[C@H]2CS(=O)(=O)C[C@@H]2N1c1ccc2c(c1)OCO2
REMARK SMILES IDX 12 1 11 2 10 3 9 4 8 5 7 6 5 7 6 8 4 9 3 10 2 11 1 12 85 13
REMARK SMILES IDX 86 14 87 16 95 17 88 18 94 19 89 20 93 21 90 22 91 23 92 24
REMARK SMILES IDX 96 25 97 26 101 27 98 28 100 29 99 30 102 31 104 32 103 33
REMARK SMILES IDX 13 34 14 35 15 36 16 37 17 38 18 39 19 40 20 41 21 42 22 43
REMARK SMILES IDX 23 44 84 45 24 46 83 47 25 48 26 49 27 50 77 51 28 52 82 53
REMARK SMILES IDX 76 54 78 55 29 56 81 57 75 58 74 59 30 61 62 62 42 63 61 64
REMARK SMILES IDX 43 65 46 66 60 67 79 68 44 69 45 70 59 72 80 73 47 74 31 75
REMARK SMILES IDX 32 76 40 77 33 78 34 79 38 80 41 81 35 82 36 83 39 84 37 85
REMARK SMILES IDX 63 86 64 87 72 88 65 89 66 90 70 91 73 92 67 93 68 94 71 95
REMARK SMILES IDX 69 96 48 97 49 98 57 99 50 100 51 101 55 102 58 103 52 104
REMARK SMILES IDX 53 105 56 106 54 107
REMARK H PARENT 85 15 78 60 46 71
REMARK Flexibility Score: inf
ROOT
ATOM      1  C   UNL A   1      34.330  25.208  25.568  1.00  0.00     0.188 C 
ENDROOT
BRANCH   1   2
ATOM      2  C   UNL A   1      32.736  25.522  25.765  1.00  0.00     0.188 C 
BRANCH   2   3
ATOM      3  O   UNL A   1      32.243  26.625  24.962  1.00  0.00    -0.376 OA
BRANCH   3   4
ATOM      4  C   UNL A   1      31.788  27.874  25.538  1.00  0.00     0.202 C 
BRANCH   4   5
ATOM      5  C   UNL A   1      32.767  29.063  25.837  1.00  0.00     0.261 C 
BRANCH   5   6
ATOM      6  O   UNL A   1      33.049  29.355  27.206  1.00  0.00    -0.463 OA
BRANCH   6   7
ATOM      7  C   UNL A   1      33.634  30.528  27.479  1.00  0.00     0.306 C 
ATOM      8  O   UNL A   1      33.109  31.618  27.302  1.00  0.00    -0.252 OA
BRANCH   7   9
ATOM      9  C   UNL A   1      35.013  30.328  28.050  1.00  0.00     0.135 C 
BRANCH   9  10
ATOM     10  C   UNL A   1      35.936  31.549  28.079  1.00  0.00     0.139 C 
BRANCH  10  11
ATOM     11  C   UNL A   1      36.924  31.753  29.259  1.00  0.00     0.308 C 
ATOM     12  O   UNL A   1      38.090  31.418  29.017  1.00  0.00    -0.247 OA
ATOM     13  N   UNL A   1      36.644  32.269  30.531  1.00  0.00    -0.204 N 
ATOM     14  C   UNL A   1      35.796  33.180  30.870  1.00  0.00     0.319 C 
ATOM     15  H   UNL A   1      37.169  31.883  31.269  1.00  0.00     0.316 HD
ATOM     16  S   UNL A   1      34.698  33.804  29.743  1.00  0.00    -0.029 SA
ATOM     17  N   UNL A   1      35.552  33.857  32.083  1.00  0.00    -0.216 N 
ATOM     18  C   UNL A   1      34.073  35.132  30.679  1.00  0.00     0.120 C 
ATOM     19  C   UNL A   1      34.343  34.764  32.118  1.00  0.00     0.212 C 
ATOM     20  C   UNL A   1      32.681  35.734  30.619  1.00  0.00     0.156 C 
ATOM     21  C   UNL A   1      34.338  36.215  32.654  1.00  0.00     0.188 C 
ATOM     22  S   UNL A   1      32.790  36.885  31.970  1.00  0.00     0.155 S 
ATOM     23  O   UNL A   1      33.014  38.199  31.440  1.00  0.00    -0.229 OA
ATOM     24  O   UNL A   1      31.712  36.582  32.904  1.00  0.00    -0.229 OA
BRANCH  17  25
ATOM     25  C   UNL A   1      36.548  34.088  33.053  1.00  0.00     0.132 A 
ATOM     26  C   UNL A   1      37.820  34.567  32.657  1.00  0.00     0.056 A 
ATOM     27  C   UNL A   1      36.398  33.466  34.287  1.00  0.00     0.102 A 
ATOM     28  C   UNL A   1      38.972  34.041  33.235  1.00  0.00     0.055 A 
ATOM     29  C   UNL A   1      37.526  32.839  34.718  1.00  0.00     0.170 A 
ATOM     30  C   UNL A   1      38.770  33.074  34.182  1.00  0.00     0.166 A 
ATOM     31  O   UNL A   1      37.485  31.671  35.407  1.00  0.00    -0.453 OA
ATOM     32  O   UNL A   1      39.645  32.079  34.496  1.00  0.00    -0.454 OA
ATOM     33  C   UNL A   1      38.695  31.082  34.918  1.00  0.00     0.468 C 
ENDBRANCH  17  25
ENDBRANCH  10  11
ENDBRANCH   9  10
ENDBRANCH   7   9
ENDBRANCH   6   7
ENDBRANCH   5   6
ENDBRANCH   4   5
ENDBRANCH   3   4
ENDBRANCH   2   3
ENDBRANCH   1   2
BRANCH   1  34
ATOM     34  O   UNL A   1      34.681  23.915  25.031  1.00  0.00    -0.377 OA
BRANCH  34  35
ATOM     35  C   UNL A   1      35.873  23.566  24.288  1.00  0.00     0.188 C 
BRANCH  35  36
ATOM     36  C   UNL A   1      36.968  22.535  24.672  1.00  0.00     0.188 C 
BRANCH  36  37
ATOM     37  O   UNL A   1      37.597  22.612  25.934  1.00  0.00    -0.376 OA
BRANCH  37  38
ATOM     38  C   UNL A   1      37.969  23.904  26.351  1.00  0.00     0.202 C 
BRANCH  38  39
ATOM     39  C   UNL A   1      39.411  24.360  26.058  1.00  0.00     0.261 C 
BRANCH  39  40
ATOM     40  O   UNL A   1      40.442  23.923  26.976  1.00  0.00    -0.460 OA
BRANCH  40  41
ATOM     41  C   UNL A   1      41.665  23.678  26.436  1.00  0.00     0.338 C 
ATOM     42  O   UNL A   1      41.992  22.668  25.833  1.00  0.00    -0.246 OA
BRANCH  41  43
ATOM     43  C   UNL A   1      42.581  24.854  26.585  1.00  0.00     0.060 A 
ATOM     44  C   UNL A   1      42.716  25.723  25.498  1.00  0.00     0.016 A 
ATOM     45  C   UNL A   1      43.363  25.085  27.725  1.00  0.00     0.016 A 
ATOM     46  C   UNL A   1      43.631  26.789  25.544  1.00  0.00     0.010 A 
ATOM     47  C   UNL A   1      44.290  26.155  27.764  1.00  0.00     0.010 A 
ATOM     48  C   UNL A   1      44.450  27.020  26.671  1.00  0.00    -0.014 A 
BRANCH  48  49
ATOM     49  C   UNL A   1      45.571  28.030  26.585  1.00  0.00     0.031 A 
ATOM     50  C   UNL A   1      45.261  29.463  26.941  1.00  0.00     0.074 A 
ATOM     51  C   UNL A   1      46.843  27.741  26.227  1.00  0.00     0.049 A 
ATOM     52  N   UNL A   1      46.065  30.489  27.074  1.00  0.00    -0.248 NA
ATOM     53  C   UNL A   1      43.840  29.780  27.142  1.00  0.00     0.031 C 
ATOM     54  C   UNL A   1      47.315  26.445  25.762  1.00  0.00     0.029 A 
ATOM     55  N   UNL A   1      47.996  28.509  26.257  1.00  0.00    -0.354 N 
ATOM     56  C   UNL A   1      45.245  31.574  27.355  1.00  0.00     0.074 A 
ATOM     57  C   UNL A   1      43.887  31.076  27.402  1.00  0.00     0.031 C 
ATOM     58  C   UNL A   1      48.660  26.457  25.696  1.00  0.00     0.029 A 
ATOM     59  C   UNL A   1      49.154  27.796  26.004  1.00  0.00     0.049 A 
ATOM     60  H   UNL A   1      47.991  29.476  26.444  1.00  0.00     0.167 HD
ATOM     61  C   UNL A   1      45.572  32.880  27.507  1.00  0.00     0.037 A 
ATOM     62  C   UNL A   1      50.455  28.174  26.007  1.00  0.00     0.037 A 
ATOM     63  C   UNL A   1      46.893  33.423  27.346  1.00  0.00     0.049 A 
ATOM     64  C   UNL A   1      50.794  29.641  26.178  1.00  0.00     0.074 A 
ATOM     65  C   UNL A   1      47.290  34.748  27.403  1.00  0.00     0.029 A 
ATOM     66  N   UNL A   1      48.025  32.679  27.057  1.00  0.00    -0.354 N 
ATOM     67  N   UNL A   1      50.010  30.648  26.479  1.00  0.00    -0.248 NA
ATOM     68  C   UNL A   1      52.195  30.035  25.944  1.00  0.00     0.031 C 
ATOM     69  C   UNL A   1      48.651  34.812  27.088  1.00  0.00     0.029 A 
ATOM     70  C   UNL A   1      49.118  33.520  26.912  1.00  0.00     0.049 A 
ATOM     71  H   UNL A   1      48.049  31.699  26.967  1.00  0.00     0.167 HD
ATOM     72  C   UNL A   1      50.815  31.782  26.458  1.00  0.00     0.074 A 
ATOM     73  C   UNL A   1      52.160  31.340  26.169  1.00  0.00     0.031 C 
ATOM     74  C   UNL A   1      50.461  33.078  26.635  1.00  0.00     0.037 A 
BRANCH  61  75
ATOM     75  C   UNL A   1      44.430  33.820  27.759  1.00  0.00     0.064 A 
ATOM     76  C   UNL A   1      43.787  34.492  26.709  1.00  0.00     0.173 A 
ATOM     77  C   UNL A   1      44.024  34.103  29.071  1.00  0.00     0.173 A 
ATOM     78  F   UNL A   1      44.162  34.277  25.439  1.00  0.00    -0.203 F 
ATOM     79  C   UNL A   1      42.813  35.453  26.969  1.00  0.00     0.198 A 
ATOM     80  C   UNL A   1      43.026  35.038  29.325  1.00  0.00     0.198 A 
ATOM     81  F   UNL A   1      44.612  33.489  30.109  1.00  0.00    -0.203 F 
ATOM     82  F   UNL A   1      42.272  36.146  25.957  1.00  0.00    -0.200 F 
ATOM     83  C   UNL A   1      42.433  35.724  28.275  1.00  0.00     0.200 A 
ATOM     84  F   UNL A   1      42.658  35.296  30.587  1.00  0.00    -0.200 F 
ATOM     85  F   UNL A   1      41.511  36.663  28.525  1.00  0.00    -0.200 F 
ENDBRANCH  61  75
BRANCH  62  86
ATOM     86  C   UNL A   1      51.569  27.194  25.784  1.00  0.00     0.064 A 
ATOM     87  C   UNL A   1      52.326  26.698  26.863  1.00  0.00     0.173 A 
ATOM     88  C   UNL A   1      51.977  26.811  24.497  1.00  0.00     0.173 A 
ATOM     89  F   UNL A   1      52.026  27.066  28.118  1.00  0.00    -0.203 F 
ATOM     90  C   UNL A   1      53.447  25.890  26.661  1.00  0.00     0.198 A 
ATOM     91  C   UNL A   1      53.068  25.963  24.299  1.00  0.00     0.198 A 
ATOM     92  F   UNL A   1      51.328  27.277  23.421  1.00  0.00    -0.203 F 
ATOM     93  F   UNL A   1      54.198  25.511  27.705  1.00  0.00    -0.200 F 
ATOM     94  C   UNL A   1      53.813  25.515  25.377  1.00  0.00     0.200 A 
ATOM     95  F   UNL A   1      53.416  25.605  23.054  1.00  0.00    -0.200 F 
ATOM     96  F   UNL A   1      54.894  24.749  25.181  1.00  0.00    -0.200 F 
ENDBRANCH  62  86
BRANCH  74  97
ATOM     97  C   UNL A   1      51.538  34.124  26.553  1.00  0.00     0.064 A 
ATOM     98  C   UNL A   1      52.362  34.431  27.646  1.00  0.00     0.173 A 
ATOM     99  C   UNL A   1      51.795  34.780  25.338  1.00  0.00     0.173 A 
ATOM    100  F   UNL A   1      52.157  33.843  28.835  1.00  0.00    -0.203 F 
ATOM    101  C   UNL A   1      53.389  35.367  27.533  1.00  0.00     0.198 A 
ATOM    102  C   UNL A   1      52.843  35.690  25.219  1.00  0.00     0.198 A 
ATOM    103  F   UNL A   1      51.044  34.520  24.258  1.00  0.00    -0.203 F 
ATOM    104  F   UNL A   1      54.138  35.673  28.601  1.00  0.00    -0.200 F 
ATOM    105  C   UNL A   1      53.634  35.988  26.317  1.00  0.00     0.200 A 
ATOM    106  F   UNL A   1      53.089  36.275  24.038  1.00  0.00    -0.200 F 
ATOM    107  F   UNL A   1      54.633  36.875  26.205  1.00  0.00    -0.200 F 
ENDBRANCH  74  97
ENDBRANCH  48  49
ENDBRANCH  41  43
ENDBRANCH  40  41
ENDBRANCH  39  40
ENDBRANCH  38  39
ENDBRANCH  37  38
ENDBRANCH  36  37
ENDBRANCH  35  36
ENDBRANCH  34  35
ENDBRANCH   1  34
TORSDOF 23
ENDMDL
MODEL 2
REMARK VINA RESULT:      -9.8      5.899     12.531
REMARK SMILES O=C(CCC(=O)OCCOCCOCCOCCOC(=O)c1ccc(-c2c3nc(c(-c4c(F)c(F)c(F)c(F)c4F)c4ccc([nH]4)c(-c4c(F)c(F)c(F)c(F)c4F)c4nc(c(-c5c(F)c(F)c(F)c(F)c5F)c5ccc2[nH]5)C=C4)C=C3)cc1)/[NH+]=C1\S[C@H]2CS(=O)(=O)C[C@@H]2N1c1ccc2c(c1)OCO2
REMARK SMILES IDX 12 1 11 2 10 3 9 4 8 5 7 6 5 7 6 8 4 9 3 10 2 11 1 12 85 13
REMARK SMILES IDX 86 14 87 16 95 17 88 18 94 19 89 20 93 21 90 22 91 23 92 24
REMARK SMILES IDX 96 25 97 26 101 27 98 28 100 29 99 30 102 31 104 32 103 33
REMARK SMILES IDX 13 34 14 35 15 36 16 37 17 38 18 39 19 40 20 41 21 42 22 43
REMARK SMILES IDX 23 44 84 45 24 46 83 47 25 48 26 49 27 50 77 51 28 52 82 53
REMARK SMILES IDX 76 54 78 55 29 56 81 57 75 58 74 59 30 61 62 62 42 63 61 64
REMARK SMILES IDX 43 65 46 66 60 67 79 68 44 69 45 70 59 72 80 73 47 74 31 75
REMARK SMILES IDX 32 76 40 77 33 78 34 79 38 80 41 81 35 82 36 83 39 84 37 85
REMARK SMILES IDX 63 86 64 87 72 88 65 89 66 90 70 91 73 92 67 93 68 94 71 95
REMARK SMILES IDX 69 96 48 97 49 98 57 99 50 100 51 101 55 102 58 103 52 104
REMARK SMILES IDX 53 105 56 106 54 107
REMARK H PARENT 85 15 78 60 46 71
REMARK Flexibility Score: inf
ROOT
ATOM      1  C   UNL A   1      38.077  32.504  34.818  1.00  0.00     0.188 C 
ENDROOT
BRANCH   1   2
ATOM      2  C   UNL A   1      37.029  33.074  33.698  1.00  0.00     0.188 C 
BRANCH   2   3
ATOM      3  O   UNL A   1      35.680  32.554  33.824  1.00  0.00    -0.376 OA
BRANCH   3   4
ATOM      4  C   UNL A   1      34.607  32.931  32.927  1.00  0.00     0.202 C 
BRANCH   4   5
ATOM      5  C   UNL A   1      34.712  32.747  31.373  1.00  0.00     0.261 C 
BRANCH   5   6
ATOM      6  O   UNL A   1      34.122  33.752  30.549  1.00  0.00    -0.463 OA
BRANCH   6   7
ATOM      7  C   UNL A   1      33.912  33.451  29.261  1.00  0.00     0.306 C 
ATOM      8  O   UNL A   1      33.315  34.171  28.474  1.00  0.00    -0.252 OA
BRANCH   7   9
ATOM      9  C   UNL A   1      34.523  32.121  28.906  1.00  0.00     0.135 C 
BRANCH   9  10
ATOM     10  C   UNL A   1      33.867  31.338  27.768  1.00  0.00     0.139 C 
BRANCH  10  11
ATOM     11  C   UNL A   1      34.456  29.974  27.318  1.00  0.00     0.308 C 
ATOM     12  O   UNL A   1      35.159  29.412  28.166  1.00  0.00    -0.247 OA
ATOM     13  N   UNL A   1      34.274  29.325  26.089  1.00  0.00    -0.204 N 
ATOM     14  C   UNL A   1      33.238  29.316  25.320  1.00  0.00     0.319 C 
ATOM     15  H   UNL A   1      35.045  28.803  25.769  1.00  0.00     0.316 HD
ATOM     16  S   UNL A   1      31.909  30.312  25.646  1.00  0.00    -0.029 SA
ATOM     17  N   UNL A   1      32.916  28.587  24.157  1.00  0.00    -0.216 N 
ATOM     18  C   UNL A   1      30.786  29.653  24.491  1.00  0.00     0.120 C 
ATOM     19  C   UNL A   1      31.643  28.983  23.445  1.00  0.00     0.212 C 
ATOM     20  C   UNL A   1      29.669  30.381  23.765  1.00  0.00     0.156 C 
ATOM     21  C   UNL A   1      30.555  27.996  22.960  1.00  0.00     0.188 C 
ATOM     22  S   UNL A   1      29.129  29.089  22.669  1.00  0.00     0.155 S 
ATOM     23  O   UNL A   1      27.936  28.497  23.205  1.00  0.00    -0.229 OA
ATOM     24  O   UNL A   1      29.215  29.595  21.304  1.00  0.00    -0.229 OA
BRANCH  17  25
ATOM     25  C   UNL A   1      33.423  27.302  23.886  1.00  0.00     0.132 A 
ATOM     26  C   UNL A   1      33.742  26.935  22.556  1.00  0.00     0.056 A 
ATOM     27  C   UNL A   1      33.215  26.314  24.842  1.00  0.00     0.102 A 
ATOM     28  C   UNL A   1      33.407  25.669  22.083  1.00  0.00     0.055 A 
ATOM     29  C   UNL A   1      32.738  25.150  24.323  1.00  0.00     0.170 A 
ATOM     30  C   UNL A   1      32.782  24.849  22.982  1.00  0.00     0.166 A 
ATOM     31  O   UNL A   1      31.840  24.378  24.985  1.00  0.00    -0.453 OA
ATOM     32  O   UNL A   1      31.922  23.840  22.669  1.00  0.00    -0.454 OA
ATOM     33  C   UNL A   1      31.115  23.867  23.862  1.00  0.00     0.468 C 
ENDBRANCH  17  25
ENDBRANCH  10  11
ENDBRANCH   9  10
ENDBRANCH   7   9
ENDBRANCH   6   7
ENDBRANCH   5   6
ENDBRANCH   4   5
ENDBRANCH   3   4
ENDBRANCH   2   3
ENDBRANCH   1   2
BRANCH   1  34
ATOM     34  O   UNL A   1      37.541  32.205  36.124  1.00  0.00    -0.377 OA
BRANCH  34  35
ATOM     35  C   UNL A   1      37.551  33.056  37.294  1.00  0.00     0.188 C 
BRANCH  35  36
ATOM     36  C   UNL A   1      38.692  33.240  38.330  1.00  0.00     0.188 C 
BRANCH  36  37
ATOM     37  O   UNL A   1      38.532  32.755  39.647  1.00  0.00    -0.376 OA
BRANCH  37  38
ATOM     38  C   UNL A   1      37.616  33.463  40.449  1.00  0.00     0.202 C 
BRANCH  38  39
ATOM     39  C   UNL A   1      38.182  34.272  41.632  1.00  0.00     0.261 C 
BRANCH  39  40
ATOM     40  O   UNL A   1      39.614  34.489  41.659  1.00  0.00    -0.460 OA
BRANCH  40  41
ATOM     41  C   UNL A   1      40.033  35.761  41.422  1.00  0.00     0.338 C 
ATOM     42  O   UNL A   1      39.940  36.700  42.195  1.00  0.00    -0.246 OA
BRANCH  41  43
ATOM     43  C   UNL A   1      40.727  35.877  40.099  1.00  0.00     0.060 A 
ATOM     44  C   UNL A   1      40.071  36.564  39.073  1.00  0.00     0.016 A 
ATOM     45  C   UNL A   1      41.958  35.271  39.816  1.00  0.00     0.016 A 
ATOM     46  C   UNL A   1      40.628  36.626  37.784  1.00  0.00     0.010 A 
ATOM     47  C   UNL A   1      42.512  35.328  38.513  1.00  0.00     0.010 A 
ATOM     48  C   UNL A   1      41.852  35.996  37.471  1.00  0.00    -0.014 A 
BRANCH  48  49
ATOM     49  C   UNL A   1      42.292  35.897  36.028  1.00  0.00     0.031 A 
ATOM     50  C   UNL A   1      41.984  34.623  35.280  1.00  0.00     0.074 A 
ATOM     51  C   UNL A   1      42.928  36.877  35.347  1.00  0.00     0.049 A 
ATOM     52  N   UNL A   1      42.134  34.335  34.011  1.00  0.00    -0.248 NA
ATOM     53  C   UNL A   1      41.465  33.513  36.092  1.00  0.00     0.031 C 
ATOM     54  C   UNL A   1      43.391  38.135  35.915  1.00  0.00     0.029 A 
ATOM     55  N   UNL A   1      43.243  36.998  34.003  1.00  0.00    -0.354 N 
ATOM     56  C   UNL A   1      41.747  33.009  33.878  1.00  0.00     0.074 A 
ATOM     57  C   UNL A   1      41.328  32.558  35.188  1.00  0.00     0.031 C 
ATOM     58  C   UNL A   1      43.786  38.954  34.922  1.00  0.00     0.029 A 
ATOM     59  C   UNL A   1      43.717  38.247  33.646  1.00  0.00     0.049 A 
ATOM     60  H   UNL A   1      43.137  36.260  33.360  1.00  0.00     0.167 HD
ATOM     61  C   UNL A   1      41.784  32.209  32.784  1.00  0.00     0.037 A 
ATOM     62  C   UNL A   1      44.063  38.761  32.441  1.00  0.00     0.037 A 
ATOM     63  C   UNL A   1      42.307  32.591  31.501  1.00  0.00     0.049 A 
ATOM     64  C   UNL A   1      44.097  37.846  31.234  1.00  0.00     0.074 A 
ATOM     65  C   UNL A   1      42.454  31.812  30.366  1.00  0.00     0.029 A 
ATOM     66  N   UNL A   1      42.806  33.845  31.192  1.00  0.00    -0.354 N 
ATOM     67  N   UNL A   1      43.693  36.604  31.118  1.00  0.00    -0.248 NA
ATOM     68  C   UNL A   1      44.700  38.387  30.002  1.00  0.00     0.031 C 
ATOM     69  C   UNL A   1      43.099  32.577  29.389  1.00  0.00     0.029 A 
ATOM     70  C   UNL A   1      43.282  33.856  29.889  1.00  0.00     0.049 A 
ATOM     71  H   UNL A   1      42.822  34.615  31.806  1.00  0.00     0.167 HD
ATOM     72  C   UNL A   1      44.001  36.220  29.817  1.00  0.00     0.074 A 
ATOM     73  C   UNL A   1      44.577  37.371  29.161  1.00  0.00     0.031 C 
ATOM     74  C   UNL A   1      43.845  35.008  29.231  1.00  0.00     0.037 A 
BRANCH  61  75
ATOM     75  C   UNL A   1      41.333  30.793  32.989  1.00  0.00     0.064 A 
ATOM     76  C   UNL A   1      42.190  29.820  33.523  1.00  0.00     0.173 A 
ATOM     77  C   UNL A   1      40.054  30.392  32.578  1.00  0.00     0.173 A 
ATOM     78  F   UNL A   1      43.435  30.150  33.901  1.00  0.00    -0.203 F 
ATOM     79  C   UNL A   1      41.798  28.485  33.591  1.00  0.00     0.198 A 
ATOM     80  C   UNL A   1      39.653  29.064  32.679  1.00  0.00     0.198 A 
ATOM     81  F   UNL A   1      39.199  31.285  32.056  1.00  0.00    -0.203 F 
ATOM     82  F   UNL A   1      42.663  27.557  34.025  1.00  0.00    -0.200 F 
ATOM     83  C   UNL A   1      40.532  28.109  33.170  1.00  0.00     0.200 A 
ATOM     84  F   UNL A   1      38.428  28.703  32.277  1.00  0.00    -0.200 F 
ATOM     85  F   UNL A   1      40.163  26.822  33.217  1.00  0.00    -0.200 F 
ENDBRANCH  61  75
BRANCH  62  86
ATOM     86  C   UNL A   1      44.476  40.194  32.276  1.00  0.00     0.064 A 
ATOM     87  C   UNL A   1      45.827  40.576  32.387  1.00  0.00     0.173 A 
ATOM     88  C   UNL A   1      43.539  41.226  32.114  1.00  0.00     0.173 A 
ATOM     89  F   UNL A   1      46.773  39.648  32.597  1.00  0.00    -0.203 F 
ATOM     90  C   UNL A   1      46.212  41.919  32.367  1.00  0.00     0.198 A 
ATOM     91  C   UNL A   1      43.930  42.564  32.045  1.00  0.00     0.198 A 
ATOM     92  F   UNL A   1      42.231  40.939  32.043  1.00  0.00    -0.203 F 
ATOM     93  F   UNL A   1      47.495  42.253  32.566  1.00  0.00    -0.200 F 
ATOM     94  C   UNL A   1      45.263  42.913  32.187  1.00  0.00     0.200 A 
ATOM     95  F   UNL A   1      43.006  43.520  31.871  1.00  0.00    -0.200 F 
ATOM     96  F   UNL A   1      45.629  44.201  32.179  1.00  0.00    -0.200 F 
ENDBRANCH  62  86
BRANCH  74  97
ATOM     97  C   UNL A   1      44.272  34.854  27.798  1.00  0.00     0.064 A 
ATOM     98  C   UNL A   1      45.596  34.549  27.444  1.00  0.00     0.173 A 
ATOM     99  C   UNL A   1      43.326  34.945  26.765  1.00  0.00     0.173 A 
ATOM    100  F   UNL A   1      46.545  34.460  28.388  1.00  0.00    -0.203 F 
ATOM    101  C   UNL A   1      45.959  34.360  26.111  1.00  0.00     0.198 A 
ATOM    102  C   UNL A   1      43.685  34.723  25.437  1.00  0.00     0.198 A 
ATOM    103  F   UNL A   1      42.045  35.228  27.045  1.00  0.00    -0.203 F 
ATOM    104  F   UNL A   1      47.236  34.108  25.794  1.00  0.00    -0.200 F 
ATOM    105  C   UNL A   1      45.001  34.438  25.111  1.00  0.00     0.200 A 
ATOM    106  F   UNL A   1      42.754  34.781  24.475  1.00  0.00    -0.200 F 
ATOM    107  F   UNL A   1      45.348  34.238  23.832  1.00  0.00    -0.200 F 
ENDBRANCH  74  97
ENDBRANCH  48  49
ENDBRANCH  41  43
ENDBRANCH  40  41
ENDBRANCH  39  40
ENDBRANCH  38  39
ENDBRANCH  37  38
ENDBRANCH  36  37
ENDBRANCH  35  36
ENDBRANCH  34  35
ENDBRANCH   1  34
TORSDOF 23
ENDMDL
MODEL 3
REMARK VINA RESULT:      -9.7      6.554     12.517
REMARK SMILES O=C(CCC(=O)OCCOCCOCCOCCOC(=O)c1ccc(-c2c3nc(c(-c4c(F)c(F)c(F)c(F)c4F)c4ccc([nH]4)c(-c4c(F)c(F)c(F)c(F)c4F)c4nc(c(-c5c(F)c(F)c(F)c(F)c5F)c5ccc2[nH]5)C=C4)C=C3)cc1)/[NH+]=C1\S[C@H]2CS(=O)(=O)C[C@@H]2N1c1ccc2c(c1)OCO2
REMARK SMILES IDX 12 1 11 2 10 3 9 4 8 5 7 6 5 7 6 8 4 9 3 10 2 11 1 12 85 13
REMARK SMILES IDX 86 14 87 16 95 17 88 18 94 19 89 20 93 21 90 22 91 23 92 24
REMARK SMILES IDX 96 25 97 26 101 27 98 28 100 29 99 30 102 31 104 32 103 33
REMARK SMILES IDX 13 34 14 35 15 36 16 37 17 38 18 39 19 40 20 41 21 42 22 43
REMARK SMILES IDX 23 44 84 45 24 46 83 47 25 48 26 49 27 50 77 51 28 52 82 53
REMARK SMILES IDX 76 54 78 55 29 56 81 57 75 58 74 59 30 61 62 62 42 63 61 64
REMARK SMILES IDX 43 65 46 66 60 67 79 68 44 69 45 70 59 72 80 73 47 74 31 75
REMARK SMILES IDX 32 76 40 77 33 78 34 79 38 80 41 81 35 82 36 83 39 84 37 85
REMARK SMILES IDX 63 86 64 87 72 88 65 89 66 90 70 91 73 92 67 93 68 94 71 95
REMARK SMILES IDX 69 96 48 97 49 98 57 99 50 100 51 101 55 102 58 103 52 104
REMARK SMILES IDX 53 105 56 106 54 107
REMARK H PARENT 85 15 78 60 46 71
REMARK Flexibility Score: inf
ROOT
ATOM      1  C   UNL A   1      37.957  32.390  34.693  1.00  0.00     0.188 C 
ENDROOT
BRANCH   1   2
ATOM      2  C   UNL A   1      36.948  33.108  33.623  1.00  0.00     0.188 C 
BRANCH   2   3
ATOM      3  O   UNL A   1      35.578  32.635  33.687  1.00  0.00    -0.376 OA
BRANCH   3   4
ATOM      4  C   UNL A   1      34.558  33.056  32.749  1.00  0.00     0.202 C 
BRANCH   4   5
ATOM      5  C   UNL A   1      34.695  32.823  31.203  1.00  0.00     0.261 C 
BRANCH   5   6
ATOM      6  O   UNL A   1      34.196  33.842  30.337  1.00  0.00    -0.463 OA
BRANCH   6   7
ATOM      7  C   UNL A   1      33.998  33.518  29.052  1.00  0.00     0.306 C 
ATOM      8  O   UNL A   1      33.475  34.254  28.229  1.00  0.00    -0.252 OA
BRANCH   7   9
ATOM      9  C   UNL A   1      34.521  32.138  28.752  1.00  0.00     0.135 C 
BRANCH   9  10
ATOM     10  C   UNL A   1      33.812  31.352  27.647  1.00  0.00     0.139 C 
BRANCH  10  11
ATOM     11  C   UNL A   1      34.364  29.975  27.191  1.00  0.00     0.308 C 
ATOM     12  O   UNL A   1      35.067  29.398  28.030  1.00  0.00    -0.247 OA
ATOM     13  N   UNL A   1      34.150  29.329  25.967  1.00  0.00    -0.204 N 
ATOM     14  C   UNL A   1      33.103  29.342  25.212  1.00  0.00     0.319 C 
ATOM     15  H   UNL A   1      34.904  28.790  25.636  1.00  0.00     0.316 HD
ATOM     16  S   UNL A   1      31.801  30.367  25.556  1.00  0.00    -0.029 SA
ATOM     17  N   UNL A   1      32.748  28.619  24.055  1.00  0.00    -0.216 N 
ATOM     18  C   UNL A   1      30.647  29.731  24.419  1.00  0.00     0.120 C 
ATOM     19  C   UNL A   1      31.474  29.042  23.361  1.00  0.00     0.212 C 
ATOM     20  C   UNL A   1      29.536  30.483  23.708  1.00  0.00     0.156 C 
ATOM     21  C   UNL A   1      30.357  28.078  22.894  1.00  0.00     0.188 C 
ATOM     22  S   UNL A   1      28.952  29.202  22.621  1.00  0.00     0.155 S 
ATOM     23  O   UNL A   1      27.755  28.637  23.175  1.00  0.00    -0.229 OA
ATOM     24  O   UNL A   1      29.030  29.704  21.254  1.00  0.00    -0.229 OA
BRANCH  17  25
ATOM     25  C   UNL A   1      33.223  27.322  23.779  1.00  0.00     0.132 A 
ATOM     26  C   UNL A   1      33.501  26.942  22.443  1.00  0.00     0.056 A 
ATOM     27  C   UNL A   1      33.019  26.344  24.745  1.00  0.00     0.102 A 
ATOM     28  C   UNL A   1      33.130  25.681  21.986  1.00  0.00     0.055 A 
ATOM     29  C   UNL A   1      32.506  25.187  24.245  1.00  0.00     0.170 A 
ATOM     30  C   UNL A   1      32.511  24.878  22.905  1.00  0.00     0.166 A 
ATOM     31  O   UNL A   1      31.610  24.436  24.933  1.00  0.00    -0.453 OA
ATOM     32  O   UNL A   1      31.624  23.885  22.619  1.00  0.00    -0.454 OA
ATOM     33  C   UNL A   1      30.848  23.934  23.831  1.00  0.00     0.468 C 
ENDBRANCH  17  25
ENDBRANCH  10  11
ENDBRANCH   9  10
ENDBRANCH   7   9
ENDBRANCH   6   7
ENDBRANCH   5   6
ENDBRANCH   4   5
ENDBRANCH   3   4
ENDBRANCH   2   3
ENDBRANCH   1   2
BRANCH   1  34
ATOM     34  O   UNL A   1      37.378  31.930  35.932  1.00  0.00    -0.377 OA
BRANCH  34  35
ATOM     35  C   UNL A   1      37.389  32.605  37.212  1.00  0.00     0.188 C 
BRANCH  35  36
ATOM     36  C   UNL A   1      38.557  32.703  38.229  1.00  0.00     0.188 C 
BRANCH  36  37
ATOM     37  O   UNL A   1      38.514  31.955  39.426  1.00  0.00    -0.376 OA
BRANCH  37  38
ATOM     38  C   UNL A   1      37.472  32.287  40.314  1.00  0.00     0.202 C 
BRANCH  38  39
ATOM     39  C   UNL A   1      37.816  33.199  41.507  1.00  0.00     0.261 C 
BRANCH  39  40
ATOM     40  O   UNL A   1      39.058  33.941  41.434  1.00  0.00    -0.460 OA
BRANCH  40  41
ATOM     41  C   UNL A   1      38.961  35.239  41.043  1.00  0.00     0.338 C 
ATOM     42  O   UNL A   1      38.226  36.081  41.535  1.00  0.00    -0.246 OA
BRANCH  41  43
ATOM     43  C   UNL A   1      39.946  35.567  39.963  1.00  0.00     0.060 A 
ATOM     44  C   UNL A   1      39.774  36.763  39.259  1.00  0.00     0.016 A 
ATOM     45  C   UNL A   1      40.979  34.705  39.572  1.00  0.00     0.016 A 
ATOM     46  C   UNL A   1      40.609  37.080  38.174  1.00  0.00     0.010 A 
ATOM     47  C   UNL A   1      41.812  35.024  38.472  1.00  0.00     0.010 A 
ATOM     48  C   UNL A   1      41.636  36.211  37.745  1.00  0.00    -0.014 A 
BRANCH  48  49
ATOM     49  C   UNL A   1      42.351  36.487  36.442  1.00  0.00     0.031 A 
ATOM     50  C   UNL A   1      41.894  35.740  35.213  1.00  0.00     0.074 A 
ATOM     51  C   UNL A   1      43.363  37.371  36.291  1.00  0.00     0.049 A 
ATOM     52  N   UNL A   1      42.248  35.887  33.960  1.00  0.00    -0.248 NA
ATOM     53  C   UNL A   1      40.928  34.657  35.443  1.00  0.00     0.031 C 
ATOM     54  C   UNL A   1      44.001  38.115  37.366  1.00  0.00     0.029 A 
ATOM     55  N   UNL A   1      43.996  37.846  35.153  1.00  0.00    -0.354 N 
ATOM     56  C   UNL A   1      41.564  34.904  33.259  1.00  0.00     0.074 A 
ATOM     57  C   UNL A   1      40.752  34.188  34.220  1.00  0.00     0.031 C 
ATOM     58  C   UNL A   1      44.816  39.050  36.841  1.00  0.00     0.029 A 
ATOM     59  C   UNL A   1      44.854  38.906  35.388  1.00  0.00     0.049 A 
ATOM     60  H   UNL A   1      43.848  37.464  34.258  1.00  0.00     0.167 HD
ATOM     61  C   UNL A   1      41.635  34.579  31.945  1.00  0.00     0.037 A 
ATOM     62  C   UNL A   1      45.590  39.664  34.541  1.00  0.00     0.037 A 
ATOM     63  C   UNL A   1      42.519  35.191  30.992  1.00  0.00     0.049 A 
ATOM     64  C   UNL A   1      45.654  39.279  33.077  1.00  0.00     0.074 A 
ATOM     65  C   UNL A   1      42.709  34.862  29.660  1.00  0.00     0.029 A 
ATOM     66  N   UNL A   1      43.391  36.230  31.274  1.00  0.00    -0.354 N 
ATOM     67  N   UNL A   1      44.972  38.371  32.424  1.00  0.00    -0.248 NA
ATOM     68  C   UNL A   1      46.643  39.986  32.243  1.00  0.00     0.031 C 
ATOM     69  C   UNL A   1      43.739  35.661  29.153  1.00  0.00     0.029 A 
ATOM     70  C   UNL A   1      44.137  36.541  30.146  1.00  0.00     0.049 A 
ATOM     71  H   UNL A   1      43.470  36.681  32.146  1.00  0.00     0.167 HD
ATOM     72  C   UNL A   1      45.455  38.391  31.119  1.00  0.00     0.074 A 
ATOM     73  C   UNL A   1      46.450  39.436  31.053  1.00  0.00     0.031 C 
ATOM     74  C   UNL A   1      45.121  37.591  30.078  1.00  0.00     0.037 A 
BRANCH  61  75
ATOM     75  C   UNL A   1      40.790  33.420  31.506  1.00  0.00     0.064 A 
ATOM     76  C   UNL A   1      41.219  32.095  31.671  1.00  0.00     0.173 A 
ATOM     77  C   UNL A   1      39.570  33.643  30.850  1.00  0.00     0.173 A 
ATOM     78  F   UNL A   1      42.393  31.834  32.265  1.00  0.00    -0.203 F 
ATOM     79  C   UNL A   1      40.480  31.037  31.147  1.00  0.00     0.198 A 
ATOM     80  C   UNL A   1      38.818  32.581  30.359  1.00  0.00     0.198 A 
ATOM     81  F   UNL A   1      39.120  34.892  30.664  1.00  0.00    -0.203 F 
ATOM     82  F   UNL A   1      40.950  29.785  31.240  1.00  0.00    -0.200 F 
ATOM     83  C   UNL A   1      39.282  31.280  30.493  1.00  0.00     0.200 A 
ATOM     84  F   UNL A   1      37.659  32.817  29.731  1.00  0.00    -0.200 F 
ATOM     85  F   UNL A   1      38.582  30.263  29.973  1.00  0.00    -0.200 F 
ENDBRANCH  61  75
BRANCH  62  86
ATOM     86  C   UNL A   1      46.395  40.837  35.018  1.00  0.00     0.064 A 
ATOM     87  C   UNL A   1      47.711  40.668  35.492  1.00  0.00     0.173 A 
ATOM     88  C   UNL A   1      45.849  42.126  35.116  1.00  0.00     0.173 A 
ATOM     89  F   UNL A   1      48.278  39.452  35.479  1.00  0.00    -0.203 F 
ATOM     90  C   UNL A   1      48.426  41.725  36.061  1.00  0.00     0.198 A 
ATOM     91  C   UNL A   1      46.582  43.192  35.640  1.00  0.00     0.198 A 
ATOM     92  F   UNL A   1      44.588  42.352  34.722  1.00  0.00    -0.203 F 
ATOM     93  F   UNL A   1      49.640  41.509  36.586  1.00  0.00    -0.200 F 
ATOM     94  C   UNL A   1      47.863  42.990  36.126  1.00  0.00     0.200 A 
ATOM     95  F   UNL A   1      46.032  44.414  35.700  1.00  0.00    -0.200 F 
ATOM     96  F   UNL A   1      48.543  44.002  36.681  1.00  0.00    -0.200 F 
ENDBRANCH  62  86
BRANCH  74  97
ATOM     97  C   UNL A   1      45.807  37.820  28.760  1.00  0.00     0.064 A 
ATOM     98  C   UNL A   1      46.986  37.144  28.407  1.00  0.00     0.173 A 
ATOM     99  C   UNL A   1      45.237  38.679  27.806  1.00  0.00     0.173 A 
ATOM    100  F   UNL A   1      47.581  36.319  29.282  1.00  0.00    -0.203 F 
ATOM    101  C   UNL A   1      47.577  37.334  27.159  1.00  0.00     0.198 A 
ATOM    102  C   UNL A   1      45.812  38.840  26.548  1.00  0.00     0.198 A 
ATOM    103  F   UNL A   1      44.108  39.345  28.087  1.00  0.00    -0.203 F 
ATOM    104  F   UNL A   1      48.723  36.708  26.858  1.00  0.00    -0.200 F 
ATOM    105  C   UNL A   1      46.984  38.173  26.227  1.00  0.00     0.200 A 
ATOM    106  F   UNL A   1      45.228  39.638  25.643  1.00  0.00    -0.200 F 
ATOM    107  F   UNL A   1      47.544  38.341  25.021  1.00  0.00    -0.200 F 
ENDBRANCH  74  97
ENDBRANCH  48  49
ENDBRANCH  41  43
ENDBRANCH  40  41
ENDBRANCH  39  40
ENDBRANCH  38  39
ENDBRANCH  37  38
ENDBRANCH  36  37
ENDBRANCH  35  36
ENDBRANCH  34  35
ENDBRANCH   1  34
TORSDOF 23
ENDMDL
