MODEL 1
REMARK VINA RESULT:     -10.4      0.000      0.000
REMARK SMILES O=C(CCS(=O)(=O)N1CCN(C(=O)[C@@H]2CCCO2)CC1)OCCOCCOCCOCCOC(=O)c1ccc(-c2c3nc(c(-c4c(F)c(F)c(F)c(F)c4F)c4ccc([nH]4)c(-c4c(F)c(F)c(F)c(F)c4F)c4nc(c(-c5c(F)c(F)c(F)c(F)c5F)c5ccc2[nH]5)C=C4)C=C3)cc1
REMARK SMILES IDX 26 1 25 2 24 3 23 4 22 5 21 6 2 7 1 8 3 9 4 10 5 11 6 12
REMARK SMILES IDX 7 13 8 14 9 15 20 16 10 17 19 18 11 19 12 20 13 21 14 22
REMARK SMILES IDX 15 23 18 24 16 25 17 26 27 27 28 28 29 29 30 30 31 31 32 32
REMARK SMILES IDX 33 33 34 34 35 35 36 36 37 37 98 38 38 39 97 40 39 41 40 42
REMARK SMILES IDX 41 43 91 44 42 45 96 46 90 47 92 48 43 49 95 50 89 51 88 52
REMARK SMILES IDX 44 54 76 55 56 56 75 57 57 58 60 59 74 60 93 61 58 62 59 63
REMARK SMILES IDX 73 65 94 66 61 67 45 68 46 69 54 70 47 71 48 72 52 73 55 74
REMARK SMILES IDX 49 75 50 76 53 77 51 78 77 79 78 80 86 81 79 82 80 83 84 84
REMARK SMILES IDX 87 85 81 86 82 87 85 88 83 89 62 90 63 91 71 92 64 93 65 94
REMARK SMILES IDX 69 95 72 96 66 97 67 98 70 99 68 100
REMARK H PARENT 92 53 60 64
REMARK Flexibility Score: inf
ROOT
ATOM      1  C   UNL A   1      34.805  30.870  27.488  1.00  0.00     0.188 C 
ENDROOT
BRANCH   1   2
ATOM      2  C   UNL A   1      34.244  29.442  27.617  1.00  0.00     0.188 C 
BRANCH   2   3
ATOM      3  O   UNL A   1      34.367  28.680  26.419  1.00  0.00    -0.376 OA
BRANCH   3   4
ATOM      4  C   UNL A   1      33.200  28.227  25.751  1.00  0.00     0.202 C 
BRANCH   4   5
ATOM      5  C   UNL A   1      32.359  29.318  25.108  1.00  0.00     0.261 C 
BRANCH   5   6
ATOM      6  O   UNL A   1      31.098  28.782  24.674  1.00  0.00    -0.463 OA
BRANCH   6   7
ATOM      7  C   UNL A   1      30.826  28.357  23.431  1.00  0.00     0.306 C 
ATOM      8  O   UNL A   1      30.772  29.151  22.498  1.00  0.00    -0.252 OA
BRANCH   7   9
ATOM      9  C   UNL A   1      30.724  26.895  23.214  1.00  0.00     0.140 C 
BRANCH   9  10
ATOM     10  C   UNL A   1      31.345  26.541  21.890  1.00  0.00     0.166 C 
BRANCH  10  11
ATOM     11  S   UNL A   1      33.017  25.928  21.830  1.00  0.00     0.214 S 
ATOM     12  O   UNL A   1      33.160  25.326  20.516  1.00  0.00    -0.212 OA
ATOM     13  O   UNL A   1      33.881  27.023  22.213  1.00  0.00    -0.212 OA
BRANCH  11  14
ATOM     14  N   UNL A   1      33.351  24.688  22.881  1.00  0.00    -0.198 NA
ATOM     15  C   UNL A   1      34.686  24.113  23.258  1.00  0.00     0.123 C 
ATOM     16  C   UNL A   1      32.481  23.505  22.547  1.00  0.00     0.123 C 
ATOM     17  C   UNL A   1      34.498  23.274  24.572  1.00  0.00     0.136 C 
ATOM     18  C   UNL A   1      32.162  22.810  23.846  1.00  0.00     0.136 C 
ATOM     19  N   UNL A   1      33.378  22.327  24.492  1.00  0.00    -0.338 N 
ATOM     20  C   UNL A   1      33.371  21.214  25.309  1.00  0.00     0.251 C 
ATOM     21  O   UNL A   1      34.120  21.108  26.282  1.00  0.00    -0.272 OA
BRANCH  20  22
ATOM     22  C   UNL A   1      32.448  20.059  24.894  1.00  0.00     0.207 C 
ATOM     23  C   UNL A   1      32.718  18.759  25.627  1.00  0.00     0.044 C 
ATOM     24  O   UNL A   1      32.432  19.784  23.490  1.00  0.00    -0.368 OA
ATOM     25  C   UNL A   1      32.551  17.676  24.592  1.00  0.00     0.032 C 
ATOM     26  C   UNL A   1      32.466  18.374  23.254  1.00  0.00     0.161 C 
ENDBRANCH  20  22
ENDBRANCH  11  14
ENDBRANCH  10  11
ENDBRANCH   9  10
ENDBRANCH   7   9
ENDBRANCH   6   7
ENDBRANCH   5   6
ENDBRANCH   4   5
ENDBRANCH   3   4
ENDBRANCH   2   3
ENDBRANCH   1   2
BRANCH   1  27
ATOM     27  O   UNL A   1      34.028  31.862  28.155  1.00  0.00    -0.377 OA
BRANCH  27  28
ATOM     28  C   UNL A   1      34.522  33.191  28.033  1.00  0.00     0.188 C 
BRANCH  28  29
ATOM     29  C   UNL A   1      34.655  34.022  29.331  1.00  0.00     0.188 C 
BRANCH  29  30
ATOM     30  O   UNL A   1      33.924  33.758  30.521  1.00  0.00    -0.376 OA
BRANCH  30  31
ATOM     31  C   UNL A   1      34.360  34.296  31.752  1.00  0.00     0.202 C 
BRANCH  31  32
ATOM     32  C   UNL A   1      34.646  33.331  32.916  1.00  0.00     0.261 C 
BRANCH  32  33
ATOM     33  O   UNL A   1      35.266  32.077  32.580  1.00  0.00    -0.460 OA
BRANCH  33  34
ATOM     34  C   UNL A   1      36.455  31.840  33.168  1.00  0.00     0.338 C 
ATOM     35  O   UNL A   1      36.783  32.145  34.315  1.00  0.00    -0.246 OA
BRANCH  34  36
ATOM     36  C   UNL A   1      37.339  31.046  32.287  1.00  0.00     0.060 A 
ATOM     37  C   UNL A   1      38.278  30.191  32.878  1.00  0.00     0.016 A 
ATOM     38  C   UNL A   1      37.338  31.224  30.901  1.00  0.00     0.016 A 
ATOM     39  C   UNL A   1      39.260  29.569  32.104  1.00  0.00     0.010 A 
ATOM     40  C   UNL A   1      38.341  30.617  30.127  1.00  0.00     0.010 A 
ATOM     41  C   UNL A   1      39.342  29.830  30.731  1.00  0.00    -0.014 A 
BRANCH  41  42
ATOM     42  C   UNL A   1      40.564  29.424  29.978  1.00  0.00     0.031 A 
ATOM     43  C   UNL A   1      40.640  28.063  29.373  1.00  0.00     0.074 A 
ATOM     44  C   UNL A   1      41.599  30.254  29.771  1.00  0.00     0.049 A 
ATOM     45  N   UNL A   1      41.601  27.547  28.650  1.00  0.00    -0.248 NA
ATOM     46  C   UNL A   1      39.492  27.175  29.592  1.00  0.00     0.031 C 
ATOM     47  C   UNL A   1      41.636  31.613  30.252  1.00  0.00     0.029 A 
ATOM     48  N   UNL A   1      42.812  30.090  29.136  1.00  0.00    -0.354 N 
ATOM     49  C   UNL A   1      41.162  26.287  28.296  1.00  0.00     0.074 A 
ATOM     50  C   UNL A   1      39.880  26.087  28.944  1.00  0.00     0.031 C 
ATOM     51  C   UNL A   1      42.838  32.136  29.968  1.00  0.00     0.029 A 
ATOM     52  C   UNL A   1      43.641  31.179  29.251  1.00  0.00     0.049 A 
ATOM     53  H   UNL A   1      43.060  29.272  28.648  1.00  0.00     0.167 HD
ATOM     54  C   UNL A   1      41.760  25.395  27.473  1.00  0.00     0.037 A 
ATOM     55  C   UNL A   1      44.897  31.434  28.838  1.00  0.00     0.037 A 
ATOM     56  C   UNL A   1      43.048  25.576  26.853  1.00  0.00     0.049 A 
ATOM     57  C   UNL A   1      45.573  30.405  27.998  1.00  0.00     0.074 A 
ATOM     58  C   UNL A   1      43.727  24.707  26.016  1.00  0.00     0.029 A 
ATOM     59  N   UNL A   1      43.863  26.690  27.008  1.00  0.00    -0.354 N 
ATOM     60  N   UNL A   1      45.122  29.233  27.634  1.00  0.00    -0.248 NA
ATOM     61  C   UNL A   1      46.901  30.741  27.474  1.00  0.00     0.031 C 
ATOM     62  C   UNL A   1      44.972  25.268  25.710  1.00  0.00     0.029 A 
ATOM     63  C   UNL A   1      45.050  26.515  26.304  1.00  0.00     0.049 A 
ATOM     64  H   UNL A   1      43.636  27.487  27.538  1.00  0.00     0.167 HD
ATOM     65  C   UNL A   1      46.100  28.695  26.821  1.00  0.00     0.074 A 
ATOM     66  C   UNL A   1      47.150  29.689  26.711  1.00  0.00     0.031 C 
ATOM     67  C   UNL A   1      46.116  27.480  26.226  1.00  0.00     0.037 A 
BRANCH  54  68
ATOM     68  C   UNL A   1      41.009  24.127  27.217  1.00  0.00     0.064 A 
ATOM     69  C   UNL A   1      41.412  22.910  27.791  1.00  0.00     0.173 A 
ATOM     70  C   UNL A   1      39.879  24.126  26.390  1.00  0.00     0.173 A 
ATOM     71  F   UNL A   1      42.504  22.858  28.568  1.00  0.00    -0.203 F 
ATOM     72  C   UNL A   1      40.722  21.733  27.523  1.00  0.00     0.198 A 
ATOM     73  C   UNL A   1      39.173  22.952  26.150  1.00  0.00     0.198 A 
ATOM     74  F   UNL A   1      39.462  25.263  25.813  1.00  0.00    -0.203 F 
ATOM     75  F   UNL A   1      41.155  20.573  28.037  1.00  0.00    -0.200 F 
ATOM     76  C   UNL A   1      39.599  21.756  26.710  1.00  0.00     0.200 A 
ATOM     77  F   UNL A   1      38.083  22.977  25.372  1.00  0.00    -0.200 F 
ATOM     78  F   UNL A   1      38.931  20.623  26.458  1.00  0.00    -0.200 F 
ENDBRANCH  54  68
BRANCH  55  79
ATOM     79  C   UNL A   1      45.586  32.714  29.171  1.00  0.00     0.064 A 
ATOM     80  C   UNL A   1      45.514  33.827  28.319  1.00  0.00     0.173 A 
ATOM     81  C   UNL A   1      46.352  32.844  30.341  1.00  0.00     0.173 A 
ATOM     82  F   UNL A   1      44.799  33.758  27.187  1.00  0.00    -0.203 F 
ATOM     83  C   UNL A   1      46.208  35.003  28.603  1.00  0.00     0.198 A 
ATOM     84  C   UNL A   1      47.027  34.030  30.636  1.00  0.00     0.198 A 
ATOM     85  F   UNL A   1      46.426  31.829  31.212  1.00  0.00    -0.203 F 
ATOM     86  F   UNL A   1      46.148  36.037  27.752  1.00  0.00    -0.200 F 
ATOM     87  C   UNL A   1      46.963  35.105  29.762  1.00  0.00     0.200 A 
ATOM     88  F   UNL A   1      47.710  34.143  31.783  1.00  0.00    -0.200 F 
ATOM     89  F   UNL A   1      47.608  36.244  30.047  1.00  0.00    -0.200 F 
ENDBRANCH  55  79
BRANCH  67  90
ATOM     90  C   UNL A   1      47.332  27.172  25.403  1.00  0.00     0.064 A 
ATOM     91  C   UNL A   1      48.434  26.495  25.949  1.00  0.00     0.173 A 
ATOM     92  C   UNL A   1      47.421  27.614  24.077  1.00  0.00     0.173 A 
ATOM     93  F   UNL A   1      48.408  26.079  27.225  1.00  0.00    -0.203 F 
ATOM     94  C   UNL A   1      49.601  26.321  25.213  1.00  0.00     0.198 A 
ATOM     95  C   UNL A   1      48.577  27.403  23.331  1.00  0.00     0.198 A 
ATOM     96  F   UNL A   1      46.398  28.273  23.511  1.00  0.00    -0.203 F 
ATOM     97  F   UNL A   1      50.673  25.756  25.786  1.00  0.00    -0.200 F 
ATOM     98  C   UNL A   1      49.671  26.772  23.904  1.00  0.00     0.200 A 
ATOM     99  F   UNL A   1      48.640  27.834  22.064  1.00  0.00    -0.200 F 
ATOM    100  F   UNL A   1      50.801  26.618  23.201  1.00  0.00    -0.200 F 
ENDBRANCH  67  90
ENDBRANCH  41  42
ENDBRANCH  34  36
ENDBRANCH  33  34
ENDBRANCH  32  33
ENDBRANCH  31  32
ENDBRANCH  30  31
ENDBRANCH  29  30
ENDBRANCH  28  29
ENDBRANCH  27  28
ENDBRANCH   1  27
TORSDOF 24
ENDMDL
MODEL 2
REMARK VINA RESULT:     -10.4      1.390      7.144
REMARK SMILES O=C(CCS(=O)(=O)N1CCN(C(=O)[C@@H]2CCCO2)CC1)OCCOCCOCCOCCOC(=O)c1ccc(-c2c3nc(c(-c4c(F)c(F)c(F)c(F)c4F)c4ccc([nH]4)c(-c4c(F)c(F)c(F)c(F)c4F)c4nc(c(-c5c(F)c(F)c(F)c(F)c5F)c5ccc2[nH]5)C=C4)C=C3)cc1
REMARK SMILES IDX 26 1 25 2 24 3 23 4 22 5 21 6 2 7 1 8 3 9 4 10 5 11 6 12
REMARK SMILES IDX 7 13 8 14 9 15 20 16 10 17 19 18 11 19 12 20 13 21 14 22
REMARK SMILES IDX 15 23 18 24 16 25 17 26 27 27 28 28 29 29 30 30 31 31 32 32
REMARK SMILES IDX 33 33 34 34 35 35 36 36 37 37 98 38 38 39 97 40 39 41 40 42
REMARK SMILES IDX 41 43 91 44 42 45 96 46 90 47 92 48 43 49 95 50 89 51 88 52
REMARK SMILES IDX 44 54 76 55 56 56 75 57 57 58 60 59 74 60 93 61 58 62 59 63
REMARK SMILES IDX 73 65 94 66 61 67 45 68 46 69 54 70 47 71 48 72 52 73 55 74
REMARK SMILES IDX 49 75 50 76 53 77 51 78 77 79 78 80 86 81 79 82 80 83 84 84
REMARK SMILES IDX 87 85 81 86 82 87 85 88 83 89 62 90 63 91 71 92 64 93 65 94
REMARK SMILES IDX 69 95 72 96 66 97 67 98 70 99 68 100
REMARK H PARENT 92 53 60 64
REMARK Flexibility Score: inf
ROOT
ATOM      1  C   UNL A   1      35.550  32.540  28.155  1.00  0.00     0.188 C 
ENDROOT
BRANCH   1   2
ATOM      2  C   UNL A   1      34.249  31.800  27.793  1.00  0.00     0.188 C 
BRANCH   2   3
ATOM      3  O   UNL A   1      34.473  30.487  27.285  1.00  0.00    -0.376 OA
BRANCH   3   4
ATOM      4  C   UNL A   1      33.699  30.015  26.193  1.00  0.00     0.202 C 
BRANCH   4   5
ATOM      5  C   UNL A   1      33.099  28.630  26.379  1.00  0.00     0.261 C 
BRANCH   5   6
ATOM      6  O   UNL A   1      32.360  28.248  25.206  1.00  0.00    -0.463 OA
BRANCH   6   7
ATOM      7  C   UNL A   1      31.785  27.052  25.010  1.00  0.00     0.306 C 
ATOM      8  O   UNL A   1      30.736  26.765  25.578  1.00  0.00    -0.252 OA
BRANCH   7   9
ATOM      9  C   UNL A   1      32.392  26.158  23.997  1.00  0.00     0.140 C 
BRANCH   9  10
ATOM     10  C   UNL A   1      33.726  25.673  24.493  1.00  0.00     0.166 C 
BRANCH  10  11
ATOM     11  S   UNL A   1      33.807  24.296  25.621  1.00  0.00     0.214 S 
ATOM     12  O   UNL A   1      35.215  24.145  25.946  1.00  0.00    -0.212 OA
ATOM     13  O   UNL A   1      32.854  24.559  26.676  1.00  0.00    -0.212 OA
BRANCH  11  14
ATOM     14  N   UNL A   1      33.383  22.828  24.972  1.00  0.00    -0.198 NA
ATOM     15  C   UNL A   1      32.069  22.409  24.379  1.00  0.00     0.123 C 
ATOM     16  C   UNL A   1      33.762  21.731  25.933  1.00  0.00     0.123 C 
ATOM     17  C   UNL A   1      32.310  21.103  23.542  1.00  0.00     0.136 C 
ATOM     18  C   UNL A   1      34.162  20.537  25.106  1.00  0.00     0.136 C 
ATOM     19  N   UNL A   1      33.049  20.074  24.285  1.00  0.00    -0.338 N 
ATOM     20  C   UNL A   1      32.923  18.749  23.915  1.00  0.00     0.251 C 
ATOM     21  O   UNL A   1      32.431  18.411  22.838  1.00  0.00    -0.272 OA
BRANCH  20  22
ATOM     22  C   UNL A   1      33.339  17.700  24.958  1.00  0.00     0.207 C 
ATOM     23  C   UNL A   1      34.493  16.819  24.520  1.00  0.00     0.044 C 
ATOM     24  O   UNL A   1      32.277  16.854  25.408  1.00  0.00    -0.368 OA
ATOM     25  C   UNL A   1      34.156  15.440  25.028  1.00  0.00     0.032 C 
ATOM     26  C   UNL A   1      32.719  15.496  25.492  1.00  0.00     0.161 C 
ENDBRANCH  20  22
ENDBRANCH  11  14
ENDBRANCH  10  11
ENDBRANCH   9  10
ENDBRANCH   7   9
ENDBRANCH   6   7
ENDBRANCH   5   6
ENDBRANCH   4   5
ENDBRANCH   3   4
ENDBRANCH   2   3
ENDBRANCH   1   2
BRANCH   1  27
ATOM     27  O   UNL A   1      35.404  33.955  28.256  1.00  0.00    -0.377 OA
BRANCH  27  28
ATOM     28  C   UNL A   1      34.087  34.439  28.014  1.00  0.00     0.188 C 
BRANCH  28  29
ATOM     29  C   UNL A   1      33.346  35.104  29.199  1.00  0.00     0.188 C 
BRANCH  29  30
ATOM     30  O   UNL A   1      33.250  34.532  30.496  1.00  0.00    -0.376 OA
BRANCH  30  31
ATOM     31  C   UNL A   1      34.327  34.656  31.403  1.00  0.00     0.202 C 
BRANCH  31  32
ATOM     32  C   UNL A   1      34.373  33.718  32.621  1.00  0.00     0.261 C 
BRANCH  32  33
ATOM     33  O   UNL A   1      34.945  32.414  32.413  1.00  0.00    -0.460 OA
BRANCH  33  34
ATOM     34  C   UNL A   1      36.044  32.138  33.141  1.00  0.00     0.338 C 
ATOM     35  O   UNL A   1      36.253  32.458  34.312  1.00  0.00    -0.246 OA
BRANCH  34  36
ATOM     36  C   UNL A   1      36.982  31.278  32.386  1.00  0.00     0.060 A 
ATOM     37  C   UNL A   1      38.163  30.864  33.018  1.00  0.00     0.016 A 
ATOM     38  C   UNL A   1      36.776  30.980  31.038  1.00  0.00     0.016 A 
ATOM     39  C   UNL A   1      39.167  30.218  32.294  1.00  0.00     0.010 A 
ATOM     40  C   UNL A   1      37.796  30.352  30.306  1.00  0.00     0.010 A 
ATOM     41  C   UNL A   1      39.022  30.017  30.916  1.00  0.00    -0.014 A 
BRANCH  41  42
ATOM     42  C   UNL A   1      40.208  29.623  30.102  1.00  0.00     0.031 A 
ATOM     43  C   UNL A   1      41.281  30.621  29.828  1.00  0.00     0.074 A 
ATOM     44  C   UNL A   1      40.387  28.376  29.634  1.00  0.00     0.049 A 
ATOM     45  N   UNL A   1      42.403  30.452  29.177  1.00  0.00    -0.248 NA
ATOM     46  C   UNL A   1      41.079  31.973  30.364  1.00  0.00     0.031 C 
ATOM     47  C   UNL A   1      39.456  27.298  29.868  1.00  0.00     0.029 A 
ATOM     48  N   UNL A   1      41.374  27.804  28.860  1.00  0.00    -0.354 N 
ATOM     49  C   UNL A   1      43.060  31.663  29.253  1.00  0.00     0.074 A 
ATOM     50  C   UNL A   1      42.180  32.581  29.949  1.00  0.00     0.031 C 
ATOM     51  C   UNL A   1      39.871  26.219  29.189  1.00  0.00     0.029 A 
ATOM     52  C   UNL A   1      41.110  26.503  28.509  1.00  0.00     0.049 A 
ATOM     53  H   UNL A   1      42.190  28.282  28.584  1.00  0.00     0.167 HD
ATOM     54  C   UNL A   1      44.303  31.967  28.812  1.00  0.00     0.037 A 
ATOM     55  C   UNL A   1      41.756  25.599  27.749  1.00  0.00     0.037 A 
ATOM     56  C   UNL A   1      45.168  31.068  28.091  1.00  0.00     0.049 A 
ATOM     57  C   UNL A   1      43.090  25.980  27.204  1.00  0.00     0.074 A 
ATOM     58  C   UNL A   1      46.439  31.311  27.598  1.00  0.00     0.029 A 
ATOM     59  N   UNL A   1      44.855  29.760  27.743  1.00  0.00    -0.354 N 
ATOM     60  N   UNL A   1      43.719  27.119  27.324  1.00  0.00    -0.248 NA
ATOM     61  C   UNL A   1      43.824  24.949  26.462  1.00  0.00     0.031 C 
ATOM     62  C   UNL A   1      46.871  30.174  26.907  1.00  0.00     0.029 A 
ATOM     63  C   UNL A   1      45.899  29.196  27.018  1.00  0.00     0.049 A 
ATOM     64  H   UNL A   1      44.017  29.299  27.976  1.00  0.00     0.167 HD
ATOM     65  C   UNL A   1      44.934  26.942  26.691  1.00  0.00     0.074 A 
ATOM     66  C   UNL A   1      44.969  25.569  26.225  1.00  0.00     0.031 C 
ATOM     67  C   UNL A   1      45.923  27.847  26.514  1.00  0.00     0.037 A 
BRANCH  54  68
ATOM     68  C   UNL A   1      44.783  33.355  29.098  1.00  0.00     0.064 A 
ATOM     69  C   UNL A   1      45.533  33.647  30.249  1.00  0.00     0.173 A 
ATOM     70  C   UNL A   1      44.487  34.403  28.218  1.00  0.00     0.173 A 
ATOM     71  F   UNL A   1      45.816  32.679  31.135  1.00  0.00    -0.203 F 
ATOM     72  C   UNL A   1      45.949  34.946  30.518  1.00  0.00     0.198 A 
ATOM     73  C   UNL A   1      44.933  35.695  28.474  1.00  0.00     0.198 A 
ATOM     74  F   UNL A   1      43.766  34.174  27.110  1.00  0.00    -0.203 F 
ATOM     75  F   UNL A   1      46.618  35.213  31.649  1.00  0.00    -0.200 F 
ATOM     76  C   UNL A   1      45.656  35.967  29.627  1.00  0.00     0.200 A 
ATOM     77  F   UNL A   1      44.657  36.680  27.609  1.00  0.00    -0.200 F 
ATOM     78  F   UNL A   1      46.063  37.217  29.883  1.00  0.00    -0.200 F 
ENDBRANCH  54  68
BRANCH  55  79
ATOM     79  C   UNL A   1      41.185  24.247  27.485  1.00  0.00     0.064 A 
ATOM     80  C   UNL A   1      41.722  23.096  28.082  1.00  0.00     0.173 A 
ATOM     81  C   UNL A   1      40.102  24.074  26.608  1.00  0.00     0.173 A 
ATOM     82  F   UNL A   1      42.759  23.202  28.925  1.00  0.00    -0.203 F 
ATOM     83  C   UNL A   1      41.225  21.827  27.787  1.00  0.00     0.198 A 
ATOM     84  C   UNL A   1      39.590  22.805  26.331  1.00  0.00     0.198 A 
ATOM     85  F   UNL A   1      39.522  25.140  26.038  1.00  0.00    -0.203 F 
ATOM     86  F   UNL A   1      41.782  20.744  28.347  1.00  0.00    -0.200 F 
ATOM     87  C   UNL A   1      40.158  21.682  26.913  1.00  0.00     0.200 A 
ATOM     88  F   UNL A   1      38.524  22.675  25.530  1.00  0.00    -0.200 F 
ATOM     89  F   UNL A   1      39.664  20.464  26.650  1.00  0.00    -0.200 F 
ENDBRANCH  55  79
BRANCH  67  90
ATOM     90  C   UNL A   1      47.130  27.358  25.771  1.00  0.00     0.064 A 
ATOM     91  C   UNL A   1      48.196  26.731  26.435  1.00  0.00     0.173 A 
ATOM     92  C   UNL A   1      47.251  27.577  24.392  1.00  0.00     0.173 A 
ATOM     93  F   UNL A   1      48.141  26.528  27.761  1.00  0.00    -0.203 F 
ATOM     94  C   UNL A   1      49.361  26.391  25.756  1.00  0.00     0.198 A 
ATOM     95  C   UNL A   1      48.402  27.198  23.708  1.00  0.00     0.198 A 
ATOM     96  F   UNL A   1      46.264  28.179  23.712  1.00  0.00    -0.203 F 
ATOM     97  F   UNL A   1      50.401  25.880  26.429  1.00  0.00    -0.200 F 
ATOM     98  C   UNL A   1      49.462  26.622  24.392  1.00  0.00     0.200 A 
ATOM     99  F   UNL A   1      48.496  27.416  22.390  1.00  0.00    -0.200 F 
ATOM    100  F   UNL A   1      50.590  26.308  23.741  1.00  0.00    -0.200 F 
ENDBRANCH  67  90
ENDBRANCH  41  42
ENDBRANCH  34  36
ENDBRANCH  33  34
ENDBRANCH  32  33
ENDBRANCH  31  32
ENDBRANCH  30  31
ENDBRANCH  29  30
ENDBRANCH  28  29
ENDBRANCH  27  28
ENDBRANCH   1  27
TORSDOF 24
ENDMDL
MODEL 3
REMARK VINA RESULT:     -10.1      1.040      2.026
REMARK SMILES O=C(CCS(=O)(=O)N1CCN(C(=O)[C@@H]2CCCO2)CC1)OCCOCCOCCOCCOC(=O)c1ccc(-c2c3nc(c(-c4c(F)c(F)c(F)c(F)c4F)c4ccc([nH]4)c(-c4c(F)c(F)c(F)c(F)c4F)c4nc(c(-c5c(F)c(F)c(F)c(F)c5F)c5ccc2[nH]5)C=C4)C=C3)cc1
REMARK SMILES IDX 26 1 25 2 24 3 23 4 22 5 21 6 2 7 1 8 3 9 4 10 5 11 6 12
REMARK SMILES IDX 7 13 8 14 9 15 20 16 10 17 19 18 11 19 12 20 13 21 14 22
REMARK SMILES IDX 15 23 18 24 16 25 17 26 27 27 28 28 29 29 30 30 31 31 32 32
REMARK SMILES IDX 33 33 34 34 35 35 36 36 37 37 98 38 38 39 97 40 39 41 40 42
REMARK SMILES IDX 41 43 91 44 42 45 96 46 90 47 92 48 43 49 95 50 89 51 88 52
REMARK SMILES IDX 44 54 76 55 56 56 75 57 57 58 60 59 74 60 93 61 58 62 59 63
REMARK SMILES IDX 73 65 94 66 61 67 45 68 46 69 54 70 47 71 48 72 52 73 55 74
REMARK SMILES IDX 49 75 50 76 53 77 51 78 77 79 78 80 86 81 79 82 80 83 84 84
REMARK SMILES IDX 87 85 81 86 82 87 85 88 83 89 62 90 63 91 71 92 64 93 65 94
REMARK SMILES IDX 69 95 72 96 66 97 67 98 70 99 68 100
REMARK H PARENT 92 53 60 64
REMARK Flexibility Score: inf
ROOT
ATOM      1  C   UNL A   1      35.176  33.274  28.106  1.00  0.00     0.188 C 
ENDROOT
BRANCH   1   2
ATOM      2  C   UNL A   1      33.735  32.944  27.674  1.00  0.00     0.188 C 
BRANCH   2   3
ATOM      3  O   UNL A   1      33.362  31.596  27.945  1.00  0.00    -0.376 OA
BRANCH   3   4
ATOM      4  C   UNL A   1      32.979  30.744  26.876  1.00  0.00     0.202 C 
BRANCH   4   5
ATOM      5  C   UNL A   1      32.347  29.427  27.295  1.00  0.00     0.261 C 
BRANCH   5   6
ATOM      6  O   UNL A   1      31.488  28.935  26.252  1.00  0.00    -0.463 OA
BRANCH   6   7
ATOM      7  C   UNL A   1      31.553  27.709  25.711  1.00  0.00     0.306 C 
ATOM      8  O   UNL A   1      31.807  26.733  26.409  1.00  0.00    -0.252 OA
BRANCH   7   9
ATOM      9  C   UNL A   1      31.184  27.570  24.284  1.00  0.00     0.140 C 
BRANCH   9  10
ATOM     10  C   UNL A   1      32.426  27.347  23.465  1.00  0.00     0.166 C 
BRANCH  10  11
ATOM     11  S   UNL A   1      32.566  25.894  22.443  1.00  0.00     0.214 S 
ATOM     12  O   UNL A   1      31.393  25.911  21.586  1.00  0.00    -0.212 OA
ATOM     13  O   UNL A   1      33.885  25.921  21.850  1.00  0.00    -0.212 OA
BRANCH  11  14
ATOM     14  N   UNL A   1      32.453  24.449  23.252  1.00  0.00    -0.198 NA
ATOM     15  C   UNL A   1      32.646  24.177  24.716  1.00  0.00     0.123 C 
ATOM     16  C   UNL A   1      33.278  23.412  22.536  1.00  0.00     0.123 C 
ATOM     17  C   UNL A   1      32.023  22.771  25.033  1.00  0.00     0.136 C 
ATOM     18  C   UNL A   1      32.570  22.093  22.700  1.00  0.00     0.136 C 
ATOM     19  N   UNL A   1      32.476  21.723  24.109  1.00  0.00    -0.338 N 
ATOM     20  C   UNL A   1      32.436  20.402  24.510  1.00  0.00     0.251 C 
ATOM     21  O   UNL A   1      31.802  20.034  25.500  1.00  0.00    -0.272 OA
BRANCH  20  22
ATOM     22  C   UNL A   1      33.306  19.414  23.717  1.00  0.00     0.207 C 
ATOM     23  C   UNL A   1      32.524  18.287  23.069  1.00  0.00     0.044 C 
ATOM     24  O   UNL A   1      34.384  18.839  24.460  1.00  0.00    -0.368 OA
ATOM     25  C   UNL A   1      33.388  17.062  23.227  1.00  0.00     0.032 C 
ATOM     26  C   UNL A   1      34.494  17.440  24.185  1.00  0.00     0.161 C 
ENDBRANCH  20  22
ENDBRANCH  11  14
ENDBRANCH  10  11
ENDBRANCH   9  10
ENDBRANCH   7   9
ENDBRANCH   6   7
ENDBRANCH   5   6
ENDBRANCH   4   5
ENDBRANCH   3   4
ENDBRANCH   2   3
ENDBRANCH   1   2
BRANCH   1  27
ATOM     27  O   UNL A   1      35.274  34.363  29.021  1.00  0.00    -0.377 OA
BRANCH  27  28
ATOM     28  C   UNL A   1      34.130  35.209  29.068  1.00  0.00     0.188 C 
BRANCH  28  29
ATOM     29  C   UNL A   1      33.515  35.495  30.459  1.00  0.00     0.188 C 
BRANCH  29  30
ATOM     30  O   UNL A   1      33.181  34.485  31.401  1.00  0.00    -0.376 OA
BRANCH  30  31
ATOM     31  C   UNL A   1      33.700  34.545  32.714  1.00  0.00     0.202 C 
BRANCH  31  32
ATOM     32  C   UNL A   1      34.260  33.258  33.343  1.00  0.00     0.261 C 
BRANCH  32  33
ATOM     33  O   UNL A   1      35.228  32.527  32.568  1.00  0.00    -0.460 OA
BRANCH  33  34
ATOM     34  C   UNL A   1      36.471  32.482  33.085  1.00  0.00     0.338 C 
ATOM     35  O   UNL A   1      36.844  32.968  34.153  1.00  0.00    -0.246 OA
BRANCH  34  36
ATOM     36  C   UNL A   1      37.369  31.658  32.246  1.00  0.00     0.060 A 
ATOM     37  C   UNL A   1      38.310  30.836  32.881  1.00  0.00     0.016 A 
ATOM     38  C   UNL A   1      37.379  31.776  30.854  1.00  0.00     0.016 A 
ATOM     39  C   UNL A   1      39.303  30.190  32.143  1.00  0.00     0.010 A 
ATOM     40  C   UNL A   1      38.393  31.145  30.115  1.00  0.00     0.010 A 
ATOM     41  C   UNL A   1      39.395  30.393  30.761  1.00  0.00    -0.014 A 
BRANCH  41  42
ATOM     42  C   UNL A   1      40.626  29.965  30.036  1.00  0.00     0.031 A 
ATOM     43  C   UNL A   1      40.704  28.593  29.458  1.00  0.00     0.074 A 
ATOM     44  C   UNL A   1      41.670  30.784  29.830  1.00  0.00     0.049 A 
ATOM     45  N   UNL A   1      41.673  28.057  28.761  1.00  0.00    -0.248 NA
ATOM     46  C   UNL A   1      39.547  27.716  29.674  1.00  0.00     0.031 C 
ATOM     47  C   UNL A   1      41.709  32.152  30.287  1.00  0.00     0.029 A 
ATOM     48  N   UNL A   1      42.893  30.601  29.219  1.00  0.00    -0.354 N 
ATOM     49  C   UNL A   1      41.231  26.794  28.423  1.00  0.00     0.074 A 
ATOM     50  C   UNL A   1      39.938  26.614  29.053  1.00  0.00     0.031 C 
ATOM     51  C   UNL A   1      42.918  32.662  30.013  1.00  0.00     0.029 A 
ATOM     52  C   UNL A   1      43.727  31.686  29.327  1.00  0.00     0.049 A 
ATOM     53  H   UNL A   1      43.144  29.772  28.750  1.00  0.00     0.167 HD
ATOM     54  C   UNL A   1      41.837  25.882  27.627  1.00  0.00     0.037 A 
ATOM     55  C   UNL A   1      44.991  31.926  28.930  1.00  0.00     0.037 A 
ATOM     56  C   UNL A   1      43.137  26.044  27.025  1.00  0.00     0.049 A 
ATOM     57  C   UNL A   1      45.674  30.877  28.121  1.00  0.00     0.074 A 
ATOM     58  C   UNL A   1      43.824  25.154  26.216  1.00  0.00     0.029 A 
ATOM     59  N   UNL A   1      43.956  27.155  27.173  1.00  0.00    -0.354 N 
ATOM     60  N   UNL A   1      45.222  29.701  27.771  1.00  0.00    -0.248 NA
ATOM     61  C   UNL A   1      47.013  31.195  27.613  1.00  0.00     0.031 C 
ATOM     62  C   UNL A   1      45.077  25.702  25.920  1.00  0.00     0.029 A 
ATOM     63  C   UNL A   1      45.153  26.960  26.492  1.00  0.00     0.049 A 
ATOM     64  H   UNL A   1      43.725  27.963  27.684  1.00  0.00     0.167 HD
ATOM     65  C   UNL A   1      46.209  29.142  26.985  1.00  0.00     0.074 A 
ATOM     66  C   UNL A   1      47.267  30.127  26.875  1.00  0.00     0.031 C 
ATOM     67  C   UNL A   1      46.227  27.916  26.413  1.00  0.00     0.037 A 
BRANCH  54  68
ATOM     68  C   UNL A   1      41.082  24.615  27.382  1.00  0.00     0.064 A 
ATOM     69  C   UNL A   1      41.457  23.410  28.000  1.00  0.00     0.173 A 
ATOM     70  C   UNL A   1      39.978  24.601  26.522  1.00  0.00     0.173 A 
ATOM     71  F   UNL A   1      42.525  23.369  28.810  1.00  0.00    -0.203 F 
ATOM     72  C   UNL A   1      40.764  22.232  27.742  1.00  0.00     0.198 A 
ATOM     73  C   UNL A   1      39.268  23.427  26.292  1.00  0.00     0.198 A 
ATOM     74  F   UNL A   1      39.588  25.726  25.903  1.00  0.00    -0.203 F 
ATOM     75  F   UNL A   1      41.170  21.082  28.299  1.00  0.00    -0.200 F 
ATOM     76  C   UNL A   1      39.666  22.243  26.896  1.00  0.00     0.200 A 
ATOM     77  F   UNL A   1      38.202  23.440  25.481  1.00  0.00    -0.200 F 
ATOM     78  F   UNL A   1      38.995  21.110  26.654  1.00  0.00    -0.200 F 
ENDBRANCH  54  68
BRANCH  55  79
ATOM     79  C   UNL A   1      45.682  33.208  29.251  1.00  0.00     0.064 A 
ATOM     80  C   UNL A   1      46.414  33.367  30.438  1.00  0.00     0.173 A 
ATOM     81  C   UNL A   1      45.604  34.312  28.387  1.00  0.00     0.173 A 
ATOM     82  F   UNL A   1      46.520  32.347  31.301  1.00  0.00    -0.203 F 
ATOM     83  C   UNL A   1      47.009  34.586  30.764  1.00  0.00     0.198 A 
ATOM     84  C   UNL A   1      46.219  35.525  28.704  1.00  0.00     0.198 A 
ATOM     85  F   UNL A   1      44.951  34.208  27.222  1.00  0.00    -0.203 F 
ATOM     86  F   UNL A   1      47.673  34.717  31.922  1.00  0.00    -0.200 F 
ATOM     87  C   UNL A   1      46.913  35.664  29.897  1.00  0.00     0.200 A 
ATOM     88  F   UNL A   1      46.171  36.546  27.838  1.00  0.00    -0.200 F 
ATOM     89  F   UNL A   1      47.507  36.826  30.200  1.00  0.00    -0.200 F 
ENDBRANCH  55  79
BRANCH  67  90
ATOM     90  C   UNL A   1      47.454  27.585  25.617  1.00  0.00     0.064 A 
ATOM     91  C   UNL A   1      47.500  27.776  24.227  1.00  0.00     0.173 A 
ATOM     92  C   UNL A   1      48.570  27.010  26.240  1.00  0.00     0.173 A 
ATOM     93  F   UNL A   1      46.443  28.294  23.581  1.00  0.00    -0.203 F 
ATOM     94  C   UNL A   1      48.596  27.353  23.483  1.00  0.00     0.198 A 
ATOM     95  C   UNL A   1      49.682  26.626  25.497  1.00  0.00     0.198 A 
ATOM     96  F   UNL A   1      48.574  26.799  27.564  1.00  0.00    -0.203 F 
ATOM     97  F   UNL A   1      48.577  27.461  22.148  1.00  0.00    -0.200 F 
ATOM     98  C   UNL A   1      49.688  26.782  24.119  1.00  0.00     0.200 A 
ATOM     99  F   UNL A   1      50.739  26.079  26.113  1.00  0.00    -0.200 F 
ATOM    100  F   UNL A   1      50.737  26.361  23.400  1.00  0.00    -0.200 F 
ENDBRANCH  67  90
ENDBRANCH  41  42
ENDBRANCH  34  36
ENDBRANCH  33  34
ENDBRANCH  32  33
ENDBRANCH  31  32
ENDBRANCH  30  31
ENDBRANCH  29  30
ENDBRANCH  28  29
ENDBRANCH  27  28
ENDBRANCH   1  27
TORSDOF 24
ENDMDL
