MODEL 1
REMARK VINA RESULT:     -10.0      0.000      0.000
REMARK SMILES Cc1c(NS(=O)(=O)c2ccc3c(c2)COC3)cccc1C(=O)OCCOCCOCCOCCOC(=O)c1ccc(-c2c3nc(c(-c4c(F)c(F)c(F)c(F)c4F)c4ccc([nH]4)c(-c4c(F)c(F)c(F)c(F)c4F)c4nc(c(-c5c(F)c(F)c(F)c(F)c5F)c5ccc2[nH]5)C=C4)C=C3)cc1
REMARK SMILES IDX 28 1 27 2 26 3 25 4 24 5 23 6 21 7 22 8 20 9 1 10 2 11 3 12
REMARK SMILES IDX 17 13 19 14 18 15 4 16 5 18 6 19 7 20 8 21 9 22 13 23 10 24
REMARK SMILES IDX 12 25 11 26 14 27 16 28 15 29 29 30 30 31 31 32 32 33 33 34
REMARK SMILES IDX 34 35 35 36 36 37 37 38 38 39 39 40 100 41 40 42 99 43 41 44
REMARK SMILES IDX 42 45 43 46 93 47 44 48 98 49 92 50 94 51 45 52 97 53 91 54
REMARK SMILES IDX 90 55 46 57 78 58 58 59 77 60 59 61 62 62 76 63 95 64 60 65
REMARK SMILES IDX 61 66 75 68 96 69 63 70 47 71 48 72 56 73 49 74 50 75 54 76
REMARK SMILES IDX 57 77 51 78 52 79 55 80 53 81 79 82 80 83 88 84 81 85 82 86
REMARK SMILES IDX 86 87 89 88 83 89 84 90 87 91 85 92 64 93 65 94 73 95 66 96
REMARK SMILES IDX 67 97 71 98 74 99 68 100 69 101 72 102 70 103
REMARK H PARENT 4 17 94 56 62 67
REMARK Flexibility Score: inf
ROOT
ATOM      1  C   UNL A   1      32.719  29.706  27.160  1.00  0.00     0.188 C 
ENDROOT
BRANCH   1   2
ATOM      2  C   UNL A   1      32.619  29.010  25.792  1.00  0.00     0.188 C 
BRANCH   2   3
ATOM      3  O   UNL A   1      33.651  29.167  24.834  1.00  0.00    -0.376 OA
BRANCH   3   4
ATOM      4  C   UNL A   1      33.261  29.604  23.543  1.00  0.00     0.202 C 
BRANCH   4   5
ATOM      5  C   UNL A   1      32.941  28.550  22.517  1.00  0.00     0.261 C 
BRANCH   5   6
ATOM      6  O   UNL A   1      33.885  27.493  22.631  1.00  0.00    -0.460 OA
BRANCH   6   7
ATOM      7  C   UNL A   1      33.365  26.316  22.283  1.00  0.00     0.338 C 
ATOM      8  O   UNL A   1      33.646  25.703  21.261  1.00  0.00    -0.246 OA
BRANCH   7   9
ATOM      9  C   UNL A   1      32.503  25.732  23.339  1.00  0.00     0.065 A 
ATOM     10  C   UNL A   1      34.079  25.677  25.410  1.00  0.00     0.047 C 
ATOM     11  C   UNL A   1      32.760  25.476  24.709  1.00  0.00    -0.012 A 
ATOM     12  C   UNL A   1      31.678  24.999  25.486  1.00  0.00     0.053 A 
ATOM     13  C   UNL A   1      30.379  25.058  24.976  1.00  0.00     0.027 A 
ATOM     14  C   UNL A   1      31.250  25.411  22.795  1.00  0.00     0.016 A 
ATOM     15  C   UNL A   1      30.176  25.156  23.612  1.00  0.00     0.003 A 
BRANCH  12  16
ATOM     16  N   UNL A   1      31.934  24.401  26.767  1.00  0.00    -0.279 N 
ATOM     17  H   UNL A   1      32.053  24.995  27.544  1.00  0.00     0.180 HD
BRANCH  16  18
ATOM     18  S   UNL A   1      32.040  22.732  27.013  1.00  0.00     0.261 S 
ATOM     19  O   UNL A   1      32.444  22.548  28.396  1.00  0.00    -0.201 OA
ATOM     20  O   UNL A   1      30.808  22.166  26.513  1.00  0.00    -0.201 OA
BRANCH  18  21
ATOM     21  C   UNL A   1      33.377  22.105  25.982  1.00  0.00     0.088 A 
ATOM     22  C   UNL A   1      33.119  22.094  24.594  1.00  0.00     0.022 A 
ATOM     23  C   UNL A   1      34.687  21.999  26.474  1.00  0.00     0.028 A 
ATOM     24  C   UNL A   1      34.169  22.160  23.681  1.00  0.00     0.008 A 
ATOM     25  C   UNL A   1      35.718  22.107  25.546  1.00  0.00    -0.015 A 
ATOM     26  C   UNL A   1      35.454  22.243  24.185  1.00  0.00    -0.017 A 
ATOM     27  C   UNL A   1      37.182  22.279  25.755  1.00  0.00     0.196 C 
ATOM     28  C   UNL A   1      36.706  22.609  23.472  1.00  0.00     0.196 C 
ATOM     29  O   UNL A   1      37.624  22.935  24.542  1.00  0.00    -0.372 OA
ENDBRANCH  18  21
ENDBRANCH  16  18
ENDBRANCH  12  16
ENDBRANCH   7   9
ENDBRANCH   6   7
ENDBRANCH   5   6
ENDBRANCH   4   5
ENDBRANCH   3   4
ENDBRANCH   2   3
ENDBRANCH   1   2
BRANCH   1  30
ATOM     30  O   UNL A   1      32.562  31.111  27.252  1.00  0.00    -0.377 OA
BRANCH  30  31
ATOM     31  C   UNL A   1      33.642  31.908  27.729  1.00  0.00     0.188 C 
BRANCH  31  32
ATOM     32  C   UNL A   1      35.010  31.271  27.899  1.00  0.00     0.188 C 
BRANCH  32  33
ATOM     33  O   UNL A   1      35.356  31.355  29.278  1.00  0.00    -0.376 OA
BRANCH  33  34
ATOM     34  C   UNL A   1      36.737  31.558  29.554  1.00  0.00     0.202 C 
BRANCH  34  35
ATOM     35  C   UNL A   1      37.373  30.400  30.329  1.00  0.00     0.261 C 
BRANCH  35  36
ATOM     36  O   UNL A   1      37.479  29.254  29.460  1.00  0.00    -0.460 OA
BRANCH  36  37
ATOM     37  C   UNL A   1      38.218  29.443  28.332  1.00  0.00     0.338 C 
ATOM     38  O   UNL A   1      37.848  30.053  27.343  1.00  0.00    -0.246 OA
BRANCH  37  39
ATOM     39  C   UNL A   1      39.427  28.568  28.364  1.00  0.00     0.060 A 
ATOM     40  C   UNL A   1      40.353  28.662  29.415  1.00  0.00     0.016 A 
ATOM     41  C   UNL A   1      39.785  27.889  27.210  1.00  0.00     0.016 A 
ATOM     42  C   UNL A   1      41.687  28.250  29.228  1.00  0.00     0.010 A 
ATOM     43  C   UNL A   1      41.113  27.568  27.013  1.00  0.00     0.010 A 
ATOM     44  C   UNL A   1      42.103  27.802  27.979  1.00  0.00    -0.014 A 
BRANCH  44  45
ATOM     45  C   UNL A   1      43.514  27.703  27.518  1.00  0.00     0.031 A 
ATOM     46  C   UNL A   1      44.377  28.939  27.532  1.00  0.00     0.074 A 
ATOM     47  C   UNL A   1      44.095  26.471  27.474  1.00  0.00     0.049 A 
ATOM     48  N   UNL A   1      45.655  28.958  27.358  1.00  0.00    -0.248 NA
ATOM     49  C   UNL A   1      43.873  30.285  27.812  1.00  0.00     0.031 C 
ATOM     50  C   UNL A   1      45.512  26.156  27.659  1.00  0.00     0.029 A 
ATOM     51  N   UNL A   1      43.539  25.199  27.339  1.00  0.00    -0.354 N 
ATOM     52  C   UNL A   1      46.164  30.145  27.853  1.00  0.00     0.074 A 
ATOM     53  C   UNL A   1      45.002  30.975  28.027  1.00  0.00     0.031 C 
ATOM     54  C   UNL A   1      45.746  24.840  27.589  1.00  0.00     0.029 A 
ATOM     55  C   UNL A   1      44.552  24.267  27.039  1.00  0.00     0.049 A 
ATOM     56  H   UNL A   1      42.583  24.984  27.437  1.00  0.00     0.167 HD
ATOM     57  C   UNL A   1      47.499  30.214  28.169  1.00  0.00     0.037 A 
ATOM     58  C   UNL A   1      44.577  23.663  25.812  1.00  0.00     0.037 A 
ATOM     59  C   UNL A   1      48.211  28.998  27.716  1.00  0.00     0.049 A 
ATOM     60  C   UNL A   1      45.734  24.242  24.992  1.00  0.00     0.074 A 
ATOM     61  C   UNL A   1      49.039  28.065  28.315  1.00  0.00     0.029 A 
ATOM     62  N   UNL A   1      47.948  28.494  26.437  1.00  0.00    -0.354 N 
ATOM     63  N   UNL A   1      46.139  25.496  25.089  1.00  0.00    -0.248 NA
ATOM     64  C   UNL A   1      46.719  23.398  24.312  1.00  0.00     0.031 C 
ATOM     65  C   UNL A   1      49.120  26.928  27.450  1.00  0.00     0.029 A 
ATOM     66  C   UNL A   1      48.414  27.203  26.282  1.00  0.00     0.049 A 
ATOM     67  H   UNL A   1      47.485  29.001  25.731  1.00  0.00     0.167 HD
ATOM     68  C   UNL A   1      47.452  25.576  24.690  1.00  0.00     0.074 A 
ATOM     69  C   UNL A   1      47.748  24.251  24.157  1.00  0.00     0.031 C 
ATOM     70  C   UNL A   1      48.363  26.560  24.977  1.00  0.00     0.037 A 
BRANCH  57  71
ATOM     71  C   UNL A   1      48.186  31.287  29.029  1.00  0.00     0.064 A 
ATOM     72  C   UNL A   1      48.161  31.201  30.446  1.00  0.00     0.173 A 
ATOM     73  C   UNL A   1      48.808  32.462  28.547  1.00  0.00     0.173 A 
ATOM     74  F   UNL A   1      47.630  30.138  31.064  1.00  0.00    -0.203 F 
ATOM     75  C   UNL A   1      48.685  32.195  31.288  1.00  0.00     0.198 A 
ATOM     76  C   UNL A   1      49.386  33.428  29.391  1.00  0.00     0.198 A 
ATOM     77  F   UNL A   1      48.849  32.755  27.245  1.00  0.00    -0.203 F 
ATOM     78  F   UNL A   1      48.583  32.068  32.620  1.00  0.00    -0.200 F 
ATOM     79  C   UNL A   1      49.312  33.304  30.761  1.00  0.00     0.200 A 
ATOM     80  F   UNL A   1      50.003  34.493  28.856  1.00  0.00    -0.200 F 
ATOM     81  F   UNL A   1      49.836  34.242  31.561  1.00  0.00    -0.200 F 
ENDBRANCH  57  71
BRANCH  58  82
ATOM     82  C   UNL A   1      43.210  23.131  25.500  1.00  0.00     0.064 A 
ATOM     83  C   UNL A   1      43.004  21.829  26.027  1.00  0.00     0.173 A 
ATOM     84  C   UNL A   1      42.094  23.986  25.495  1.00  0.00     0.173 A 
ATOM     85  F   UNL A   1      44.018  20.947  26.026  1.00  0.00    -0.203 F 
ATOM     86  C   UNL A   1      41.877  21.525  26.794  1.00  0.00     0.198 A 
ATOM     87  C   UNL A   1      40.938  23.648  26.218  1.00  0.00     0.198 A 
ATOM     88  F   UNL A   1      42.198  25.228  25.003  1.00  0.00    -0.203 F 
ATOM     89  F   UNL A   1      41.842  20.394  27.516  1.00  0.00    -0.200 F 
ATOM     90  C   UNL A   1      40.870  22.460  26.933  1.00  0.00     0.200 A 
ATOM     91  F   UNL A   1      39.946  24.542  26.352  1.00  0.00    -0.200 F 
ATOM     92  F   UNL A   1      39.884  22.258  27.821  1.00  0.00    -0.200 F 
ENDBRANCH  58  82
BRANCH  70  93
ATOM     93  C   UNL A   1      49.317  27.068  23.915  1.00  0.00     0.064 A 
ATOM     94  C   UNL A   1      50.697  26.813  23.959  1.00  0.00     0.173 A 
ATOM     95  C   UNL A   1      48.837  27.627  22.701  1.00  0.00     0.173 A 
ATOM     96  F   UNL A   1      51.267  26.204  25.007  1.00  0.00    -0.203 F 
ATOM     97  C   UNL A   1      51.537  27.127  22.892  1.00  0.00     0.198 A 
ATOM     98  C   UNL A   1      49.671  27.881  21.617  1.00  0.00     0.198 A 
ATOM     99  F   UNL A   1      47.541  27.902  22.502  1.00  0.00    -0.203 F 
ATOM    100  F   UNL A   1      52.850  26.889  23.000  1.00  0.00    -0.200 F 
ATOM    101  C   UNL A   1      51.024  27.646  21.719  1.00  0.00     0.200 A 
ATOM    102  F   UNL A   1      49.148  28.327  20.466  1.00  0.00    -0.200 F 
ATOM    103  F   UNL A   1      51.831  27.900  20.682  1.00  0.00    -0.200 F 
ENDBRANCH  70  93
ENDBRANCH  44  45
ENDBRANCH  37  39
ENDBRANCH  36  37
ENDBRANCH  35  36
ENDBRANCH  34  35
ENDBRANCH  33  34
ENDBRANCH  32  33
ENDBRANCH  31  32
ENDBRANCH  30  31
ENDBRANCH   1  30
TORSDOF 23
ENDMDL
MODEL 2
REMARK VINA RESULT:      -9.9      3.310      8.353
REMARK SMILES Cc1c(NS(=O)(=O)c2ccc3c(c2)COC3)cccc1C(=O)OCCOCCOCCOCCOC(=O)c1ccc(-c2c3nc(c(-c4c(F)c(F)c(F)c(F)c4F)c4ccc([nH]4)c(-c4c(F)c(F)c(F)c(F)c4F)c4nc(c(-c5c(F)c(F)c(F)c(F)c5F)c5ccc2[nH]5)C=C4)C=C3)cc1
REMARK SMILES IDX 28 1 27 2 26 3 25 4 24 5 23 6 21 7 22 8 20 9 1 10 2 11 3 12
REMARK SMILES IDX 17 13 19 14 18 15 4 16 5 18 6 19 7 20 8 21 9 22 13 23 10 24
REMARK SMILES IDX 12 25 11 26 14 27 16 28 15 29 29 30 30 31 31 32 32 33 33 34
REMARK SMILES IDX 34 35 35 36 36 37 37 38 38 39 39 40 100 41 40 42 99 43 41 44
REMARK SMILES IDX 42 45 43 46 93 47 44 48 98 49 92 50 94 51 45 52 97 53 91 54
REMARK SMILES IDX 90 55 46 57 78 58 58 59 77 60 59 61 62 62 76 63 95 64 60 65
REMARK SMILES IDX 61 66 75 68 96 69 63 70 47 71 48 72 56 73 49 74 50 75 54 76
REMARK SMILES IDX 57 77 51 78 52 79 55 80 53 81 79 82 80 83 88 84 81 85 82 86
REMARK SMILES IDX 86 87 89 88 83 89 84 90 87 91 85 92 64 93 65 94 73 95 66 96
REMARK SMILES IDX 67 97 71 98 74 99 68 100 69 101 72 102 70 103
REMARK H PARENT 4 17 94 56 62 67
REMARK Flexibility Score: inf
ROOT
ATOM      1  C   UNL A   1      36.003  32.112  29.885  1.00  0.00     0.188 C 
ENDROOT
BRANCH   1   2
ATOM      2  C   UNL A   1      36.057  32.781  28.501  1.00  0.00     0.188 C 
BRANCH   2   3
ATOM      3  O   UNL A   1      34.859  33.115  27.822  1.00  0.00    -0.376 OA
BRANCH   3   4
ATOM      4  C   UNL A   1      33.788  32.193  27.930  1.00  0.00     0.202 C 
BRANCH   4   5
ATOM      5  C   UNL A   1      33.941  30.863  27.241  1.00  0.00     0.261 C 
BRANCH   5   6
ATOM      6  O   UNL A   1      32.768  30.091  27.462  1.00  0.00    -0.460 OA
BRANCH   6   7
ATOM      7  C   UNL A   1      32.164  29.759  26.321  1.00  0.00     0.338 C 
ATOM      8  O   UNL A   1      31.628  30.552  25.559  1.00  0.00    -0.246 OA
BRANCH   7   9
ATOM      9  C   UNL A   1      32.329  28.326  25.977  1.00  0.00     0.065 A 
ATOM     10  C   UNL A   1      34.148  28.383  24.114  1.00  0.00     0.047 C 
ATOM     11  C   UNL A   1      33.201  27.688  25.059  1.00  0.00    -0.012 A 
ATOM     12  C   UNL A   1      33.186  26.272  25.039  1.00  0.00     0.053 A 
ATOM     13  C   UNL A   1      32.551  25.572  26.066  1.00  0.00     0.027 A 
ATOM     14  C   UNL A   1      31.432  27.557  26.733  1.00  0.00     0.016 A 
ATOM     15  C   UNL A   1      31.592  26.197  26.841  1.00  0.00     0.003 A 
BRANCH  12  16
ATOM     16  N   UNL A   1      33.769  25.573  23.927  1.00  0.00    -0.279 N 
ATOM     17  H   UNL A   1      34.747  25.465  23.906  1.00  0.00     0.180 HD
BRANCH  16  18
ATOM     18  S   UNL A   1      32.864  24.925  22.655  1.00  0.00     0.261 S 
ATOM     19  O   UNL A   1      33.638  25.152  21.447  1.00  0.00    -0.201 OA
ATOM     20  O   UNL A   1      32.486  23.590  23.061  1.00  0.00    -0.201 OA
BRANCH  18  21
ATOM     21  C   UNL A   1      31.351  25.889  22.504  1.00  0.00     0.088 A 
ATOM     22  C   UNL A   1      30.292  25.493  23.350  1.00  0.00     0.022 A 
ATOM     23  C   UNL A   1      31.350  27.150  21.887  1.00  0.00     0.028 A 
ATOM     24  C   UNL A   1      29.316  26.410  23.733  1.00  0.00     0.008 A 
ATOM     25  C   UNL A   1      30.388  28.059  22.317  1.00  0.00    -0.015 A 
ATOM     26  C   UNL A   1      29.431  27.705  23.264  1.00  0.00    -0.017 A 
ATOM     27  C   UNL A   1      30.265  29.519  22.055  1.00  0.00     0.196 C 
ATOM     28  C   UNL A   1      28.722  28.926  23.732  1.00  0.00     0.196 C 
ATOM     29  O   UNL A   1      29.518  30.008  23.196  1.00  0.00    -0.372 OA
ENDBRANCH  18  21
ENDBRANCH  16  18
ENDBRANCH  12  16
ENDBRANCH   7   9
ENDBRANCH   6   7
ENDBRANCH   5   6
ENDBRANCH   4   5
ENDBRANCH   3   4
ENDBRANCH   2   3
ENDBRANCH   1   2
BRANCH   1  30
ATOM     30  O   UNL A   1      35.788  32.899  31.043  1.00  0.00    -0.377 OA
BRANCH  30  31
ATOM     31  C   UNL A   1      35.471  32.259  32.276  1.00  0.00     0.188 C 
BRANCH  31  32
ATOM     32  C   UNL A   1      35.813  32.959  33.580  1.00  0.00     0.188 C 
BRANCH  32  33
ATOM     33  O   UNL A   1      36.510  32.025  34.400  1.00  0.00    -0.376 OA
BRANCH  33  34
ATOM     34  C   UNL A   1      37.660  32.532  35.066  1.00  0.00     0.202 C 
BRANCH  34  35
ATOM     35  C   UNL A   1      38.944  32.395  34.241  1.00  0.00     0.261 C 
BRANCH  35  36
ATOM     36  O   UNL A   1      39.566  33.691  34.120  1.00  0.00    -0.460 OA
BRANCH  36  37
ATOM     37  C   UNL A   1      39.116  34.460  33.091  1.00  0.00     0.338 C 
ATOM     38  O   UNL A   1      38.068  35.083  33.085  1.00  0.00    -0.246 OA
BRANCH  37  39
ATOM     39  C   UNL A   1      39.942  34.211  31.872  1.00  0.00     0.060 A 
ATOM     40  C   UNL A   1      39.449  33.421  30.821  1.00  0.00     0.016 A 
ATOM     41  C   UNL A   1      41.296  34.503  31.917  1.00  0.00     0.016 A 
ATOM     42  C   UNL A   1      40.338  32.773  29.941  1.00  0.00     0.010 A 
ATOM     43  C   UNL A   1      42.156  33.795  31.103  1.00  0.00     0.010 A 
ATOM     44  C   UNL A   1      41.710  32.868  30.149  1.00  0.00    -0.014 A 
BRANCH  44  45
ATOM     45  C   UNL A   1      42.739  31.963  29.573  1.00  0.00     0.031 A 
ATOM     46  C   UNL A   1      42.616  30.477  29.798  1.00  0.00     0.074 A 
ATOM     47  C   UNL A   1      43.520  32.433  28.560  1.00  0.00     0.049 A 
ATOM     48  N   UNL A   1      43.309  29.572  29.195  1.00  0.00    -0.248 NA
ATOM     49  C   UNL A   1      41.634  29.864  30.695  1.00  0.00     0.031 C 
ATOM     50  C   UNL A   1      44.118  31.656  27.474  1.00  0.00     0.029 A 
ATOM     51  N   UNL A   1      43.891  33.732  28.215  1.00  0.00    -0.354 N 
ATOM     52  C   UNL A   1      42.662  28.354  29.304  1.00  0.00     0.074 A 
ATOM     53  C   UNL A   1      41.682  28.574  30.334  1.00  0.00     0.031 C 
ATOM     54  C   UNL A   1      44.801  32.430  26.622  1.00  0.00     0.029 A 
ATOM     55  C   UNL A   1      44.948  33.694  27.284  1.00  0.00     0.049 A 
ATOM     56  H   UNL A   1      43.477  34.553  28.568  1.00  0.00     0.167 HD
ATOM     57  C   UNL A   1      42.966  27.358  28.409  1.00  0.00     0.037 A 
ATOM     58  C   UNL A   1      46.187  34.144  27.646  1.00  0.00     0.037 A 
ATOM     59  C   UNL A   1      44.128  27.737  27.574  1.00  0.00     0.049 A 
ATOM     60  C   UNL A   1      47.126  32.946  27.818  1.00  0.00     0.074 A 
ATOM     61  C   UNL A   1      44.380  27.801  26.214  1.00  0.00     0.029 A 
ATOM     62  N   UNL A   1      45.243  28.321  28.185  1.00  0.00    -0.354 N 
ATOM     63  N   UNL A   1      46.726  31.767  28.260  1.00  0.00    -0.248 NA
ATOM     64  C   UNL A   1      48.442  32.876  27.180  1.00  0.00     0.031 C 
ATOM     65  C   UNL A   1      45.565  28.580  26.022  1.00  0.00     0.029 A 
ATOM     66  C   UNL A   1      46.086  28.917  27.268  1.00  0.00     0.049 A 
ATOM     67  H   UNL A   1      45.407  28.308  29.156  1.00  0.00     0.167 HD
ATOM     68  C   UNL A   1      47.593  30.800  27.807  1.00  0.00     0.074 A 
ATOM     69  C   UNL A   1      48.679  31.552  27.188  1.00  0.00     0.031 C 
ATOM     70  C   UNL A   1      47.371  29.452  27.696  1.00  0.00     0.037 A 
BRANCH  57  71
ATOM     71  C   UNL A   1      42.149  26.085  28.136  1.00  0.00     0.064 A 
ATOM     72  C   UNL A   1      40.953  26.146  27.375  1.00  0.00     0.173 A 
ATOM     73  C   UNL A   1      42.422  24.799  28.655  1.00  0.00     0.173 A 
ATOM     74  F   UNL A   1      40.562  27.287  26.791  1.00  0.00    -0.203 F 
ATOM     75  C   UNL A   1      40.112  25.040  27.171  1.00  0.00     0.198 A 
ATOM     76  C   UNL A   1      41.610  23.678  28.400  1.00  0.00     0.198 A 
ATOM     77  F   UNL A   1      43.458  24.569  29.466  1.00  0.00    -0.203 F 
ATOM     78  F   UNL A   1      38.971  25.183  26.478  1.00  0.00    -0.200 F 
ATOM     79  C   UNL A   1      40.448  23.800  27.671  1.00  0.00     0.200 A 
ATOM     80  F   UNL A   1      41.963  22.478  28.886  1.00  0.00    -0.200 F 
ATOM     81  F   UNL A   1      39.660  22.737  27.458  1.00  0.00    -0.200 F 
ENDBRANCH  57  71
BRANCH  58  82
ATOM     82  C   UNL A   1      46.050  35.492  28.289  1.00  0.00     0.064 A 
ATOM     83  C   UNL A   1      45.591  36.481  27.379  1.00  0.00     0.173 A 
ATOM     84  C   UNL A   1      45.600  35.609  29.616  1.00  0.00     0.173 A 
ATOM     85  F   UNL A   1      46.013  36.452  26.103  1.00  0.00    -0.203 F 
ATOM     86  C   UNL A   1      44.509  37.308  27.689  1.00  0.00     0.198 A 
ATOM     87  C   UNL A   1      44.552  36.488  29.936  1.00  0.00     0.198 A 
ATOM     88  F   UNL A   1      45.996  34.725  30.542  1.00  0.00    -0.203 F 
ATOM     89  F   UNL A   1      43.913  38.023  26.723  1.00  0.00    -0.200 F 
ATOM     90  C   UNL A   1      43.956  37.268  28.954  1.00  0.00     0.200 A 
ATOM     91  F   UNL A   1      44.013  36.469  31.164  1.00  0.00    -0.200 F 
ATOM     92  F   UNL A   1      42.801  37.906  29.203  1.00  0.00    -0.200 F 
ENDBRANCH  58  82
BRANCH  70  93
ATOM     93  C   UNL A   1      48.443  28.454  28.084  1.00  0.00     0.064 A 
ATOM     94  C   UNL A   1      48.682  28.085  29.417  1.00  0.00     0.173 A 
ATOM     95  C   UNL A   1      49.103  27.665  27.104  1.00  0.00     0.173 A 
ATOM     96  F   UNL A   1      48.052  28.685  30.436  1.00  0.00    -0.203 F 
ATOM     97  C   UNL A   1      49.541  27.039  29.748  1.00  0.00     0.198 A 
ATOM     98  C   UNL A   1      49.911  26.584  27.440  1.00  0.00     0.198 A 
ATOM     99  F   UNL A   1      48.953  27.881  25.790  1.00  0.00    -0.203 F 
ATOM    100  F   UNL A   1      49.754  26.750  31.038  1.00  0.00    -0.200 F 
ATOM    101  C   UNL A   1      50.142  26.281  28.763  1.00  0.00     0.200 A 
ATOM    102  F   UNL A   1      50.437  25.821  26.471  1.00  0.00    -0.200 F 
ATOM    103  F   UNL A   1      50.928  25.248  29.089  1.00  0.00    -0.200 F 
ENDBRANCH  70  93
ENDBRANCH  44  45
ENDBRANCH  37  39
ENDBRANCH  36  37
ENDBRANCH  35  36
ENDBRANCH  34  35
ENDBRANCH  33  34
ENDBRANCH  32  33
ENDBRANCH  31  32
ENDBRANCH  30  31
ENDBRANCH   1  30
TORSDOF 23
ENDMDL
MODEL 3
REMARK VINA RESULT:      -9.9      2.988      7.909
REMARK SMILES Cc1c(NS(=O)(=O)c2ccc3c(c2)COC3)cccc1C(=O)OCCOCCOCCOCCOC(=O)c1ccc(-c2c3nc(c(-c4c(F)c(F)c(F)c(F)c4F)c4ccc([nH]4)c(-c4c(F)c(F)c(F)c(F)c4F)c4nc(c(-c5c(F)c(F)c(F)c(F)c5F)c5ccc2[nH]5)C=C4)C=C3)cc1
REMARK SMILES IDX 28 1 27 2 26 3 25 4 24 5 23 6 21 7 22 8 20 9 1 10 2 11 3 12
REMARK SMILES IDX 17 13 19 14 18 15 4 16 5 18 6 19 7 20 8 21 9 22 13 23 10 24
REMARK SMILES IDX 12 25 11 26 14 27 16 28 15 29 29 30 30 31 31 32 32 33 33 34
REMARK SMILES IDX 34 35 35 36 36 37 37 38 38 39 39 40 100 41 40 42 99 43 41 44
REMARK SMILES IDX 42 45 43 46 93 47 44 48 98 49 92 50 94 51 45 52 97 53 91 54
REMARK SMILES IDX 90 55 46 57 78 58 58 59 77 60 59 61 62 62 76 63 95 64 60 65
REMARK SMILES IDX 61 66 75 68 96 69 63 70 47 71 48 72 56 73 49 74 50 75 54 76
REMARK SMILES IDX 57 77 51 78 52 79 55 80 53 81 79 82 80 83 88 84 81 85 82 86
REMARK SMILES IDX 86 87 89 88 83 89 84 90 87 91 85 92 64 93 65 94 73 95 66 96
REMARK SMILES IDX 67 97 71 98 74 99 68 100 69 101 72 102 70 103
REMARK H PARENT 4 17 94 56 62 67
REMARK Flexibility Score: inf
ROOT
ATOM      1  C   UNL A   1      34.828  31.978  29.645  1.00  0.00     0.188 C 
ENDROOT
BRANCH   1   2
ATOM      2  C   UNL A   1      34.273  32.387  28.270  1.00  0.00     0.188 C 
BRANCH   2   3
ATOM      3  O   UNL A   1      33.848  31.398  27.349  1.00  0.00    -0.376 OA
BRANCH   3   4
ATOM      4  C   UNL A   1      34.274  30.069  27.600  1.00  0.00     0.202 C 
BRANCH   4   5
ATOM      5  C   UNL A   1      34.199  29.087  26.462  1.00  0.00     0.261 C 
BRANCH   5   6
ATOM      6  O   UNL A   1      33.401  27.980  26.859  1.00  0.00    -0.460 OA
BRANCH   6   7
ATOM      7  C   UNL A   1      32.114  28.156  26.561  1.00  0.00     0.338 C 
ATOM      8  O   UNL A   1      31.293  28.686  27.299  1.00  0.00    -0.246 OA
BRANCH   7   9
ATOM      9  C   UNL A   1      31.788  27.776  25.165  1.00  0.00     0.065 A 
ATOM     10  C   UNL A   1      32.142  25.197  25.169  1.00  0.00     0.047 C 
ATOM     11  C   UNL A   1      31.750  26.507  24.535  1.00  0.00    -0.012 A 
ATOM     12  C   UNL A   1      31.294  26.470  23.196  1.00  0.00     0.053 A 
ATOM     13  C   UNL A   1      30.659  27.587  22.649  1.00  0.00     0.027 A 
ATOM     14  C   UNL A   1      31.483  28.929  24.426  1.00  0.00     0.016 A 
ATOM     15  C   UNL A   1      30.848  28.835  23.212  1.00  0.00     0.003 A 
BRANCH  12  16
ATOM     16  N   UNL A   1      31.546  25.305  22.393  1.00  0.00    -0.279 N 
ATOM     17  H   UNL A   1      30.803  24.680  22.232  1.00  0.00     0.180 HD
BRANCH  16  18
ATOM     18  S   UNL A   1      33.051  24.952  21.709  1.00  0.00     0.261 S 
ATOM     19  O   UNL A   1      32.807  24.684  20.302  1.00  0.00    -0.201 OA
ATOM     20  O   UNL A   1      33.947  26.007  22.125  1.00  0.00    -0.201 OA
BRANCH  18  21
ATOM     21  C   UNL A   1      33.648  23.420  22.444  1.00  0.00     0.088 A 
ATOM     22  C   UNL A   1      34.922  23.493  23.047  1.00  0.00     0.022 A 
ATOM     23  C   UNL A   1      32.772  22.361  22.732  1.00  0.00     0.028 A 
ATOM     24  C   UNL A   1      35.268  22.616  24.073  1.00  0.00     0.008 A 
ATOM     25  C   UNL A   1      33.122  21.525  23.787  1.00  0.00    -0.015 A 
ATOM     26  C   UNL A   1      34.321  21.693  24.475  1.00  0.00    -0.017 A 
ATOM     27  C   UNL A   1      32.323  20.486  24.492  1.00  0.00     0.196 C 
ATOM     28  C   UNL A   1      34.309  20.855  25.704  1.00  0.00     0.196 C 
ATOM     29  O   UNL A   1      32.932  20.420  25.805  1.00  0.00    -0.372 OA
ENDBRANCH  18  21
ENDBRANCH  16  18
ENDBRANCH  12  16
ENDBRANCH   7   9
ENDBRANCH   6   7
ENDBRANCH   5   6
ENDBRANCH   4   5
ENDBRANCH   3   4
ENDBRANCH   2   3
ENDBRANCH   1   2
BRANCH   1  30
ATOM     30  O   UNL A   1      36.224  32.016  29.885  1.00  0.00    -0.377 OA
BRANCH  30  31
ATOM     31  C   UNL A   1      36.956  30.797  29.955  1.00  0.00     0.188 C 
BRANCH  31  32
ATOM     32  C   UNL A   1      36.502  29.717  30.922  1.00  0.00     0.188 C 
BRANCH  32  33
ATOM     33  O   UNL A   1      36.427  30.303  32.217  1.00  0.00    -0.376 OA
BRANCH  33  34
ATOM     34  C   UNL A   1      37.459  29.930  33.122  1.00  0.00     0.202 C 
BRANCH  34  35
ATOM     35  C   UNL A   1      38.241  31.127  33.672  1.00  0.00     0.261 C 
BRANCH  35  36
ATOM     36  O   UNL A   1      37.758  32.333  33.046  1.00  0.00    -0.460 OA
BRANCH  36  37
ATOM     37  C   UNL A   1      38.575  33.416  33.158  1.00  0.00     0.338 C 
ATOM     38  O   UNL A   1      38.352  34.395  33.850  1.00  0.00    -0.246 OA
BRANCH  37  39
ATOM     39  C   UNL A   1      39.636  33.364  32.110  1.00  0.00     0.060 A 
ATOM     40  C   UNL A   1      39.316  33.043  30.780  1.00  0.00     0.016 A 
ATOM     41  C   UNL A   1      40.963  33.329  32.510  1.00  0.00     0.016 A 
ATOM     42  C   UNL A   1      40.295  32.506  29.922  1.00  0.00     0.010 A 
ATOM     43  C   UNL A   1      41.890  32.723  31.686  1.00  0.00     0.010 A 
ATOM     44  C   UNL A   1      41.570  32.237  30.410  1.00  0.00    -0.014 A 
BRANCH  44  45
ATOM     45  C   UNL A   1      42.571  31.340  29.773  1.00  0.00     0.031 A 
ATOM     46  C   UNL A   1      42.400  29.847  29.896  1.00  0.00     0.074 A 
ATOM     47  C   UNL A   1      43.368  31.852  28.793  1.00  0.00     0.049 A 
ATOM     48  N   UNL A   1      43.065  28.964  29.233  1.00  0.00    -0.248 NA
ATOM     49  C   UNL A   1      41.398  29.207  30.751  1.00  0.00     0.031 C 
ATOM     50  C   UNL A   1      43.942  31.132  27.657  1.00  0.00     0.029 A 
ATOM     51  N   UNL A   1      43.780  33.160  28.537  1.00  0.00    -0.354 N 
ATOM     52  C   UNL A   1      42.379  27.762  29.260  1.00  0.00     0.074 A 
ATOM     53  C   UNL A   1      41.405  27.943  30.304  1.00  0.00     0.031 C 
ATOM     54  C   UNL A   1      44.650  31.940  26.858  1.00  0.00     0.029 A 
ATOM     55  C   UNL A   1      44.836  33.150  27.604  1.00  0.00     0.049 A 
ATOM     56  H   UNL A   1      43.392  33.967  28.945  1.00  0.00     0.167 HD
ATOM     57  C   UNL A   1      42.652  26.820  28.299  1.00  0.00     0.037 A 
ATOM     58  C   UNL A   1      46.089  33.536  27.995  1.00  0.00     0.037 A 
ATOM     59  C   UNL A   1      43.827  27.218  27.491  1.00  0.00     0.049 A 
ATOM     60  C   UNL A   1      46.989  32.299  28.085  1.00  0.00     0.074 A 
ATOM     61  C   UNL A   1      44.082  27.365  26.138  1.00  0.00     0.029 A 
ATOM     62  N   UNL A   1      44.959  27.723  28.139  1.00  0.00    -0.354 N 
ATOM     63  N   UNL A   1      46.551  31.106  28.446  1.00  0.00    -0.248 NA
ATOM     64  C   UNL A   1      48.303  32.231  27.442  1.00  0.00     0.031 C 
ATOM     65  C   UNL A   1      45.292  28.118  25.998  1.00  0.00     0.029 A 
ATOM     66  C   UNL A   1      45.821  28.353  27.264  1.00  0.00     0.049 A 
ATOM     67  H   UNL A   1      45.121  27.638  29.107  1.00  0.00     0.167 HD
ATOM     68  C   UNL A   1      47.387  30.145  27.927  1.00  0.00     0.074 A 
ATOM     69  C   UNL A   1      48.498  30.902  27.360  1.00  0.00     0.031 C 
ATOM     70  C   UNL A   1      47.122  28.815  27.726  1.00  0.00     0.037 A 
BRANCH  57  71
ATOM     71  C   UNL A   1      41.795  25.595  27.941  1.00  0.00     0.064 A 
ATOM     72  C   UNL A   1      40.554  25.754  27.272  1.00  0.00     0.173 A 
ATOM     73  C   UNL A   1      42.077  24.255  28.295  1.00  0.00     0.173 A 
ATOM     74  F   UNL A   1      40.148  26.958  26.846  1.00  0.00    -0.203 F 
ATOM     75  C   UNL A   1      39.681  24.688  27.003  1.00  0.00     0.198 A 
ATOM     76  C   UNL A   1      41.229  23.180  27.972  1.00  0.00     0.198 A 
ATOM     77  F   UNL A   1      43.159  23.925  29.005  1.00  0.00    -0.203 F 
ATOM     78  F   UNL A   1      38.501  24.921  26.408  1.00  0.00    -0.200 F 
ATOM     79  C   UNL A   1      40.025  23.396  27.340  1.00  0.00     0.200 A 
ATOM     80  F   UNL A   1      41.590  21.929  28.297  1.00  0.00    -0.200 F 
ATOM     81  F   UNL A   1      39.205  22.373  27.062  1.00  0.00    -0.200 F 
ENDBRANCH  57  71
BRANCH  58  82
ATOM     82  C   UNL A   1      45.994  34.841  28.728  1.00  0.00     0.064 A 
ATOM     83  C   UNL A   1      45.745  35.934  27.856  1.00  0.00     0.173 A 
ATOM     84  C   UNL A   1      45.392  34.906  29.997  1.00  0.00     0.173 A 
ATOM     85  F   UNL A   1      46.321  35.955  26.642  1.00  0.00    -0.203 F 
ATOM     86  C   UNL A   1      44.712  36.840  28.103  1.00  0.00     0.198 A 
ATOM     87  C   UNL A   1      44.396  35.861  30.262  1.00  0.00     0.198 A 
ATOM     88  F   UNL A   1      45.586  33.923  30.886  1.00  0.00    -0.203 F 
ATOM     89  F   UNL A   1      44.311  37.680  27.136  1.00  0.00    -0.200 F 
ATOM     90  C   UNL A   1      44.002  36.765  29.285  1.00  0.00     0.200 A 
ATOM     91  F   UNL A   1      43.705  35.807  31.411  1.00  0.00    -0.200 F 
ATOM     92  F   UNL A   1      42.888  37.496  29.447  1.00  0.00    -0.200 F 
ENDBRANCH  58  82
BRANCH  70  93
ATOM     93  C   UNL A   1      48.162  27.760  28.044  1.00  0.00     0.064 A 
ATOM     94  C   UNL A   1      48.371  27.277  29.345  1.00  0.00     0.173 A 
ATOM     95  C   UNL A   1      48.815  27.035  27.012  1.00  0.00     0.173 A 
ATOM     96  F   UNL A   1      47.742  27.810  30.402  1.00  0.00    -0.203 F 
ATOM     97  C   UNL A   1      49.197  26.184  29.601  1.00  0.00     0.198 A 
ATOM     98  C   UNL A   1      49.588  25.908  27.268  1.00  0.00     0.198 A 
ATOM     99  F   UNL A   1      48.690  27.361  25.718  1.00  0.00    -0.203 F 
ATOM    100  F   UNL A   1      49.383  25.785  30.866  1.00  0.00    -0.200 F 
ATOM    101  C   UNL A   1      49.792  25.492  28.564  1.00  0.00     0.200 A 
ATOM    102  F   UNL A   1      50.109  25.213  26.246  1.00  0.00    -0.200 F 
ATOM    103  F   UNL A   1      50.545  24.415  28.815  1.00  0.00    -0.200 F 
ENDBRANCH  70  93
ENDBRANCH  44  45
ENDBRANCH  37  39
ENDBRANCH  36  37
ENDBRANCH  35  36
ENDBRANCH  34  35
ENDBRANCH  33  34
ENDBRANCH  32  33
ENDBRANCH  31  32
ENDBRANCH  30  31
ENDBRANCH   1  30
TORSDOF 23
ENDMDL
