MODEL 1
REMARK VINA RESULT:      -9.2      0.000      0.000
REMARK SMILES CC(C)[NH2+][C@]1(C(=O)OCCOCCOCCOCCOC(=O)c2ccc(-c3c4nc(c(-c5c(F)c(F)c(F)c(F)c5F)c5ccc([nH]5)c(-c5c(F)c(F)c(F)c(F)c5F)c5nc(c(-c6c(F)c(F)c(F)c(F)c6F)c6ccc3[nH]6)C=C5)C=C4)cc2)CC[C@@H](Oc2cc(F)ccc2F)C1
REMARK SMILES IDX 14 1 13 2 12 3 11 4 10 5 9 6 8 7 6 8 7 9 5 10 86 11 98 12
REMARK SMILES IDX 87 13 88 14 4 15 2 18 1 19 3 20 89 21 90 22 91 23 96 24
REMARK SMILES IDX 92 25 95 26 97 27 93 28 94 29 15 30 16 31 17 32 18 33 19 34
REMARK SMILES IDX 20 35 21 36 22 37 23 38 24 39 85 40 25 41 84 42 26 43 27 44
REMARK SMILES IDX 28 45 78 46 29 47 83 48 77 49 79 50 30 51 82 52 76 53 75 54
REMARK SMILES IDX 31 56 63 57 43 58 62 59 44 60 47 61 61 62 80 63 45 64 46 65
REMARK SMILES IDX 60 67 81 68 48 69 32 70 33 71 41 72 34 73 35 74 39 75 42 76
REMARK SMILES IDX 36 77 37 78 40 79 38 80 64 81 65 82 73 83 66 84 67 85 71 86
REMARK SMILES IDX 74 87 68 88 69 89 72 90 70 91 49 92 50 93 58 94 51 95 52 96
REMARK SMILES IDX 56 97 59 98 53 99 54 100 57 101 55 102
REMARK H PARENT 4 16 4 17 79 55 47 66
REMARK Flexibility Score: inf
ROOT
ATOM      1  O   UNL A   1      39.010  24.085  27.041  1.00  0.00    -0.377 OA
ENDROOT
BRANCH   1   2
ATOM      2  C   UNL A   1      39.286  22.800  26.516  1.00  0.00     0.188 C 
BRANCH   2   3
ATOM      3  C   UNL A   1      38.115  22.185  25.732  1.00  0.00     0.188 C 
BRANCH   3   4
ATOM      4  O   UNL A   1      37.379  23.076  24.921  1.00  0.00    -0.376 OA
BRANCH   4   5
ATOM      5  C   UNL A   1      36.609  22.623  23.820  1.00  0.00     0.202 C 
BRANCH   5   6
ATOM      6  C   UNL A   1      35.349  23.282  23.213  1.00  0.00     0.261 C 
BRANCH   6   7
ATOM      7  O   UNL A   1      34.737  24.382  23.888  1.00  0.00    -0.459 OA
BRANCH   7   8
ATOM      8  C   UNL A   1      33.870  25.135  23.171  1.00  0.00     0.368 C 
ATOM      9  O   UNL A   1      33.999  25.349  21.967  1.00  0.00    -0.245 OA
BRANCH   8  10
ATOM     10  C   UNL A   1      32.637  25.634  24.009  1.00  0.00     0.198 C 
ATOM     11  C   UNL A   1      31.395  25.047  23.327  1.00  0.00     0.085 C 
ATOM     12  C   UNL A   1      32.752  24.932  25.372  1.00  0.00     0.126 C 
ATOM     13  C   UNL A   1      30.615  24.265  24.376  1.00  0.00     0.052 C 
ATOM     14  C   UNL A   1      31.378  24.376  25.702  1.00  0.00     0.180 C 
BRANCH  10  15
ATOM     15  N   UNL A   1      32.581  27.111  24.094  1.00  0.00    -0.330 N 
ATOM     16  H   UNL A   1      32.107  27.430  23.251  1.00  0.00     0.347 HD
ATOM     17  H   UNL A   1      32.131  27.259  24.998  1.00  0.00     0.347 HD
BRANCH  15  18
ATOM     18  C   UNL A   1      33.795  27.918  24.214  1.00  0.00     0.176 C 
ATOM     19  C   UNL A   1      33.852  28.886  23.023  1.00  0.00     0.075 C 
ATOM     20  C   UNL A   1      33.872  28.728  25.506  1.00  0.00     0.075 C 
ENDBRANCH  15  18
ENDBRANCH  10  15
BRANCH  14  21
ATOM     21  O   UNL A   1      31.411  23.214  26.553  1.00  0.00    -0.487 OA
BRANCH  21  22
ATOM     22  C   UNL A   1      32.303  22.245  26.179  1.00  0.00     0.158 A 
ATOM     23  C   UNL A   1      31.949  21.388  25.138  1.00  0.00     0.088 A 
ATOM     24  C   UNL A   1      33.522  22.061  26.836  1.00  0.00     0.165 A 
ATOM     25  C   UNL A   1      32.880  20.468  24.671  1.00  0.00     0.127 A 
ATOM     26  C   UNL A   1      34.455  21.142  26.360  1.00  0.00     0.046 A 
ATOM     27  F   UNL A   1      33.826  22.773  27.931  1.00  0.00    -0.203 F 
ATOM     28  F   UNL A   1      32.565  19.694  23.625  1.00  0.00    -0.207 F 
ATOM     29  C   UNL A   1      34.138  20.354  25.254  1.00  0.00     0.042 A 
ENDBRANCH  21  22
ENDBRANCH  14  21
ENDBRANCH   8  10
ENDBRANCH   7   8
ENDBRANCH   6   7
ENDBRANCH   5   6
ENDBRANCH   4   5
ENDBRANCH   3   4
ENDBRANCH   2   3
ENDBRANCH   1   2
BRANCH   1  30
ATOM     30  C   UNL A   1      40.111  24.906  27.401  1.00  0.00     0.188 C 
BRANCH  30  31
ATOM     31  C   UNL A   1      40.650  25.988  26.438  1.00  0.00     0.188 C 
BRANCH  31  32
ATOM     32  O   UNL A   1      41.427  25.499  25.355  1.00  0.00    -0.376 OA
BRANCH  32  33
ATOM     33  C   UNL A   1      42.796  25.856  25.267  1.00  0.00     0.202 C 
BRANCH  33  34
ATOM     34  C   UNL A   1      43.810  24.728  25.017  1.00  0.00     0.261 C 
BRANCH  34  35
ATOM     35  O   UNL A   1      43.815  23.661  25.974  1.00  0.00    -0.460 OA
BRANCH  35  36
ATOM     36  C   UNL A   1      44.859  23.597  26.825  1.00  0.00     0.338 C 
ATOM     37  O   UNL A   1      45.929  23.038  26.641  1.00  0.00    -0.246 OA
BRANCH  36  38
ATOM     38  C   UNL A   1      44.574  24.491  27.966  1.00  0.00     0.060 A 
ATOM     39  C   UNL A   1      43.606  24.100  28.901  1.00  0.00     0.016 A 
ATOM     40  C   UNL A   1      45.255  25.700  28.117  1.00  0.00     0.016 A 
ATOM     41  C   UNL A   1      43.279  24.943  29.962  1.00  0.00     0.010 A 
ATOM     42  C   UNL A   1      44.910  26.556  29.167  1.00  0.00     0.010 A 
ATOM     43  C   UNL A   1      43.891  26.199  30.068  1.00  0.00    -0.014 A 
BRANCH  43  44
ATOM     44  C   UNL A   1      43.305  27.214  30.976  1.00  0.00     0.031 A 
ATOM     45  C   UNL A   1      43.960  27.432  32.313  1.00  0.00     0.074 A 
ATOM     46  C   UNL A   1      42.247  27.959  30.612  1.00  0.00     0.049 A 
ATOM     47  N   UNL A   1      43.627  28.242  33.286  1.00  0.00    -0.248 NA
ATOM     48  C   UNL A   1      45.160  26.623  32.590  1.00  0.00     0.031 C 
ATOM     49  C   UNL A   1      41.557  27.875  29.328  1.00  0.00     0.029 A 
ATOM     50  N   UNL A   1      41.568  28.934  31.299  1.00  0.00    -0.354 N 
ATOM     51  C   UNL A   1      44.566  28.034  34.287  1.00  0.00     0.074 A 
ATOM     52  C   UNL A   1      45.462  26.998  33.822  1.00  0.00     0.031 C 
ATOM     53  C   UNL A   1      40.542  28.758  29.323  1.00  0.00     0.029 A 
ATOM     54  C   UNL A   1      40.493  29.442  30.615  1.00  0.00     0.049 A 
ATOM     55  H   UNL A   1      41.828  29.239  32.199  1.00  0.00     0.167 HD
ATOM     56  C   UNL A   1      44.679  28.658  35.484  1.00  0.00     0.037 A 
ATOM     57  C   UNL A   1      39.566  30.341  30.999  1.00  0.00     0.037 A 
ATOM     58  C   UNL A   1      43.783  29.686  35.944  1.00  0.00     0.049 A 
ATOM     59  C   UNL A   1      39.665  30.964  32.370  1.00  0.00     0.074 A 
ATOM     60  C   UNL A   1      43.818  30.390  37.134  1.00  0.00     0.029 A 
ATOM     61  N   UNL A   1      42.681  30.147  35.237  1.00  0.00    -0.354 N 
ATOM     62  N   UNL A   1      40.570  30.784  33.303  1.00  0.00    -0.248 NA
ATOM     63  C   UNL A   1      38.615  31.925  32.739  1.00  0.00     0.031 C 
ATOM     64  C   UNL A   1      42.701  31.231  37.176  1.00  0.00     0.029 A 
ATOM     65  C   UNL A   1      42.011  31.106  35.981  1.00  0.00     0.049 A 
ATOM     66  H   UNL A   1      42.416  29.840  34.341  1.00  0.00     0.167 HD
ATOM     67  C   UNL A   1      40.219  31.630  34.348  1.00  0.00     0.074 A 
ATOM     68  C   UNL A   1      39.028  32.336  33.929  1.00  0.00     0.031 C 
ATOM     69  C   UNL A   1      40.829  31.808  35.547  1.00  0.00     0.037 A 
BRANCH  56  70
ATOM     70  C   UNL A   1      45.791  28.220  36.393  1.00  0.00     0.064 A 
ATOM     71  C   UNL A   1      45.621  27.191  37.333  1.00  0.00     0.173 A 
ATOM     72  C   UNL A   1      47.055  28.822  36.304  1.00  0.00     0.173 A 
ATOM     73  F   UNL A   1      44.428  26.592  37.470  1.00  0.00    -0.203 F 
ATOM     74  C   UNL A   1      46.666  26.802  38.167  1.00  0.00     0.198 A 
ATOM     75  C   UNL A   1      48.107  28.407  37.116  1.00  0.00     0.198 A 
ATOM     76  F   UNL A   1      47.273  29.809  35.422  1.00  0.00    -0.203 F 
ATOM     77  F   UNL A   1      46.464  25.855  39.094  1.00  0.00    -0.200 F 
ATOM     78  C   UNL A   1      47.910  27.405  38.052  1.00  0.00     0.200 A 
ATOM     79  F   UNL A   1      49.312  28.981  36.993  1.00  0.00    -0.200 F 
ATOM     80  F   UNL A   1      48.917  27.024  38.850  1.00  0.00    -0.200 F 
ENDBRANCH  56  70
BRANCH  57  81
ATOM     81  C   UNL A   1      38.449  30.701  30.084  1.00  0.00     0.064 A 
ATOM     82  C   UNL A   1      38.390  31.960  29.470  1.00  0.00     0.173 A 
ATOM     83  C   UNL A   1      37.401  29.804  29.829  1.00  0.00     0.173 A 
ATOM     84  F   UNL A   1      39.354  32.865  29.702  1.00  0.00    -0.203 F 
ATOM     85  C   UNL A   1      37.315  32.317  28.657  1.00  0.00     0.198 A 
ATOM     86  C   UNL A   1      36.345  30.149  28.990  1.00  0.00     0.198 A 
ATOM     87  F   UNL A   1      37.405  28.588  30.394  1.00  0.00    -0.203 F 
ATOM     88  F   UNL A   1      37.256  33.547  28.130  1.00  0.00    -0.200 F 
ATOM     89  C   UNL A   1      36.297  31.408  28.412  1.00  0.00     0.200 A 
ATOM     90  F   UNL A   1      35.369  29.263  28.745  1.00  0.00    -0.200 F 
ATOM     91  F   UNL A   1      35.264  31.751  27.630  1.00  0.00    -0.200 F 
ENDBRANCH  57  81
BRANCH  69  92
ATOM     92  C   UNL A   1      40.250  32.842  36.473  1.00  0.00     0.064 A 
ATOM     93  C   UNL A   1      40.810  34.121  36.604  1.00  0.00     0.173 A 
ATOM     94  C   UNL A   1      39.094  32.555  37.218  1.00  0.00     0.173 A 
ATOM     95  F   UNL A   1      41.920  34.445  35.924  1.00  0.00    -0.203 F 
ATOM     96  C   UNL A   1      40.258  35.060  37.473  1.00  0.00     0.198 A 
ATOM     97  C   UNL A   1      38.524  33.509  38.057  1.00  0.00     0.198 A 
ATOM     98  F   UNL A   1      38.509  31.351  37.125  1.00  0.00    -0.203 F 
ATOM     99  F   UNL A   1      40.848  36.253  37.628  1.00  0.00    -0.200 F 
ATOM    100  C   UNL A   1      39.113  34.756  38.193  1.00  0.00     0.200 A 
ATOM    101  F   UNL A   1      37.404  33.220  38.735  1.00  0.00    -0.200 F 
ATOM    102  F   UNL A   1      38.581  35.663  39.023  1.00  0.00    -0.200 F 
ENDBRANCH  69  92
ENDBRANCH  43  44
ENDBRANCH  36  38
ENDBRANCH  35  36
ENDBRANCH  34  35
ENDBRANCH  33  34
ENDBRANCH  32  33
ENDBRANCH  31  32
ENDBRANCH  30  31
ENDBRANCH   1  30
TORSDOF 24
ENDMDL
MODEL 2
REMARK VINA RESULT:      -9.2      2.161      3.918
REMARK SMILES CC(C)[NH2+][C@]1(C(=O)OCCOCCOCCOCCOC(=O)c2ccc(-c3c4nc(c(-c5c(F)c(F)c(F)c(F)c5F)c5ccc([nH]5)c(-c5c(F)c(F)c(F)c(F)c5F)c5nc(c(-c6c(F)c(F)c(F)c(F)c6F)c6ccc3[nH]6)C=C5)C=C4)cc2)CC[C@@H](Oc2cc(F)ccc2F)C1
REMARK SMILES IDX 14 1 13 2 12 3 11 4 10 5 9 6 8 7 6 8 7 9 5 10 86 11 98 12
REMARK SMILES IDX 87 13 88 14 4 15 2 18 1 19 3 20 89 21 90 22 91 23 96 24
REMARK SMILES IDX 92 25 95 26 97 27 93 28 94 29 15 30 16 31 17 32 18 33 19 34
REMARK SMILES IDX 20 35 21 36 22 37 23 38 24 39 85 40 25 41 84 42 26 43 27 44
REMARK SMILES IDX 28 45 78 46 29 47 83 48 77 49 79 50 30 51 82 52 76 53 75 54
REMARK SMILES IDX 31 56 63 57 43 58 62 59 44 60 47 61 61 62 80 63 45 64 46 65
REMARK SMILES IDX 60 67 81 68 48 69 32 70 33 71 41 72 34 73 35 74 39 75 42 76
REMARK SMILES IDX 36 77 37 78 40 79 38 80 64 81 65 82 73 83 66 84 67 85 71 86
REMARK SMILES IDX 74 87 68 88 69 89 72 90 70 91 49 92 50 93 58 94 51 95 52 96
REMARK SMILES IDX 56 97 59 98 53 99 54 100 57 101 55 102
REMARK H PARENT 4 16 4 17 79 55 47 66
REMARK Flexibility Score: inf
ROOT
ATOM      1  O   UNL A   1      39.080  20.887  26.120  1.00  0.00    -0.377 OA
ENDROOT
BRANCH   1   2
ATOM      2  C   UNL A   1      38.197  21.845  25.565  1.00  0.00     0.188 C 
BRANCH   2   3
ATOM      3  C   UNL A   1      36.739  21.368  25.476  1.00  0.00     0.188 C 
BRANCH   3   4
ATOM      4  O   UNL A   1      36.552  20.026  25.077  1.00  0.00    -0.376 OA
BRANCH   4   5
ATOM      5  C   UNL A   1      35.262  19.440  25.007  1.00  0.00     0.202 C 
BRANCH   5   6
ATOM      6  C   UNL A   1      33.895  20.145  25.159  1.00  0.00     0.261 C 
BRANCH   6   7
ATOM      7  O   UNL A   1      33.443  20.528  26.459  1.00  0.00    -0.459 OA
BRANCH   7   8
ATOM      8  C   UNL A   1      33.408  21.854  26.730  1.00  0.00     0.368 C 
ATOM      9  O   UNL A   1      34.082  22.379  27.614  1.00  0.00    -0.245 OA
BRANCH   8  10
ATOM     10  C   UNL A   1      32.491  22.667  25.747  1.00  0.00     0.198 C 
ATOM     11  C   UNL A   1      31.051  22.442  26.224  1.00  0.00     0.085 C 
ATOM     12  C   UNL A   1      32.807  24.148  26.014  1.00  0.00     0.126 C 
ATOM     13  C   UNL A   1      30.423  23.809  26.465  1.00  0.00     0.052 C 
ATOM     14  C   UNL A   1      31.477  24.871  26.131  1.00  0.00     0.180 C 
BRANCH  10  15
ATOM     15  N   UNL A   1      32.682  22.255  24.337  1.00  0.00    -0.330 N 
ATOM     16  H   UNL A   1      33.675  22.059  24.226  1.00  0.00     0.347 HD
ATOM     17  H   UNL A   1      32.016  21.488  24.243  1.00  0.00     0.347 HD
BRANCH  15  18
ATOM     18  C   UNL A   1      32.308  23.130  23.226  1.00  0.00     0.176 C 
ATOM     19  C   UNL A   1      33.431  23.089  22.179  1.00  0.00     0.075 C 
ATOM     20  C   UNL A   1      30.995  22.743  22.550  1.00  0.00     0.075 C 
ENDBRANCH  15  18
ENDBRANCH  10  15
BRANCH  14  21
ATOM     21  O   UNL A   1      31.528  26.047  26.962  1.00  0.00    -0.487 OA
BRANCH  21  22
ATOM     22  C   UNL A   1      31.481  27.237  26.288  1.00  0.00     0.158 A 
ATOM     23  C   UNL A   1      31.168  27.216  24.930  1.00  0.00     0.088 A 
ATOM     24  C   UNL A   1      31.784  28.454  26.904  1.00  0.00     0.165 A 
ATOM     25  C   UNL A   1      31.010  28.418  24.251  1.00  0.00     0.127 A 
ATOM     26  C   UNL A   1      31.618  29.657  26.222  1.00  0.00     0.046 A 
ATOM     27  F   UNL A   1      32.230  28.492  28.169  1.00  0.00    -0.203 F 
ATOM     28  F   UNL A   1      30.639  28.399  22.964  1.00  0.00    -0.207 F 
ATOM     29  C   UNL A   1      31.206  29.639  24.890  1.00  0.00     0.042 A 
ENDBRANCH  21  22
ENDBRANCH  14  21
ENDBRANCH   8  10
ENDBRANCH   7   8
ENDBRANCH   6   7
ENDBRANCH   5   6
ENDBRANCH   4   5
ENDBRANCH   3   4
ENDBRANCH   2   3
ENDBRANCH   1   2
BRANCH   1  30
ATOM     30  C   UNL A   1      40.358  21.332  26.550  1.00  0.00     0.188 C 
BRANCH  30  31
ATOM     31  C   UNL A   1      41.362  20.359  27.208  1.00  0.00     0.188 C 
BRANCH  31  32
ATOM     32  O   UNL A   1      42.730  20.709  27.053  1.00  0.00    -0.376 OA
BRANCH  32  33
ATOM     33  C   UNL A   1      43.306  20.695  25.758  1.00  0.00     0.202 C 
BRANCH  33  34
ATOM     34  C   UNL A   1      43.757  22.041  25.167  1.00  0.00     0.261 C 
BRANCH  34  35
ATOM     35  O   UNL A   1      44.005  23.093  26.111  1.00  0.00    -0.460 OA
BRANCH  35  36
ATOM     36  C   UNL A   1      44.140  24.343  25.624  1.00  0.00     0.338 C 
ATOM     37  O   UNL A   1      44.641  24.671  24.560  1.00  0.00    -0.246 OA
BRANCH  36  38
ATOM     38  C   UNL A   1      43.398  25.261  26.512  1.00  0.00     0.060 A 
ATOM     39  C   UNL A   1      43.850  26.581  26.644  1.00  0.00     0.016 A 
ATOM     40  C   UNL A   1      42.266  24.828  27.205  1.00  0.00     0.016 A 
ATOM     41  C   UNL A   1      43.200  27.458  27.511  1.00  0.00     0.010 A 
ATOM     42  C   UNL A   1      41.629  25.701  28.092  1.00  0.00     0.010 A 
ATOM     43  C   UNL A   1      42.121  27.005  28.281  1.00  0.00    -0.014 A 
BRANCH  43  44
ATOM     44  C   UNL A   1      41.661  27.820  29.431  1.00  0.00     0.031 A 
ATOM     45  C   UNL A   1      42.403  27.694  30.733  1.00  0.00     0.074 A 
ATOM     46  C   UNL A   1      40.638  28.686  29.316  1.00  0.00     0.049 A 
ATOM     47  N   UNL A   1      42.183  28.280  31.882  1.00  0.00    -0.248 NA
ATOM     48  C   UNL A   1      43.556  26.777  30.738  1.00  0.00     0.031 C 
ATOM     49  C   UNL A   1      39.873  28.933  28.098  1.00  0.00     0.029 A 
ATOM     50  N   UNL A   1      40.070  29.517  30.249  1.00  0.00    -0.354 N 
ATOM     51  C   UNL A   1      43.160  27.799  32.744  1.00  0.00     0.074 A 
ATOM     52  C   UNL A   1      43.953  26.846  31.998  1.00  0.00     0.031 C 
ATOM     53  C   UNL A   1      38.924  29.850  28.360  1.00  0.00     0.029 A 
ATOM     54  C   UNL A   1      38.997  30.226  29.772  1.00  0.00     0.049 A 
ATOM     55  H   UNL A   1      40.401  29.596  31.173  1.00  0.00     0.167 HD
ATOM     56  C   UNL A   1      43.383  28.129  34.038  1.00  0.00     0.037 A 
ATOM     57  C   UNL A   1      38.158  31.066  30.410  1.00  0.00     0.037 A 
ATOM     58  C   UNL A   1      42.589  29.075  34.777  1.00  0.00     0.049 A 
ATOM     59  C   UNL A   1      38.378  31.357  31.874  1.00  0.00     0.074 A 
ATOM     60  C   UNL A   1      42.741  29.490  36.087  1.00  0.00     0.029 A 
ATOM     61  N   UNL A   1      41.485  29.745  34.269  1.00  0.00    -0.354 N 
ATOM     62  N   UNL A   1      39.318  30.920  32.678  1.00  0.00    -0.248 NA
ATOM     63  C   UNL A   1      37.420  32.267  32.520  1.00  0.00     0.031 C 
ATOM     64  C   UNL A   1      41.690  30.361  36.394  1.00  0.00     0.029 A 
ATOM     65  C   UNL A   1      40.927  30.547  35.252  1.00  0.00     0.049 A 
ATOM     66  H   UNL A   1      41.149  29.663  33.348  1.00  0.00     0.167 HD
ATOM     67  C   UNL A   1      39.088  31.526  33.907  1.00  0.00     0.074 A 
ATOM     68  C   UNL A   1      37.928  32.375  33.739  1.00  0.00     0.031 C 
ATOM     69  C   UNL A   1      39.775  31.394  35.069  1.00  0.00     0.037 A 
BRANCH  56  70
ATOM     70  C   UNL A   1      44.511  27.435  34.746  1.00  0.00     0.064 A 
ATOM     71  C   UNL A   1      45.806  27.975  34.788  1.00  0.00     0.173 A 
ATOM     72  C   UNL A   1      44.286  26.223  35.416  1.00  0.00     0.173 A 
ATOM     73  F   UNL A   1      46.080  29.124  34.152  1.00  0.00    -0.203 F 
ATOM     74  C   UNL A   1      46.837  27.313  35.450  1.00  0.00     0.198 A 
ATOM     75  C   UNL A   1      45.311  25.582  36.105  1.00  0.00     0.198 A 
ATOM     76  F   UNL A   1      43.067  25.663  35.409  1.00  0.00    -0.203 F 
ATOM     77  F   UNL A   1      48.078  27.820  35.430  1.00  0.00    -0.200 F 
ATOM     78  C   UNL A   1      46.587  26.121  36.114  1.00  0.00     0.200 A 
ATOM     79  F   UNL A   1      45.063  24.438  36.759  1.00  0.00    -0.200 F 
ATOM     80  F   UNL A   1      47.579  25.490  36.757  1.00  0.00    -0.200 F 
ENDBRANCH  56  70
BRANCH  57  81
ATOM     81  C   UNL A   1      37.020  31.685  29.678  1.00  0.00     0.064 A 
ATOM     82  C   UNL A   1      35.929  30.917  29.247  1.00  0.00     0.173 A 
ATOM     83  C   UNL A   1      37.015  33.053  29.367  1.00  0.00     0.173 A 
ATOM     84  F   UNL A   1      35.898  29.599  29.495  1.00  0.00    -0.203 F 
ATOM     85  C   UNL A   1      34.891  31.488  28.513  1.00  0.00     0.198 A 
ATOM     86  C   UNL A   1      35.961  33.629  28.662  1.00  0.00     0.198 A 
ATOM     87  F   UNL A   1      38.036  33.833  29.751  1.00  0.00    -0.203 F 
ATOM     88  F   UNL A   1      33.890  30.718  28.064  1.00  0.00    -0.200 F 
ATOM     89  C   UNL A   1      34.904  32.844  28.227  1.00  0.00     0.200 A 
ATOM     90  F   UNL A   1      35.972  34.943  28.400  1.00  0.00    -0.200 F 
ATOM     91  F   UNL A   1      33.905  33.393  27.522  1.00  0.00    -0.200 F 
ENDBRANCH  57  81
BRANCH  69  92
ATOM     92  C   UNL A   1      39.323  32.223  36.240  1.00  0.00     0.064 A 
ATOM     93  C   UNL A   1      38.350  31.769  37.142  1.00  0.00     0.173 A 
ATOM     94  C   UNL A   1      39.899  33.482  36.480  1.00  0.00     0.173 A 
ATOM     95  F   UNL A   1      37.758  30.579  36.955  1.00  0.00    -0.203 F 
ATOM     96  C   UNL A   1      37.943  32.558  38.216  1.00  0.00     0.198 A 
ATOM     97  C   UNL A   1      39.518  34.251  37.576  1.00  0.00     0.198 A 
ATOM     98  F   UNL A   1      40.843  33.963  35.656  1.00  0.00    -0.203 F 
ATOM     99  F   UNL A   1      36.967  32.128  39.028  1.00  0.00    -0.200 F 
ATOM    100  C   UNL A   1      38.532  33.794  38.436  1.00  0.00     0.200 A 
ATOM    101  F   UNL A   1      40.104  35.436  37.798  1.00  0.00    -0.200 F 
ATOM    102  F   UNL A   1      38.144  34.548  39.473  1.00  0.00    -0.200 F 
ENDBRANCH  69  92
ENDBRANCH  43  44
ENDBRANCH  36  38
ENDBRANCH  35  36
ENDBRANCH  34  35
ENDBRANCH  33  34
ENDBRANCH  32  33
ENDBRANCH  31  32
ENDBRANCH  30  31
ENDBRANCH   1  30
TORSDOF 24
ENDMDL
MODEL 3
REMARK VINA RESULT:      -9.2      5.735     10.900
REMARK SMILES CC(C)[NH2+][C@]1(C(=O)OCCOCCOCCOCCOC(=O)c2ccc(-c3c4nc(c(-c5c(F)c(F)c(F)c(F)c5F)c5ccc([nH]5)c(-c5c(F)c(F)c(F)c(F)c5F)c5nc(c(-c6c(F)c(F)c(F)c(F)c6F)c6ccc3[nH]6)C=C5)C=C4)cc2)CC[C@@H](Oc2cc(F)ccc2F)C1
REMARK SMILES IDX 14 1 13 2 12 3 11 4 10 5 9 6 8 7 6 8 7 9 5 10 86 11 98 12
REMARK SMILES IDX 87 13 88 14 4 15 2 18 1 19 3 20 89 21 90 22 91 23 96 24
REMARK SMILES IDX 92 25 95 26 97 27 93 28 94 29 15 30 16 31 17 32 18 33 19 34
REMARK SMILES IDX 20 35 21 36 22 37 23 38 24 39 85 40 25 41 84 42 26 43 27 44
REMARK SMILES IDX 28 45 78 46 29 47 83 48 77 49 79 50 30 51 82 52 76 53 75 54
REMARK SMILES IDX 31 56 63 57 43 58 62 59 44 60 47 61 61 62 80 63 45 64 46 65
REMARK SMILES IDX 60 67 81 68 48 69 32 70 33 71 41 72 34 73 35 74 39 75 42 76
REMARK SMILES IDX 36 77 37 78 40 79 38 80 64 81 65 82 73 83 66 84 67 85 71 86
REMARK SMILES IDX 74 87 68 88 69 89 72 90 70 91 49 92 50 93 58 94 51 95 52 96
REMARK SMILES IDX 56 97 59 98 53 99 54 100 57 101 55 102
REMARK H PARENT 4 16 4 17 79 55 47 66
REMARK Flexibility Score: inf
ROOT
ATOM      1  O   UNL A   1      33.212  34.845  30.271  1.00  0.00    -0.377 OA
ENDROOT
BRANCH   1   2
ATOM      2  C   UNL A   1      33.977  34.730  29.085  1.00  0.00     0.188 C 
BRANCH   2   3
ATOM      3  C   UNL A   1      33.304  33.888  27.991  1.00  0.00     0.188 C 
BRANCH   3   4
ATOM      4  O   UNL A   1      33.692  32.531  27.929  1.00  0.00    -0.376 OA
BRANCH   4   5
ATOM      5  C   UNL A   1      32.803  31.519  27.485  1.00  0.00     0.202 C 
BRANCH   5   6
ATOM      6  C   UNL A   1      33.117  30.024  27.248  1.00  0.00     0.261 C 
BRANCH   6   7
ATOM      7  O   UNL A   1      32.352  29.288  26.292  1.00  0.00    -0.459 OA
BRANCH   7   8
ATOM      8  C   UNL A   1      32.161  27.971  26.542  1.00  0.00     0.368 C 
ATOM      9  O   UNL A   1      31.721  27.545  27.608  1.00  0.00    -0.245 OA
BRANCH   8  10
ATOM     10  C   UNL A   1      32.475  27.051  25.308  1.00  0.00     0.198 C 
ATOM     11  C   UNL A   1      33.988  26.800  25.337  1.00  0.00     0.085 C 
ATOM     12  C   UNL A   1      31.809  25.700  25.619  1.00  0.00     0.126 C 
ATOM     13  C   UNL A   1      34.209  25.293  25.343  1.00  0.00     0.052 C 
ATOM     14  C   UNL A   1      32.831  24.620  25.313  1.00  0.00     0.180 C 
BRANCH  10  15
ATOM     15  N   UNL A   1      32.035  27.660  24.032  1.00  0.00    -0.330 N 
ATOM     16  H   UNL A   1      31.578  28.537  24.274  1.00  0.00     0.347 HD
ATOM     17  H   UNL A   1      32.902  27.689  23.495  1.00  0.00     0.347 HD
BRANCH  15  18
ATOM     18  C   UNL A   1      31.128  26.960  23.122  1.00  0.00     0.176 C 
ATOM     19  C   UNL A   1      30.258  28.005  22.408  1.00  0.00     0.075 C 
ATOM     20  C   UNL A   1      31.842  26.117  22.067  1.00  0.00     0.075 C 
ENDBRANCH  15  18
ENDBRANCH  10  15
BRANCH  14  21
ATOM     21  O   UNL A   1      32.657  23.420  26.089  1.00  0.00    -0.487 OA
BRANCH  21  22
ATOM     22  C   UNL A   1      32.616  22.259  25.364  1.00  0.00     0.158 A 
ATOM     23  C   UNL A   1      32.155  22.318  24.050  1.00  0.00     0.088 A 
ATOM     24  C   UNL A   1      32.971  21.025  25.913  1.00  0.00     0.165 A 
ATOM     25  C   UNL A   1      32.206  21.174  23.262  1.00  0.00     0.127 A 
ATOM     26  C   UNL A   1      33.027  19.882  25.118  1.00  0.00     0.046 A 
ATOM     27  F   UNL A   1      33.278  20.914  27.214  1.00  0.00    -0.203 F 
ATOM     28  F   UNL A   1      31.830  21.247  21.978  1.00  0.00    -0.207 F 
ATOM     29  C   UNL A   1      32.661  19.963  23.775  1.00  0.00     0.042 A 
ENDBRANCH  21  22
ENDBRANCH  14  21
ENDBRANCH   8  10
ENDBRANCH   7   8
ENDBRANCH   6   7
ENDBRANCH   5   6
ENDBRANCH   4   5
ENDBRANCH   3   4
ENDBRANCH   2   3
ENDBRANCH   1   2
BRANCH   1  30
ATOM     30  C   UNL A   1      32.936  36.148  30.760  1.00  0.00     0.188 C 
BRANCH  30  31
ATOM     31  C   UNL A   1      33.270  36.543  32.217  1.00  0.00     0.188 C 
BRANCH  31  32
ATOM     32  O   UNL A   1      33.494  35.453  33.100  1.00  0.00    -0.376 OA
BRANCH  32  33
ATOM     33  C   UNL A   1      34.823  35.049  33.380  1.00  0.00     0.202 C 
BRANCH  33  34
ATOM     34  C   UNL A   1      35.496  34.084  32.391  1.00  0.00     0.261 C 
BRANCH  34  35
ATOM     35  O   UNL A   1      36.627  33.356  32.889  1.00  0.00    -0.460 OA
BRANCH  35  36
ATOM     36  C   UNL A   1      36.745  32.065  32.518  1.00  0.00     0.338 C 
ATOM     37  O   UNL A   1      35.873  31.211  32.529  1.00  0.00    -0.246 OA
BRANCH  36  38
ATOM     38  C   UNL A   1      38.075  31.888  31.901  1.00  0.00     0.060 A 
ATOM     39  C   UNL A   1      38.281  32.361  30.598  1.00  0.00     0.016 A 
ATOM     40  C   UNL A   1      39.112  31.265  32.599  1.00  0.00     0.016 A 
ATOM     41  C   UNL A   1      39.510  32.166  29.970  1.00  0.00     0.010 A 
ATOM     42  C   UNL A   1      40.336  31.049  31.961  1.00  0.00     0.010 A 
ATOM     43  C   UNL A   1      40.525  31.459  30.629  1.00  0.00    -0.014 A 
BRANCH  43  44
ATOM     44  C   UNL A   1      41.683  30.961  29.850  1.00  0.00     0.031 A 
ATOM     45  C   UNL A   1      41.607  29.575  29.272  1.00  0.00     0.074 A 
ATOM     46  C   UNL A   1      42.760  31.733  29.618  1.00  0.00     0.049 A 
ATOM     47  N   UNL A   1      42.493  28.909  28.575  1.00  0.00    -0.248 NA
ATOM     48  C   UNL A   1      40.356  28.836  29.515  1.00  0.00     0.031 C 
ATOM     49  C   UNL A   1      42.931  33.107  30.082  1.00  0.00     0.029 A 
ATOM     50  N   UNL A   1      43.917  31.460  28.931  1.00  0.00    -0.354 N 
ATOM     51  C   UNL A   1      41.910  27.677  28.305  1.00  0.00     0.074 A 
ATOM     52  C   UNL A   1      40.612  27.672  28.942  1.00  0.00     0.031 C 
ATOM     53  C   UNL A   1      44.132  33.556  29.674  1.00  0.00     0.029 A 
ATOM     54  C   UNL A   1      44.824  32.489  28.951  1.00  0.00     0.049 A 
ATOM     55  H   UNL A   1      44.080  30.606  28.469  1.00  0.00     0.167 HD
ATOM     56  C   UNL A   1      42.410  26.646  27.582  1.00  0.00     0.037 A 
ATOM     57  C   UNL A   1      46.077  32.551  28.460  1.00  0.00     0.037 A 
ATOM     58  C   UNL A   1      43.704  26.655  26.954  1.00  0.00     0.049 A 
ATOM     59  C   UNL A   1      46.643  31.359  27.727  1.00  0.00     0.074 A 
ATOM     60  C   UNL A   1      44.296  25.667  26.188  1.00  0.00     0.029 A 
ATOM     61  N   UNL A   1      44.611  27.702  27.029  1.00  0.00    -0.354 N 
ATOM     62  N   UNL A   1      46.079  30.207  27.452  1.00  0.00    -0.248 NA
ATOM     63  C   UNL A   1      48.021  31.480  27.228  1.00  0.00     0.031 C 
ATOM     64  C   UNL A   1      45.588  26.089  25.855  1.00  0.00     0.029 A 
ATOM     65  C   UNL A   1      45.772  27.371  26.349  1.00  0.00     0.049 A 
ATOM     66  H   UNL A   1      44.453  28.554  27.495  1.00  0.00     0.167 HD
ATOM     67  C   UNL A   1      47.015  29.485  26.722  1.00  0.00     0.074 A 
ATOM     68  C   UNL A   1      48.178  30.334  26.583  1.00  0.00     0.031 C 
ATOM     69  C   UNL A   1      46.921  28.231  26.211  1.00  0.00     0.037 A 
BRANCH  56  70
ATOM     70  C   UNL A   1      41.566  25.410  27.463  1.00  0.00     0.064 A 
ATOM     71  C   UNL A   1      40.441  25.355  26.625  1.00  0.00     0.173 A 
ATOM     72  C   UNL A   1      41.902  24.253  28.181  1.00  0.00     0.173 A 
ATOM     73  F   UNL A   1      40.065  26.439  25.928  1.00  0.00    -0.203 F 
ATOM     74  C   UNL A   1      39.672  24.199  26.531  1.00  0.00     0.198 A 
ATOM     75  C   UNL A   1      41.151  23.087  28.059  1.00  0.00     0.198 A 
ATOM     76  F   UNL A   1      42.968  24.248  28.997  1.00  0.00    -0.203 F 
ATOM     77  F   UNL A   1      38.571  24.188  25.766  1.00  0.00    -0.200 F 
ATOM     78  C   UNL A   1      40.032  23.063  27.242  1.00  0.00     0.200 A 
ATOM     79  F   UNL A   1      41.510  21.987  28.736  1.00  0.00    -0.200 F 
ATOM     80  F   UNL A   1      39.295  21.948  27.145  1.00  0.00    -0.200 F 
ENDBRANCH  56  70
BRANCH  57  81
ATOM     81  C   UNL A   1      46.896  33.779  28.652  1.00  0.00     0.064 A 
ATOM     82  C   UNL A   1      46.941  34.783  27.675  1.00  0.00     0.173 A 
ATOM     83  C   UNL A   1      47.676  33.958  29.805  1.00  0.00     0.173 A 
ATOM     84  F   UNL A   1      46.235  34.647  26.542  1.00  0.00    -0.203 F 
ATOM     85  C   UNL A   1      47.751  35.906  27.832  1.00  0.00     0.198 A 
ATOM     86  C   UNL A   1      48.459  35.097  29.975  1.00  0.00     0.198 A 
ATOM     87  F   UNL A   1      47.674  33.026  30.769  1.00  0.00    -0.203 F 
ATOM     88  F   UNL A   1      47.819  36.822  26.856  1.00  0.00    -0.200 F 
ATOM     89  C   UNL A   1      48.505  36.065  28.985  1.00  0.00     0.200 A 
ATOM     90  F   UNL A   1      49.175  35.252  31.097  1.00  0.00    -0.200 F 
ATOM     91  F   UNL A   1      49.283  37.146  29.135  1.00  0.00    -0.200 F 
ENDBRANCH  57  81
BRANCH  69  92
ATOM     92  C   UNL A   1      48.087  27.719  25.410  1.00  0.00     0.064 A 
ATOM     93  C   UNL A   1      48.088  27.731  24.008  1.00  0.00     0.173 A 
ATOM     94  C   UNL A   1      49.235  27.237  26.061  1.00  0.00     0.173 A 
ATOM     95  F   UNL A   1      47.014  28.170  23.335  1.00  0.00    -0.203 F 
ATOM     96  C   UNL A   1      49.178  27.246  23.287  1.00  0.00     0.198 A 
ATOM     97  C   UNL A   1      50.336  26.788  25.338  1.00  0.00     0.198 A 
ATOM     98  F   UNL A   1      49.293  27.212  27.401  1.00  0.00    -0.203 F 
ATOM     99  F   UNL A   1      49.131  27.211  21.949  1.00  0.00    -0.200 F 
ATOM    100  C   UNL A   1      50.303  26.782  23.953  1.00  0.00     0.200 A 
ATOM    101  F   UNL A   1      51.430  26.361  25.983  1.00  0.00    -0.200 F 
ATOM    102  F   UNL A   1      51.352  26.322  23.258  1.00  0.00    -0.200 F 
ENDBRANCH  69  92
ENDBRANCH  43  44
ENDBRANCH  36  38
ENDBRANCH  35  36
ENDBRANCH  34  35
ENDBRANCH  33  34
ENDBRANCH  32  33
ENDBRANCH  31  32
ENDBRANCH  30  31
ENDBRANCH   1  30
TORSDOF 24
ENDMDL
