MODEL 1
REMARK VINA RESULT:     -11.3      0.000      0.000
REMARK SMILES CC1(C)[C@H](C(=O)OCCOCCOCCOCCOC(=O)c2ccc(-c3c4nc(c(-c5c(F)c(F)c(F)c(F)c5F)c5ccc([nH]5)c(-c5c(F)c(F)c(F)c(F)c5F)c5nc(c(-c6c(F)c(F)c(F)c(F)c6F)c6ccc3[nH]6)C=C5)C=C4)cc2)[C@@H]1C(=O)Nc1ccc(Cl)c(Br)c1
REMARK SMILES IDX 13 1 12 2 11 3 10 4 9 5 8 6 7 7 5 8 6 9 4 10 1 11 2 12 3 13
REMARK SMILES IDX 85 14 86 15 87 16 88 17 89 19 90 20 96 21 91 22 94 23 92 24
REMARK SMILES IDX 95 25 93 26 14 27 15 28 16 29 17 30 18 31 19 32 20 33 21 34
REMARK SMILES IDX 22 35 23 36 84 37 24 38 83 39 25 40 26 41 27 42 77 43 28 44
REMARK SMILES IDX 82 45 76 46 78 47 29 48 81 49 75 50 74 51 30 53 62 54 42 55
REMARK SMILES IDX 61 56 43 57 46 58 60 59 79 60 44 61 45 62 59 64 80 65 47 66
REMARK SMILES IDX 31 67 32 68 40 69 33 70 34 71 38 72 41 73 35 74 36 75 39 76
REMARK SMILES IDX 37 77 63 78 64 79 72 80 65 81 66 82 70 83 73 84 67 85 68 86
REMARK SMILES IDX 71 87 69 88 48 89 49 90 57 91 50 92 51 93 55 94 58 95 52 96
REMARK SMILES IDX 53 97 56 98 54 99
REMARK H PARENT 88 18 78 52 46 63
REMARK Flexibility Score: inf
ROOT
ATOM      1  O   UNL A   1      41.426  19.905  27.407  1.00  0.00    -0.377 OA
ENDROOT
BRANCH   1   2
ATOM      2  C   UNL A   1      40.858  21.201  27.500  1.00  0.00     0.188 C 
BRANCH   2   3
ATOM      3  C   UNL A   1      40.153  21.774  26.258  1.00  0.00     0.188 C 
BRANCH   3   4
ATOM      4  O   UNL A   1      38.731  21.720  26.302  1.00  0.00    -0.376 OA
BRANCH   4   5
ATOM      5  C   UNL A   1      38.040  21.746  25.064  1.00  0.00     0.202 C 
BRANCH   5   6
ATOM      6  C   UNL A   1      36.645  21.101  25.068  1.00  0.00     0.261 C 
BRANCH   6   7
ATOM      7  O   UNL A   1      35.569  21.764  24.377  1.00  0.00    -0.463 OA
BRANCH   7   8
ATOM      8  C   UNL A   1      34.321  21.277  24.512  1.00  0.00     0.310 C 
ATOM      9  O   UNL A   1      33.970  20.141  24.233  1.00  0.00    -0.252 OA
BRANCH   8  10
ATOM     10  C   UNL A   1      33.329  22.194  25.102  1.00  0.00     0.118 C 
ATOM     11  C   UNL A   1      32.763  23.870  26.930  1.00  0.00     0.013 C 
ATOM     12  C   UNL A   1      33.527  23.584  25.654  1.00  0.00    -0.009 C 
ATOM     13  C   UNL A   1      34.872  24.275  25.630  1.00  0.00     0.013 C 
ATOM     14  C   UNL A   1      32.740  23.359  24.342  1.00  0.00     0.100 C 
BRANCH  14  15
ATOM     15  C   UNL A   1      33.267  23.936  23.073  1.00  0.00     0.228 C 
ATOM     16  O   UNL A   1      33.939  23.219  22.336  1.00  0.00    -0.274 OA
ATOM     17  N   UNL A   1      32.993  25.222  22.672  1.00  0.00    -0.326 N 
ATOM     18  H   UNL A   1      33.264  25.419  21.747  1.00  0.00     0.169 HD
BRANCH  17  19
ATOM     19  C   UNL A   1      32.399  26.305  23.334  1.00  0.00     0.042 A 
ATOM     20  C   UNL A   1      33.129  26.874  24.385  1.00  0.00     0.028 A 
ATOM     21  C   UNL A   1      31.182  26.876  22.957  1.00  0.00     0.043 A 
ATOM     22  C   UNL A   1      32.733  28.094  24.938  1.00  0.00     0.024 A 
ATOM     23  C   UNL A   1      30.770  28.091  23.529  1.00  0.00     0.038 A 
ATOM     24  C   UNL A   1      31.569  28.723  24.491  1.00  0.00     0.055 A 
ATOM     25  Br  UNL A   1      29.173  28.874  22.858  1.00  0.00    -0.049 Br
ATOM     26  Cl  UNL A   1      31.213  30.286  25.132  1.00  0.00    -0.083 Cl
ENDBRANCH  17  19
ENDBRANCH  14  15
ENDBRANCH   8  10
ENDBRANCH   7   8
ENDBRANCH   6   7
ENDBRANCH   5   6
ENDBRANCH   4   5
ENDBRANCH   3   4
ENDBRANCH   2   3
ENDBRANCH   1   2
BRANCH   1  27
ATOM     27  C   UNL A   1      41.625  19.317  26.126  1.00  0.00     0.188 C 
BRANCH  27  28
ATOM     28  C   UNL A   1      43.037  18.924  25.652  1.00  0.00     0.188 C 
BRANCH  28  29
ATOM     29  O   UNL A   1      43.632  19.839  24.742  1.00  0.00    -0.376 OA
BRANCH  29  30
ATOM     30  C   UNL A   1      44.160  21.033  25.299  1.00  0.00     0.202 C 
BRANCH  30  31
ATOM     31  C   UNL A   1      44.080  22.255  24.376  1.00  0.00     0.261 C 
BRANCH  31  32
ATOM     32  O   UNL A   1      43.363  23.384  24.905  1.00  0.00    -0.460 OA
BRANCH  32  33
ATOM     33  C   UNL A   1      44.032  24.550  25.033  1.00  0.00     0.338 C 
ATOM     34  O   UNL A   1      45.046  24.894  24.454  1.00  0.00    -0.246 OA
BRANCH  33  35
ATOM     35  C   UNL A   1      43.217  25.449  25.872  1.00  0.00     0.060 A 
ATOM     36  C   UNL A   1      43.625  26.781  26.026  1.00  0.00     0.016 A 
ATOM     37  C   UNL A   1      42.062  24.981  26.505  1.00  0.00     0.016 A 
ATOM     38  C   UNL A   1      42.912  27.633  26.867  1.00  0.00     0.010 A 
ATOM     39  C   UNL A   1      41.362  25.829  27.366  1.00  0.00     0.010 A 
ATOM     40  C   UNL A   1      41.815  27.140  27.588  1.00  0.00    -0.014 A 
BRANCH  40  41
ATOM     41  C   UNL A   1      41.339  27.895  28.770  1.00  0.00     0.031 A 
ATOM     42  C   UNL A   1      42.100  27.723  30.056  1.00  0.00     0.074 A 
ATOM     43  C   UNL A   1      40.292  28.735  28.707  1.00  0.00     0.049 A 
ATOM     44  N   UNL A   1      41.899  28.274  31.226  1.00  0.00    -0.248 NA
ATOM     45  C   UNL A   1      43.249  26.802  30.015  1.00  0.00     0.031 C 
ATOM     46  C   UNL A   1      39.495  29.011  27.516  1.00  0.00     0.029 A 
ATOM     47  N   UNL A   1      39.720  29.511  29.686  1.00  0.00    -0.354 N 
ATOM     48  C   UNL A   1      42.897  27.770  32.051  1.00  0.00     0.074 A 
ATOM     49  C   UNL A   1      43.679  26.843  31.264  1.00  0.00     0.031 C 
ATOM     50  C   UNL A   1      38.528  29.892  27.833  1.00  0.00     0.029 A 
ATOM     51  C   UNL A   1      38.628  30.222  29.255  1.00  0.00     0.049 A 
ATOM     52  H   UNL A   1      40.061  29.552  30.607  1.00  0.00     0.167 HD
ATOM     53  C   UNL A   1      43.149  28.063  33.347  1.00  0.00     0.037 A 
ATOM     54  C   UNL A   1      37.801  31.036  29.943  1.00  0.00     0.037 A 
ATOM     55  C   UNL A   1      42.366  28.974  34.137  1.00  0.00     0.049 A 
ATOM     56  C   UNL A   1      38.058  31.289  31.407  1.00  0.00     0.074 A 
ATOM     57  C   UNL A   1      42.543  29.344  35.457  1.00  0.00     0.029 A 
ATOM     58  N   UNL A   1      41.246  29.648  33.675  1.00  0.00    -0.354 N 
ATOM     59  N   UNL A   1      39.026  30.841  32.171  1.00  0.00    -0.248 NA
ATOM     60  C   UNL A   1      37.106  32.167  32.105  1.00  0.00     0.031 C 
ATOM     61  C   UNL A   1      41.502  30.209  35.810  1.00  0.00     0.029 A 
ATOM     62  C   UNL A   1      40.706  30.415  34.693  1.00  0.00     0.049 A 
ATOM     63  H   UNL A   1      40.888  29.590  32.760  1.00  0.00     0.167 HD
ATOM     64  C   UNL A   1      38.817  31.404  33.425  1.00  0.00     0.074 A 
ATOM     65  C   UNL A   1      37.639  32.237  33.317  1.00  0.00     0.031 C 
ATOM     66  C   UNL A   1      39.537  31.245  34.564  1.00  0.00     0.037 A 
BRANCH  53  67
ATOM     67  C   UNL A   1      44.308  27.366  33.996  1.00  0.00     0.064 A 
ATOM     68  C   UNL A   1      45.593  27.930  34.003  1.00  0.00     0.173 A 
ATOM     69  C   UNL A   1      44.130  26.124  34.622  1.00  0.00     0.173 A 
ATOM     70  F   UNL A   1      45.819  29.105  33.398  1.00  0.00    -0.203 F 
ATOM     71  C   UNL A   1      46.662  27.264  34.596  1.00  0.00     0.198 A 
ATOM     72  C   UNL A   1      45.195  25.474  35.237  1.00  0.00     0.198 A 
ATOM     73  F   UNL A   1      42.921  25.543  34.638  1.00  0.00    -0.203 F 
ATOM     74  F   UNL A   1      47.890  27.797  34.549  1.00  0.00    -0.200 F 
ATOM     75  C   UNL A   1      46.461  26.040  35.218  1.00  0.00     0.200 A 
ATOM     76  F   UNL A   1      44.999  24.295  35.844  1.00  0.00    -0.200 F 
ATOM     77  F   UNL A   1      47.490  25.401  35.790  1.00  0.00    -0.200 F 
ENDBRANCH  53  67
BRANCH  54  78
ATOM     78  C   UNL A   1      36.644  31.673  29.261  1.00  0.00     0.064 A 
ATOM     79  C   UNL A   1      36.612  33.055  29.025  1.00  0.00     0.173 A 
ATOM     80  C   UNL A   1      35.529  30.919  28.864  1.00  0.00     0.173 A 
ATOM     81  F   UNL A   1      37.642  33.823  29.411  1.00  0.00    -0.203 F 
ATOM     82  C   UNL A   1      35.503  33.661  28.438  1.00  0.00     0.198 A 
ATOM     83  C   UNL A   1      34.432  31.522  28.254  1.00  0.00     0.198 A 
ATOM     84  F   UNL A   1      35.506  29.595  29.073  1.00  0.00    -0.203 F 
ATOM     85  F   UNL A   1      35.478  34.990  28.271  1.00  0.00    -0.200 F 
ATOM     86  C   UNL A   1      34.416  32.893  28.049  1.00  0.00     0.200 A 
ATOM     87  F   UNL A   1      33.386  30.776  27.871  1.00  0.00    -0.200 F 
ATOM     88  F   UNL A   1      33.349  33.476  27.486  1.00  0.00    -0.200 F 
ENDBRANCH  54  78
BRANCH  66  89
ATOM     89  C   UNL A   1      39.093  32.013  35.776  1.00  0.00     0.064 A 
ATOM     90  C   UNL A   1      39.464  33.350  35.977  1.00  0.00     0.173 A 
ATOM     91  C   UNL A   1      38.246  31.416  36.723  1.00  0.00     0.173 A 
ATOM     92  F   UNL A   1      40.282  33.962  35.107  1.00  0.00    -0.203 F 
ATOM     93  C   UNL A   1      39.023  34.054  37.095  1.00  0.00     0.198 A 
ATOM     94  C   UNL A   1      37.784  32.132  37.823  1.00  0.00     0.198 A 
ATOM     95  F   UNL A   1      37.854  30.143  36.572  1.00  0.00    -0.203 F 
ATOM     96  F   UNL A   1      39.427  35.317  37.291  1.00  0.00    -0.200 F 
ATOM     97  C   UNL A   1      38.178  33.447  38.013  1.00  0.00     0.200 A 
ATOM     98  F   UNL A   1      36.954  31.549  38.699  1.00  0.00    -0.200 F 
ATOM     99  F   UNL A   1      37.749  34.130  39.083  1.00  0.00    -0.200 F 
ENDBRANCH  66  89
ENDBRANCH  40  41
ENDBRANCH  33  35
ENDBRANCH  32  33
ENDBRANCH  31  32
ENDBRANCH  30  31
ENDBRANCH  29  30
ENDBRANCH  28  29
ENDBRANCH  27  28
ENDBRANCH   1  27
TORSDOF 22
ENDMDL
MODEL 2
REMARK VINA RESULT:     -10.6      5.360     10.731
REMARK SMILES CC1(C)[C@H](C(=O)OCCOCCOCCOCCOC(=O)c2ccc(-c3c4nc(c(-c5c(F)c(F)c(F)c(F)c5F)c5ccc([nH]5)c(-c5c(F)c(F)c(F)c(F)c5F)c5nc(c(-c6c(F)c(F)c(F)c(F)c6F)c6ccc3[nH]6)C=C5)C=C4)cc2)[C@@H]1C(=O)Nc1ccc(Cl)c(Br)c1
REMARK SMILES IDX 13 1 12 2 11 3 10 4 9 5 8 6 7 7 5 8 6 9 4 10 1 11 2 12 3 13
REMARK SMILES IDX 85 14 86 15 87 16 88 17 89 19 90 20 96 21 91 22 94 23 92 24
REMARK SMILES IDX 95 25 93 26 14 27 15 28 16 29 17 30 18 31 19 32 20 33 21 34
REMARK SMILES IDX 22 35 23 36 84 37 24 38 83 39 25 40 26 41 27 42 77 43 28 44
REMARK SMILES IDX 82 45 76 46 78 47 29 48 81 49 75 50 74 51 30 53 62 54 42 55
REMARK SMILES IDX 61 56 43 57 46 58 60 59 79 60 44 61 45 62 59 64 80 65 47 66
REMARK SMILES IDX 31 67 32 68 40 69 33 70 34 71 38 72 41 73 35 74 36 75 39 76
REMARK SMILES IDX 37 77 63 78 64 79 72 80 65 81 66 82 70 83 73 84 67 85 68 86
REMARK SMILES IDX 71 87 69 88 48 89 49 90 57 91 50 92 51 93 55 94 58 95 52 96
REMARK SMILES IDX 53 97 56 98 54 99
REMARK H PARENT 88 18 78 52 46 63
REMARK Flexibility Score: inf
ROOT
ATOM      1  O   UNL A   1      32.949  32.063  27.574  1.00  0.00    -0.377 OA
ENDROOT
BRANCH   1   2
ATOM      2  C   UNL A   1      31.988  31.347  26.815  1.00  0.00     0.188 C 
BRANCH   2   3
ATOM      3  C   UNL A   1      31.973  29.813  26.927  1.00  0.00     0.188 C 
BRANCH   3   4
ATOM      4  O   UNL A   1      32.738  29.135  25.936  1.00  0.00    -0.376 OA
BRANCH   4   5
ATOM      5  C   UNL A   1      32.686  29.643  24.613  1.00  0.00     0.202 C 
BRANCH   5   6
ATOM      6  C   UNL A   1      31.584  29.056  23.718  1.00  0.00     0.261 C 
BRANCH   6   7
ATOM      7  O   UNL A   1      31.956  28.182  22.636  1.00  0.00    -0.463 OA
BRANCH   7   8
ATOM      8  C   UNL A   1      33.229  27.750  22.567  1.00  0.00     0.310 C 
ATOM      9  O   UNL A   1      34.086  28.184  21.812  1.00  0.00    -0.252 OA
BRANCH   8  10
ATOM     10  C   UNL A   1      33.610  26.705  23.534  1.00  0.00     0.118 C 
ATOM     11  C   UNL A   1      33.078  25.469  25.693  1.00  0.00     0.013 C 
ATOM     12  C   UNL A   1      32.739  25.691  24.234  1.00  0.00    -0.009 C 
ATOM     13  C   UNL A   1      31.253  25.592  23.974  1.00  0.00     0.013 C 
ATOM     14  C   UNL A   1      33.754  25.251  23.152  1.00  0.00     0.100 C 
BRANCH  14  15
ATOM     15  C   UNL A   1      33.248  24.618  21.901  1.00  0.00     0.228 C 
ATOM     16  O   UNL A   1      33.145  25.311  20.893  1.00  0.00    -0.274 OA
ATOM     17  N   UNL A   1      32.940  23.281  21.818  1.00  0.00    -0.326 N 
ATOM     18  H   UNL A   1      32.776  22.965  20.900  1.00  0.00     0.169 HD
BRANCH  17  19
ATOM     19  C   UNL A   1      32.814  22.284  22.794  1.00  0.00     0.042 A 
ATOM     20  C   UNL A   1      32.121  21.126  22.423  1.00  0.00     0.028 A 
ATOM     21  C   UNL A   1      33.396  22.358  24.061  1.00  0.00     0.043 A 
ATOM     22  C   UNL A   1      32.153  19.992  23.239  1.00  0.00     0.024 A 
ATOM     23  C   UNL A   1      33.410  21.226  24.894  1.00  0.00     0.038 A 
ATOM     24  C   UNL A   1      32.824  20.029  24.463  1.00  0.00     0.055 A 
ATOM     25  Br  UNL A   1      34.347  21.367  26.541  1.00  0.00    -0.049 Br
ATOM     26  Cl  UNL A   1      32.928  18.554  25.356  1.00  0.00    -0.083 Cl
ENDBRANCH  17  19
ENDBRANCH  14  15
ENDBRANCH   8  10
ENDBRANCH   7   8
ENDBRANCH   6   7
ENDBRANCH   5   6
ENDBRANCH   4   5
ENDBRANCH   3   4
ENDBRANCH   2   3
ENDBRANCH   1   2
BRANCH   1  27
ATOM     27  C   UNL A   1      32.769  33.457  27.798  1.00  0.00     0.188 C 
BRANCH  27  28
ATOM     28  C   UNL A   1      33.703  34.227  28.750  1.00  0.00     0.188 C 
BRANCH  28  29
ATOM     29  O   UNL A   1      33.085  34.681  29.947  1.00  0.00    -0.376 OA
BRANCH  29  30
ATOM     30  C   UNL A   1      33.949  35.198  30.948  1.00  0.00     0.202 C 
BRANCH  30  31
ATOM     31  C   UNL A   1      34.116  34.292  32.174  1.00  0.00     0.261 C 
BRANCH  31  32
ATOM     32  O   UNL A   1      34.705  33.006  31.916  1.00  0.00    -0.460 OA
BRANCH  32  33
ATOM     33  C   UNL A   1      35.621  32.546  32.794  1.00  0.00     0.338 C 
ATOM     34  O   UNL A   1      35.618  32.667  34.005  1.00  0.00    -0.246 OA
BRANCH  33  35
ATOM     35  C   UNL A   1      36.563  31.683  32.054  1.00  0.00     0.060 A 
ATOM     36  C   UNL A   1      37.447  30.873  32.781  1.00  0.00     0.016 A 
ATOM     37  C   UNL A   1      36.577  31.677  30.657  1.00  0.00     0.016 A 
ATOM     38  C   UNL A   1      38.392  30.101  32.109  1.00  0.00     0.010 A 
ATOM     39  C   UNL A   1      37.540  30.922  29.985  1.00  0.00     0.010 A 
ATOM     40  C   UNL A   1      38.481  30.172  30.711  1.00  0.00    -0.014 A 
BRANCH  40  41
ATOM     41  C   UNL A   1      39.723  29.707  30.050  1.00  0.00     0.031 A 
ATOM     42  C   UNL A   1      40.859  30.687  29.939  1.00  0.00     0.074 A 
ATOM     43  C   UNL A   1      39.861  28.452  29.592  1.00  0.00     0.049 A 
ATOM     44  N   UNL A   1      42.049  30.531  29.418  1.00  0.00    -0.248 NA
ATOM     45  C   UNL A   1      40.618  32.030  30.495  1.00  0.00     0.031 C 
ATOM     46  C   UNL A   1      38.848  27.404  29.669  1.00  0.00     0.029 A 
ATOM     47  N   UNL A   1      40.925  27.851  28.965  1.00  0.00    -0.354 N 
ATOM     48  C   UNL A   1      42.695  31.749  29.591  1.00  0.00     0.074 A 
ATOM     49  C   UNL A   1      41.757  32.646  30.229  1.00  0.00     0.031 C 
ATOM     50  C   UNL A   1      39.336  26.285  29.101  1.00  0.00     0.029 A 
ATOM     51  C   UNL A   1      40.687  26.548  28.605  1.00  0.00     0.049 A 
ATOM     52  H   UNL A   1      41.777  28.311  28.791  1.00  0.00     0.167 HD
ATOM     53  C   UNL A   1      43.962  32.088  29.260  1.00  0.00     0.037 A 
ATOM     54  C   UNL A   1      41.472  25.679  27.938  1.00  0.00     0.037 A 
ATOM     55  C   UNL A   1      44.892  31.204  28.614  1.00  0.00     0.049 A 
ATOM     56  C   UNL A   1      42.855  26.104  27.511  1.00  0.00     0.074 A 
ATOM     57  C   UNL A   1      46.202  31.449  28.244  1.00  0.00     0.029 A 
ATOM     58  N   UNL A   1      44.602  29.903  28.234  1.00  0.00    -0.354 N 
ATOM     59  N   UNL A   1      43.473  27.244  27.713  1.00  0.00    -0.248 NA
ATOM     60  C   UNL A   1      43.653  25.117  26.767  1.00  0.00     0.031 C 
ATOM     61  C   UNL A   1      46.690  30.310  27.595  1.00  0.00     0.029 A 
ATOM     62  C   UNL A   1      45.701  29.339  27.608  1.00  0.00     0.049 A 
ATOM     63  H   UNL A   1      43.742  29.448  28.385  1.00  0.00     0.167 HD
ATOM     64  C   UNL A   1      44.736  27.100  27.150  1.00  0.00     0.074 A 
ATOM     65  C   UNL A   1      44.802  25.759  26.610  1.00  0.00     0.031 C 
ATOM     66  C   UNL A   1      45.750  27.999  27.084  1.00  0.00     0.037 A 
BRANCH  53  67
ATOM     67  C   UNL A   1      44.400  33.488  29.571  1.00  0.00     0.064 A 
ATOM     68  C   UNL A   1      44.927  33.832  30.825  1.00  0.00     0.173 A 
ATOM     69  C   UNL A   1      44.300  34.496  28.601  1.00  0.00     0.173 A 
ATOM     70  F   UNL A   1      45.022  32.908  31.794  1.00  0.00    -0.203 F 
ATOM     71  C   UNL A   1      45.315  35.138  31.104  1.00  0.00     0.198 A 
ATOM     72  C   UNL A   1      44.715  35.795  28.873  1.00  0.00     0.198 A 
ATOM     73  F   UNL A   1      43.800  34.218  27.387  1.00  0.00    -0.203 F 
ATOM     74  F   UNL A   1      45.770  35.455  32.324  1.00  0.00    -0.200 F 
ATOM     75  C   UNL A   1      45.216  36.118  30.126  1.00  0.00     0.200 A 
ATOM     76  F   UNL A   1      44.625  36.739  27.926  1.00  0.00    -0.200 F 
ATOM     77  F   UNL A   1      45.592  37.375  30.394  1.00  0.00    -0.200 F 
ENDBRANCH  53  67
BRANCH  54  78
ATOM     78  C   UNL A   1      40.975  24.313  27.622  1.00  0.00     0.064 A 
ATOM     79  C   UNL A   1      41.556  23.178  28.203  1.00  0.00     0.173 A 
ATOM     80  C   UNL A   1      39.932  24.115  26.705  1.00  0.00     0.173 A 
ATOM     81  F   UNL A   1      42.575  23.314  29.065  1.00  0.00    -0.203 F 
ATOM     82  C   UNL A   1      41.128  21.895  27.863  1.00  0.00     0.198 A 
ATOM     83  C   UNL A   1      39.488  22.833  26.385  1.00  0.00     0.198 A 
ATOM     84  F   UNL A   1      39.347  25.167  26.116  1.00  0.00    -0.203 F 
ATOM     85  F   UNL A   1      41.735  20.826  28.394  1.00  0.00    -0.200 F 
ATOM     86  C   UNL A   1      40.092  21.725  26.958  1.00  0.00     0.200 A 
ATOM     87  F   UNL A   1      38.480  22.672  25.517  1.00  0.00    -0.200 F 
ATOM     88  F   UNL A   1      39.681  20.492  26.631  1.00  0.00    -0.200 F 
ENDBRANCH  54  78
BRANCH  66  89
ATOM     89  C   UNL A   1      47.030  27.552  26.439  1.00  0.00     0.064 A 
ATOM     90  C   UNL A   1      48.030  26.890  27.165  1.00  0.00     0.173 A 
ATOM     91  C   UNL A   1      47.237  27.748  25.064  1.00  0.00     0.173 A 
ATOM     92  F   UNL A   1      47.885  26.689  28.484  1.00  0.00    -0.203 F 
ATOM     93  C   UNL A   1      49.200  26.461  26.544  1.00  0.00     0.198 A 
ATOM     94  C   UNL A   1      48.395  27.293  24.441  1.00  0.00     0.198 A 
ATOM     95  F   UNL A   1      46.308  28.368  24.322  1.00  0.00    -0.203 F 
ATOM     96  F   UNL A   1      50.162  25.870  27.267  1.00  0.00    -0.200 F 
ATOM     97  C   UNL A   1      49.379  26.656  25.182  1.00  0.00     0.200 A 
ATOM     98  F   UNL A   1      48.558  27.467  23.123  1.00  0.00    -0.200 F 
ATOM     99  F   UNL A   1      50.503  26.235  24.586  1.00  0.00    -0.200 F 
ENDBRANCH  66  89
ENDBRANCH  40  41
ENDBRANCH  33  35
ENDBRANCH  32  33
ENDBRANCH  31  32
ENDBRANCH  30  31
ENDBRANCH  29  30
ENDBRANCH  28  29
ENDBRANCH  27  28
ENDBRANCH   1  27
TORSDOF 22
ENDMDL
MODEL 3
REMARK VINA RESULT:     -10.4      5.471     10.837
REMARK SMILES CC1(C)[C@H](C(=O)OCCOCCOCCOCCOC(=O)c2ccc(-c3c4nc(c(-c5c(F)c(F)c(F)c(F)c5F)c5ccc([nH]5)c(-c5c(F)c(F)c(F)c(F)c5F)c5nc(c(-c6c(F)c(F)c(F)c(F)c6F)c6ccc3[nH]6)C=C5)C=C4)cc2)[C@@H]1C(=O)Nc1ccc(Cl)c(Br)c1
REMARK SMILES IDX 13 1 12 2 11 3 10 4 9 5 8 6 7 7 5 8 6 9 4 10 1 11 2 12 3 13
REMARK SMILES IDX 85 14 86 15 87 16 88 17 89 19 90 20 96 21 91 22 94 23 92 24
REMARK SMILES IDX 95 25 93 26 14 27 15 28 16 29 17 30 18 31 19 32 20 33 21 34
REMARK SMILES IDX 22 35 23 36 84 37 24 38 83 39 25 40 26 41 27 42 77 43 28 44
REMARK SMILES IDX 82 45 76 46 78 47 29 48 81 49 75 50 74 51 30 53 62 54 42 55
REMARK SMILES IDX 61 56 43 57 46 58 60 59 79 60 44 61 45 62 59 64 80 65 47 66
REMARK SMILES IDX 31 67 32 68 40 69 33 70 34 71 38 72 41 73 35 74 36 75 39 76
REMARK SMILES IDX 37 77 63 78 64 79 72 80 65 81 66 82 70 83 73 84 67 85 68 86
REMARK SMILES IDX 71 87 69 88 48 89 49 90 57 91 50 92 51 93 55 94 58 95 52 96
REMARK SMILES IDX 53 97 56 98 54 99
REMARK H PARENT 88 18 78 52 46 63
REMARK Flexibility Score: inf
ROOT
ATOM      1  O   UNL A   1      33.555  31.967  27.754  1.00  0.00    -0.377 OA
ENDROOT
BRANCH   1   2
ATOM      2  C   UNL A   1      32.516  31.615  26.854  1.00  0.00     0.188 C 
BRANCH   2   3
ATOM      3  C   UNL A   1      32.024  30.158  26.851  1.00  0.00     0.188 C 
BRANCH   3   4
ATOM      4  O   UNL A   1      32.911  29.230  26.236  1.00  0.00    -0.376 OA
BRANCH   4   5
ATOM      5  C   UNL A   1      32.992  29.246  24.821  1.00  0.00     0.202 C 
BRANCH   5   6
ATOM      6  C   UNL A   1      31.648  29.319  24.079  1.00  0.00     0.261 C 
BRANCH   6   7
ATOM      7  O   UNL A   1      30.528  28.569  24.588  1.00  0.00    -0.463 OA
BRANCH   7   8
ATOM      8  C   UNL A   1      30.345  27.309  24.151  1.00  0.00     0.310 C 
ATOM      9  O   UNL A   1      29.695  26.986  23.169  1.00  0.00    -0.252 OA
BRANCH   8  10
ATOM     10  C   UNL A   1      31.049  26.255  24.905  1.00  0.00     0.118 C 
ATOM     11  C   UNL A   1      30.977  23.932  25.938  1.00  0.00     0.013 C 
ATOM     12  C   UNL A   1      31.057  24.764  24.676  1.00  0.00    -0.009 C 
ATOM     13  C   UNL A   1      30.314  24.124  23.525  1.00  0.00     0.013 C 
ATOM     14  C   UNL A   1      32.324  25.612  24.414  1.00  0.00     0.100 C 
BRANCH  14  15
ATOM     15  C   UNL A   1      32.869  25.689  23.029  1.00  0.00     0.228 C 
ATOM     16  O   UNL A   1      32.541  26.637  22.321  1.00  0.00    -0.274 OA
ATOM     17  N   UNL A   1      33.761  24.770  22.530  1.00  0.00    -0.326 N 
ATOM     18  H   UNL A   1      34.162  25.029  21.669  1.00  0.00     0.169 HD
BRANCH  17  19
ATOM     19  C   UNL A   1      34.205  23.533  23.016  1.00  0.00     0.042 A 
ATOM     20  C   UNL A   1      35.583  23.400  23.228  1.00  0.00     0.028 A 
ATOM     21  C   UNL A   1      33.354  22.481  23.361  1.00  0.00     0.043 A 
ATOM     22  C   UNL A   1      36.085  22.302  23.931  1.00  0.00     0.024 A 
ATOM     23  C   UNL A   1      33.861  21.365  24.048  1.00  0.00     0.038 A 
ATOM     24  C   UNL A   1      35.222  21.296  24.370  1.00  0.00     0.055 A 
ATOM     25  Br  UNL A   1      32.613  20.045  24.607  1.00  0.00    -0.049 Br
ATOM     26  Cl  UNL A   1      35.899  20.037  25.340  1.00  0.00    -0.083 Cl
ENDBRANCH  17  19
ENDBRANCH  14  15
ENDBRANCH   8  10
ENDBRANCH   7   8
ENDBRANCH   6   7
ENDBRANCH   5   6
ENDBRANCH   4   5
ENDBRANCH   3   4
ENDBRANCH   2   3
ENDBRANCH   1   2
BRANCH   1  27
ATOM     27  C   UNL A   1      33.775  33.338  28.068  1.00  0.00     0.188 C 
BRANCH  27  28
ATOM     28  C   UNL A   1      34.548  33.738  29.339  1.00  0.00     0.188 C 
BRANCH  28  29
ATOM     29  O   UNL A   1      33.729  34.101  30.442  1.00  0.00    -0.376 OA
BRANCH  29  30
ATOM     30  C   UNL A   1      34.401  34.539  31.613  1.00  0.00     0.202 C 
BRANCH  30  31
ATOM     31  C   UNL A   1      34.437  33.510  32.749  1.00  0.00     0.261 C 
BRANCH  31  32
ATOM     32  O   UNL A   1      35.159  32.299  32.464  1.00  0.00    -0.460 OA
BRANCH  32  33
ATOM     33  C   UNL A   1      36.289  32.062  33.163  1.00  0.00     0.338 C 
ATOM     34  O   UNL A   1      36.516  32.337  34.327  1.00  0.00    -0.246 OA
BRANCH  33  35
ATOM     35  C   UNL A   1      37.170  31.223  32.328  1.00  0.00     0.060 A 
ATOM     36  C   UNL A   1      38.169  30.464  32.953  1.00  0.00     0.016 A 
ATOM     37  C   UNL A   1      37.015  31.189  30.940  1.00  0.00     0.016 A 
ATOM     38  C   UNL A   1      39.058  29.717  32.183  1.00  0.00     0.010 A 
ATOM     39  C   UNL A   1      37.920  30.459  30.167  1.00  0.00     0.010 A 
ATOM     40  C   UNL A   1      38.974  29.763  30.784  1.00  0.00    -0.014 A 
BRANCH  40  41
ATOM     41  C   UNL A   1      40.144  29.335  29.983  1.00  0.00     0.031 A 
ATOM     42  C   UNL A   1      41.227  30.351  29.738  1.00  0.00     0.074 A 
ATOM     43  C   UNL A   1      40.270  28.082  29.515  1.00  0.00     0.049 A 
ATOM     44  N   UNL A   1      42.353  30.231  29.083  1.00  0.00    -0.248 NA
ATOM     45  C   UNL A   1      41.008  31.688  30.316  1.00  0.00     0.031 C 
ATOM     46  C   UNL A   1      39.308  27.002  29.711  1.00  0.00     0.029 A 
ATOM     47  N   UNL A   1      41.273  27.512  28.769  1.00  0.00    -0.354 N 
ATOM     48  C   UNL A   1      42.973  31.470  29.176  1.00  0.00     0.074 A 
ATOM     49  C   UNL A   1      42.088  32.339  29.917  1.00  0.00     0.031 C 
ATOM     50  C   UNL A   1      39.763  25.896  29.093  1.00  0.00     0.029 A 
ATOM     51  C   UNL A   1      41.037  26.201  28.442  1.00  0.00     0.049 A 
ATOM     52  H   UNL A   1      42.083  27.999  28.496  1.00  0.00     0.167 HD
ATOM     53  C   UNL A   1      44.181  31.849  28.700  1.00  0.00     0.037 A 
ATOM     54  C   UNL A   1      41.768  25.353  27.689  1.00  0.00     0.037 A 
ATOM     55  C   UNL A   1      45.059  30.991  27.951  1.00  0.00     0.049 A 
ATOM     56  C   UNL A   1      43.077  25.821  27.104  1.00  0.00     0.074 A 
ATOM     57  C   UNL A   1      46.308  31.277  27.430  1.00  0.00     0.029 A 
ATOM     58  N   UNL A   1      44.769  29.679  27.610  1.00  0.00    -0.354 N 
ATOM     59  N   UNL A   1      43.676  26.982  27.230  1.00  0.00    -0.248 NA
ATOM     60  C   UNL A   1      43.815  24.857  26.274  1.00  0.00     0.031 C 
ATOM     61  C   UNL A   1      46.754  30.151  26.731  1.00  0.00     0.029 A 
ATOM     62  C   UNL A   1      45.806  29.148  26.861  1.00  0.00     0.049 A 
ATOM     63  H   UNL A   1      43.949  29.197  27.861  1.00  0.00     0.167 HD
ATOM     64  C   UNL A   1      44.869  26.876  26.523  1.00  0.00     0.074 A 
ATOM     65  C   UNL A   1      44.916  25.535  25.982  1.00  0.00     0.031 C 
ATOM     66  C   UNL A   1      45.838  27.807  26.338  1.00  0.00     0.037 A 
BRANCH  53  67
ATOM     67  C   UNL A   1      44.606  33.264  28.953  1.00  0.00     0.064 A 
ATOM     68  C   UNL A   1      44.480  34.256  27.969  1.00  0.00     0.173 A 
ATOM     69  C   UNL A   1      45.138  33.634  30.197  1.00  0.00     0.173 A 
ATOM     70  F   UNL A   1      43.997  33.947  26.756  1.00  0.00    -0.203 F 
ATOM     71  C   UNL A   1      44.893  35.562  28.214  1.00  0.00     0.198 A 
ATOM     72  C   UNL A   1      45.525  34.946  30.448  1.00  0.00     0.198 A 
ATOM     73  F   UNL A   1      45.282  32.720  31.169  1.00  0.00    -0.203 F 
ATOM     74  F   UNL A   1      44.809  36.483  27.244  1.00  0.00    -0.200 F 
ATOM     75  C   UNL A   1      45.408  35.908  29.454  1.00  0.00     0.200 A 
ATOM     76  F   UNL A   1      46.016  35.281  31.648  1.00  0.00    -0.200 F 
ATOM     77  F   UNL A   1      45.804  37.166  29.690  1.00  0.00    -0.200 F 
ENDBRANCH  53  67
BRANCH  54  78
ATOM     78  C   UNL A   1      41.283  23.970  27.436  1.00  0.00     0.064 A 
ATOM     79  C   UNL A   1      41.914  22.863  28.019  1.00  0.00     0.173 A 
ATOM     80  C   UNL A   1      40.200  23.727  26.578  1.00  0.00     0.173 A 
ATOM     81  F   UNL A   1      42.972  23.042  28.825  1.00  0.00    -0.203 F 
ATOM     82  C   UNL A   1      41.495  21.564  27.736  1.00  0.00     0.198 A 
ATOM     83  C   UNL A   1      39.766  22.429  26.317  1.00  0.00     0.198 A 
ATOM     84  F   UNL A   1      39.566  24.751  25.991  1.00  0.00    -0.203 F 
ATOM     85  F   UNL A   1      42.149  20.521  28.266  1.00  0.00    -0.200 F 
ATOM     86  C   UNL A   1      40.419  21.348  26.890  1.00  0.00     0.200 A 
ATOM     87  F   UNL A   1      38.720  22.225  25.505  1.00  0.00    -0.200 F 
ATOM     88  F   UNL A   1      40.018  20.099  26.617  1.00  0.00    -0.200 F 
ENDBRANCH  54  78
BRANCH  66  89
ATOM     89  C   UNL A   1      47.048  27.399  25.548  1.00  0.00     0.064 A 
ATOM     90  C   UNL A   1      47.135  27.621  24.166  1.00  0.00     0.173 A 
ATOM     91  C   UNL A   1      48.154  26.821  26.192  1.00  0.00     0.173 A 
ATOM     92  F   UNL A   1      46.101  28.159  23.503  1.00  0.00    -0.203 F 
ATOM     93  C   UNL A   1      48.275  27.258  23.454  1.00  0.00     0.198 A 
ATOM     94  C   UNL A   1      49.303  26.486  25.482  1.00  0.00     0.198 A 
ATOM     95  F   UNL A   1      48.125  26.596  27.514  1.00  0.00    -0.203 F 
ATOM     96  F   UNL A   1      48.319  27.438  22.127  1.00  0.00    -0.200 F 
ATOM     97  C   UNL A   1      49.360  26.698  24.113  1.00  0.00     0.200 A 
ATOM     98  F   UNL A   1      50.355  25.960  26.122  1.00  0.00    -0.200 F 
ATOM     99  F   UNL A   1      50.460  26.357  23.426  1.00  0.00    -0.200 F 
ENDBRANCH  66  89
ENDBRANCH  40  41
ENDBRANCH  33  35
ENDBRANCH  32  33
ENDBRANCH  31  32
ENDBRANCH  30  31
ENDBRANCH  29  30
ENDBRANCH  28  29
ENDBRANCH  27  28
ENDBRANCH   1  27
TORSDOF 22
ENDMDL
