MODEL 1
REMARK VINA RESULT:      -8.6      0.000      0.000
REMARK SMILES CS(=O)(=O)c1ccc(N2N=C(C(=O)OCCOCCOCCOCCOC(=O)c3ccc(-c4c5nc(c(-c6c(F)c(F)c(F)c(F)c6F)c6ccc([nH]6)c(-c6c(F)c(F)c(F)c(F)c6F)c6nc(c(-c7c(F)c(F)c(F)c(F)c7F)c7ccc4[nH]7)C=C6)C=C5)cc3)C[C@H]2c2ccco2)cc1
REMARK SMILES IDX 20 1 19 2 18 3 17 4 16 5 15 6 14 7 12 8 13 9 11 10 9 11
REMARK SMILES IDX 10 12 93 13 92 14 8 15 5 16 6 17 100 18 7 19 99 20 2 21 1 22
REMARK SMILES IDX 3 23 4 24 94 25 95 26 98 27 96 28 97 29 21 30 22 31 23 32
REMARK SMILES IDX 24 33 25 34 26 35 27 36 28 37 29 38 30 39 91 40 31 41 90 42
REMARK SMILES IDX 32 43 33 44 34 45 84 46 35 47 89 48 83 49 85 50 36 51 88 52
REMARK SMILES IDX 82 53 81 54 37 56 69 57 49 58 68 59 50 60 53 61 67 62 86 63
REMARK SMILES IDX 51 64 52 65 66 67 87 68 54 69 38 70 39 71 47 72 40 73 41 74
REMARK SMILES IDX 45 75 48 76 42 77 43 78 46 79 44 80 70 81 71 82 79 83 72 84
REMARK SMILES IDX 73 85 77 86 80 87 74 88 75 89 78 90 76 91 55 92 56 93 64 94
REMARK SMILES IDX 57 95 58 96 62 97 65 98 59 99 60 100 63 101 61 102
REMARK H PARENT 85 55 53 66
REMARK Flexibility Score: inf
ROOT
ATOM      1  O   UNL A   1      38.723  36.202  41.697  1.00  0.00    -0.377 OA
ENDROOT
BRANCH   1   2
ATOM      2  C   UNL A   1      38.526  34.799  41.792  1.00  0.00     0.188 C 
BRANCH   2   3
ATOM      3  C   UNL A   1      38.432  34.097  40.427  1.00  0.00     0.188 C 
BRANCH   3   4
ATOM      4  O   UNL A   1      37.273  33.276  40.317  1.00  0.00    -0.376 OA
BRANCH   4   5
ATOM      5  C   UNL A   1      37.356  32.126  39.484  1.00  0.00     0.202 C 
BRANCH   5   6
ATOM      6  C   UNL A   1      37.908  32.298  38.060  1.00  0.00     0.261 C 
BRANCH   6   7
ATOM      7  O   UNL A   1      37.559  31.252  37.148  1.00  0.00    -0.459 OA
BRANCH   7   8
ATOM      8  C   UNL A   1      38.447  30.917  36.197  1.00  0.00     0.354 C 
ATOM      9  O   UNL A   1      39.316  30.069  36.252  1.00  0.00    -0.245 OA
BRANCH   8  10
ATOM     10  C   UNL A   1      38.072  31.687  34.952  1.00  0.00     0.148 C 
ATOM     11  N   UNL A   1      37.046  32.963  33.617  1.00  0.00    -0.254 N 
ATOM     12  N   UNL A   1      36.998  32.415  34.864  1.00  0.00    -0.169 NA
ATOM     13  C   UNL A   1      38.073  32.354  32.753  1.00  0.00     0.180 C 
ATOM     14  C   UNL A   1      39.032  31.782  33.805  1.00  0.00     0.101 C 
BRANCH  11  15
ATOM     15  C   UNL A   1      36.017  33.776  33.168  1.00  0.00     0.060 A 
ATOM     16  C   UNL A   1      34.045  35.540  32.211  1.00  0.00     0.067 A 
ATOM     17  C   UNL A   1      34.539  35.693  33.507  1.00  0.00     0.022 A 
ATOM     18  C   UNL A   1      34.492  34.494  31.405  1.00  0.00     0.022 A 
ATOM     19  C   UNL A   1      35.516  34.806  33.979  1.00  0.00     0.029 A 
ATOM     20  C   UNL A   1      35.462  33.614  31.893  1.00  0.00     0.029 A 
BRANCH  16  21
ATOM     21  S   UNL A   1      32.902  36.732  31.551  1.00  0.00     0.175 S 
ATOM     22  C   UNL A   1      33.287  36.843  29.827  1.00  0.00     0.163 C 
ATOM     23  O   UNL A   1      33.215  38.019  32.146  1.00  0.00    -0.224 OA
ATOM     24  O   UNL A   1      31.578  36.156  31.685  1.00  0.00    -0.224 OA
ENDBRANCH  16  21
ENDBRANCH  11  15
BRANCH  13  25
ATOM     25  C   UNL A   1      37.616  31.295  31.788  1.00  0.00     0.128 A 
ATOM     26  C   UNL A   1      36.745  30.228  31.899  1.00  0.00     0.048 A 
ATOM     27  O   UNL A   1      38.101  31.350  30.510  1.00  0.00    -0.467 OA
ATOM     28  C   UNL A   1      36.717  29.594  30.633  1.00  0.00     0.042 A 
ATOM     29  C   UNL A   1      37.545  30.326  29.819  1.00  0.00     0.195 A 
ENDBRANCH  13  25
ENDBRANCH   8  10
ENDBRANCH   7   8
ENDBRANCH   6   7
ENDBRANCH   5   6
ENDBRANCH   4   5
ENDBRANCH   3   4
ENDBRANCH   2   3
ENDBRANCH   1   2
BRANCH   1  30
ATOM     30  C   UNL A   1      39.801  36.782  42.435  1.00  0.00     0.188 C 
BRANCH  30  31
ATOM     31  C   UNL A   1      40.427  38.146  42.056  1.00  0.00     0.188 C 
BRANCH  31  32
ATOM     32  O   UNL A   1      41.844  38.133  41.925  1.00  0.00    -0.376 OA
BRANCH  32  33
ATOM     33  C   UNL A   1      42.376  37.874  40.634  1.00  0.00     0.202 C 
BRANCH  33  34
ATOM     34  C   UNL A   1      41.403  38.151  39.480  1.00  0.00     0.261 C 
BRANCH  34  35
ATOM     35  O   UNL A   1      40.778  36.981  38.925  1.00  0.00    -0.460 OA
BRANCH  35  36
ATOM     36  C   UNL A   1      41.484  35.833  38.992  1.00  0.00     0.338 C 
ATOM     37  O   UNL A   1      41.696  35.153  39.979  1.00  0.00    -0.246 OA
BRANCH  36  38
ATOM     38  C   UNL A   1      41.828  35.415  37.620  1.00  0.00     0.060 A 
ATOM     39  C   UNL A   1      40.786  35.095  36.742  1.00  0.00     0.016 A 
ATOM     40  C   UNL A   1      43.161  35.283  37.223  1.00  0.00     0.016 A 
ATOM     41  C   UNL A   1      41.076  34.562  35.490  1.00  0.00     0.010 A 
ATOM     42  C   UNL A   1      43.451  34.739  35.969  1.00  0.00     0.010 A 
ATOM     43  C   UNL A   1      42.408  34.322  35.123  1.00  0.00    -0.014 A 
BRANCH  43  44
ATOM     44  C   UNL A   1      42.678  33.414  33.983  1.00  0.00     0.031 A 
ATOM     45  C   UNL A   1      42.920  34.030  32.629  1.00  0.00     0.074 A 
ATOM     46  C   UNL A   1      42.778  32.084  34.150  1.00  0.00     0.049 A 
ATOM     47  N   UNL A   1      43.226  33.456  31.494  1.00  0.00    -0.248 NA
ATOM     48  C   UNL A   1      42.800  35.496  32.546  1.00  0.00     0.031 C 
ATOM     49  C   UNL A   1      42.589  31.373  35.411  1.00  0.00     0.029 A 
ATOM     50  N   UNL A   1      43.068  31.096  33.243  1.00  0.00    -0.354 N 
ATOM     51  C   UNL A   1      43.336  34.487  30.569  1.00  0.00     0.074 A 
ATOM     52  C   UNL A   1      43.025  35.717  31.260  1.00  0.00     0.031 C 
ATOM     53  C   UNL A   1      42.765  30.057  35.198  1.00  0.00     0.029 A 
ATOM     54  C   UNL A   1      43.062  29.834  33.783  1.00  0.00     0.049 A 
ATOM     55  H   UNL A   1      43.261  31.275  32.294  1.00  0.00     0.167 HD
ATOM     56  C   UNL A   1      43.680  34.416  29.261  1.00  0.00     0.037 A 
ATOM     57  C   UNL A   1      43.267  28.639  33.196  1.00  0.00     0.037 A 
ATOM     58  C   UNL A   1      43.995  33.194  28.572  1.00  0.00     0.049 A 
ATOM     59  C   UNL A   1      43.610  28.588  31.727  1.00  0.00     0.074 A 
ATOM     60  C   UNL A   1      44.375  33.021  27.253  1.00  0.00     0.029 A 
ATOM     61  N   UNL A   1      43.962  31.935  29.149  1.00  0.00    -0.354 N 
ATOM     62  N   UNL A   1      43.756  29.570  30.871  1.00  0.00    -0.248 NA
ATOM     63  C   UNL A   1      43.835  27.255  31.148  1.00  0.00     0.031 C 
ATOM     64  C   UNL A   1      44.523  31.649  27.019  1.00  0.00     0.029 A 
ATOM     65  C   UNL A   1      44.293  30.974  28.207  1.00  0.00     0.049 A 
ATOM     66  H   UNL A   1      43.736  31.749  30.090  1.00  0.00     0.167 HD
ATOM     67  C   UNL A   1      44.120  28.978  29.667  1.00  0.00     0.074 A 
ATOM     68  C   UNL A   1      44.193  27.554  29.908  1.00  0.00     0.031 C 
ATOM     69  C   UNL A   1      44.371  29.561  28.467  1.00  0.00     0.037 A 
BRANCH  56  70
ATOM     70  C   UNL A   1      43.714  35.699  28.483  1.00  0.00     0.064 A 
ATOM     71  C   UNL A   1      44.905  36.411  28.285  1.00  0.00     0.173 A 
ATOM     72  C   UNL A   1      42.542  36.202  27.897  1.00  0.00     0.173 A 
ATOM     73  F   UNL A   1      46.049  35.983  28.841  1.00  0.00    -0.203 F 
ATOM     74  C   UNL A   1      44.920  37.591  27.544  1.00  0.00     0.198 A 
ATOM     75  C   UNL A   1      42.566  37.365  27.133  1.00  0.00     0.198 A 
ATOM     76  F   UNL A   1      41.376  35.559  28.058  1.00  0.00    -0.203 F 
ATOM     77  F   UNL A   1      46.062  38.277  27.403  1.00  0.00    -0.200 F 
ATOM     78  C   UNL A   1      43.753  38.061  26.962  1.00  0.00     0.200 A 
ATOM     79  F   UNL A   1      41.439  37.813  26.563  1.00  0.00    -0.200 F 
ATOM     80  F   UNL A   1      43.770  39.190  26.240  1.00  0.00    -0.200 F 
ENDBRANCH  56  70
BRANCH  57  81
ATOM     81  C   UNL A   1      43.153  27.385  33.987  1.00  0.00     0.064 A 
ATOM     82  C   UNL A   1      41.903  26.844  34.320  1.00  0.00     0.173 A 
ATOM     83  C   UNL A   1      44.295  26.729  34.469  1.00  0.00     0.173 A 
ATOM     84  F   UNL A   1      40.779  27.448  33.905  1.00  0.00    -0.203 F 
ATOM     85  C   UNL A   1      41.799  25.716  35.133  1.00  0.00     0.198 A 
ATOM     86  C   UNL A   1      44.191  25.583  35.255  1.00  0.00     0.198 A 
ATOM     87  F   UNL A   1      45.515  27.205  34.181  1.00  0.00    -0.203 F 
ATOM     88  F   UNL A   1      40.591  25.259  35.488  1.00  0.00    -0.200 F 
ATOM     89  C   UNL A   1      42.943  25.085  35.596  1.00  0.00     0.200 A 
ATOM     90  F   UNL A   1      45.300  24.970  35.691  1.00  0.00    -0.200 F 
ATOM     91  F   UNL A   1      42.843  24.004  36.381  1.00  0.00    -0.200 F 
ENDBRANCH  57  81
BRANCH  69  92
ATOM     92  C   UNL A   1      44.792  28.661  27.339  1.00  0.00     0.064 A 
ATOM     93  C   UNL A   1      43.856  28.027  26.508  1.00  0.00     0.173 A 
ATOM     94  C   UNL A   1      46.155  28.446  27.076  1.00  0.00     0.173 A 
ATOM     95  F   UNL A   1      42.542  28.192  26.723  1.00  0.00    -0.203 F 
ATOM     96  C   UNL A   1      44.267  27.179  25.482  1.00  0.00     0.198 A 
ATOM     97  C   UNL A   1      46.562  27.624  26.028  1.00  0.00     0.198 A 
ATOM     98  F   UNL A   1      47.092  29.036  27.832  1.00  0.00    -0.203 F 
ATOM     99  F   UNL A   1      43.354  26.534  24.743  1.00  0.00    -0.200 F 
ATOM    100  C   UNL A   1      45.618  26.982  25.241  1.00  0.00     0.200 A 
ATOM    101  F   UNL A   1      47.868  27.450  25.785  1.00  0.00    -0.200 F 
ATOM    102  F   UNL A   1      46.012  26.165  24.254  1.00  0.00    -0.200 F 
ENDBRANCH  69  92
ENDBRANCH  43  44
ENDBRANCH  36  38
ENDBRANCH  35  36
ENDBRANCH  34  35
ENDBRANCH  33  34
ENDBRANCH  32  33
ENDBRANCH  31  32
ENDBRANCH  30  31
ENDBRANCH   1  30
TORSDOF 23
ENDMDL
MODEL 2
REMARK VINA RESULT:      -8.6      8.733     12.830
REMARK SMILES CS(=O)(=O)c1ccc(N2N=C(C(=O)OCCOCCOCCOCCOC(=O)c3ccc(-c4c5nc(c(-c6c(F)c(F)c(F)c(F)c6F)c6ccc([nH]6)c(-c6c(F)c(F)c(F)c(F)c6F)c6nc(c(-c7c(F)c(F)c(F)c(F)c7F)c7ccc4[nH]7)C=C6)C=C5)cc3)C[C@H]2c2ccco2)cc1
REMARK SMILES IDX 20 1 19 2 18 3 17 4 16 5 15 6 14 7 12 8 13 9 11 10 9 11
REMARK SMILES IDX 10 12 93 13 92 14 8 15 5 16 6 17 100 18 7 19 99 20 2 21 1 22
REMARK SMILES IDX 3 23 4 24 94 25 95 26 98 27 96 28 97 29 21 30 22 31 23 32
REMARK SMILES IDX 24 33 25 34 26 35 27 36 28 37 29 38 30 39 91 40 31 41 90 42
REMARK SMILES IDX 32 43 33 44 34 45 84 46 35 47 89 48 83 49 85 50 36 51 88 52
REMARK SMILES IDX 82 53 81 54 37 56 69 57 49 58 68 59 50 60 53 61 67 62 86 63
REMARK SMILES IDX 51 64 52 65 66 67 87 68 54 69 38 70 39 71 47 72 40 73 41 74
REMARK SMILES IDX 45 75 48 76 42 77 43 78 46 79 44 80 70 81 71 82 79 83 72 84
REMARK SMILES IDX 73 85 77 86 80 87 74 88 75 89 78 90 76 91 55 92 56 93 64 94
REMARK SMILES IDX 57 95 58 96 62 97 65 98 59 99 60 100 63 101 61 102
REMARK H PARENT 85 55 53 66
REMARK Flexibility Score: inf
ROOT
ATOM      1  O   UNL A   1      37.930  23.065  25.293  1.00  0.00    -0.377 OA
ENDROOT
BRANCH   1   2
ATOM      2  C   UNL A   1      36.637  23.440  25.745  1.00  0.00     0.188 C 
BRANCH   2   3
ATOM      3  C   UNL A   1      35.882  22.307  26.459  1.00  0.00     0.188 C 
BRANCH   3   4
ATOM      4  O   UNL A   1      34.513  22.238  26.073  1.00  0.00    -0.376 OA
BRANCH   4   5
ATOM      5  C   UNL A   1      33.637  21.464  26.881  1.00  0.00     0.202 C 
BRANCH   5   6
ATOM      6  C   UNL A   1      32.137  21.802  26.860  1.00  0.00     0.261 C 
BRANCH   6   7
ATOM      7  O   UNL A   1      31.761  22.816  25.921  1.00  0.00    -0.459 OA
BRANCH   7   8
ATOM      8  C   UNL A   1      30.936  23.790  26.337  1.00  0.00     0.354 C 
ATOM      9  O   UNL A   1      30.160  23.764  27.273  1.00  0.00    -0.245 OA
BRANCH   8  10
ATOM     10  C   UNL A   1      31.257  25.019  25.518  1.00  0.00     0.148 C 
ATOM     11  N   UNL A   1      31.067  26.883  24.541  1.00  0.00    -0.254 N 
ATOM     12  N   UNL A   1      30.383  25.947  25.259  1.00  0.00    -0.169 NA
ATOM     13  C   UNL A   1      32.388  26.415  24.086  1.00  0.00     0.180 C 
ATOM     14  C   UNL A   1      32.670  25.307  25.109  1.00  0.00     0.101 C 
BRANCH  11  15
ATOM     15  C   UNL A   1      30.418  28.008  24.057  1.00  0.00     0.060 A 
ATOM     16  C   UNL A   1      28.992  30.279  23.204  1.00  0.00     0.067 A 
ATOM     17  C   UNL A   1      28.548  29.007  22.841  1.00  0.00     0.022 A 
ATOM     18  C   UNL A   1      30.159  30.431  23.951  1.00  0.00     0.022 A 
ATOM     19  C   UNL A   1      29.267  27.881  23.263  1.00  0.00     0.029 A 
ATOM     20  C   UNL A   1      30.870  29.297  24.359  1.00  0.00     0.029 A 
BRANCH  16  21
ATOM     21  S   UNL A   1      28.022  31.710  22.789  1.00  0.00     0.175 S 
ATOM     22  C   UNL A   1      29.066  33.098  23.133  1.00  0.00     0.163 C 
ATOM     23  O   UNL A   1      26.905  31.770  23.715  1.00  0.00    -0.224 OA
ATOM     24  O   UNL A   1      27.795  31.656  21.357  1.00  0.00    -0.224 OA
ENDBRANCH  16  21
ENDBRANCH  11  15
BRANCH  13  25
ATOM     25  C   UNL A   1      32.486  25.903  22.675  1.00  0.00     0.128 A 
ATOM     26  C   UNL A   1      31.835  26.236  21.503  1.00  0.00     0.048 A 
ATOM     27  O   UNL A   1      33.404  24.923  22.419  1.00  0.00    -0.467 OA
ATOM     28  C   UNL A   1      32.371  25.402  20.491  1.00  0.00     0.042 A 
ATOM     29  C   UNL A   1      33.334  24.635  21.097  1.00  0.00     0.195 A 
ENDBRANCH  13  25
ENDBRANCH   8  10
ENDBRANCH   7   8
ENDBRANCH   6   7
ENDBRANCH   5   6
ENDBRANCH   4   5
ENDBRANCH   3   4
ENDBRANCH   2   3
ENDBRANCH   1   2
BRANCH   1  30
ATOM     30  C   UNL A   1      38.373  21.732  25.553  1.00  0.00     0.188 C 
BRANCH  30  31
ATOM     31  C   UNL A   1      39.709  21.426  26.273  1.00  0.00     0.188 C 
BRANCH  31  32
ATOM     32  O   UNL A   1      40.285  22.535  26.954  1.00  0.00    -0.376 OA
BRANCH  32  33
ATOM     33  C   UNL A   1      41.504  23.051  26.441  1.00  0.00     0.202 C 
BRANCH  33  34
ATOM     34  C   UNL A   1      42.464  23.591  27.510  1.00  0.00     0.261 C 
BRANCH  34  35
ATOM     35  O   UNL A   1      43.689  22.851  27.649  1.00  0.00    -0.460 OA
BRANCH  35  36
ATOM     36  C   UNL A   1      44.600  23.007  26.665  1.00  0.00     0.338 C 
ATOM     37  O   UNL A   1      44.898  22.202  25.801  1.00  0.00    -0.246 OA
BRANCH  36  38
ATOM     38  C   UNL A   1      45.073  24.403  26.682  1.00  0.00     0.060 A 
ATOM     39  C   UNL A   1      45.029  25.133  25.488  1.00  0.00     0.016 A 
ATOM     40  C   UNL A   1      45.607  24.967  27.843  1.00  0.00     0.016 A 
ATOM     41  C   UNL A   1      45.596  26.403  25.433  1.00  0.00     0.010 A 
ATOM     42  C   UNL A   1      46.186  26.237  27.784  1.00  0.00     0.010 A 
ATOM     43  C   UNL A   1      46.234  26.933  26.563  1.00  0.00    -0.014 A 
BRANCH  43  44
ATOM     44  C   UNL A   1      47.154  28.082  26.386  1.00  0.00     0.031 A 
ATOM     45  C   UNL A   1      46.598  29.470  26.572  1.00  0.00     0.074 A 
ATOM     46  C   UNL A   1      48.463  27.905  26.137  1.00  0.00     0.049 A 
ATOM     47  N   UNL A   1      47.208  30.627  26.522  1.00  0.00    -0.248 NA
ATOM     48  C   UNL A   1      45.155  29.565  26.852  1.00  0.00     0.031 C 
ATOM     49  C   UNL A   1      49.123  26.614  25.961  1.00  0.00     0.029 A 
ATOM     50  N   UNL A   1      49.472  28.824  25.993  1.00  0.00    -0.354 N 
ATOM     51  C   UNL A   1      46.227  31.580  26.767  1.00  0.00     0.074 A 
ATOM     52  C   UNL A   1      44.975  30.875  26.924  1.00  0.00     0.031 C 
ATOM     53  C   UNL A   1      50.431  26.824  25.727  1.00  0.00     0.029 A 
ATOM     54  C   UNL A   1      50.694  28.262  25.723  1.00  0.00     0.049 A 
ATOM     55  H   UNL A   1      49.331  29.795  26.076  1.00  0.00     0.167 HD
ATOM     56  C   UNL A   1      46.359  32.924  26.866  1.00  0.00     0.037 A 
ATOM     57  C   UNL A   1      51.885  28.849  25.491  1.00  0.00     0.037 A 
ATOM     58  C   UNL A   1      47.604  33.628  26.715  1.00  0.00     0.049 A 
ATOM     59  C   UNL A   1      51.995  30.352  25.569  1.00  0.00     0.074 A 
ATOM     60  C   UNL A   1      47.845  34.986  26.818  1.00  0.00     0.029 A 
ATOM     61  N   UNL A   1      48.818  33.025  26.425  1.00  0.00    -0.354 N 
ATOM     62  N   UNL A   1      51.072  31.241  25.845  1.00  0.00    -0.248 NA
ATOM     63  C   UNL A   1      53.324  30.930  25.320  1.00  0.00     0.031 C 
ATOM     64  C   UNL A   1      49.198  35.211  26.539  1.00  0.00     0.029 A 
ATOM     65  C   UNL A   1      49.810  33.987  26.322  1.00  0.00     0.049 A 
ATOM     66  H   UNL A   1      48.955  32.057  26.308  1.00  0.00     0.167 HD
ATOM     67  C   UNL A   1      51.713  32.475  25.834  1.00  0.00     0.074 A 
ATOM     68  C   UNL A   1      53.107  32.218  25.546  1.00  0.00     0.031 C 
ATOM     69  C   UNL A   1      51.195  33.712  26.044  1.00  0.00     0.037 A 
BRANCH  56  70
ATOM     70  C   UNL A   1      45.118  33.725  27.131  1.00  0.00     0.064 A 
ATOM     71  C   UNL A   1      44.281  34.154  26.090  1.00  0.00     0.173 A 
ATOM     72  C   UNL A   1      44.744  34.037  28.447  1.00  0.00     0.173 A 
ATOM     73  F   UNL A   1      44.605  33.899  24.814  1.00  0.00    -0.203 F 
ATOM     74  C   UNL A   1      43.123  34.881  26.357  1.00  0.00     0.198 A 
ATOM     75  C   UNL A   1      43.571  34.739  28.710  1.00  0.00     0.198 A 
ATOM     76  F   UNL A   1      45.511  33.651  29.477  1.00  0.00    -0.203 F 
ATOM     77  F   UNL A   1      42.361  35.317  25.345  1.00  0.00    -0.200 F 
ATOM     78  C   UNL A   1      42.765  35.164  27.666  1.00  0.00     0.200 A 
ATOM     79  F   UNL A   1      43.222  35.003  29.977  1.00  0.00    -0.200 F 
ATOM     80  F   UNL A   1      41.645  35.856  27.921  1.00  0.00    -0.200 F 
ENDBRANCH  56  70
BRANCH  57  81
ATOM     81  C   UNL A   1      53.076  28.023  25.160  1.00  0.00     0.064 A 
ATOM     82  C   UNL A   1      53.912  27.514  26.163  1.00  0.00     0.173 A 
ATOM     83  C   UNL A   1      53.431  27.769  23.827  1.00  0.00     0.173 A 
ATOM     84  F   UNL A   1      53.631  27.750  27.454  1.00  0.00    -0.203 F 
ATOM     85  C   UNL A   1      55.074  26.812  25.847  1.00  0.00     0.198 A 
ATOM     86  C   UNL A   1      54.576  27.040  23.512  1.00  0.00     0.198 A 
ATOM     87  F   UNL A   1      52.667  28.234  22.828  1.00  0.00    -0.203 F 
ATOM     88  F   UNL A   1      55.888  26.392  26.824  1.00  0.00    -0.200 F 
ATOM     89  C   UNL A   1      55.403  26.572  24.521  1.00  0.00     0.200 A 
ATOM     90  F   UNL A   1      54.883  26.802  22.229  1.00  0.00    -0.200 F 
ATOM     91  F   UNL A   1      56.522  25.903  24.216  1.00  0.00    -0.200 F 
ENDBRANCH  57  81
BRANCH  69  92
ATOM     92  C   UNL A   1      52.149  34.872  26.014  1.00  0.00     0.064 A 
ATOM     93  C   UNL A   1      52.841  35.293  27.161  1.00  0.00     0.173 A 
ATOM     94  C   UNL A   1      52.388  35.563  24.815  1.00  0.00     0.173 A 
ATOM     95  F   UNL A   1      52.641  34.673  28.334  1.00  0.00    -0.203 F 
ATOM     96  C   UNL A   1      53.703  36.386  27.117  1.00  0.00     0.198 A 
ATOM     97  C   UNL A   1      53.277  36.634  24.768  1.00  0.00     0.198 A 
ATOM     98  F   UNL A   1      51.763  35.197  23.686  1.00  0.00    -0.203 F 
ATOM     99  F   UNL A   1      54.302  36.808  28.239  1.00  0.00    -0.200 F 
ATOM    100  C   UNL A   1      53.923  37.051  25.921  1.00  0.00     0.200 A 
ATOM    101  F   UNL A   1      53.503  37.264  23.608  1.00  0.00    -0.200 F 
ATOM    102  F   UNL A   1      54.753  38.103  25.881  1.00  0.00    -0.200 F 
ENDBRANCH  69  92
ENDBRANCH  43  44
ENDBRANCH  36  38
ENDBRANCH  35  36
ENDBRANCH  34  35
ENDBRANCH  33  34
ENDBRANCH  32  33
ENDBRANCH  31  32
ENDBRANCH  30  31
ENDBRANCH   1  30
TORSDOF 23
ENDMDL
MODEL 3
REMARK VINA RESULT:      -8.5      8.494     13.800
REMARK SMILES CS(=O)(=O)c1ccc(N2N=C(C(=O)OCCOCCOCCOCCOC(=O)c3ccc(-c4c5nc(c(-c6c(F)c(F)c(F)c(F)c6F)c6ccc([nH]6)c(-c6c(F)c(F)c(F)c(F)c6F)c6nc(c(-c7c(F)c(F)c(F)c(F)c7F)c7ccc4[nH]7)C=C6)C=C5)cc3)C[C@H]2c2ccco2)cc1
REMARK SMILES IDX 20 1 19 2 18 3 17 4 16 5 15 6 14 7 12 8 13 9 11 10 9 11
REMARK SMILES IDX 10 12 93 13 92 14 8 15 5 16 6 17 100 18 7 19 99 20 2 21 1 22
REMARK SMILES IDX 3 23 4 24 94 25 95 26 98 27 96 28 97 29 21 30 22 31 23 32
REMARK SMILES IDX 24 33 25 34 26 35 27 36 28 37 29 38 30 39 91 40 31 41 90 42
REMARK SMILES IDX 32 43 33 44 34 45 84 46 35 47 89 48 83 49 85 50 36 51 88 52
REMARK SMILES IDX 82 53 81 54 37 56 69 57 49 58 68 59 50 60 53 61 67 62 86 63
REMARK SMILES IDX 51 64 52 65 66 67 87 68 54 69 38 70 39 71 47 72 40 73 41 74
REMARK SMILES IDX 45 75 48 76 42 77 43 78 46 79 44 80 70 81 71 82 79 83 72 84
REMARK SMILES IDX 73 85 77 86 80 87 74 88 75 89 78 90 76 91 55 92 56 93 64 94
REMARK SMILES IDX 57 95 58 96 62 97 65 98 59 99 60 100 63 101 61 102
REMARK H PARENT 85 55 53 66
REMARK Flexibility Score: inf
ROOT
ATOM      1  O   UNL A   1      46.305  43.207  25.505  1.00  0.00    -0.377 OA
ENDROOT
BRANCH   1   2
ATOM      2  C   UNL A   1      45.347  42.475  24.752  1.00  0.00     0.188 C 
BRANCH   2   3
ATOM      3  C   UNL A   1      43.972  42.379  25.435  1.00  0.00     0.188 C 
BRANCH   3   4
ATOM      4  O   UNL A   1      42.906  42.731  24.559  1.00  0.00    -0.376 OA
BRANCH   4   5
ATOM      5  C   UNL A   1      43.194  42.820  23.170  1.00  0.00     0.202 C 
BRANCH   5   6
ATOM      6  C   UNL A   1      42.076  42.480  22.171  1.00  0.00     0.261 C 
BRANCH   6   7
ATOM      7  O   UNL A   1      42.491  42.407  20.803  1.00  0.00    -0.459 OA
BRANCH   7   8
ATOM      8  C   UNL A   1      41.873  43.196  19.910  1.00  0.00     0.354 C 
ATOM      9  O   UNL A   1      40.677  43.337  19.738  1.00  0.00    -0.245 OA
BRANCH   8  10
ATOM     10  C   UNL A   1      42.943  44.025  19.238  1.00  0.00     0.148 C 
ATOM     11  N   UNL A   1      44.659  45.221  18.936  1.00  0.00    -0.254 N 
ATOM     12  N   UNL A   1      43.892  44.625  19.893  1.00  0.00    -0.169 NA
ATOM     13  C   UNL A   1      44.026  45.225  17.605  1.00  0.00     0.180 C 
ATOM     14  C   UNL A   1      43.055  44.045  17.743  1.00  0.00     0.101 C 
BRANCH  11  15
ATOM     15  C   UNL A   1      45.752  45.994  19.294  1.00  0.00     0.060 A 
ATOM     16  C   UNL A   1      47.919  47.680  19.909  1.00  0.00     0.067 A 
ATOM     17  C   UNL A   1      47.997  46.827  18.807  1.00  0.00     0.022 A 
ATOM     18  C   UNL A   1      46.791  47.670  20.729  1.00  0.00     0.022 A 
ATOM     19  C   UNL A   1      46.917  45.985  18.511  1.00  0.00     0.029 A 
ATOM     20  C   UNL A   1      45.724  46.819  20.424  1.00  0.00     0.029 A 
BRANCH  16  21
ATOM     21  S   UNL A   1      49.224  48.847  20.223  1.00  0.00     0.175 S 
ATOM     22  C   UNL A   1      49.360  48.931  21.987  1.00  0.00     0.163 C 
ATOM     23  O   UNL A   1      48.772  50.148  19.763  1.00  0.00    -0.224 OA
ATOM     24  O   UNL A   1      50.442  48.257  19.702  1.00  0.00    -0.224 OA
ENDBRANCH  16  21
ENDBRANCH  11  15
BRANCH  13  25
ATOM     25  C   UNL A   1      43.313  46.482  17.189  1.00  0.00     0.128 A 
ATOM     26  C   UNL A   1      41.986  46.865  17.205  1.00  0.00     0.048 A 
ATOM     27  O   UNL A   1      44.074  47.513  16.709  1.00  0.00    -0.467 OA
ATOM     28  C   UNL A   1      41.938  48.183  16.691  1.00  0.00     0.042 A 
ATOM     29  C   UNL A   1      43.236  48.538  16.421  1.00  0.00     0.195 A 
ENDBRANCH  13  25
ENDBRANCH   8  10
ENDBRANCH   7   8
ENDBRANCH   6   7
ENDBRANCH   5   6
ENDBRANCH   4   5
ENDBRANCH   3   4
ENDBRANCH   2   3
ENDBRANCH   1   2
BRANCH   1  30
ATOM     30  C   UNL A   1      47.159  42.482  26.392  1.00  0.00     0.188 C 
BRANCH  30  31
ATOM     31  C   UNL A   1      47.049  40.951  26.585  1.00  0.00     0.188 C 
BRANCH  31  32
ATOM     32  O   UNL A   1      47.485  40.479  27.855  1.00  0.00    -0.376 OA
BRANCH  32  33
ATOM     33  C   UNL A   1      46.495  39.962  28.732  1.00  0.00     0.202 C 
BRANCH  33  34
ATOM     34  C   UNL A   1      45.861  38.644  28.268  1.00  0.00     0.261 C 
BRANCH  34  35
ATOM     35  O   UNL A   1      46.536  37.459  28.723  1.00  0.00    -0.460 OA
BRANCH  35  36
ATOM     36  C   UNL A   1      45.924  36.756  29.698  1.00  0.00     0.338 C 
ATOM     37  O   UNL A   1      45.431  37.190  30.723  1.00  0.00    -0.246 OA
BRANCH  36  38
ATOM     38  C   UNL A   1      45.778  35.359  29.248  1.00  0.00     0.060 A 
ATOM     39  C   UNL A   1      45.177  35.121  28.007  1.00  0.00     0.016 A 
ATOM     40  C   UNL A   1      46.175  34.297  30.063  1.00  0.00     0.016 A 
ATOM     41  C   UNL A   1      44.895  33.816  27.614  1.00  0.00     0.010 A 
ATOM     42  C   UNL A   1      45.883  32.987  29.673  1.00  0.00     0.010 A 
ATOM     43  C   UNL A   1      45.189  32.748  28.474  1.00  0.00    -0.014 A 
BRANCH  43  44
ATOM     44  C   UNL A   1      44.543  31.437  28.225  1.00  0.00     0.031 A 
ATOM     45  C   UNL A   1      45.285  30.429  27.386  1.00  0.00     0.074 A 
ATOM     46  C   UNL A   1      43.363  31.116  28.783  1.00  0.00     0.049 A 
ATOM     47  N   UNL A   1      44.957  29.202  27.071  1.00  0.00    -0.248 NA
ATOM     48  C   UNL A   1      46.575  30.868  26.826  1.00  0.00     0.031 C 
ATOM     49  C   UNL A   1      42.561  31.994  29.631  1.00  0.00     0.029 A 
ATOM     50  N   UNL A   1      42.637  29.953  28.717  1.00  0.00    -0.354 N 
ATOM     51  C   UNL A   1      45.997  28.726  26.282  1.00  0.00     0.074 A 
ATOM     52  C   UNL A   1      46.947  29.804  26.131  1.00  0.00     0.031 C 
ATOM     53  C   UNL A   1      41.448  31.339  30.005  1.00  0.00     0.029 A 
ATOM     54  C   UNL A   1      41.453  30.003  29.409  1.00  0.00     0.049 A 
ATOM     55  H   UNL A   1      42.937  29.159  28.218  1.00  0.00     0.167 HD
ATOM     56  C   UNL A   1      46.153  27.494  25.744  1.00  0.00     0.037 A 
ATOM     57  C   UNL A   1      40.485  29.075  29.538  1.00  0.00     0.037 A 
ATOM     58  C   UNL A   1      45.212  26.418  25.897  1.00  0.00     0.049 A 
ATOM     59  C   UNL A   1      40.668  27.722  28.893  1.00  0.00     0.074 A 
ATOM     60  C   UNL A   1      45.290  25.126  25.407  1.00  0.00     0.029 A 
ATOM     61  N   UNL A   1      44.016  26.512  26.592  1.00  0.00    -0.354 N 
ATOM     62  N   UNL A   1      41.674  27.266  28.187  1.00  0.00    -0.248 NA
ATOM     63  C   UNL A   1      39.583  26.749  29.082  1.00  0.00     0.031 C 
ATOM     64  C   UNL A   1      44.116  24.453  25.763  1.00  0.00     0.029 A 
ATOM     65  C   UNL A   1      43.335  25.307  26.526  1.00  0.00     0.049 A 
ATOM     66  H   UNL A   1      43.698  27.316  27.063  1.00  0.00     0.167 HD
ATOM     67  C   UNL A   1      41.358  25.949  27.877  1.00  0.00     0.074 A 
ATOM     68  C   UNL A   1      40.077  25.672  28.489  1.00  0.00     0.031 C 
ATOM     69  C   UNL A   1      42.064  25.046  27.149  1.00  0.00     0.037 A 
BRANCH  56  70
ATOM     70  C   UNL A   1      47.382  27.249  24.917  1.00  0.00     0.064 A 
ATOM     71  C   UNL A   1      47.465  27.661  23.579  1.00  0.00     0.173 A 
ATOM     72  C   UNL A   1      48.504  26.626  25.484  1.00  0.00     0.173 A 
ATOM     73  F   UNL A   1      46.412  28.243  22.984  1.00  0.00    -0.203 F 
ATOM     74  C   UNL A   1      48.621  27.442  22.833  1.00  0.00     0.198 A 
ATOM     75  C   UNL A   1      49.667  26.436  24.744  1.00  0.00     0.198 A 
ATOM     76  F   UNL A   1      48.475  26.212  26.760  1.00  0.00    -0.203 F 
ATOM     77  F   UNL A   1      48.663  27.805  21.544  1.00  0.00    -0.200 F 
ATOM     78  C   UNL A   1      49.723  26.838  23.419  1.00  0.00     0.200 A 
ATOM     79  F   UNL A   1      50.735  25.860  25.315  1.00  0.00    -0.200 F 
ATOM     80  F   UNL A   1      50.838  26.637  22.702  1.00  0.00    -0.200 F 
ENDBRANCH  56  70
BRANCH  57  81
ATOM     81  C   UNL A   1      39.249  29.382  30.305  1.00  0.00     0.064 A 
ATOM     82  C   UNL A   1      38.103  29.884  29.672  1.00  0.00     0.173 A 
ATOM     83  C   UNL A   1      39.206  29.226  31.698  1.00  0.00     0.173 A 
ATOM     84  F   UNL A   1      38.102  30.075  28.343  1.00  0.00    -0.203 F 
ATOM     85  C   UNL A   1      36.975  30.250  30.404  1.00  0.00     0.198 A 
ATOM     86  C   UNL A   1      38.066  29.563  32.427  1.00  0.00     0.198 A 
ATOM     87  F   UNL A   1      40.274  28.751  32.355  1.00  0.00    -0.203 F 
ATOM     88  F   UNL A   1      35.919  30.787  29.780  1.00  0.00    -0.200 F 
ATOM     89  C   UNL A   1      36.957  30.086  31.781  1.00  0.00     0.200 A 
ATOM     90  F   UNL A   1      38.050  29.392  33.756  1.00  0.00    -0.200 F 
ATOM     91  F   UNL A   1      35.875  30.443  32.486  1.00  0.00    -0.200 F 
ENDBRANCH  57  81
BRANCH  69  92
ATOM     92  C   UNL A   1      41.487  23.665  27.016  1.00  0.00     0.064 A 
ATOM     93  C   UNL A   1      40.304  23.423  26.303  1.00  0.00     0.173 A 
ATOM     94  C   UNL A   1      42.139  22.566  27.598  1.00  0.00     0.173 A 
ATOM     95  F   UNL A   1      39.636  24.440  25.737  1.00  0.00    -0.203 F 
ATOM     96  C   UNL A   1      39.773  22.138  26.211  1.00  0.00     0.198 A 
ATOM     97  C   UNL A   1      41.624  21.278  27.474  1.00  0.00     0.198 A 
ATOM     98  F   UNL A   1      43.281  22.738  28.281  1.00  0.00    -0.203 F 
ATOM     99  F   UNL A   1      38.607  21.941  25.579  1.00  0.00    -0.200 F 
ATOM    100  C   UNL A   1      40.435  21.068  26.792  1.00  0.00     0.200 A 
ATOM    101  F   UNL A   1      42.275  20.242  28.021  1.00  0.00    -0.200 F 
ATOM    102  F   UNL A   1      39.923  19.832  26.703  1.00  0.00    -0.200 F 
ENDBRANCH  69  92
ENDBRANCH  43  44
ENDBRANCH  36  38
ENDBRANCH  35  36
ENDBRANCH  34  35
ENDBRANCH  33  34
ENDBRANCH  32  33
ENDBRANCH  31  32
ENDBRANCH  30  31
ENDBRANCH   1  30
TORSDOF 23
ENDMDL
