MODEL 1
REMARK VINA RESULT:     -10.5      0.000      0.000
REMARK SMILES O=C(OCCOCCOCCOCCOC(=O)[C@H]1C[C@H](O)CN1S(=O)(=O)c1ccc2c(c1)OCCO2)c1ccc(-c2c3nc(c(-c4c(F)c(F)c(F)c(F)c4F)c4ccc([nH]4)c(-c4c(F)c(F)c(F)c(F)c4F)c4nc(c(-c5c(F)c(F)c(F)c(F)c5F)c5ccc2[nH]5)C=C4)C=C3)cc1
REMARK SMILES IDX 9 1 8 2 7 3 6 4 5 5 4 6 3 7 2 8 1 9 37 10 38 11 99 12 39 13
REMARK SMILES IDX 98 14 40 15 41 16 42 17 92 18 43 19 97 20 91 21 93 22 44 23
REMARK SMILES IDX 96 24 90 25 89 26 45 28 77 29 57 30 76 31 58 32 61 33 75 34
REMARK SMILES IDX 94 35 59 36 60 37 74 39 95 40 62 41 46 42 47 43 55 44 48 45
REMARK SMILES IDX 49 46 53 47 56 48 50 49 51 50 54 51 52 52 78 53 79 54 87 55
REMARK SMILES IDX 80 56 81 57 85 58 88 59 82 60 83 61 86 62 84 63 63 64 64 65
REMARK SMILES IDX 72 66 65 67 66 68 70 69 73 70 67 71 68 72 71 73 69 74 10 75
REMARK SMILES IDX 11 76 12 77 13 78 14 79 15 80 16 81 17 82 18 83 19 84 23 85
REMARK SMILES IDX 20 86 22 87 24 88 25 89 26 90 27 91 28 92 32 93 29 94 31 95
REMARK SMILES IDX 30 96 33 97 36 98 34 99 35 100 21 101
REMARK H PARENT 93 27 61 38 21 102
REMARK Flexibility Score: inf
ROOT
ATOM      1  O   UNL A   1      34.539  22.818  27.201  1.00  0.00    -0.377 OA
ENDROOT
BRANCH   1   2
ATOM      2  C   UNL A   1      34.811  23.743  26.150  1.00  0.00     0.188 C 
BRANCH   2   3
ATOM      3  C   UNL A   1      36.234  23.663  25.623  1.00  0.00     0.188 C 
BRANCH   3   4
ATOM      4  O   UNL A   1      36.209  23.037  24.354  1.00  0.00    -0.376 OA
BRANCH   4   5
ATOM      5  C   UNL A   1      36.881  21.804  24.174  1.00  0.00     0.202 C 
BRANCH   5   6
ATOM      6  C   UNL A   1      37.445  21.199  25.447  1.00  0.00     0.261 C 
BRANCH   6   7
ATOM      7  O   UNL A   1      38.882  21.174  25.522  1.00  0.00    -0.460 OA
BRANCH   7   8
ATOM      8  C   UNL A   1      39.733  21.455  26.536  1.00  0.00     0.338 C 
ATOM      9  O   UNL A   1      40.142  20.523  27.227  1.00  0.00    -0.246 OA
BRANCH   8  10
ATOM     10  C   UNL A   1      40.255  22.814  26.855  1.00  0.00     0.060 A 
ATOM     11  C   UNL A   1      39.810  24.002  26.288  1.00  0.00     0.016 A 
ATOM     12  C   UNL A   1      41.194  22.911  27.893  1.00  0.00     0.016 A 
ATOM     13  C   UNL A   1      40.346  25.226  26.615  1.00  0.00     0.010 A 
ATOM     14  C   UNL A   1      41.708  24.153  28.283  1.00  0.00     0.010 A 
ATOM     15  C   UNL A   1      41.312  25.308  27.601  1.00  0.00    -0.014 A 
BRANCH  15  16
ATOM     16  C   UNL A   1      42.020  26.590  27.695  1.00  0.00     0.031 A 
ATOM     17  C   UNL A   1      41.413  27.635  28.578  1.00  0.00     0.074 A 
ATOM     18  C   UNL A   1      43.270  26.696  27.210  1.00  0.00     0.049 A 
ATOM     19  N   UNL A   1      41.808  28.853  28.815  1.00  0.00    -0.248 NA
ATOM     20  C   UNL A   1      40.197  27.242  29.319  1.00  0.00     0.031 C 
ATOM     21  C   UNL A   1      44.003  25.629  26.517  1.00  0.00     0.029 A 
ATOM     22  N   UNL A   1      44.168  27.725  27.275  1.00  0.00    -0.354 N 
ATOM     23  C   UNL A   1      40.876  29.378  29.699  1.00  0.00     0.074 A 
ATOM     24  C   UNL A   1      39.886  28.360  29.951  1.00  0.00     0.031 C 
ATOM     25  C   UNL A   1      45.243  26.058  26.236  1.00  0.00     0.029 A 
ATOM     26  C   UNL A   1      45.355  27.452  26.643  1.00  0.00     0.049 A 
ATOM     27  H   UNL A   1      43.980  28.578  27.729  1.00  0.00     0.167 HD
ATOM     28  C   UNL A   1      40.861  30.614  30.245  1.00  0.00     0.037 A 
ATOM     29  C   UNL A   1      46.388  28.273  26.380  1.00  0.00     0.037 A 
ATOM     30  C   UNL A   1      41.872  31.592  29.962  1.00  0.00     0.049 A 
ATOM     31  C   UNL A   1      46.275  29.691  26.875  1.00  0.00     0.074 A 
ATOM     32  C   UNL A   1      41.931  32.918  30.339  1.00  0.00     0.029 A 
ATOM     33  N   UNL A   1      43.021  31.327  29.221  1.00  0.00    -0.354 N 
ATOM     34  N   UNL A   1      45.330  30.241  27.604  1.00  0.00    -0.248 NA
ATOM     35  C   UNL A   1      47.356  30.609  26.501  1.00  0.00     0.031 C 
ATOM     36  C   UNL A   1      43.094  33.467  29.786  1.00  0.00     0.029 A 
ATOM     37  C   UNL A   1      43.791  32.468  29.119  1.00  0.00     0.049 A 
ATOM     38  H   UNL A   1      43.249  30.454  28.829  1.00  0.00     0.167 HD
ATOM     39  C   UNL A   1      45.709  31.561  27.794  1.00  0.00     0.074 A 
ATOM     40  C   UNL A   1      46.987  31.718  27.125  1.00  0.00     0.031 C 
ATOM     41  C   UNL A   1      45.064  32.560  28.447  1.00  0.00     0.037 A 
BRANCH  28  42
ATOM     42  C   UNL A   1      39.686  30.965  31.105  1.00  0.00     0.064 A 
ATOM     43  C   UNL A   1      38.644  31.786  30.648  1.00  0.00     0.173 A 
ATOM     44  C   UNL A   1      39.633  30.520  32.435  1.00  0.00     0.173 A 
ATOM     45  F   UNL A   1      38.669  32.275  29.399  1.00  0.00    -0.203 F 
ATOM     46  C   UNL A   1      37.608  32.171  31.498  1.00  0.00     0.198 A 
ATOM     47  C   UNL A   1      38.581  30.883  33.273  1.00  0.00     0.198 A 
ATOM     48  F   UNL A   1      40.614  29.750  32.930  1.00  0.00    -0.203 F 
ATOM     49  F   UNL A   1      36.660  33.011  31.059  1.00  0.00    -0.200 F 
ATOM     50  C   UNL A   1      37.574  31.715  32.807  1.00  0.00     0.200 A 
ATOM     51  F   UNL A   1      38.553  30.442  34.539  1.00  0.00    -0.200 F 
ATOM     52  F   UNL A   1      36.583  32.092  33.625  1.00  0.00    -0.200 F 
ENDBRANCH  28  42
BRANCH  29  53
ATOM     53  C   UNL A   1      47.535  27.816  25.549  1.00  0.00     0.064 A 
ATOM     54  C   UNL A   1      48.747  27.410  26.125  1.00  0.00     0.173 A 
ATOM     55  C   UNL A   1      47.460  27.822  24.145  1.00  0.00     0.173 A 
ATOM     56  F   UNL A   1      48.885  27.401  27.459  1.00  0.00    -0.203 F 
ATOM     57  C   UNL A   1      49.843  27.064  25.333  1.00  0.00     0.198 A 
ATOM     58  C   UNL A   1      48.542  27.439  23.356  1.00  0.00     0.198 A 
ATOM     59  F   UNL A   1      46.329  28.203  23.533  1.00  0.00    -0.203 F 
ATOM     60  F   UNL A   1      51.010  26.748  25.912  1.00  0.00    -0.200 F 
ATOM     61  C   UNL A   1      49.739  27.076  23.951  1.00  0.00     0.200 A 
ATOM     62  F   UNL A   1      48.428  27.439  22.021  1.00  0.00    -0.200 F 
ATOM     63  F   UNL A   1      50.796  26.753  23.193  1.00  0.00    -0.200 F 
ENDBRANCH  29  53
BRANCH  41  64
ATOM     64  C   UNL A   1      45.764  33.884  28.499  1.00  0.00     0.064 A 
ATOM     65  C   UNL A   1      45.546  34.870  27.528  1.00  0.00     0.173 A 
ATOM     66  C   UNL A   1      46.635  34.175  29.560  1.00  0.00     0.173 A 
ATOM     67  F   UNL A   1      44.733  34.628  26.489  1.00  0.00    -0.203 F 
ATOM     68  C   UNL A   1      46.205  36.092  27.598  1.00  0.00     0.198 A 
ATOM     69  C   UNL A   1      47.260  35.412  29.646  1.00  0.00     0.198 A 
ATOM     70  F   UNL A   1      46.865  33.265  30.517  1.00  0.00    -0.203 F 
ATOM     71  F   UNL A   1      46.032  36.999  26.627  1.00  0.00    -0.200 F 
ATOM     72  C   UNL A   1      47.054  36.365  28.661  1.00  0.00     0.200 A 
ATOM     73  F   UNL A   1      48.065  35.683  30.684  1.00  0.00    -0.200 F 
ATOM     74  F   UNL A   1      47.681  37.548  28.730  1.00  0.00    -0.200 F 
ENDBRANCH  41  64
ENDBRANCH  15  16
ENDBRANCH   8  10
ENDBRANCH   7   8
ENDBRANCH   6   7
ENDBRANCH   5   6
ENDBRANCH   4   5
ENDBRANCH   3   4
ENDBRANCH   2   3
ENDBRANCH   1   2
BRANCH   1  75
ATOM     75  C   UNL A   1      34.129  21.490  26.876  1.00  0.00     0.188 C 
BRANCH  75  76
ATOM     76  C   UNL A   1      32.995  21.259  25.856  1.00  0.00     0.188 C 
BRANCH  76  77
ATOM     77  O   UNL A   1      33.439  20.976  24.542  1.00  0.00    -0.376 OA
BRANCH  77  78
ATOM     78  C   UNL A   1      32.926  21.797  23.505  1.00  0.00     0.202 C 
BRANCH  78  79
ATOM     79  C   UNL A   1      31.970  22.958  23.843  1.00  0.00     0.261 C 
BRANCH  79  80
ATOM     80  O   UNL A   1      32.343  24.287  23.468  1.00  0.00    -0.462 OA
BRANCH  80  81
ATOM     81  C   UNL A   1      31.342  25.181  23.293  1.00  0.00     0.324 C 
ATOM     82  O   UNL A   1      30.154  24.945  23.493  1.00  0.00    -0.250 OA
BRANCH  81  83
ATOM     83  C   UNL A   1      31.836  26.528  22.762  1.00  0.00     0.185 C 
ATOM     84  C   UNL A   1      30.863  27.449  21.997  1.00  0.00     0.065 C 
ATOM     85  N   UNL A   1      32.511  27.397  23.783  1.00  0.00    -0.181 NA
ATOM     86  C   UNL A   1      31.020  28.837  22.586  1.00  0.00     0.131 C 
ATOM     87  C   UNL A   1      32.401  28.774  23.217  1.00  0.00     0.135 C 
BRANCH  85  88
ATOM     88  S   UNL A   1      31.932  27.171  25.380  1.00  0.00     0.244 S 
ATOM     89  O   UNL A   1      30.493  27.277  25.357  1.00  0.00    -0.207 OA
ATOM     90  O   UNL A   1      32.574  26.012  25.968  1.00  0.00    -0.207 OA
BRANCH  88  91
ATOM     91  C   UNL A   1      32.595  28.562  26.215  1.00  0.00     0.086 A 
ATOM     92  C   UNL A   1      31.778  29.668  26.478  1.00  0.00     0.026 A 
ATOM     93  C   UNL A   1      33.943  28.547  26.552  1.00  0.00     0.072 A 
ATOM     94  C   UNL A   1      32.332  30.788  27.086  1.00  0.00     0.052 A 
ATOM     95  C   UNL A   1      34.464  29.632  27.223  1.00  0.00     0.162 A 
ATOM     96  C   UNL A   1      33.679  30.773  27.443  1.00  0.00     0.161 A 
ATOM     97  O   UNL A   1      35.765  29.509  27.634  1.00  0.00    -0.486 OA
ATOM     98  O   UNL A   1      34.184  31.918  28.003  1.00  0.00    -0.486 OA
ATOM     99  C   UNL A   1      36.100  30.551  28.554  1.00  0.00     0.271 C 
ATOM    100  C   UNL A   1      35.619  31.883  28.001  1.00  0.00     0.271 C 
ENDBRANCH  88  91
ENDBRANCH  85  88
BRANCH  86 101
ATOM    101  O   UNL A   1      30.936  29.880  21.626  1.00  0.00    -0.392 OA
ATOM    102  H   UNL A   1      31.705  30.465  21.717  1.00  0.00     0.211 HD
ENDBRANCH  86 101
ENDBRANCH  81  83
ENDBRANCH  80  81
ENDBRANCH  79  80
ENDBRANCH  78  79
ENDBRANCH  77  78
ENDBRANCH  76  77
ENDBRANCH  75  76
ENDBRANCH   1  75
TORSDOF 23
ENDMDL
MODEL 2
REMARK VINA RESULT:     -10.3      4.938      9.753
REMARK SMILES O=C(OCCOCCOCCOCCOC(=O)[C@H]1C[C@H](O)CN1S(=O)(=O)c1ccc2c(c1)OCCO2)c1ccc(-c2c3nc(c(-c4c(F)c(F)c(F)c(F)c4F)c4ccc([nH]4)c(-c4c(F)c(F)c(F)c(F)c4F)c4nc(c(-c5c(F)c(F)c(F)c(F)c5F)c5ccc2[nH]5)C=C4)C=C3)cc1
REMARK SMILES IDX 9 1 8 2 7 3 6 4 5 5 4 6 3 7 2 8 1 9 37 10 38 11 99 12 39 13
REMARK SMILES IDX 98 14 40 15 41 16 42 17 92 18 43 19 97 20 91 21 93 22 44 23
REMARK SMILES IDX 96 24 90 25 89 26 45 28 77 29 57 30 76 31 58 32 61 33 75 34
REMARK SMILES IDX 94 35 59 36 60 37 74 39 95 40 62 41 46 42 47 43 55 44 48 45
REMARK SMILES IDX 49 46 53 47 56 48 50 49 51 50 54 51 52 52 78 53 79 54 87 55
REMARK SMILES IDX 80 56 81 57 85 58 88 59 82 60 83 61 86 62 84 63 63 64 64 65
REMARK SMILES IDX 72 66 65 67 66 68 70 69 73 70 67 71 68 72 71 73 69 74 10 75
REMARK SMILES IDX 11 76 12 77 13 78 14 79 15 80 16 81 17 82 18 83 19 84 23 85
REMARK SMILES IDX 20 86 22 87 24 88 25 89 26 90 27 91 28 92 32 93 29 94 31 95
REMARK SMILES IDX 30 96 33 97 36 98 34 99 35 100 21 101
REMARK H PARENT 93 27 61 38 21 102
REMARK Flexibility Score: inf
ROOT
ATOM      1  O   UNL A   1      34.137  31.038  27.782  1.00  0.00    -0.377 OA
ENDROOT
BRANCH   1   2
ATOM      2  C   UNL A   1      34.847  32.249  28.040  1.00  0.00     0.188 C 
BRANCH   2   3
ATOM      3  C   UNL A   1      34.214  33.105  29.124  1.00  0.00     0.188 C 
BRANCH   3   4
ATOM      4  O   UNL A   1      34.846  34.371  29.123  1.00  0.00    -0.376 OA
BRANCH   4   5
ATOM      5  C   UNL A   1      34.139  35.499  28.639  1.00  0.00     0.202 C 
BRANCH   5   6
ATOM      6  C   UNL A   1      32.729  35.643  29.181  1.00  0.00     0.261 C 
BRANCH   6   7
ATOM      7  O   UNL A   1      32.642  36.192  30.508  1.00  0.00    -0.460 OA
BRANCH   7   8
ATOM      8  C   UNL A   1      32.724  35.611  31.727  1.00  0.00     0.338 C 
ATOM      9  O   UNL A   1      31.705  35.557  32.415  1.00  0.00    -0.246 OA
BRANCH   8  10
ATOM     10  C   UNL A   1      33.955  34.986  32.289  1.00  0.00     0.060 A 
ATOM     11  C   UNL A   1      35.198  35.599  32.387  1.00  0.00     0.016 A 
ATOM     12  C   UNL A   1      33.819  33.715  32.867  1.00  0.00     0.016 A 
ATOM     13  C   UNL A   1      36.301  34.959  32.903  1.00  0.00     0.010 A 
ATOM     14  C   UNL A   1      34.915  33.070  33.451  1.00  0.00     0.010 A 
ATOM     15  C   UNL A   1      36.172  33.684  33.422  1.00  0.00    -0.014 A 
BRANCH  15  16
ATOM     16  C   UNL A   1      37.428  32.976  33.694  1.00  0.00     0.031 A 
ATOM     17  C   UNL A   1      38.040  33.180  35.045  1.00  0.00     0.074 A 
ATOM     18  C   UNL A   1      37.841  32.009  32.856  1.00  0.00     0.049 A 
ATOM     19  N   UNL A   1      39.151  32.706  35.533  1.00  0.00    -0.248 NA
ATOM     20  C   UNL A   1      37.278  34.020  35.990  1.00  0.00     0.031 C 
ATOM     21  C   UNL A   1      37.162  31.616  31.615  1.00  0.00     0.029 A 
ATOM     22  N   UNL A   1      38.894  31.141  32.944  1.00  0.00    -0.354 N 
ATOM     23  C   UNL A   1      39.236  33.216  36.820  1.00  0.00     0.074 A 
ATOM     24  C   UNL A   1      38.078  34.047  37.042  1.00  0.00     0.031 C 
ATOM     25  C   UNL A   1      37.810  30.576  31.069  1.00  0.00     0.029 A 
ATOM     26  C   UNL A   1      38.994  30.294  31.868  1.00  0.00     0.049 A 
ATOM     27  H   UNL A   1      39.519  31.127  33.704  1.00  0.00     0.167 HD
ATOM     28  C   UNL A   1      40.211  33.002  37.730  1.00  0.00     0.037 A 
ATOM     29  C   UNL A   1      39.976  29.432  31.552  1.00  0.00     0.037 A 
ATOM     30  C   UNL A   1      41.345  32.164  37.460  1.00  0.00     0.049 A 
ATOM     31  C   UNL A   1      41.127  29.324  32.519  1.00  0.00     0.074 A 
ATOM     32  C   UNL A   1      42.469  31.945  38.230  1.00  0.00     0.029 A 
ATOM     33  N   UNL A   1      41.482  31.395  36.308  1.00  0.00    -0.354 N 
ATOM     34  N   UNL A   1      41.284  29.906  33.687  1.00  0.00    -0.248 NA
ATOM     35  C   UNL A   1      42.242  28.459  32.124  1.00  0.00     0.031 C 
ATOM     36  C   UNL A   1      43.309  31.079  37.521  1.00  0.00     0.029 A 
ATOM     37  C   UNL A   1      42.680  30.707  36.340  1.00  0.00     0.049 A 
ATOM     38  H   UNL A   1      40.823  31.349  35.579  1.00  0.00     0.167 HD
ATOM     39  C   UNL A   1      42.504  29.464  34.176  1.00  0.00     0.074 A 
ATOM     40  C   UNL A   1      43.030  28.542  33.187  1.00  0.00     0.031 C 
ATOM     41  C   UNL A   1      43.144  29.792  35.326  1.00  0.00     0.037 A 
BRANCH  28  42
ATOM     42  C   UNL A   1      40.111  33.748  39.026  1.00  0.00     0.064 A 
ATOM     43  C   UNL A   1      39.331  33.283  40.096  1.00  0.00     0.173 A 
ATOM     44  C   UNL A   1      40.760  34.983  39.177  1.00  0.00     0.173 A 
ATOM     45  F   UNL A   1      38.655  32.130  39.988  1.00  0.00    -0.203 F 
ATOM     46  C   UNL A   1      39.183  34.040  41.257  1.00  0.00     0.198 A 
ATOM     47  C   UNL A   1      40.633  35.723  40.349  1.00  0.00     0.198 A 
ATOM     48  F   UNL A   1      41.500  35.483  38.176  1.00  0.00    -0.203 F 
ATOM     49  F   UNL A   1      38.379  33.608  42.239  1.00  0.00    -0.200 F 
ATOM     50  C   UNL A   1      39.838  35.255  41.385  1.00  0.00     0.200 A 
ATOM     51  F   UNL A   1      41.265  36.899  40.469  1.00  0.00    -0.200 F 
ATOM     52  F   UNL A   1      39.688  35.986  42.498  1.00  0.00    -0.200 F 
ENDBRANCH  28  42
BRANCH  29  53
ATOM     53  C   UNL A   1      39.965  28.701  30.256  1.00  0.00     0.064 A 
ATOM     54  C   UNL A   1      39.377  27.435  30.128  1.00  0.00     0.173 A 
ATOM     55  C   UNL A   1      40.589  29.239  29.117  1.00  0.00     0.173 A 
ATOM     56  F   UNL A   1      38.782  26.863  31.185  1.00  0.00    -0.203 F 
ATOM     57  C   UNL A   1      39.446  26.724  28.929  1.00  0.00     0.198 A 
ATOM     58  C   UNL A   1      40.623  28.545  27.909  1.00  0.00     0.198 A 
ATOM     59  F   UNL A   1      41.173  30.445  29.174  1.00  0.00    -0.203 F 
ATOM     60  F   UNL A   1      38.936  25.486  28.858  1.00  0.00    -0.200 F 
ATOM     61  C   UNL A   1      40.066  27.280  27.821  1.00  0.00     0.200 A 
ATOM     62  F   UNL A   1      41.211  29.096  26.839  1.00  0.00    -0.200 F 
ATOM     63  F   UNL A   1      40.140  26.592  26.674  1.00  0.00    -0.200 F 
ENDBRANCH  29  53
BRANCH  41  64
ATOM     64  C   UNL A   1      44.452  29.108  35.581  1.00  0.00     0.064 A 
ATOM     65  C   UNL A   1      44.524  27.884  36.260  1.00  0.00     0.173 A 
ATOM     66  C   UNL A   1      45.644  29.674  35.103  1.00  0.00     0.173 A 
ATOM     67  F   UNL A   1      43.411  27.316  36.748  1.00  0.00    -0.203 F 
ATOM     68  C   UNL A   1      45.749  27.267  36.483  1.00  0.00     0.198 A 
ATOM     69  C   UNL A   1      46.861  29.033  35.293  1.00  0.00     0.198 A 
ATOM     70  F   UNL A   1      45.622  30.838  34.437  1.00  0.00    -0.203 F 
ATOM     71  F   UNL A   1      45.804  26.129  37.189  1.00  0.00    -0.200 F 
ATOM     72  C   UNL A   1      46.915  27.837  35.992  1.00  0.00     0.200 A 
ATOM     73  F   UNL A   1      47.985  29.574  34.801  1.00  0.00    -0.200 F 
ATOM     74  F   UNL A   1      48.094  27.234  36.200  1.00  0.00    -0.200 F 
ENDBRANCH  41  64
ENDBRANCH  15  16
ENDBRANCH   8  10
ENDBRANCH   7   8
ENDBRANCH   6   7
ENDBRANCH   5   6
ENDBRANCH   4   5
ENDBRANCH   3   4
ENDBRANCH   2   3
ENDBRANCH   1   2
BRANCH   1  75
ATOM     75  C   UNL A   1      34.844  29.907  27.275  1.00  0.00     0.188 C 
BRANCH  75  76
ATOM     76  C   UNL A   1      34.092  28.590  26.991  1.00  0.00     0.188 C 
BRANCH  76  77
ATOM     77  O   UNL A   1      32.801  28.518  27.569  1.00  0.00    -0.376 OA
BRANCH  77  78
ATOM     78  C   UNL A   1      31.716  28.311  26.679  1.00  0.00     0.202 C 
BRANCH  78  79
ATOM     79  C   UNL A   1      31.272  26.878  26.325  1.00  0.00     0.261 C 
BRANCH  79  80
ATOM     80  O   UNL A   1      32.274  25.875  26.130  1.00  0.00    -0.462 OA
BRANCH  80  81
ATOM     81  C   UNL A   1      31.969  24.855  25.295  1.00  0.00     0.324 C 
ATOM     82  O   UNL A   1      31.531  24.993  24.156  1.00  0.00    -0.250 OA
BRANCH  81  83
ATOM     83  C   UNL A   1      32.178  23.482  25.936  1.00  0.00     0.185 C 
ATOM     84  C   UNL A   1      31.382  22.268  25.414  1.00  0.00     0.065 C 
ATOM     85  N   UNL A   1      33.609  23.035  26.012  1.00  0.00    -0.181 NA
ATOM     86  C   UNL A   1      32.378  21.140  25.224  1.00  0.00     0.131 C 
ATOM     87  C   UNL A   1      33.519  21.550  26.139  1.00  0.00     0.135 C 
BRANCH  85  88
ATOM     88  S   UNL A   1      34.595  23.644  24.750  1.00  0.00     0.244 S 
ATOM     89  O   UNL A   1      34.067  23.168  23.495  1.00  0.00    -0.207 OA
ATOM     90  O   UNL A   1      34.830  25.059  24.959  1.00  0.00    -0.207 OA
BRANCH  88  91
ATOM     91  C   UNL A   1      36.128  22.852  25.063  1.00  0.00     0.086 A 
ATOM     92  C   UNL A   1      36.365  21.573  24.548  1.00  0.00     0.026 A 
ATOM     93  C   UNL A   1      37.055  23.506  25.865  1.00  0.00     0.072 A 
ATOM     94  C   UNL A   1      37.559  20.932  24.854  1.00  0.00     0.052 A 
ATOM     95  C   UNL A   1      38.267  22.893  26.099  1.00  0.00     0.162 A 
ATOM     96  C   UNL A   1      38.502  21.589  25.643  1.00  0.00     0.161 A 
ATOM     97  O   UNL A   1      39.185  23.636  26.795  1.00  0.00    -0.486 OA
ATOM     98  O   UNL A   1      39.645  20.896  25.949  1.00  0.00    -0.486 OA
ATOM     99  C   UNL A   1      40.477  23.028  26.727  1.00  0.00     0.271 C 
ATOM    100  C   UNL A   1      40.348  21.543  27.020  1.00  0.00     0.271 C 
ENDBRANCH  88  91
ENDBRANCH  85  88
BRANCH  86 101
ATOM    101  O   UNL A   1      31.868  19.861  25.572  1.00  0.00    -0.392 OA
ATOM    102  H   UNL A   1      32.597  19.220  25.598  1.00  0.00     0.211 HD
ENDBRANCH  86 101
ENDBRANCH  81  83
ENDBRANCH  80  81
ENDBRANCH  79  80
ENDBRANCH  78  79
ENDBRANCH  77  78
ENDBRANCH  76  77
ENDBRANCH  75  76
ENDBRANCH   1  75
TORSDOF 23
ENDMDL
MODEL 3
REMARK VINA RESULT:     -10.3      0.855      7.026
REMARK SMILES O=C(OCCOCCOCCOCCOC(=O)[C@H]1C[C@H](O)CN1S(=O)(=O)c1ccc2c(c1)OCCO2)c1ccc(-c2c3nc(c(-c4c(F)c(F)c(F)c(F)c4F)c4ccc([nH]4)c(-c4c(F)c(F)c(F)c(F)c4F)c4nc(c(-c5c(F)c(F)c(F)c(F)c5F)c5ccc2[nH]5)C=C4)C=C3)cc1
REMARK SMILES IDX 9 1 8 2 7 3 6 4 5 5 4 6 3 7 2 8 1 9 37 10 38 11 99 12 39 13
REMARK SMILES IDX 98 14 40 15 41 16 42 17 92 18 43 19 97 20 91 21 93 22 44 23
REMARK SMILES IDX 96 24 90 25 89 26 45 28 77 29 57 30 76 31 58 32 61 33 75 34
REMARK SMILES IDX 94 35 59 36 60 37 74 39 95 40 62 41 46 42 47 43 55 44 48 45
REMARK SMILES IDX 49 46 53 47 56 48 50 49 51 50 54 51 52 52 78 53 79 54 87 55
REMARK SMILES IDX 80 56 81 57 85 58 88 59 82 60 83 61 86 62 84 63 63 64 64 65
REMARK SMILES IDX 72 66 65 67 66 68 70 69 73 70 67 71 68 72 71 73 69 74 10 75
REMARK SMILES IDX 11 76 12 77 13 78 14 79 15 80 16 81 17 82 18 83 19 84 23 85
REMARK SMILES IDX 20 86 22 87 24 88 25 89 26 90 27 91 28 92 32 93 29 94 31 95
REMARK SMILES IDX 30 96 33 97 36 98 34 99 35 100 21 101
REMARK H PARENT 93 27 61 38 21 102
REMARK Flexibility Score: inf
ROOT
ATOM      1  O   UNL A   1      33.050  22.025  26.943  1.00  0.00    -0.377 OA
ENDROOT
BRANCH   1   2
ATOM      2  C   UNL A   1      34.076  23.012  26.853  1.00  0.00     0.188 C 
BRANCH   2   3
ATOM      3  C   UNL A   1      35.424  22.452  26.430  1.00  0.00     0.188 C 
BRANCH   3   4
ATOM      4  O   UNL A   1      35.675  22.846  25.095  1.00  0.00    -0.376 OA
BRANCH   4   5
ATOM      5  C   UNL A   1      36.802  22.321  24.417  1.00  0.00     0.202 C 
BRANCH   5   6
ATOM      6  C   UNL A   1      37.559  21.250  25.182  1.00  0.00     0.261 C 
BRANCH   6   7
ATOM      7  O   UNL A   1      38.959  21.519  25.376  1.00  0.00    -0.460 OA
BRANCH   7   8
ATOM      8  C   UNL A   1      39.691  21.704  26.499  1.00  0.00     0.338 C 
ATOM      9  O   UNL A   1      40.050  20.709  27.129  1.00  0.00    -0.246 OA
BRANCH   8  10
ATOM     10  C   UNL A   1      40.139  23.029  27.013  1.00  0.00     0.060 A 
ATOM     11  C   UNL A   1      39.578  24.255  26.677  1.00  0.00     0.016 A 
ATOM     12  C   UNL A   1      41.135  23.029  28.002  1.00  0.00     0.016 A 
ATOM     13  C   UNL A   1      40.050  25.448  27.175  1.00  0.00     0.010 A 
ATOM     14  C   UNL A   1      41.587  24.226  28.566  1.00  0.00     0.010 A 
ATOM     15  C   UNL A   1      41.070  25.443  28.109  1.00  0.00    -0.014 A 
BRANCH  15  16
ATOM     16  C   UNL A   1      41.694  26.744  28.378  1.00  0.00     0.031 A 
ATOM     17  C   UNL A   1      43.046  26.981  27.780  1.00  0.00     0.074 A 
ATOM     18  C   UNL A   1      40.960  27.735  28.913  1.00  0.00     0.049 A 
ATOM     19  N   UNL A   1      43.828  28.017  27.884  1.00  0.00    -0.248 NA
ATOM     20  C   UNL A   1      43.583  25.905  26.924  1.00  0.00     0.031 C 
ATOM     21  C   UNL A   1      39.555  27.621  29.325  1.00  0.00     0.029 A 
ATOM     22  N   UNL A   1      41.268  29.045  29.150  1.00  0.00    -0.354 N 
ATOM     23  C   UNL A   1      44.957  27.704  27.140  1.00  0.00     0.074 A 
ATOM     24  C   UNL A   1      44.772  26.380  26.598  1.00  0.00     0.031 C 
ATOM     25  C   UNL A   1      39.122  28.818  29.749  1.00  0.00     0.029 A 
ATOM     26  C   UNL A   1      40.241  29.751  29.726  1.00  0.00     0.049 A 
ATOM     27  H   UNL A   1      42.141  29.443  28.929  1.00  0.00     0.167 HD
ATOM     28  C   UNL A   1      46.051  28.469  26.937  1.00  0.00     0.037 A 
ATOM     29  C   UNL A   1      40.242  30.999  30.228  1.00  0.00     0.037 A 
ATOM     30  C   UNL A   1      46.185  29.784  27.499  1.00  0.00     0.049 A 
ATOM     31  C   UNL A   1      41.528  31.777  30.119  1.00  0.00     0.074 A 
ATOM     32  C   UNL A   1      47.275  30.630  27.485  1.00  0.00     0.029 A 
ATOM     33  N   UNL A   1      45.166  30.442  28.181  1.00  0.00    -0.354 N 
ATOM     34  N   UNL A   1      42.652  31.439  29.530  1.00  0.00    -0.248 NA
ATOM     35  C   UNL A   1      41.556  33.097  30.755  1.00  0.00     0.031 C 
ATOM     36  C   UNL A   1      46.929  31.782  28.200  1.00  0.00     0.029 A 
ATOM     37  C   UNL A   1      45.604  31.682  28.603  1.00  0.00     0.049 A 
ATOM     38  H   UNL A   1      44.265  30.077  28.337  1.00  0.00     0.167 HD
ATOM     39  C   UNL A   1      43.515  32.509  29.705  1.00  0.00     0.074 A 
ATOM     40  C   UNL A   1      42.770  33.519  30.432  1.00  0.00     0.031 C 
ATOM     41  C   UNL A   1      44.808  32.651  29.316  1.00  0.00     0.037 A 
BRANCH  28  42
ATOM     42  C   UNL A   1      47.177  27.858  26.162  1.00  0.00     0.064 A 
ATOM     43  C   UNL A   1      47.245  27.930  24.762  1.00  0.00     0.173 A 
ATOM     44  C   UNL A   1      48.177  27.134  26.829  1.00  0.00     0.173 A 
ATOM     45  F   UNL A   1      46.291  28.572  24.072  1.00  0.00    -0.203 F 
ATOM     46  C   UNL A   1      48.255  27.276  24.058  1.00  0.00     0.198 A 
ATOM     47  C   UNL A   1      49.201  26.506  26.125  1.00  0.00     0.198 A 
ATOM     48  F   UNL A   1      48.148  27.016  28.165  1.00  0.00    -0.203 F 
ATOM     49  F   UNL A   1      48.261  27.302  22.718  1.00  0.00    -0.200 F 
ATOM     50  C   UNL A   1      49.235  26.570  24.740  1.00  0.00     0.200 A 
ATOM     51  F   UNL A   1      50.145  25.822  26.786  1.00  0.00    -0.200 F 
ATOM     52  F   UNL A   1      50.200  25.935  24.062  1.00  0.00    -0.200 F 
ENDBRANCH  28  42
BRANCH  29  53
ATOM     53  C   UNL A   1      39.054  31.535  30.946  1.00  0.00     0.064 A 
ATOM     54  C   UNL A   1      38.218  32.501  30.369  1.00  0.00     0.173 A 
ATOM     55  C   UNL A   1      38.754  31.124  32.256  1.00  0.00     0.173 A 
ATOM     56  F   UNL A   1      38.464  32.946  29.128  1.00  0.00    -0.203 F 
ATOM     57  C   UNL A   1      37.156  33.058  31.084  1.00  0.00     0.198 A 
ATOM     58  C   UNL A   1      37.670  31.651  32.955  1.00  0.00     0.198 A 
ATOM     59  F   UNL A   1      39.518  30.205  32.866  1.00  0.00    -0.203 F 
ATOM     60  F   UNL A   1      36.417  34.030  30.532  1.00  0.00    -0.200 F 
ATOM     61  C   UNL A   1      36.881  32.630  32.374  1.00  0.00     0.200 A 
ATOM     62  F   UNL A   1      37.403  31.222  34.196  1.00  0.00    -0.200 F 
ATOM     63  F   UNL A   1      35.868  33.173  33.063  1.00  0.00    -0.200 F 
ENDBRANCH  29  53
BRANCH  41  64
ATOM     64  C   UNL A   1      45.462  33.960  29.636  1.00  0.00     0.064 A 
ATOM     65  C   UNL A   1      45.442  35.032  28.734  1.00  0.00     0.173 A 
ATOM     66  C   UNL A   1      46.083  34.148  30.879  1.00  0.00     0.173 A 
ATOM     67  F   UNL A   1      44.873  34.891  27.527  1.00  0.00    -0.203 F 
ATOM     68  C   UNL A   1      46.055  36.239  29.053  1.00  0.00     0.198 A 
ATOM     69  C   UNL A   1      46.659  35.369  31.209  1.00  0.00     0.198 A 
ATOM     70  F   UNL A   1      46.116  33.153  31.778  1.00  0.00    -0.203 F 
ATOM     71  F   UNL A   1      46.080  37.232  28.153  1.00  0.00    -0.200 F 
ATOM     72  C   UNL A   1      46.654  36.409  30.292  1.00  0.00     0.200 A 
ATOM     73  F   UNL A   1      47.220  35.539  32.414  1.00  0.00    -0.200 F 
ATOM     74  F   UNL A   1      47.235  37.577  30.601  1.00  0.00    -0.200 F 
ENDBRANCH  41  64
ENDBRANCH  15  16
ENDBRANCH   8  10
ENDBRANCH   7   8
ENDBRANCH   6   7
ENDBRANCH   5   6
ENDBRANCH   4   5
ENDBRANCH   3   4
ENDBRANCH   2   3
ENDBRANCH   1   2
BRANCH   1  75
ATOM     75  C   UNL A   1      33.279  20.726  26.397  1.00  0.00     0.188 C 
BRANCH  75  76
ATOM     76  C   UNL A   1      32.592  20.311  25.079  1.00  0.00     0.188 C 
BRANCH  76  77
ATOM     77  O   UNL A   1      33.240  20.777  23.910  1.00  0.00    -0.376 OA
BRANCH  77  78
ATOM     78  C   UNL A   1      32.520  21.699  23.108  1.00  0.00     0.202 C 
BRANCH  78  79
ATOM     79  C   UNL A   1      31.890  22.951  23.750  1.00  0.00     0.261 C 
BRANCH  79  80
ATOM     80  O   UNL A   1      32.235  24.238  23.230  1.00  0.00    -0.462 OA
BRANCH  80  81
ATOM     81  C   UNL A   1      31.250  25.164  23.176  1.00  0.00     0.324 C 
ATOM     82  O   UNL A   1      30.075  24.950  23.459  1.00  0.00    -0.250 OA
BRANCH  81  83
ATOM     83  C   UNL A   1      31.740  26.522  22.668  1.00  0.00     0.185 C 
ATOM     84  C   UNL A   1      30.743  27.490  21.998  1.00  0.00     0.065 C 
ATOM     85  N   UNL A   1      32.491  27.338  23.679  1.00  0.00    -0.181 NA
ATOM     86  C   UNL A   1      30.963  28.851  22.629  1.00  0.00     0.131 C 
ATOM     87  C   UNL A   1      32.377  28.738  23.173  1.00  0.00     0.135 C 
BRANCH  85  88
ATOM     88  S   UNL A   1      32.003  27.060  25.298  1.00  0.00     0.244 S 
ATOM     89  O   UNL A   1      30.560  27.071  25.342  1.00  0.00    -0.207 OA
ATOM     90  O   UNL A   1      32.745  25.941  25.842  1.00  0.00    -0.207 OA
BRANCH  88  91
ATOM     91  C   UNL A   1      32.612  28.484  26.118  1.00  0.00     0.086 A 
ATOM     92  C   UNL A   1      31.778  29.597  26.288  1.00  0.00     0.026 A 
ATOM     93  C   UNL A   1      33.935  28.486  26.539  1.00  0.00     0.072 A 
ATOM     94  C   UNL A   1      32.292  30.741  26.884  1.00  0.00     0.052 A 
ATOM     95  C   UNL A   1      34.413  29.599  27.198  1.00  0.00     0.162 A 
ATOM     96  C   UNL A   1      33.614  30.744  27.325  1.00  0.00     0.161 A 
ATOM     97  O   UNL A   1      35.686  29.496  27.694  1.00  0.00    -0.486 OA
ATOM     98  O   UNL A   1      34.083  31.912  27.870  1.00  0.00    -0.486 OA
ATOM     99  C   UNL A   1      35.962  30.574  28.592  1.00  0.00     0.271 C 
ATOM    100  C   UNL A   1      35.515  31.881  27.959  1.00  0.00     0.271 C 
ENDBRANCH  88  91
ENDBRANCH  85  88
BRANCH  86 101
ATOM    101  O   UNL A   1      30.844  29.932  21.716  1.00  0.00    -0.392 OA
ATOM    102  H   UNL A   1      31.246  30.727  22.103  1.00  0.00     0.211 HD
ENDBRANCH  86 101
ENDBRANCH  81  83
ENDBRANCH  80  81
ENDBRANCH  79  80
ENDBRANCH  78  79
ENDBRANCH  77  78
ENDBRANCH  76  77
ENDBRANCH  75  76
ENDBRANCH   1  75
TORSDOF 23
ENDMDL
