MODEL 1
REMARK VINA RESULT:     -11.3      0.000      0.000
REMARK SMILES CCCC(=O)Nc1cccc(C(=O)N[C@@H](C(=O)OCCOCCOCCOCCOC(=O)c2ccc(-c3c4nc(c(-c5c(F)c(F)c(F)c(F)c5F)c5ccc([nH]5)c(-c5c(F)c(F)c(F)c(F)c5F)c5nc(c(-c6c(F)c(F)c(F)c(F)c6F)c6ccc3[nH]6)C=C5)C=C4)cc2)c2c(C)n[nH]c2C)c1
REMARK SMILES IDX 22 1 21 2 20 3 19 4 18 5 16 6 17 7 15 8 14 9 12 10 13 11
REMARK SMILES IDX 11 13 7 14 8 15 103 16 9 17 10 18 6 19 4 20 5 21 3 23 2 24
REMARK SMILES IDX 1 25 96 26 97 27 101 28 98 29 99 30 100 31 102 32 23 34
REMARK SMILES IDX 24 35 25 36 26 37 27 38 28 39 29 40 30 41 31 42 32 43 33 44
REMARK SMILES IDX 34 45 95 46 35 47 94 48 36 49 37 50 38 51 88 52 39 53 93 54
REMARK SMILES IDX 87 55 89 56 40 57 92 58 86 59 85 60 41 62 73 63 53 64 72 65
REMARK SMILES IDX 54 66 57 67 71 68 90 69 55 70 56 71 70 73 91 74 58 75 42 76
REMARK SMILES IDX 43 77 51 78 44 79 45 80 49 81 52 82 46 83 47 84 50 85 48 86
REMARK SMILES IDX 74 87 75 88 83 89 76 90 77 91 81 92 84 93 78 94 79 95 82 96
REMARK SMILES IDX 80 97 59 98 60 99 68 100 61 101 62 102 66 103 69 104 63 105
REMARK SMILES IDX 64 106 67 107 65 108
REMARK H PARENT 14 12 6 22 100 33 89 61 57 72
REMARK Flexibility Score: inf
ROOT
ATOM      1  C   UNL A   1      38.019  23.964  26.135  1.00  0.00     0.188 C 
ENDROOT
BRANCH   1   2
ATOM      2  O   UNL A   1      37.811  23.393  24.862  1.00  0.00    -0.376 OA
BRANCH   2   3
ATOM      3  C   UNL A   1      36.774  22.455  24.631  1.00  0.00     0.202 C 
BRANCH   3   4
ATOM      4  C   UNL A   1      36.415  21.215  25.488  1.00  0.00     0.261 C 
BRANCH   4   5
ATOM      5  O   UNL A   1      35.111  20.632  25.390  1.00  0.00    -0.461 OA
BRANCH   5   6
ATOM      6  C   UNL A   1      34.140  21.154  26.183  1.00  0.00     0.333 C 
ATOM      7  O   UNL A   1      34.318  21.414  27.367  1.00  0.00    -0.249 OA
BRANCH   6   8
ATOM      8  C   UNL A   1      32.791  21.364  25.408  1.00  0.00     0.227 C 
BRANCH   8   9
ATOM      9  N   UNL A   1      31.609  21.777  26.193  1.00  0.00    -0.335 N 
ATOM     10  C   UNL A   1      30.848  22.910  26.320  1.00  0.00     0.252 C 
ATOM     11  O   UNL A   1      29.964  22.903  27.179  1.00  0.00    -0.269 OA
ATOM     12  H   UNL A   1      31.285  21.052  26.774  1.00  0.00     0.165 HD
BRANCH  10  13
ATOM     13  C   UNL A   1      30.915  24.064  25.391  1.00  0.00     0.041 A 
ATOM     14  C   UNL A   1      31.396  25.009  23.236  1.00  0.00     0.041 A 
ATOM     15  C   UNL A   1      30.451  26.015  23.429  1.00  0.00     0.026 A 
ATOM     16  C   UNL A   1      31.694  24.085  24.242  1.00  0.00     0.040 A 
ATOM     17  C   UNL A   1      29.777  26.089  24.645  1.00  0.00     0.003 A 
ATOM     18  C   UNL A   1      29.998  25.109  25.618  1.00  0.00     0.014 A 
BRANCH  14  19
ATOM     19  N   UNL A   1      32.027  24.866  21.998  1.00  0.00    -0.326 N 
ATOM     20  C   UNL A   1      32.899  25.799  21.491  1.00  0.00     0.224 C 
ATOM     21  O   UNL A   1      32.888  26.014  20.277  1.00  0.00    -0.275 OA
ATOM     22  H   UNL A   1      31.841  24.059  21.466  1.00  0.00     0.169 HD
BRANCH  20  23
ATOM     23  C   UNL A   1      33.889  26.509  22.411  1.00  0.00     0.100 C 
BRANCH  23  24
ATOM     24  C   UNL A   1      33.549  27.950  22.771  1.00  0.00     0.006 C 
ATOM     25  C   UNL A   1      33.945  28.386  24.174  1.00  0.00     0.004 C 
ENDBRANCH  23  24
ENDBRANCH  20  23
ENDBRANCH  14  19
ENDBRANCH  10  13
ENDBRANCH   8   9
BRANCH   8  26
ATOM     26  C   UNL A   1      32.490  20.148  24.504  1.00  0.00     0.029 A 
ATOM     27  C   UNL A   1      32.466  18.716  24.746  1.00  0.00     0.065 A 
ATOM     28  C   UNL A   1      32.212  20.212  23.132  1.00  0.00     0.038 A 
ATOM     29  C   UNL A   1      32.765  17.859  25.924  1.00  0.00     0.069 C 
ATOM     30  N   UNL A   1      32.145  18.026  23.646  1.00  0.00    -0.180 NA
ATOM     31  N   UNL A   1      31.982  18.940  22.705  1.00  0.00    -0.282 N 
ATOM     32  C   UNL A   1      32.149  21.298  22.122  1.00  0.00     0.066 C 
ATOM     33  H   UNL A   1      31.720  18.721  21.782  1.00  0.00     0.190 HD
ENDBRANCH   8  26
ENDBRANCH   6   8
ENDBRANCH   5   6
ENDBRANCH   4   5
ENDBRANCH   3   4
ENDBRANCH   2   3
ENDBRANCH   1   2
BRANCH   1  34
ATOM     34  C   UNL A   1      39.188  23.370  26.933  1.00  0.00     0.188 C 
BRANCH  34  35
ATOM     35  O   UNL A   1      39.642  22.127  26.448  1.00  0.00    -0.377 OA
BRANCH  35  36
ATOM     36  C   UNL A   1      40.990  22.089  26.010  1.00  0.00     0.188 C 
BRANCH  36  37
ATOM     37  C   UNL A   1      41.947  20.994  26.541  1.00  0.00     0.188 C 
BRANCH  37  38
ATOM     38  O   UNL A   1      43.336  21.294  26.467  1.00  0.00    -0.376 OA
BRANCH  38  39
ATOM     39  C   UNL A   1      43.929  21.619  25.221  1.00  0.00     0.202 C 
BRANCH  39  40
ATOM     40  C   UNL A   1      44.738  22.924  25.153  1.00  0.00     0.261 C 
BRANCH  40  41
ATOM     41  O   UNL A   1      43.978  24.092  24.818  1.00  0.00    -0.460 OA
BRANCH  41  42
ATOM     42  C   UNL A   1      44.536  25.274  25.145  1.00  0.00     0.338 C 
ATOM     43  O   UNL A   1      45.550  25.769  24.676  1.00  0.00    -0.246 OA
BRANCH  42  44
ATOM     44  C   UNL A   1      43.594  25.998  26.016  1.00  0.00     0.060 A 
ATOM     45  C   UNL A   1      43.869  27.339  26.309  1.00  0.00     0.016 A 
ATOM     46  C   UNL A   1      42.454  25.374  26.530  1.00  0.00     0.016 A 
ATOM     47  C   UNL A   1      43.032  28.051  27.157  1.00  0.00     0.010 A 
ATOM     48  C   UNL A   1      41.635  26.075  27.418  1.00  0.00     0.010 A 
ATOM     49  C   UNL A   1      41.956  27.399  27.771  1.00  0.00    -0.014 A 
BRANCH  49  50
ATOM     50  C   UNL A   1      41.391  28.024  28.986  1.00  0.00     0.031 A 
ATOM     51  C   UNL A   1      42.155  27.855  30.272  1.00  0.00     0.074 A 
ATOM     52  C   UNL A   1      40.309  28.818  28.930  1.00  0.00     0.049 A 
ATOM     53  N   UNL A   1      41.930  28.372  31.452  1.00  0.00    -0.248 NA
ATOM     54  C   UNL A   1      43.346  26.990  30.212  1.00  0.00     0.031 C 
ATOM     55  C   UNL A   1      39.533  29.107  27.727  1.00  0.00     0.029 A 
ATOM     56  N   UNL A   1      39.694  29.545  29.916  1.00  0.00    -0.354 N 
ATOM     57  C   UNL A   1      42.947  27.893  32.269  1.00  0.00     0.074 A 
ATOM     58  C   UNL A   1      43.768  27.018  31.465  1.00  0.00     0.031 C 
ATOM     59  C   UNL A   1      38.541  29.957  28.046  1.00  0.00     0.029 A 
ATOM     60  C   UNL A   1      38.602  30.251  29.477  1.00  0.00     0.049 A 
ATOM     61  H   UNL A   1      40.005  29.561  30.850  1.00  0.00     0.167 HD
ATOM     62  C   UNL A   1      43.179  28.168  33.574  1.00  0.00     0.037 A 
ATOM     63  C   UNL A   1      37.750  31.036  30.163  1.00  0.00     0.037 A 
ATOM     64  C   UNL A   1      42.355  29.036  34.369  1.00  0.00     0.049 A 
ATOM     65  C   UNL A   1      37.987  31.263  31.636  1.00  0.00     0.074 A 
ATOM     66  C   UNL A   1      42.499  29.385  35.699  1.00  0.00     0.029 A 
ATOM     67  N   UNL A   1      41.219  29.685  33.906  1.00  0.00    -0.354 N 
ATOM     68  N   UNL A   1      38.958  30.824  32.401  1.00  0.00    -0.248 NA
ATOM     69  C   UNL A   1      37.012  32.108  32.337  1.00  0.00     0.031 C 
ATOM     70  C   UNL A   1      41.414  30.191  36.059  1.00  0.00     0.029 A 
ATOM     71  C   UNL A   1      40.637  30.411  34.932  1.00  0.00     0.049 A 
ATOM     72  H   UNL A   1      40.877  29.637  32.983  1.00  0.00     0.167 HD
ATOM     73  C   UNL A   1      38.737  31.376  33.658  1.00  0.00     0.074 A 
ATOM     74  C   UNL A   1      37.545  32.190  33.547  1.00  0.00     0.031 C 
ATOM     75  C   UNL A   1      39.457  31.227  34.800  1.00  0.00     0.037 A 
BRANCH  62  76
ATOM     76  C   UNL A   1      44.342  27.477  34.228  1.00  0.00     0.064 A 
ATOM     77  C   UNL A   1      45.604  28.084  34.341  1.00  0.00     0.173 A 
ATOM     78  C   UNL A   1      44.187  26.187  34.758  1.00  0.00     0.173 A 
ATOM     79  F   UNL A   1      45.813  29.307  33.832  1.00  0.00    -0.203 F 
ATOM     80  C   UNL A   1      46.671  27.412  34.931  1.00  0.00     0.198 A 
ATOM     81  C   UNL A   1      45.247  25.534  35.379  1.00  0.00     0.198 A 
ATOM     82  F   UNL A   1      43.004  25.560  34.675  1.00  0.00    -0.203 F 
ATOM     83  F   UNL A   1      47.881  27.987  34.974  1.00  0.00    -0.200 F 
ATOM     84  C   UNL A   1      46.490  26.142  35.456  1.00  0.00     0.200 A 
ATOM     85  F   UNL A   1      45.065  24.311  35.897  1.00  0.00    -0.200 F 
ATOM     86  F   UNL A   1      47.517  25.498  36.030  1.00  0.00    -0.200 F 
ENDBRANCH  62  76
BRANCH  63  87
ATOM     87  C   UNL A   1      36.595  31.671  29.474  1.00  0.00     0.064 A 
ATOM     88  C   UNL A   1      35.505  30.909  29.029  1.00  0.00     0.173 A 
ATOM     89  C   UNL A   1      36.575  33.049  29.212  1.00  0.00     0.173 A 
ATOM     90  F   UNL A   1      35.487  29.583  29.233  1.00  0.00    -0.203 F 
ATOM     91  C   UNL A   1      34.454  31.496  28.325  1.00  0.00     0.198 A 
ATOM     92  C   UNL A   1      35.508  33.640  28.537  1.00  0.00     0.198 A 
ATOM     93  F   UNL A   1      37.594  33.824  29.611  1.00  0.00    -0.203 F 
ATOM     94  F   UNL A   1      33.455  30.734  27.859  1.00  0.00    -0.200 F 
ATOM     95  C   UNL A   1      34.455  32.862  28.084  1.00  0.00     0.200 A 
ATOM     96  F   UNL A   1      35.507  34.961  28.318  1.00  0.00    -0.200 F 
ATOM     97  F   UNL A   1      33.446  33.425  27.406  1.00  0.00    -0.200 F 
ENDBRANCH  63  87
BRANCH  75  98
ATOM     98  C   UNL A   1      39.013  32.018  36.001  1.00  0.00     0.064 A 
ATOM     99  C   UNL A   1      39.431  33.338  36.224  1.00  0.00     0.173 A 
ATOM    100  C   UNL A   1      38.141  31.441  36.939  1.00  0.00     0.173 A 
ATOM    101  F   UNL A   1      40.269  33.936  35.363  1.00  0.00    -0.203 F 
ATOM    102  C   UNL A   1      39.038  34.031  37.366  1.00  0.00     0.198 A 
ATOM    103  C   UNL A   1      37.716  32.152  38.058  1.00  0.00     0.198 A 
ATOM    104  F   UNL A   1      37.697  30.187  36.770  1.00  0.00    -0.203 F 
ATOM    105  F   UNL A   1      39.513  35.263  37.596  1.00  0.00    -0.200 F 
ATOM    106  C   UNL A   1      38.176  33.440  38.278  1.00  0.00     0.200 A 
ATOM    107  F   UNL A   1      36.867  31.586  38.926  1.00  0.00    -0.200 F 
ATOM    108  F   UNL A   1      37.801  34.109  39.377  1.00  0.00    -0.200 F 
ENDBRANCH  75  98
ENDBRANCH  49  50
ENDBRANCH  42  44
ENDBRANCH  41  42
ENDBRANCH  40  41
ENDBRANCH  39  40
ENDBRANCH  38  39
ENDBRANCH  37  38
ENDBRANCH  36  37
ENDBRANCH  35  36
ENDBRANCH  34  35
ENDBRANCH   1  34
TORSDOF 26
ENDMDL
MODEL 2
REMARK VINA RESULT:     -10.8      1.382      7.830
REMARK SMILES CCCC(=O)Nc1cccc(C(=O)N[C@@H](C(=O)OCCOCCOCCOCCOC(=O)c2ccc(-c3c4nc(c(-c5c(F)c(F)c(F)c(F)c5F)c5ccc([nH]5)c(-c5c(F)c(F)c(F)c(F)c5F)c5nc(c(-c6c(F)c(F)c(F)c(F)c6F)c6ccc3[nH]6)C=C5)C=C4)cc2)c2c(C)n[nH]c2C)c1
REMARK SMILES IDX 22 1 21 2 20 3 19 4 18 5 16 6 17 7 15 8 14 9 12 10 13 11
REMARK SMILES IDX 11 13 7 14 8 15 103 16 9 17 10 18 6 19 4 20 5 21 3 23 2 24
REMARK SMILES IDX 1 25 96 26 97 27 101 28 98 29 99 30 100 31 102 32 23 34
REMARK SMILES IDX 24 35 25 36 26 37 27 38 28 39 29 40 30 41 31 42 32 43 33 44
REMARK SMILES IDX 34 45 95 46 35 47 94 48 36 49 37 50 38 51 88 52 39 53 93 54
REMARK SMILES IDX 87 55 89 56 40 57 92 58 86 59 85 60 41 62 73 63 53 64 72 65
REMARK SMILES IDX 54 66 57 67 71 68 90 69 55 70 56 71 70 73 91 74 58 75 42 76
REMARK SMILES IDX 43 77 51 78 44 79 45 80 49 81 52 82 46 83 47 84 50 85 48 86
REMARK SMILES IDX 74 87 75 88 83 89 76 90 77 91 81 92 84 93 78 94 79 95 82 96
REMARK SMILES IDX 80 97 59 98 60 99 68 100 61 101 62 102 66 103 69 104 63 105
REMARK SMILES IDX 64 106 67 107 65 108
REMARK H PARENT 14 12 6 22 100 33 89 61 57 72
REMARK Flexibility Score: inf
ROOT
ATOM      1  C   UNL A   1      38.301  23.705  26.339  1.00  0.00     0.188 C 
ENDROOT
BRANCH   1   2
ATOM      2  O   UNL A   1      37.388  22.902  25.622  1.00  0.00    -0.376 OA
BRANCH   2   3
ATOM      3  C   UNL A   1      36.922  23.278  24.338  1.00  0.00     0.202 C 
BRANCH   3   4
ATOM      4  C   UNL A   1      35.481  23.681  23.938  1.00  0.00     0.261 C 
BRANCH   4   5
ATOM      5  O   UNL A   1      34.682  24.462  24.835  1.00  0.00    -0.461 OA
BRANCH   5   6
ATOM      6  C   UNL A   1      33.367  24.603  24.530  1.00  0.00     0.333 C 
ATOM      7  O   UNL A   1      32.859  24.097  23.536  1.00  0.00    -0.249 OA
BRANCH   6   8
ATOM      8  C   UNL A   1      32.605  25.483  25.581  1.00  0.00     0.227 C 
BRANCH   8   9
ATOM      9  N   UNL A   1      31.648  24.803  26.478  1.00  0.00    -0.335 N 
ATOM     10  C   UNL A   1      31.335  23.507  26.797  1.00  0.00     0.252 C 
ATOM     11  O   UNL A   1      30.375  23.326  27.549  1.00  0.00    -0.269 OA
ATOM     12  H   UNL A   1      31.091  25.446  26.974  1.00  0.00     0.165 HD
BRANCH  10  13
ATOM     13  C   UNL A   1      32.168  22.336  26.429  1.00  0.00     0.041 A 
ATOM     14  C   UNL A   1      32.832  20.628  24.876  1.00  0.00     0.041 A 
ATOM     15  C   UNL A   1      34.113  20.582  25.424  1.00  0.00     0.026 A 
ATOM     16  C   UNL A   1      31.832  21.436  25.426  1.00  0.00     0.040 A 
ATOM     17  C   UNL A   1      34.406  21.373  26.532  1.00  0.00     0.003 A 
ATOM     18  C   UNL A   1      33.442  22.257  27.024  1.00  0.00     0.014 A 
BRANCH  14  19
ATOM     19  N   UNL A   1      32.536  19.905  23.719  1.00  0.00    -0.326 N 
ATOM     20  C   UNL A   1      32.609  18.535  23.653  1.00  0.00     0.224 C 
ATOM     21  O   UNL A   1      33.011  18.017  22.609  1.00  0.00    -0.275 OA
ATOM     22  H   UNL A   1      32.261  20.400  22.913  1.00  0.00     0.169 HD
BRANCH  20  23
ATOM     23  C   UNL A   1      32.152  17.681  24.834  1.00  0.00     0.100 C 
BRANCH  23  24
ATOM     24  C   UNL A   1      33.173  16.686  25.370  1.00  0.00     0.006 C 
ATOM     25  C   UNL A   1      32.631  15.299  25.688  1.00  0.00     0.004 C 
ENDBRANCH  23  24
ENDBRANCH  20  23
ENDBRANCH  14  19
ENDBRANCH  10  13
ENDBRANCH   8   9
BRANCH   8  26
ATOM     26  C   UNL A   1      31.980  26.722  24.900  1.00  0.00     0.029 A 
ATOM     27  C   UNL A   1      30.678  26.974  24.308  1.00  0.00     0.065 A 
ATOM     28  C   UNL A   1      32.646  27.930  24.656  1.00  0.00     0.038 A 
ATOM     29  C   UNL A   1      29.465  26.145  24.079  1.00  0.00     0.069 C 
ATOM     30  N   UNL A   1      30.577  28.219  23.829  1.00  0.00    -0.180 NA
ATOM     31  N   UNL A   1      31.755  28.772  24.064  1.00  0.00    -0.282 N 
ATOM     32  C   UNL A   1      34.028  28.431  24.870  1.00  0.00     0.066 C 
ATOM     33  H   UNL A   1      31.968  29.704  23.831  1.00  0.00     0.190 HD
ENDBRANCH   8  26
ENDBRANCH   6   8
ENDBRANCH   5   6
ENDBRANCH   4   5
ENDBRANCH   3   4
ENDBRANCH   2   3
ENDBRANCH   1   2
BRANCH   1  34
ATOM     34  C   UNL A   1      39.570  22.983  26.814  1.00  0.00     0.188 C 
BRANCH  34  35
ATOM     35  O   UNL A   1      39.574  21.597  26.554  1.00  0.00    -0.377 OA
BRANCH  35  36
ATOM     36  C   UNL A   1      40.687  20.877  27.057  1.00  0.00     0.188 C 
BRANCH  36  37
ATOM     37  C   UNL A   1      41.454  19.896  26.136  1.00  0.00     0.188 C 
BRANCH  37  38
ATOM     38  O   UNL A   1      42.624  20.414  25.514  1.00  0.00    -0.376 OA
BRANCH  38  39
ATOM     39  C   UNL A   1      42.800  21.815  25.384  1.00  0.00     0.202 C 
BRANCH  39  40
ATOM     40  C   UNL A   1      44.245  22.333  25.311  1.00  0.00     0.261 C 
BRANCH  40  41
ATOM     41  O   UNL A   1      44.555  23.395  26.223  1.00  0.00    -0.460 OA
BRANCH  41  42
ATOM     42  C   UNL A   1      44.547  24.639  25.707  1.00  0.00     0.338 C 
ATOM     43  O   UNL A   1      44.963  24.990  24.613  1.00  0.00    -0.246 OA
BRANCH  42  44
ATOM     44  C   UNL A   1      43.740  25.496  26.593  1.00  0.00     0.060 A 
ATOM     45  C   UNL A   1      43.997  26.872  26.588  1.00  0.00     0.016 A 
ATOM     46  C   UNL A   1      42.741  24.958  27.409  1.00  0.00     0.016 A 
ATOM     47  C   UNL A   1      43.289  27.714  27.434  1.00  0.00     0.010 A 
ATOM     48  C   UNL A   1      42.058  25.798  28.293  1.00  0.00     0.010 A 
ATOM     49  C   UNL A   1      42.371  27.169  28.340  1.00  0.00    -0.014 A 
BRANCH  49  50
ATOM     50  C   UNL A   1      42.000  27.997  29.508  1.00  0.00     0.031 A 
ATOM     51  C   UNL A   1      40.708  28.767  29.430  1.00  0.00     0.074 A 
ATOM     52  C   UNL A   1      42.715  27.970  30.645  1.00  0.00     0.049 A 
ATOM     53  N   UNL A   1      40.111  29.490  30.340  1.00  0.00    -0.248 NA
ATOM     54  C   UNL A   1      39.988  28.699  28.147  1.00  0.00     0.031 C 
ATOM     55  C   UNL A   1      43.942  27.206  30.854  1.00  0.00     0.029 A 
ATOM     56  N   UNL A   1      42.490  28.589  31.846  1.00  0.00    -0.354 N 
ATOM     57  C   UNL A   1      38.950  29.962  29.739  1.00  0.00     0.074 A 
ATOM     58  C   UNL A   1      38.943  29.476  28.379  1.00  0.00     0.031 C 
ATOM     59  C   UNL A   1      44.364  27.402  32.116  1.00  0.00     0.029 A 
ATOM     60  C   UNL A   1      43.447  28.320  32.791  1.00  0.00     0.049 A 
ATOM     61  H   UNL A   1      41.715  29.173  32.016  1.00  0.00     0.167 HD
ATOM     62  C   UNL A   1      37.973  30.726  30.279  1.00  0.00     0.037 A 
ATOM     63  C   UNL A   1      43.565  28.774  34.054  1.00  0.00     0.037 A 
ATOM     64  C   UNL A   1      37.988  31.210  31.632  1.00  0.00     0.049 A 
ATOM     65  C   UNL A   1      42.500  29.689  34.606  1.00  0.00     0.074 A 
ATOM     66  C   UNL A   1      37.049  31.990  32.282  1.00  0.00     0.029 A 
ATOM     67  N   UNL A   1      39.007  30.967  32.543  1.00  0.00    -0.354 N 
ATOM     68  N   UNL A   1      41.396  30.119  34.042  1.00  0.00    -0.248 NA
ATOM     69  C   UNL A   1      42.694  30.172  35.979  1.00  0.00     0.031 C 
ATOM     70  C   UNL A   1      37.532  32.275  33.564  1.00  0.00     0.029 A 
ATOM     71  C   UNL A   1      38.733  31.606  33.741  1.00  0.00     0.049 A 
ATOM     72  H   UNL A   1      39.807  30.422  32.363  1.00  0.00     0.167 HD
ATOM     73  C   UNL A   1      40.743  30.881  35.004  1.00  0.00     0.074 A 
ATOM     74  C   UNL A   1      41.572  30.844  36.190  1.00  0.00     0.031 C 
ATOM     75  C   UNL A   1      39.564  31.547  34.917  1.00  0.00     0.037 A 
BRANCH  62  76
ATOM     76  C   UNL A   1      36.835  31.126  29.383  1.00  0.00     0.064 A 
ATOM     77  C   UNL A   1      35.820  30.225  29.018  1.00  0.00     0.173 A 
ATOM     78  C   UNL A   1      36.756  32.435  28.887  1.00  0.00     0.173 A 
ATOM     79  F   UNL A   1      35.859  28.954  29.445  1.00  0.00    -0.203 F 
ATOM     80  C   UNL A   1      34.790  30.615  28.166  1.00  0.00     0.198 A 
ATOM     81  C   UNL A   1      35.705  32.830  28.065  1.00  0.00     0.198 A 
ATOM     82  F   UNL A   1      37.700  33.336  29.202  1.00  0.00    -0.203 F 
ATOM     83  F   UNL A   1      33.866  29.723  27.783  1.00  0.00    -0.200 F 
ATOM     84  C   UNL A   1      34.728  31.918  27.697  1.00  0.00     0.200 A 
ATOM     85  F   UNL A   1      35.642  34.095  27.624  1.00  0.00    -0.200 F 
ATOM     86  F   UNL A   1      33.732  32.294  26.882  1.00  0.00    -0.200 F 
ENDBRANCH  62  76
BRANCH  63  87
ATOM     87  C   UNL A   1      44.729  28.373  34.889  1.00  0.00     0.064 A 
ATOM     88  C   UNL A   1      45.914  29.123  34.892  1.00  0.00     0.173 A 
ATOM     89  C   UNL A   1      44.693  27.210  35.673  1.00  0.00     0.173 A 
ATOM     90  F   UNL A   1      46.008  30.230  34.140  1.00  0.00    -0.203 F 
ATOM     91  C   UNL A   1      47.027  28.710  35.624  1.00  0.00     0.198 A 
ATOM     92  C   UNL A   1      45.795  26.816  36.430  1.00  0.00     0.198 A 
ATOM     93  F   UNL A   1      43.586  26.454  35.703  1.00  0.00    -0.203 F 
ATOM     94  F   UNL A   1      48.165  29.412  35.561  1.00  0.00    -0.200 F 
ATOM     95  C   UNL A   1      46.964  27.559  36.396  1.00  0.00     0.200 A 
ATOM     96  F   UNL A   1      45.725  25.711  37.185  1.00  0.00    -0.200 F 
ATOM     97  F   UNL A   1      48.033  27.162  37.098  1.00  0.00    -0.200 F 
ENDBRANCH  63  87
BRANCH  75  98
ATOM     98  C   UNL A   1      39.067  32.232  36.161  1.00  0.00     0.064 A 
ATOM     99  C   UNL A   1      38.212  31.597  37.075  1.00  0.00     0.173 A 
ATOM    100  C   UNL A   1      39.467  33.548  36.447  1.00  0.00     0.173 A 
ATOM    101  F   UNL A   1      37.793  30.342  36.848  1.00  0.00    -0.203 F 
ATOM    102  C   UNL A   1      37.734  32.269  38.196  1.00  0.00     0.198 A 
ATOM    103  C   UNL A   1      39.021  34.202  37.592  1.00  0.00     0.198 A 
ATOM    104  F   UNL A   1      40.294  34.200  35.618  1.00  0.00    -0.203 F 
ATOM    105  F   UNL A   1      36.858  31.667  39.013  1.00  0.00    -0.200 F 
ATOM    106  C   UNL A   1      38.144  33.568  38.457  1.00  0.00     0.200 A 
ATOM    107  F   UNL A   1      39.435  35.449  37.853  1.00  0.00    -0.200 F 
ATOM    108  F   UNL A   1      37.681  34.214  39.537  1.00  0.00    -0.200 F 
ENDBRANCH  75  98
ENDBRANCH  49  50
ENDBRANCH  42  44
ENDBRANCH  41  42
ENDBRANCH  40  41
ENDBRANCH  39  40
ENDBRANCH  38  39
ENDBRANCH  37  38
ENDBRANCH  36  37
ENDBRANCH  35  36
ENDBRANCH  34  35
ENDBRANCH   1  34
TORSDOF 26
ENDMDL
MODEL 3
REMARK VINA RESULT:     -10.7      4.998     10.011
REMARK SMILES CCCC(=O)Nc1cccc(C(=O)N[C@@H](C(=O)OCCOCCOCCOCCOC(=O)c2ccc(-c3c4nc(c(-c5c(F)c(F)c(F)c(F)c5F)c5ccc([nH]5)c(-c5c(F)c(F)c(F)c(F)c5F)c5nc(c(-c6c(F)c(F)c(F)c(F)c6F)c6ccc3[nH]6)C=C5)C=C4)cc2)c2c(C)n[nH]c2C)c1
REMARK SMILES IDX 22 1 21 2 20 3 19 4 18 5 16 6 17 7 15 8 14 9 12 10 13 11
REMARK SMILES IDX 11 13 7 14 8 15 103 16 9 17 10 18 6 19 4 20 5 21 3 23 2 24
REMARK SMILES IDX 1 25 96 26 97 27 101 28 98 29 99 30 100 31 102 32 23 34
REMARK SMILES IDX 24 35 25 36 26 37 27 38 28 39 29 40 30 41 31 42 32 43 33 44
REMARK SMILES IDX 34 45 95 46 35 47 94 48 36 49 37 50 38 51 88 52 39 53 93 54
REMARK SMILES IDX 87 55 89 56 40 57 92 58 86 59 85 60 41 62 73 63 53 64 72 65
REMARK SMILES IDX 54 66 57 67 71 68 90 69 55 70 56 71 70 73 91 74 58 75 42 76
REMARK SMILES IDX 43 77 51 78 44 79 45 80 49 81 52 82 46 83 47 84 50 85 48 86
REMARK SMILES IDX 74 87 75 88 83 89 76 90 77 91 81 92 84 93 78 94 79 95 82 96
REMARK SMILES IDX 80 97 59 98 60 99 68 100 61 101 62 102 66 103 69 104 63 105
REMARK SMILES IDX 64 106 67 107 65 108
REMARK H PARENT 14 12 6 22 100 33 89 61 57 72
REMARK Flexibility Score: inf
ROOT
ATOM      1  C   UNL A   1      33.824  29.139  27.154  1.00  0.00     0.188 C 
ENDROOT
BRANCH   1   2
ATOM      2  O   UNL A   1      32.767  28.350  27.657  1.00  0.00    -0.376 OA
BRANCH   2   3
ATOM      3  C   UNL A   1      31.647  28.017  26.856  1.00  0.00     0.202 C 
BRANCH   3   4
ATOM      4  C   UNL A   1      31.379  26.681  26.118  1.00  0.00     0.261 C 
BRANCH   4   5
ATOM      5  O   UNL A   1      32.241  25.559  26.337  1.00  0.00    -0.461 OA
BRANCH   5   6
ATOM      6  C   UNL A   1      32.049  24.469  25.550  1.00  0.00     0.333 C 
ATOM      7  O   UNL A   1      30.993  23.848  25.523  1.00  0.00    -0.249 OA
BRANCH   6   8
ATOM      8  C   UNL A   1      33.325  24.111  24.711  1.00  0.00     0.227 C 
BRANCH   8   9
ATOM      9  N   UNL A   1      33.208  24.145  23.238  1.00  0.00    -0.335 N 
ATOM     10  C   UNL A   1      33.049  25.109  22.277  1.00  0.00     0.252 C 
ATOM     11  O   UNL A   1      32.892  24.728  21.116  1.00  0.00    -0.269 OA
ATOM     12  H   UNL A   1      33.256  23.243  22.847  1.00  0.00     0.165 HD
BRANCH  10  13
ATOM     13  C   UNL A   1      33.215  26.562  22.522  1.00  0.00     0.041 A 
ATOM     14  C   UNL A   1      32.386  28.816  22.466  1.00  0.00     0.041 A 
ATOM     15  C   UNL A   1      33.193  29.174  23.545  1.00  0.00     0.026 A 
ATOM     16  C   UNL A   1      32.454  27.541  21.895  1.00  0.00     0.040 A 
ATOM     17  C   UNL A   1      34.072  28.234  24.076  1.00  0.00     0.003 A 
ATOM     18  C   UNL A   1      34.074  26.929  23.576  1.00  0.00     0.014 A 
BRANCH  14  19
ATOM     19  N   UNL A   1      31.441  29.714  21.966  1.00  0.00    -0.326 N 
ATOM     20  C   UNL A   1      30.087  29.540  22.122  1.00  0.00     0.224 C 
ATOM     21  O   UNL A   1      29.342  29.871  21.197  1.00  0.00    -0.275 OA
ATOM     22  H   UNL A   1      31.759  30.510  21.481  1.00  0.00     0.169 HD
BRANCH  20  23
ATOM     23  C   UNL A   1      29.526  28.996  23.434  1.00  0.00     0.100 C 
BRANCH  23  24
ATOM     24  C   UNL A   1      28.314  28.081  23.311  1.00  0.00     0.006 C 
ATOM     25  C   UNL A   1      28.532  26.642  23.754  1.00  0.00     0.004 C 
ENDBRANCH  23  24
ENDBRANCH  20  23
ENDBRANCH  14  19
ENDBRANCH  10  13
ENDBRANCH   8   9
BRANCH   8  26
ATOM     26  C   UNL A   1      33.950  22.789  25.211  1.00  0.00     0.029 A 
ATOM     27  C   UNL A   1      33.460  21.422  25.269  1.00  0.00     0.065 A 
ATOM     28  C   UNL A   1      35.209  22.669  25.813  1.00  0.00     0.038 A 
ATOM     29  C   UNL A   1      32.170  20.768  24.924  1.00  0.00     0.069 C 
ATOM     30  N   UNL A   1      34.365  20.587  25.790  1.00  0.00    -0.180 NA
ATOM     31  N   UNL A   1      35.402  21.349  26.090  1.00  0.00    -0.282 N 
ATOM     32  C   UNL A   1      36.281  23.618  26.206  1.00  0.00     0.066 C 
ATOM     33  H   UNL A   1      36.236  20.997  26.477  1.00  0.00     0.190 HD
ENDBRANCH   8  26
ENDBRANCH   6   8
ENDBRANCH   5   6
ENDBRANCH   4   5
ENDBRANCH   3   4
ENDBRANCH   2   3
ENDBRANCH   1   2
BRANCH   1  34
ATOM     34  C   UNL A   1      33.765  30.625  27.532  1.00  0.00     0.188 C 
BRANCH  34  35
ATOM     35  O   UNL A   1      32.663  31.313  26.984  1.00  0.00    -0.377 OA
BRANCH  35  36
ATOM     36  C   UNL A   1      32.611  32.706  27.247  1.00  0.00     0.188 C 
BRANCH  36  37
ATOM     37  C   UNL A   1      33.690  33.367  28.140  1.00  0.00     0.188 C 
BRANCH  37  38
ATOM     38  O   UNL A   1      33.230  34.388  29.016  1.00  0.00    -0.376 OA
BRANCH  38  39
ATOM     39  C   UNL A   1      33.815  34.544  30.298  1.00  0.00     0.202 C 
BRANCH  39  40
ATOM     40  C   UNL A   1      35.084  33.727  30.590  1.00  0.00     0.261 C 
BRANCH  40  41
ATOM     41  O   UNL A   1      34.851  32.416  31.122  1.00  0.00    -0.460 OA
BRANCH  41  42
ATOM     42  C   UNL A   1      35.716  31.999  32.067  1.00  0.00     0.338 C 
ATOM     43  O   UNL A   1      35.629  32.164  33.275  1.00  0.00    -0.246 OA
BRANCH  42  44
ATOM     44  C   UNL A   1      36.693  31.102  31.428  1.00  0.00     0.060 A 
ATOM     45  C   UNL A   1      37.769  30.646  32.201  1.00  0.00     0.016 A 
ATOM     46  C   UNL A   1      36.552  30.705  30.096  1.00  0.00     0.016 A 
ATOM     47  C   UNL A   1      38.736  29.830  31.631  1.00  0.00     0.010 A 
ATOM     48  C   UNL A   1      37.548  29.919  29.509  1.00  0.00     0.010 A 
ATOM     49  C   UNL A   1      38.667  29.526  30.266  1.00  0.00    -0.014 A 
BRANCH  49  50
ATOM     50  C   UNL A   1      39.912  29.073  29.610  1.00  0.00     0.031 A 
ATOM     51  C   UNL A   1      41.068  30.038  29.575  1.00  0.00     0.074 A 
ATOM     52  C   UNL A   1      40.058  27.811  29.174  1.00  0.00     0.049 A 
ATOM     53  N   UNL A   1      42.290  29.861  29.145  1.00  0.00    -0.248 NA
ATOM     54  C   UNL A   1      40.808  31.385  30.111  1.00  0.00     0.031 C 
ATOM     55  C   UNL A   1      39.029  26.776  29.222  1.00  0.00     0.029 A 
ATOM     56  N   UNL A   1      41.147  27.186  28.624  1.00  0.00    -0.354 N 
ATOM     57  C   UNL A   1      42.938  31.072  29.357  1.00  0.00     0.074 A 
ATOM     58  C   UNL A   1      41.970  31.985  29.919  1.00  0.00     0.031 C 
ATOM     59  C   UNL A   1      39.539  25.636  28.722  1.00  0.00     0.029 A 
ATOM     60  C   UNL A   1      40.919  25.872  28.300  1.00  0.00     0.049 A 
ATOM     61  H   UNL A   1      42.010  27.635  28.476  1.00  0.00     0.167 HD
ATOM     62  C   UNL A   1      44.231  31.390  29.113  1.00  0.00     0.037 A 
ATOM     63  C   UNL A   1      41.738  24.972  27.723  1.00  0.00     0.037 A 
ATOM     64  C   UNL A   1      45.188  30.478  28.549  1.00  0.00     0.049 A 
ATOM     65  C   UNL A   1      43.153  25.377  27.388  1.00  0.00     0.074 A 
ATOM     66  C   UNL A   1      46.523  30.694  28.262  1.00  0.00     0.029 A 
ATOM     67  N   UNL A   1      44.905  29.171  28.176  1.00  0.00    -0.354 N 
ATOM     68  N   UNL A   1      43.767  26.515  27.606  1.00  0.00    -0.248 NA
ATOM     69  C   UNL A   1      43.991  24.362  26.737  1.00  0.00     0.031 C 
ATOM     70  C   UNL A   1      47.030  29.542  27.652  1.00  0.00     0.029 A 
ATOM     71  C   UNL A   1      46.034  28.579  27.633  1.00  0.00     0.049 A 
ATOM     72  H   UNL A   1      44.030  28.731  28.280  1.00  0.00     0.167 HD
ATOM     73  C   UNL A   1      45.073  26.339  27.163  1.00  0.00     0.074 A 
ATOM     74  C   UNL A   1      45.162  24.978  26.675  1.00  0.00     0.031 C 
ATOM     75  C   UNL A   1      46.107  27.218  27.164  1.00  0.00     0.037 A 
BRANCH  62  76
ATOM     76  C   UNL A   1      44.663  32.799  29.406  1.00  0.00     0.064 A 
ATOM     77  C   UNL A   1      44.527  33.833  28.465  1.00  0.00     0.173 A 
ATOM     78  C   UNL A   1      45.217  33.119  30.654  1.00  0.00     0.173 A 
ATOM     79  F   UNL A   1      44.024  33.577  27.248  1.00  0.00    -0.203 F 
ATOM     80  C   UNL A   1      44.958  35.125  28.754  1.00  0.00     0.198 A 
ATOM     81  C   UNL A   1      45.613  34.419  30.952  1.00  0.00     0.198 A 
ATOM     82  F   UNL A   1      45.373  32.169  31.589  1.00  0.00    -0.203 F 
ATOM     83  F   UNL A   1      44.873  36.082  27.820  1.00  0.00    -0.200 F 
ATOM     84  C   UNL A   1      45.493  35.419  29.999  1.00  0.00     0.200 A 
ATOM     85  F   UNL A   1      46.119  34.703  32.161  1.00  0.00    -0.200 F 
ATOM     86  F   UNL A   1      45.902  36.665  30.278  1.00  0.00    -0.200 F 
ENDBRANCH  62  76
BRANCH  63  87
ATOM     87  C   UNL A   1      41.251  23.599  27.423  1.00  0.00     0.064 A 
ATOM     88  C   UNL A   1      41.803  22.477  28.058  1.00  0.00     0.173 A 
ATOM     89  C   UNL A   1      40.248  23.378  26.467  1.00  0.00     0.173 A 
ATOM     90  F   UNL A   1      42.782  22.632  28.962  1.00  0.00    -0.203 F 
ATOM     91  C   UNL A   1      41.391  21.186  27.727  1.00  0.00     0.198 A 
ATOM     92  C   UNL A   1      39.814  22.089  26.162  1.00  0.00     0.198 A 
ATOM     93  F   UNL A   1      39.689  24.415  25.827  1.00  0.00    -0.203 F 
ATOM     94  F   UNL A   1      41.978  20.130  28.306  1.00  0.00    -0.200 F 
ATOM     95  C   UNL A   1      40.393  20.994  26.784  1.00  0.00     0.200 A 
ATOM     96  F   UNL A   1      38.841  21.909  25.259  1.00  0.00    -0.200 F 
ATOM     97  F   UNL A   1      39.998  19.754  26.466  1.00  0.00    -0.200 F 
ENDBRANCH  63  87
BRANCH  75  98
ATOM     98  C   UNL A   1      47.442  26.713  26.686  1.00  0.00     0.064 A 
ATOM     99  C   UNL A   1      48.345  26.061  27.539  1.00  0.00     0.173 A 
ATOM    100  C   UNL A   1      47.814  26.878  25.342  1.00  0.00     0.173 A 
ATOM    101  F   UNL A   1      48.042  25.883  28.834  1.00  0.00    -0.203 F 
ATOM    102  C   UNL A   1      49.590  25.641  27.079  1.00  0.00     0.198 A 
ATOM    103  C   UNL A   1      49.043  26.419  24.875  1.00  0.00     0.198 A 
ATOM    104  F   UNL A   1      46.985  27.481  24.477  1.00  0.00    -0.203 F 
ATOM    105  F   UNL A   1      50.466  25.090  27.930  1.00  0.00    -0.200 F 
ATOM    106  C   UNL A   1      49.935  25.815  25.746  1.00  0.00     0.200 A 
ATOM    107  F   UNL A   1      49.365  26.568  23.583  1.00  0.00    -0.200 F 
ATOM    108  F   UNL A   1      51.135  25.412  25.306  1.00  0.00    -0.200 F 
ENDBRANCH  75  98
ENDBRANCH  49  50
ENDBRANCH  42  44
ENDBRANCH  41  42
ENDBRANCH  40  41
ENDBRANCH  39  40
ENDBRANCH  38  39
ENDBRANCH  37  38
ENDBRANCH  36  37
ENDBRANCH  35  36
ENDBRANCH  34  35
ENDBRANCH   1  34
TORSDOF 26
ENDMDL
