MODEL 1
REMARK VINA RESULT:      -9.8      0.000      0.000
REMARK SMILES C[C@@](NC(=O)CCOC1CC[NH2+]CC1)(C(=O)OCCOCCOCCOCCOC(=O)c1ccc(-c2c3nc(c(-c4c(F)c(F)c(F)c(F)c4F)c4ccc([nH]4)c(-c4c(F)c(F)c(F)c(F)c4F)c4nc(c(-c5c(F)c(F)c(F)c(F)c5F)c5ccc2[nH]5)C=C4)C=C3)cc1)C(F)(F)F
REMARK SMILES IDX 21 1 20 2 19 3 18 4 17 5 15 6 16 7 2 8 1 9 3 10 4 11 5 13
REMARK SMILES IDX 6 14 7 15 8 16 9 17 10 18 14 19 11 20 13 21 12 22 95 25
REMARK SMILES IDX 96 26 97 27 98 28 22 29 23 30 24 31 25 32 26 33 27 34 28 35
REMARK SMILES IDX 29 36 30 37 31 38 32 39 33 40 94 41 34 42 93 43 35 44 36 45
REMARK SMILES IDX 37 46 87 47 38 48 92 49 86 50 88 51 39 52 91 53 85 54 84 55
REMARK SMILES IDX 40 57 72 58 52 59 71 60 53 61 56 62 70 63 89 64 54 65 55 66
REMARK SMILES IDX 69 68 90 69 57 70 41 71 42 72 50 73 43 74 44 75 48 76 51 77
REMARK SMILES IDX 45 78 46 79 49 80 47 81 73 82 74 83 82 84 75 85 76 86 80 87
REMARK SMILES IDX 83 88 77 89 78 90 81 91 79 92 58 93 59 94 67 95 60 96 61 97
REMARK SMILES IDX 65 98 68 99 62 100 63 101 66 102 64 103
REMARK H PARENT 3 12 12 23 12 24 88 56 56 67
REMARK Flexibility Score: inf
ROOT
ATOM      1  C   UNL A   1      32.825  19.830  24.957  1.00  0.00     0.188 C 
ENDROOT
BRANCH   1   2
ATOM      2  O   UNL A   1      32.340  21.140  24.742  1.00  0.00    -0.376 OA
BRANCH   2   3
ATOM      3  C   UNL A   1      32.196  21.706  23.453  1.00  0.00     0.202 C 
BRANCH   3   4
ATOM      4  C   UNL A   1      31.463  23.019  23.197  1.00  0.00     0.261 C 
BRANCH   4   5
ATOM      5  O   UNL A   1      32.210  24.198  23.490  1.00  0.00    -0.461 OA
BRANCH   5   6
ATOM      6  C   UNL A   1      31.641  25.135  24.297  1.00  0.00     0.341 C 
ATOM      7  O   UNL A   1      30.459  25.130  24.605  1.00  0.00    -0.249 OA
BRANCH   6   8
ATOM      8  C   UNL A   1      32.632  26.266  24.558  1.00  0.00     0.231 C 
ATOM      9  C   UNL A   1      33.637  26.534  23.425  1.00  0.00     0.058 C 
BRANCH   8  10
ATOM     10  N   UNL A   1      31.916  27.539  24.917  1.00  0.00    -0.333 N 
ATOM     11  C   UNL A   1      31.538  28.616  24.171  1.00  0.00     0.223 C 
ATOM     12  H   UNL A   1      31.675  27.607  25.869  1.00  0.00     0.164 HD
ATOM     13  O   UNL A   1      31.439  29.699  24.752  1.00  0.00    -0.275 OA
BRANCH  11  14
ATOM     14  C   UNL A   1      31.131  28.496  22.722  1.00  0.00     0.128 C 
BRANCH  14  15
ATOM     15  C   UNL A   1      29.662  28.701  22.370  1.00  0.00     0.170 C 
BRANCH  15  16
ATOM     16  O   UNL A   1      29.334  29.708  21.423  1.00  0.00    -0.377 OA
BRANCH  16  17
ATOM     17  C   UNL A   1      28.064  30.361  21.540  1.00  0.00     0.129 C 
ATOM     18  C   UNL A   1      27.974  31.770  20.963  1.00  0.00     0.093 C 
ATOM     19  C   UNL A   1      27.686  30.379  23.029  1.00  0.00     0.093 C 
ATOM     20  C   UNL A   1      28.778  32.758  21.791  1.00  0.00     0.263 C 
ATOM     21  C   UNL A   1      28.453  31.454  23.795  1.00  0.00     0.263 C 
ATOM     22  N   UNL A   1      28.300  32.772  23.173  1.00  0.00    -0.346 N 
ATOM     23  H   UNL A   1      27.314  33.032  23.182  1.00  0.00     0.346 HD
ATOM     24  H   UNL A   1      28.853  33.446  23.701  1.00  0.00     0.346 HD
ENDBRANCH  16  17
ENDBRANCH  15  16
ENDBRANCH  14  15
ENDBRANCH  11  14
ENDBRANCH   8  10
BRANCH   8  25
ATOM     25  C   UNL A   1      33.485  25.718  25.722  1.00  0.00     0.422 C 
ATOM     26  F   UNL A   1      34.732  25.374  25.314  1.00  0.00    -0.168 F 
ATOM     27  F   UNL A   1      33.642  26.682  26.669  1.00  0.00    -0.168 F 
ATOM     28  F   UNL A   1      32.939  24.656  26.344  1.00  0.00    -0.168 F 
ENDBRANCH   8  25
ENDBRANCH   6   8
ENDBRANCH   5   6
ENDBRANCH   4   5
ENDBRANCH   3   4
ENDBRANCH   2   3
ENDBRANCH   1   2
BRANCH   1  29
ATOM     29  C   UNL A   1      34.354  19.656  24.861  1.00  0.00     0.188 C 
BRANCH  29  30
ATOM     30  O   UNL A   1      35.179  20.591  25.524  1.00  0.00    -0.377 OA
BRANCH  30  31
ATOM     31  C   UNL A   1      36.150  21.326  24.788  1.00  0.00     0.188 C 
BRANCH  31  32
ATOM     32  C   UNL A   1      37.339  22.065  25.453  1.00  0.00     0.188 C 
BRANCH  32  33
ATOM     33  O   UNL A   1      38.565  21.362  25.487  1.00  0.00    -0.376 OA
BRANCH  33  34
ATOM     34  C   UNL A   1      38.609  20.030  25.011  1.00  0.00     0.202 C 
BRANCH  34  35
ATOM     35  C   UNL A   1      39.565  19.059  25.721  1.00  0.00     0.261 C 
BRANCH  35  36
ATOM     36  O   UNL A   1      40.485  19.664  26.641  1.00  0.00    -0.460 OA
BRANCH  36  37
ATOM     37  C   UNL A   1      41.699  19.987  26.151  1.00  0.00     0.338 C 
ATOM     38  O   UNL A   1      42.394  19.330  25.389  1.00  0.00    -0.246 OA
BRANCH  37  39
ATOM     39  C   UNL A   1      41.983  21.375  26.550  1.00  0.00     0.060 A 
ATOM     40  C   UNL A   1      41.975  22.385  25.578  1.00  0.00     0.016 A 
ATOM     41  C   UNL A   1      42.253  21.671  27.885  1.00  0.00     0.016 A 
ATOM     42  C   UNL A   1      42.244  23.702  25.940  1.00  0.00     0.010 A 
ATOM     43  C   UNL A   1      42.560  22.985  28.241  1.00  0.00     0.010 A 
ATOM     44  C   UNL A   1      42.576  23.999  27.266  1.00  0.00    -0.014 A 
BRANCH  44  45
ATOM     45  C   UNL A   1      43.118  25.331  27.616  1.00  0.00     0.031 A 
ATOM     46  C   UNL A   1      42.192  26.326  28.251  1.00  0.00     0.074 A 
ATOM     47  C   UNL A   1      44.394  25.652  27.345  1.00  0.00     0.049 A 
ATOM     48  N   UNL A   1      42.380  27.595  28.500  1.00  0.00    -0.248 NA
ATOM     49  C   UNL A   1      40.867  25.822  28.654  1.00  0.00     0.031 C 
ATOM     50  C   UNL A   1      45.394  24.745  26.785  1.00  0.00     0.029 A 
ATOM     51  N   UNL A   1      45.057  26.846  27.482  1.00  0.00    -0.354 N 
ATOM     52  C   UNL A   1      41.193  28.047  29.060  1.00  0.00     0.074 A 
ATOM     53  C   UNL A   1      40.287  26.920  29.116  1.00  0.00     0.031 C 
ATOM     54  C   UNL A   1      46.535  25.428  26.586  1.00  0.00     0.029 A 
ATOM     55  C   UNL A   1      46.327  26.826  26.958  1.00  0.00     0.049 A 
ATOM     56  H   UNL A   1      44.662  27.638  27.912  1.00  0.00     0.167 HD
ATOM     57  C   UNL A   1      40.889  29.296  29.479  1.00  0.00     0.037 A 
ATOM     58  C   UNL A   1      47.195  27.838  26.755  1.00  0.00     0.037 A 
ATOM     59  C   UNL A   1      41.804  30.403  29.429  1.00  0.00     0.049 A 
ATOM     60  C   UNL A   1      46.798  29.238  27.161  1.00  0.00     0.074 A 
ATOM     61  C   UNL A   1      41.614  31.697  29.881  1.00  0.00     0.029 A 
ATOM     62  N   UNL A   1      43.076  30.351  28.880  1.00  0.00    -0.354 N 
ATOM     63  N   UNL A   1      45.693  29.655  27.732  1.00  0.00    -0.248 NA
ATOM     64  C   UNL A   1      47.765  30.311  26.887  1.00  0.00     0.031 C 
ATOM     65  C   UNL A   1      42.740  32.447  29.536  1.00  0.00     0.029 A 
ATOM     66  C   UNL A   1      43.662  31.604  28.935  1.00  0.00     0.049 A 
ATOM     67  H   UNL A   1      43.498  29.545  28.507  1.00  0.00     0.167 HD
ATOM     68  C   UNL A   1      45.843  31.025  27.907  1.00  0.00     0.074 A 
ATOM     69  C   UNL A   1      47.155  31.369  27.402  1.00  0.00     0.031 C 
ATOM     70  C   UNL A   1      44.974  31.922  28.434  1.00  0.00     0.037 A 
BRANCH  57  71
ATOM     71  C   UNL A   1      39.501  29.555  29.986  1.00  0.00     0.064 A 
ATOM     72  C   UNL A   1      39.197  29.563  31.353  1.00  0.00     0.173 A 
ATOM     73  C   UNL A   1      38.478  29.881  29.082  1.00  0.00     0.173 A 
ATOM     74  F   UNL A   1      40.135  29.242  32.258  1.00  0.00    -0.203 F 
ATOM     75  C   UNL A   1      37.915  29.881  31.798  1.00  0.00     0.198 A 
ATOM     76  C   UNL A   1      37.207  30.227  29.530  1.00  0.00     0.198 A 
ATOM     77  F   UNL A   1      38.719  29.889  27.762  1.00  0.00    -0.203 F 
ATOM     78  F   UNL A   1      37.637  29.855  33.109  1.00  0.00    -0.200 F 
ATOM     79  C   UNL A   1      36.926  30.224  30.887  1.00  0.00     0.200 A 
ATOM     80  F   UNL A   1      36.259  30.572  28.649  1.00  0.00    -0.200 F 
ATOM     81  F   UNL A   1      35.701  30.552  31.319  1.00  0.00    -0.200 F 
ENDBRANCH  57  71
BRANCH  58  82
ATOM     82  C   UNL A   1      48.496  27.589  26.075  1.00  0.00     0.064 A 
ATOM     83  C   UNL A   1      48.573  27.452  24.682  1.00  0.00     0.173 A 
ATOM     84  C   UNL A   1      49.680  27.427  26.810  1.00  0.00     0.173 A 
ATOM     85  F   UNL A   1      47.467  27.574  23.934  1.00  0.00    -0.203 F 
ATOM     86  C   UNL A   1      49.776  27.127  24.055  1.00  0.00     0.198 A 
ATOM     87  C   UNL A   1      50.889  27.141  26.178  1.00  0.00     0.198 A 
ATOM     88  F   UNL A   1      49.667  27.546  28.145  1.00  0.00    -0.203 F 
ATOM     89  F   UNL A   1      49.805  26.933  22.729  1.00  0.00    -0.200 F 
ATOM     90  C   UNL A   1      50.933  26.975  24.803  1.00  0.00     0.200 A 
ATOM     91  F   UNL A   1      52.007  27.013  26.905  1.00  0.00    -0.200 F 
ATOM     92  F   UNL A   1      52.086  26.658  24.200  1.00  0.00    -0.200 F 
ENDBRANCH  58  82
BRANCH  70  93
ATOM     93  C   UNL A   1      45.418  33.355  28.520  1.00  0.00     0.064 A 
ATOM     94  C   UNL A   1      46.213  33.816  29.579  1.00  0.00     0.173 A 
ATOM     95  C   UNL A   1      45.102  34.260  27.494  1.00  0.00     0.173 A 
ATOM     96  F   UNL A   1      46.531  32.996  30.591  1.00  0.00    -0.203 F 
ATOM     97  C   UNL A   1      46.659  35.135  29.617  1.00  0.00     0.198 A 
ATOM     98  C   UNL A   1      45.578  35.566  27.518  1.00  0.00     0.198 A 
ATOM     99  F   UNL A   1      44.352  33.867  26.453  1.00  0.00    -0.203 F 
ATOM    100  F   UNL A   1      47.382  35.566  30.661  1.00  0.00    -0.200 F 
ATOM    101  C   UNL A   1      46.351  36.005  28.582  1.00  0.00     0.200 A 
ATOM    102  F   UNL A   1      45.296  36.400  26.506  1.00  0.00    -0.200 F 
ATOM    103  F   UNL A   1      46.796  37.268  28.612  1.00  0.00    -0.200 F 
ENDBRANCH  70  93
ENDBRANCH  44  45
ENDBRANCH  37  39
ENDBRANCH  36  37
ENDBRANCH  35  36
ENDBRANCH  34  35
ENDBRANCH  33  34
ENDBRANCH  32  33
ENDBRANCH  31  32
ENDBRANCH  30  31
ENDBRANCH  29  30
ENDBRANCH   1  29
TORSDOF 26
ENDMDL
MODEL 2
REMARK VINA RESULT:      -9.7      5.710     10.743
REMARK SMILES C[C@@](NC(=O)CCOC1CC[NH2+]CC1)(C(=O)OCCOCCOCCOCCOC(=O)c1ccc(-c2c3nc(c(-c4c(F)c(F)c(F)c(F)c4F)c4ccc([nH]4)c(-c4c(F)c(F)c(F)c(F)c4F)c4nc(c(-c5c(F)c(F)c(F)c(F)c5F)c5ccc2[nH]5)C=C4)C=C3)cc1)C(F)(F)F
REMARK SMILES IDX 21 1 20 2 19 3 18 4 17 5 15 6 16 7 2 8 1 9 3 10 4 11 5 13
REMARK SMILES IDX 6 14 7 15 8 16 9 17 10 18 14 19 11 20 13 21 12 22 95 25
REMARK SMILES IDX 96 26 97 27 98 28 22 29 23 30 24 31 25 32 26 33 27 34 28 35
REMARK SMILES IDX 29 36 30 37 31 38 32 39 33 40 94 41 34 42 93 43 35 44 36 45
REMARK SMILES IDX 37 46 87 47 38 48 92 49 86 50 88 51 39 52 91 53 85 54 84 55
REMARK SMILES IDX 40 57 72 58 52 59 71 60 53 61 56 62 70 63 89 64 54 65 55 66
REMARK SMILES IDX 69 68 90 69 57 70 41 71 42 72 50 73 43 74 44 75 48 76 51 77
REMARK SMILES IDX 45 78 46 79 49 80 47 81 73 82 74 83 82 84 75 85 76 86 80 87
REMARK SMILES IDX 83 88 77 89 78 90 81 91 79 92 58 93 59 94 67 95 60 96 61 97
REMARK SMILES IDX 65 98 68 99 62 100 63 101 66 102 64 103
REMARK H PARENT 3 12 12 23 12 24 88 56 56 67
REMARK Flexibility Score: inf
ROOT
ATOM      1  C   UNL A   1      34.009  30.911  27.471  1.00  0.00     0.188 C 
ENDROOT
BRANCH   1   2
ATOM      2  O   UNL A   1      34.209  29.573  27.060  1.00  0.00    -0.376 OA
BRANCH   2   3
ATOM      3  C   UNL A   1      33.336  28.519  27.420  1.00  0.00     0.202 C 
BRANCH   3   4
ATOM      4  C   UNL A   1      32.697  27.583  26.400  1.00  0.00     0.261 C 
BRANCH   4   5
ATOM      5  O   UNL A   1      32.612  28.098  25.072  1.00  0.00    -0.461 OA
BRANCH   5   6
ATOM      6  C   UNL A   1      31.707  27.540  24.223  1.00  0.00     0.341 C 
ATOM      7  O   UNL A   1      30.999  26.590  24.523  1.00  0.00    -0.249 OA
BRANCH   6   8
ATOM      8  C   UNL A   1      31.877  28.126  22.824  1.00  0.00     0.231 C 
ATOM      9  C   UNL A   1      33.043  29.116  22.664  1.00  0.00     0.058 C 
BRANCH   8  10
ATOM     10  N   UNL A   1      31.986  27.038  21.792  1.00  0.00    -0.333 N 
ATOM     11  C   UNL A   1      32.919  26.065  21.585  1.00  0.00     0.223 C 
ATOM     12  H   UNL A   1      31.244  27.026  21.145  1.00  0.00     0.164 HD
ATOM     13  O   UNL A   1      33.054  25.648  20.433  1.00  0.00    -0.275 OA
BRANCH  11  14
ATOM     14  C   UNL A   1      33.681  25.418  22.717  1.00  0.00     0.128 C 
BRANCH  14  15
ATOM     15  C   UNL A   1      33.281  24.008  23.137  1.00  0.00     0.170 C 
BRANCH  15  16
ATOM     16  O   UNL A   1      33.998  23.398  24.201  1.00  0.00    -0.377 OA
BRANCH  16  17
ATOM     17  C   UNL A   1      34.980  22.407  23.875  1.00  0.00     0.129 C 
ATOM     18  C   UNL A   1      35.103  21.235  24.844  1.00  0.00     0.093 C 
ATOM     19  C   UNL A   1      36.333  23.120  23.739  1.00  0.00     0.093 C 
ATOM     20  C   UNL A   1      35.703  21.675  26.168  1.00  0.00     0.263 C 
ATOM     21  C   UNL A   1      36.937  23.453  25.102  1.00  0.00     0.263 C 
ATOM     22  N   UNL A   1      37.023  22.267  25.957  1.00  0.00    -0.346 N 
ATOM     23  H   UNL A   1      37.630  21.578  25.512  1.00  0.00     0.346 HD
ATOM     24  H   UNL A   1      37.402  22.546  26.862  1.00  0.00     0.346 HD
ENDBRANCH  16  17
ENDBRANCH  15  16
ENDBRANCH  14  15
ENDBRANCH  11  14
ENDBRANCH   8  10
BRANCH   8  25
ATOM     25  C   UNL A   1      30.605  28.982  22.650  1.00  0.00     0.422 C 
ATOM     26  F   UNL A   1      30.333  29.711  23.761  1.00  0.00    -0.168 F 
ATOM     27  F   UNL A   1      30.787  29.875  21.639  1.00  0.00    -0.168 F 
ATOM     28  F   UNL A   1      29.507  28.268  22.337  1.00  0.00    -0.168 F 
ENDBRANCH   8  25
ENDBRANCH   6   8
ENDBRANCH   5   6
ENDBRANCH   4   5
ENDBRANCH   3   4
ENDBRANCH   2   3
ENDBRANCH   1   2
BRANCH   1  29
ATOM     29  C   UNL A   1      34.961  31.426  28.569  1.00  0.00     0.188 C 
BRANCH  29  30
ATOM     30  O   UNL A   1      34.573  32.559  29.319  1.00  0.00    -0.377 OA
BRANCH  30  31
ATOM     31  C   UNL A   1      34.616  33.851  28.724  1.00  0.00     0.188 C 
BRANCH  31  32
ATOM     32  C   UNL A   1      33.426  34.843  28.761  1.00  0.00     0.188 C 
BRANCH  32  33
ATOM     33  O   UNL A   1      33.752  36.194  29.013  1.00  0.00    -0.376 OA
BRANCH  33  34
ATOM     34  C   UNL A   1      33.252  36.818  30.182  1.00  0.00     0.202 C 
BRANCH  34  35
ATOM     35  C   UNL A   1      32.014  36.190  30.840  1.00  0.00     0.261 C 
BRANCH  35  36
ATOM     36  O   UNL A   1      32.242  35.567  32.112  1.00  0.00    -0.460 OA
BRANCH  36  37
ATOM     37  C   UNL A   1      33.205  36.112  32.883  1.00  0.00     0.338 C 
ATOM     38  O   UNL A   1      33.141  37.143  33.537  1.00  0.00    -0.246 OA
BRANCH  37  39
ATOM     39  C   UNL A   1      34.313  35.147  32.954  1.00  0.00     0.060 A 
ATOM     40  C   UNL A   1      34.074  33.861  33.460  1.00  0.00     0.016 A 
ATOM     41  C   UNL A   1      35.584  35.516  32.517  1.00  0.00     0.016 A 
ATOM     42  C   UNL A   1      35.114  32.938  33.536  1.00  0.00     0.010 A 
ATOM     43  C   UNL A   1      36.633  34.604  32.628  1.00  0.00     0.010 A 
ATOM     44  C   UNL A   1      36.405  33.321  33.157  1.00  0.00    -0.014 A 
BRANCH  44  45
ATOM     45  C   UNL A   1      37.560  32.452  33.474  1.00  0.00     0.031 A 
ATOM     46  C   UNL A   1      38.315  32.715  34.743  1.00  0.00     0.074 A 
ATOM     47  C   UNL A   1      37.941  31.474  32.635  1.00  0.00     0.049 A 
ATOM     48  N   UNL A   1      39.443  32.204  35.161  1.00  0.00    -0.248 NA
ATOM     49  C   UNL A   1      37.719  33.696  35.667  1.00  0.00     0.031 C 
ATOM     50  C   UNL A   1      37.246  31.094  31.406  1.00  0.00     0.029 A 
ATOM     51  N   UNL A   1      39.030  30.639  32.681  1.00  0.00    -0.354 N 
ATOM     52  C   UNL A   1      39.707  32.819  36.377  1.00  0.00     0.074 A 
ATOM     53  C   UNL A   1      38.623  33.743  36.634  1.00  0.00     0.031 C 
ATOM     54  C   UNL A   1      37.950  30.127  30.792  1.00  0.00     0.029 A 
ATOM     55  C   UNL A   1      39.166  29.860  31.558  1.00  0.00     0.049 A 
ATOM     56  H   UNL A   1      39.652  30.603  33.442  1.00  0.00     0.167 HD
ATOM     57  C   UNL A   1      40.766  32.632  37.196  1.00  0.00     0.037 A 
ATOM     58  C   UNL A   1      40.185  29.065  31.175  1.00  0.00     0.037 A 
ATOM     59  C   UNL A   1      41.829  31.701  36.932  1.00  0.00     0.049 A 
ATOM     60  C   UNL A   1      41.392  28.936  32.074  1.00  0.00     0.074 A 
ATOM     61  C   UNL A   1      42.920  31.395  37.725  1.00  0.00     0.029 A 
ATOM     62  N   UNL A   1      41.942  30.939  35.779  1.00  0.00    -0.354 N 
ATOM     63  N   UNL A   1      41.619  29.483  33.244  1.00  0.00    -0.248 NA
ATOM     64  C   UNL A   1      42.492  28.084  31.594  1.00  0.00     0.031 C 
ATOM     65  C   UNL A   1      43.733  30.505  37.020  1.00  0.00     0.029 A 
ATOM     66  C   UNL A   1      43.113  30.201  35.818  1.00  0.00     0.049 A 
ATOM     67  H   UNL A   1      41.288  30.924  35.044  1.00  0.00     0.167 HD
ATOM     68  C   UNL A   1      42.866  29.024  33.648  1.00  0.00     0.074 A 
ATOM     69  C   UNL A   1      43.342  28.136  32.609  1.00  0.00     0.031 C 
ATOM     70  C   UNL A   1      43.561  29.314  34.776  1.00  0.00     0.037 A 
BRANCH  57  71
ATOM     71  C   UNL A   1      40.864  33.477  38.431  1.00  0.00     0.064 A 
ATOM     72  C   UNL A   1      40.156  33.171  39.600  1.00  0.00     0.173 A 
ATOM     73  C   UNL A   1      41.749  34.566  38.463  1.00  0.00     0.173 A 
ATOM     74  F   UNL A   1      39.285  32.150  39.617  1.00  0.00    -0.203 F 
ATOM     75  C   UNL A   1      40.325  33.930  40.756  1.00  0.00     0.198 A 
ATOM     76  C   UNL A   1      41.937  35.304  39.627  1.00  0.00     0.198 A 
ATOM     77  F   UNL A   1      42.452  34.899  37.369  1.00  0.00    -0.203 F 
ATOM     78  F   UNL A   1      39.616  33.640  41.856  1.00  0.00    -0.200 F 
ATOM     79  C   UNL A   1      41.223  34.987  40.772  1.00  0.00     0.200 A 
ATOM     80  F   UNL A   1      42.817  36.315  39.643  1.00  0.00    -0.200 F 
ATOM     81  F   UNL A   1      41.401  35.702  41.892  1.00  0.00    -0.200 F 
ENDBRANCH  57  71
BRANCH  58  82
ATOM     82  C   UNL A   1      40.151  28.381  29.853  1.00  0.00     0.064 A 
ATOM     83  C   UNL A   1      39.476  27.164  29.681  1.00  0.00     0.173 A 
ATOM     84  C   UNL A   1      40.839  28.903  28.746  1.00  0.00     0.173 A 
ATOM     85  F   UNL A   1      38.822  26.610  30.712  1.00  0.00    -0.203 F 
ATOM     86  C   UNL A   1      39.523  26.478  28.468  1.00  0.00     0.198 A 
ATOM     87  C   UNL A   1      40.852  28.236  27.523  1.00  0.00     0.198 A 
ATOM     88  F   UNL A   1      41.503  30.064  28.851  1.00  0.00    -0.203 F 
ATOM     89  F   UNL A   1      38.928  25.283  28.355  1.00  0.00    -0.200 F 
ATOM     90  C   UNL A   1      40.208  27.017  27.389  1.00  0.00     0.200 A 
ATOM     91  F   UNL A   1      41.500  28.770  26.479  1.00  0.00    -0.200 F 
ATOM     92  F   UNL A   1      40.255  26.355  26.225  1.00  0.00    -0.200 F 
ENDBRANCH  58  82
BRANCH  70  93
ATOM     93  C   UNL A   1      44.895  28.647  34.964  1.00  0.00     0.064 A 
ATOM     94  C   UNL A   1      45.005  27.375  35.544  1.00  0.00     0.173 A 
ATOM     95  C   UNL A   1      46.068  29.258  34.493  1.00  0.00     0.173 A 
ATOM     96  F   UNL A   1      43.916  26.754  36.022  1.00  0.00    -0.203 F 
ATOM     97  C   UNL A   1      46.243  26.748  35.664  1.00  0.00     0.198 A 
ATOM     98  C   UNL A   1      47.297  28.613  34.583  1.00  0.00     0.198 A 
ATOM     99  F   UNL A   1      46.016  30.470  33.921  1.00  0.00    -0.203 F 
ATOM    100  F   UNL A   1      46.330  25.551  36.262  1.00  0.00    -0.200 F 
ATOM    101  C   UNL A   1      47.385  27.362  35.174  1.00  0.00     0.200 A 
ATOM    102  F   UNL A   1      48.398  29.201  34.090  1.00  0.00    -0.200 F 
ATOM    103  F   UNL A   1      48.572  26.750  35.274  1.00  0.00    -0.200 F 
ENDBRANCH  70  93
ENDBRANCH  44  45
ENDBRANCH  37  39
ENDBRANCH  36  37
ENDBRANCH  35  36
ENDBRANCH  34  35
ENDBRANCH  33  34
ENDBRANCH  32  33
ENDBRANCH  31  32
ENDBRANCH  30  31
ENDBRANCH  29  30
ENDBRANCH   1  29
TORSDOF 26
ENDMDL
MODEL 3
REMARK VINA RESULT:      -9.6      1.435      2.048
REMARK SMILES C[C@@](NC(=O)CCOC1CC[NH2+]CC1)(C(=O)OCCOCCOCCOCCOC(=O)c1ccc(-c2c3nc(c(-c4c(F)c(F)c(F)c(F)c4F)c4ccc([nH]4)c(-c4c(F)c(F)c(F)c(F)c4F)c4nc(c(-c5c(F)c(F)c(F)c(F)c5F)c5ccc2[nH]5)C=C4)C=C3)cc1)C(F)(F)F
REMARK SMILES IDX 21 1 20 2 19 3 18 4 17 5 15 6 16 7 2 8 1 9 3 10 4 11 5 13
REMARK SMILES IDX 6 14 7 15 8 16 9 17 10 18 14 19 11 20 13 21 12 22 95 25
REMARK SMILES IDX 96 26 97 27 98 28 22 29 23 30 24 31 25 32 26 33 27 34 28 35
REMARK SMILES IDX 29 36 30 37 31 38 32 39 33 40 94 41 34 42 93 43 35 44 36 45
REMARK SMILES IDX 37 46 87 47 38 48 92 49 86 50 88 51 39 52 91 53 85 54 84 55
REMARK SMILES IDX 40 57 72 58 52 59 71 60 53 61 56 62 70 63 89 64 54 65 55 66
REMARK SMILES IDX 69 68 90 69 57 70 41 71 42 72 50 73 43 74 44 75 48 76 51 77
REMARK SMILES IDX 45 78 46 79 49 80 47 81 73 82 74 83 82 84 75 85 76 86 80 87
REMARK SMILES IDX 83 88 77 89 78 90 81 91 79 92 58 93 59 94 67 95 60 96 61 97
REMARK SMILES IDX 65 98 68 99 62 100 63 101 66 102 64 103
REMARK H PARENT 3 12 12 23 12 24 88 56 56 67
REMARK Flexibility Score: inf
ROOT
ATOM      1  C   UNL A   1      32.187  20.783  23.304  1.00  0.00     0.188 C 
ENDROOT
BRANCH   1   2
ATOM      2  O   UNL A   1      32.014  22.133  22.921  1.00  0.00    -0.376 OA
BRANCH   2   3
ATOM      3  C   UNL A   1      33.035  22.895  22.304  1.00  0.00     0.202 C 
BRANCH   3   4
ATOM      4  C   UNL A   1      33.969  23.819  23.079  1.00  0.00     0.261 C 
BRANCH   4   5
ATOM      5  O   UNL A   1      33.484  24.242  24.352  1.00  0.00    -0.461 OA
BRANCH   5   6
ATOM      6  C   UNL A   1      33.015  25.514  24.470  1.00  0.00     0.341 C 
ATOM      7  O   UNL A   1      33.537  26.477  23.930  1.00  0.00    -0.249 OA
BRANCH   6   8
ATOM      8  C   UNL A   1      31.911  25.565  25.524  1.00  0.00     0.231 C 
ATOM      9  C   UNL A   1      32.087  24.597  26.706  1.00  0.00     0.058 C 
BRANCH   8  10
ATOM     10  N   UNL A   1      31.716  26.966  26.034  1.00  0.00    -0.333 N 
ATOM     11  C   UNL A   1      31.462  28.143  25.396  1.00  0.00     0.223 C 
ATOM     12  H   UNL A   1      31.786  27.048  27.013  1.00  0.00     0.164 HD
ATOM     13  O   UNL A   1      31.842  29.179  25.947  1.00  0.00    -0.275 OA
BRANCH  11  14
ATOM     14  C   UNL A   1      30.642  28.219  24.129  1.00  0.00     0.128 C 
BRANCH  14  15
ATOM     15  C   UNL A   1      31.218  28.989  22.947  1.00  0.00     0.170 C 
BRANCH  15  16
ATOM     16  O   UNL A   1      30.441  30.040  22.390  1.00  0.00    -0.377 OA
BRANCH  16  17
ATOM     17  C   UNL A   1      29.076  30.167  22.807  1.00  0.00     0.129 C 
ATOM     18  C   UNL A   1      28.021  30.026  21.714  1.00  0.00     0.093 C 
ATOM     19  C   UNL A   1      28.927  31.526  23.507  1.00  0.00     0.093 C 
ATOM     20  C   UNL A   1      28.047  31.214  20.766  1.00  0.00     0.263 C 
ATOM     21  C   UNL A   1      28.861  32.676  22.504  1.00  0.00     0.263 C 
ATOM     22  N   UNL A   1      27.816  32.456  21.501  1.00  0.00    -0.346 N 
ATOM     23  H   UNL A   1      26.911  32.404  21.969  1.00  0.00     0.346 HD
ATOM     24  H   UNL A   1      27.833  33.232  20.840  1.00  0.00     0.346 HD
ENDBRANCH  16  17
ENDBRANCH  15  16
ENDBRANCH  14  15
ENDBRANCH  11  14
ENDBRANCH   8  10
BRANCH   8  25
ATOM     25  C   UNL A   1      30.678  25.037  24.760  1.00  0.00     0.422 C 
ATOM     26  F   UNL A   1      29.537  25.647  25.162  1.00  0.00    -0.168 F 
ATOM     27  F   UNL A   1      30.812  25.304  23.432  1.00  0.00    -0.168 F 
ATOM     28  F   UNL A   1      30.503  23.705  24.865  1.00  0.00    -0.168 F 
ENDBRANCH   8  25
ENDBRANCH   6   8
ENDBRANCH   5   6
ENDBRANCH   4   5
ENDBRANCH   3   4
ENDBRANCH   2   3
ENDBRANCH   1   2
BRANCH   1  29
ATOM     29  C   UNL A   1      32.181  20.510  24.821  1.00  0.00     0.188 C 
BRANCH  29  30
ATOM     30  O   UNL A   1      33.391  20.125  25.439  1.00  0.00    -0.377 OA
BRANCH  30  31
ATOM     31  C   UNL A   1      34.138  21.076  26.189  1.00  0.00     0.188 C 
BRANCH  31  32
ATOM     32  C   UNL A   1      35.520  21.614  25.740  1.00  0.00     0.188 C 
BRANCH  32  33
ATOM     33  O   UNL A   1      36.081  21.005  24.595  1.00  0.00    -0.376 OA
BRANCH  33  34
ATOM     34  C   UNL A   1      37.422  20.552  24.642  1.00  0.00     0.202 C 
BRANCH  34  35
ATOM     35  C   UNL A   1      38.221  20.848  25.921  1.00  0.00     0.261 C 
BRANCH  35  36
ATOM     36  O   UNL A   1      39.642  20.944  25.750  1.00  0.00    -0.460 OA
BRANCH  36  37
ATOM     37  C   UNL A   1      40.389  20.837  26.868  1.00  0.00     0.338 C 
ATOM     38  O   UNL A   1      40.792  19.812  27.399  1.00  0.00    -0.246 OA
BRANCH  37  39
ATOM     39  C   UNL A   1      40.802  22.195  27.256  1.00  0.00     0.060 A 
ATOM     40  C   UNL A   1      40.320  23.293  26.530  1.00  0.00     0.016 A 
ATOM     41  C   UNL A   1      41.661  22.377  28.339  1.00  0.00     0.016 A 
ATOM     42  C   UNL A   1      40.705  24.584  26.884  1.00  0.00     0.010 A 
ATOM     43  C   UNL A   1      42.075  23.667  28.669  1.00  0.00     0.010 A 
ATOM     44  C   UNL A   1      41.615  24.771  27.929  1.00  0.00    -0.014 A 
BRANCH  44  45
ATOM     45  C   UNL A   1      42.233  26.098  28.147  1.00  0.00     0.031 A 
ATOM     46  C   UNL A   1      41.422  27.149  28.846  1.00  0.00     0.074 A 
ATOM     47  C   UNL A   1      43.474  26.364  27.706  1.00  0.00     0.049 A 
ATOM     48  N   UNL A   1      41.675  28.420  29.012  1.00  0.00    -0.248 NA
ATOM     49  C   UNL A   1      40.144  26.708  29.433  1.00  0.00     0.031 C 
ATOM     50  C   UNL A   1      44.370  25.401  27.069  1.00  0.00     0.029 A 
ATOM     51  N   UNL A   1      44.181  27.540  27.705  1.00  0.00    -0.354 N 
ATOM     52  C   UNL A   1      40.580  28.935  29.693  1.00  0.00     0.074 A 
ATOM     53  C   UNL A   1      39.658  27.843  29.912  1.00  0.00     0.031 C 
ATOM     54  C   UNL A   1      45.496  26.037  26.699  1.00  0.00     0.029 A 
ATOM     55  C   UNL A   1      45.374  27.456  27.029  1.00  0.00     0.049 A 
ATOM     56  H   UNL A   1      43.865  28.362  28.143  1.00  0.00     0.167 HD
ATOM     57  C   UNL A   1      40.367  30.211  30.089  1.00  0.00     0.037 A 
ATOM     58  C   UNL A   1      46.238  28.428  26.673  1.00  0.00     0.037 A 
ATOM     59  C   UNL A   1      41.299  31.284  29.875  1.00  0.00     0.049 A 
ATOM     60  C   UNL A   1      45.934  29.857  27.061  1.00  0.00     0.074 A 
ATOM     61  C   UNL A   1      41.203  32.601  30.286  1.00  0.00     0.029 A 
ATOM     62  N   UNL A   1      42.489  31.166  29.175  1.00  0.00    -0.354 N 
ATOM     63  N   UNL A   1      44.922  30.334  27.745  1.00  0.00    -0.248 NA
ATOM     64  C   UNL A   1      46.890  30.884  26.620  1.00  0.00     0.031 C 
ATOM     65  C   UNL A   1      42.298  33.297  29.771  1.00  0.00     0.029 A 
ATOM     66  C   UNL A   1      43.113  32.400  29.099  1.00  0.00     0.049 A 
ATOM     67  H   UNL A   1      42.840  30.330  28.790  1.00  0.00     0.167 HD
ATOM     68  C   UNL A   1      45.131  31.705  27.837  1.00  0.00     0.074 A 
ATOM     69  C   UNL A   1      46.379  31.983  27.157  1.00  0.00     0.031 C 
ATOM     70  C   UNL A   1      44.360  32.652  28.425  1.00  0.00     0.037 A 
BRANCH  57  71
ATOM     71  C   UNL A   1      39.061  30.537  30.751  1.00  0.00     0.064 A 
ATOM     72  C   UNL A   1      38.901  30.496  32.142  1.00  0.00     0.173 A 
ATOM     73  C   UNL A   1      37.977  30.977  29.975  1.00  0.00     0.173 A 
ATOM     74  F   UNL A   1      39.902  30.067  32.926  1.00  0.00    -0.203 F 
ATOM     75  C   UNL A   1      37.699  30.877  32.733  1.00  0.00     0.198 A 
ATOM     76  C   UNL A   1      36.787  31.385  30.571  1.00  0.00     0.198 A 
ATOM     77  F   UNL A   1      38.080  31.035  28.639  1.00  0.00    -0.203 F 
ATOM     78  F   UNL A   1      37.555  30.803  34.064  1.00  0.00    -0.200 F 
ATOM     79  C   UNL A   1      36.648  31.333  31.950  1.00  0.00     0.200 A 
ATOM     80  F   UNL A   1      35.781  31.838  29.813  1.00  0.00    -0.200 F 
ATOM     81  F   UNL A   1      35.501  31.721  32.523  1.00  0.00    -0.200 F 
ENDBRANCH  57  71
BRANCH  58  82
ATOM     82  C   UNL A   1      47.436  28.108  25.850  1.00  0.00     0.064 A 
ATOM     83  C   UNL A   1      47.327  27.859  24.474  1.00  0.00     0.173 A 
ATOM     84  C   UNL A   1      48.707  27.988  26.431  1.00  0.00     0.173 A 
ATOM     85  F   UNL A   1      46.131  27.937  23.872  1.00  0.00    -0.203 F 
ATOM     86  C   UNL A   1      48.434  27.468  23.722  1.00  0.00     0.198 A 
ATOM     87  C   UNL A   1      49.820  27.635  25.671  1.00  0.00     0.198 A 
ATOM     88  F   UNL A   1      48.873  28.214  27.743  1.00  0.00    -0.203 F 
ATOM     89  F   UNL A   1      48.286  27.168  22.424  1.00  0.00    -0.200 F 
ATOM     90  C   UNL A   1      49.680  27.360  24.320  1.00  0.00     0.200 A 
ATOM     91  F   UNL A   1      51.025  27.550  26.251  1.00  0.00    -0.200 F 
ATOM     92  F   UNL A   1      50.742  26.980  23.597  1.00  0.00    -0.200 F 
ENDBRANCH  58  82
BRANCH  70  93
ATOM     93  C   UNL A   1      44.851  34.072  28.389  1.00  0.00     0.064 A 
ATOM     94  C   UNL A   1      44.370  34.993  27.448  1.00  0.00     0.173 A 
ATOM     95  C   UNL A   1      45.761  34.533  29.354  1.00  0.00     0.173 A 
ATOM     96  F   UNL A   1      43.511  34.599  26.496  1.00  0.00    -0.203 F 
ATOM     97  C   UNL A   1      44.797  36.318  27.462  1.00  0.00     0.198 A 
ATOM     98  C   UNL A   1      46.158  35.866  29.386  1.00  0.00     0.198 A 
ATOM     99  F   UNL A   1      46.244  33.695  30.283  1.00  0.00    -0.203 F 
ATOM    100  F   UNL A   1      44.358  37.171  26.525  1.00  0.00    -0.200 F 
ATOM    101  C   UNL A   1      45.681  36.756  28.436  1.00  0.00     0.200 A 
ATOM    102  F   UNL A   1      46.997  36.291  30.341  1.00  0.00    -0.200 F 
ATOM    103  F   UNL A   1      46.076  38.036  28.458  1.00  0.00    -0.200 F 
ENDBRANCH  70  93
ENDBRANCH  44  45
ENDBRANCH  37  39
ENDBRANCH  36  37
ENDBRANCH  35  36
ENDBRANCH  34  35
ENDBRANCH  33  34
ENDBRANCH  32  33
ENDBRANCH  31  32
ENDBRANCH  30  31
ENDBRANCH  29  30
ENDBRANCH   1  29
TORSDOF 26
ENDMDL
