MODEL 1
REMARK VINA RESULT:     -10.4      0.000      0.000
REMARK SMILES O=C(OCCOCCOCCOCCOC(=O)[C@@H]1C=C[C@@H](NS(=O)(=O)c2ccc(F)c(F)c2F)C1)c1ccc(-c2c3nc(c(-c4c(F)c(F)c(F)c(F)c4F)c4ccc([nH]4)c(-c4c(F)c(F)c(F)c(F)c4F)c4nc(c(-c5c(F)c(F)c(F)c(F)c5F)c5ccc2[nH]5)C=C4)C=C3)cc1
REMARK SMILES IDX 10 1 9 2 8 3 7 4 6 5 5 6 4 7 3 8 2 9 1 10 36 11 37 12 98 13
REMARK SMILES IDX 38 14 97 15 39 16 40 17 41 18 91 19 42 20 96 21 90 22 92 23
REMARK SMILES IDX 43 24 95 25 89 26 88 27 44 29 76 30 56 31 75 32 57 33 60 34
REMARK SMILES IDX 74 35 93 36 58 37 59 38 73 40 94 41 61 42 45 43 46 44 54 45
REMARK SMILES IDX 47 46 48 47 52 48 55 49 49 50 50 51 53 52 51 53 77 54 78 55
REMARK SMILES IDX 86 56 79 57 80 58 84 59 87 60 81 61 82 62 85 63 83 64 62 65
REMARK SMILES IDX 63 66 71 67 64 68 65 69 69 70 72 71 66 72 67 73 70 74 68 75
REMARK SMILES IDX 11 76 12 77 13 78 14 79 15 80 16 81 17 82 18 83 19 84 35 85
REMARK SMILES IDX 20 86 21 87 22 88 23 90 24 91 25 92 26 93 27 94 33 95 28 96
REMARK SMILES IDX 31 97 34 98 29 99 32 100 30 101
REMARK H PARENT 92 28 60 39 22 89
REMARK Flexibility Score: inf
ROOT
ATOM      1  C   UNL A   1      41.341  22.395  27.879  1.00  0.00     0.188 C 
ENDROOT
BRANCH   1   2
ATOM      2  O   UNL A   1      42.250  21.307  27.738  1.00  0.00    -0.377 OA
BRANCH   2   3
ATOM      3  C   UNL A   1      42.095  20.492  26.571  1.00  0.00     0.188 C 
BRANCH   3   4
ATOM      4  C   UNL A   1      43.388  20.227  25.802  1.00  0.00     0.188 C 
BRANCH   4   5
ATOM      5  O   UNL A   1      44.127  21.437  25.665  1.00  0.00    -0.376 OA
BRANCH   5   6
ATOM      6  C   UNL A   1      44.384  21.892  24.341  1.00  0.00     0.202 C 
BRANCH   6   7
ATOM      7  C   UNL A   1      45.025  23.275  24.237  1.00  0.00     0.261 C 
BRANCH   7   8
ATOM      8  O   UNL A   1      44.205  24.340  24.750  1.00  0.00    -0.460 OA
BRANCH   8   9
ATOM      9  C   UNL A   1      44.598  25.542  25.241  1.00  0.00     0.338 C 
ATOM     10  O   UNL A   1      45.621  26.064  24.806  1.00  0.00    -0.246 OA
BRANCH   9  11
ATOM     11  C   UNL A   1      43.816  26.290  26.264  1.00  0.00     0.060 A 
ATOM     12  C   UNL A   1      43.952  27.652  26.498  1.00  0.00     0.016 A 
ATOM     13  C   UNL A   1      42.820  25.602  26.970  1.00  0.00     0.016 A 
ATOM     14  C   UNL A   1      43.271  28.292  27.513  1.00  0.00     0.010 A 
ATOM     15  C   UNL A   1      42.049  26.261  27.935  1.00  0.00     0.010 A 
ATOM     16  C   UNL A   1      42.314  27.601  28.243  1.00  0.00    -0.014 A 
BRANCH  16  17
ATOM     17  C   UNL A   1      41.753  28.289  29.419  1.00  0.00     0.031 A 
ATOM     18  C   UNL A   1      42.612  28.383  30.644  1.00  0.00     0.074 A 
ATOM     19  C   UNL A   1      40.608  28.992  29.301  1.00  0.00     0.049 A 
ATOM     20  N   UNL A   1      42.342  28.912  31.806  1.00  0.00    -0.248 NA
ATOM     21  C   UNL A   1      43.972  27.820  30.545  1.00  0.00     0.031 C 
ATOM     22  C   UNL A   1      39.805  29.095  28.078  1.00  0.00     0.029 A 
ATOM     23  N   UNL A   1      39.958  29.806  30.189  1.00  0.00    -0.354 N 
ATOM     24  C   UNL A   1      43.474  28.704  32.581  1.00  0.00     0.074 A 
ATOM     25  C   UNL A   1      44.440  28.005  31.768  1.00  0.00     0.031 C 
ATOM     26  C   UNL A   1      38.813  29.976  28.274  1.00  0.00     0.029 A 
ATOM     27  C   UNL A   1      38.846  30.418  29.662  1.00  0.00     0.049 A 
ATOM     28  H   UNL A   1      40.258  29.940  31.117  1.00  0.00     0.167 HD
ATOM     29  C   UNL A   1      43.674  29.068  33.866  1.00  0.00     0.037 A 
ATOM     30  C   UNL A   1      37.941  31.218  30.257  1.00  0.00     0.037 A 
ATOM     31  C   UNL A   1      42.701  29.795  34.630  1.00  0.00     0.049 A 
ATOM     32  C   UNL A   1      38.135  31.510  31.721  1.00  0.00     0.074 A 
ATOM     33  C   UNL A   1      42.736  30.149  35.964  1.00  0.00     0.029 A 
ATOM     34  N   UNL A   1      41.515  30.294  34.105  1.00  0.00    -0.354 N 
ATOM     35  N   UNL A   1      39.148  31.199  32.497  1.00  0.00    -0.248 NA
ATOM     36  C   UNL A   1      37.050  32.226  32.404  1.00  0.00     0.031 C 
ATOM     37  C   UNL A   1      41.550  30.830  36.256  1.00  0.00     0.029 A 
ATOM     38  C   UNL A   1      40.801  30.945  35.094  1.00  0.00     0.049 A 
ATOM     39  H   UNL A   1      41.226  30.200  33.169  1.00  0.00     0.167 HD
ATOM     40  C   UNL A   1      38.831  31.688  33.754  1.00  0.00     0.074 A 
ATOM     41  C   UNL A   1      37.541  32.342  33.630  1.00  0.00     0.031 C 
ATOM     42  C   UNL A   1      39.528  31.595  34.913  1.00  0.00     0.037 A 
BRANCH  29  43
ATOM     43  C   UNL A   1      44.944  28.631  34.526  1.00  0.00     0.064 A 
ATOM     44  C   UNL A   1      45.007  27.382  35.164  1.00  0.00     0.173 A 
ATOM     45  C   UNL A   1      46.090  29.438  34.547  1.00  0.00     0.173 A 
ATOM     46  F   UNL A   1      43.943  26.566  35.158  1.00  0.00    -0.203 F 
ATOM     47  C   UNL A   1      46.165  26.968  35.816  1.00  0.00     0.198 A 
ATOM     48  C   UNL A   1      47.254  29.010  35.181  1.00  0.00     0.198 A 
ATOM     49  F   UNL A   1      46.093  30.624  33.920  1.00  0.00    -0.203 F 
ATOM     50  F   UNL A   1      46.193  25.780  36.437  1.00  0.00    -0.200 F 
ATOM     51  C   UNL A   1      47.287  27.781  35.824  1.00  0.00     0.200 A 
ATOM     52  F   UNL A   1      48.350  29.781  35.159  1.00  0.00    -0.200 F 
ATOM     53  F   UNL A   1      48.406  27.375  36.441  1.00  0.00    -0.200 F 
ENDBRANCH  29  43
BRANCH  30  54
ATOM     54  C   UNL A   1      36.766  31.739  29.503  1.00  0.00     0.064 A 
ATOM     55  C   UNL A   1      35.703  30.899  29.132  1.00  0.00     0.173 A 
ATOM     56  C   UNL A   1      36.670  33.092  29.148  1.00  0.00     0.173 A 
ATOM     57  F   UNL A   1      35.731  29.596  29.449  1.00  0.00    -0.203 F 
ATOM     58  C   UNL A   1      34.608  31.384  28.418  1.00  0.00     0.198 A 
ATOM     59  C   UNL A   1      35.556  33.584  28.465  1.00  0.00     0.198 A 
ATOM     60  F   UNL A   1      37.643  33.946  29.496  1.00  0.00    -0.203 F 
ATOM     61  F   UNL A   1      33.628  30.547  28.048  1.00  0.00    -0.200 F 
ATOM     62  C   UNL A   1      34.531  32.728  28.094  1.00  0.00     0.200 A 
ATOM     63  F   UNL A   1      35.472  34.891  28.180  1.00  0.00    -0.200 F 
ATOM     64  F   UNL A   1      33.465  33.200  27.432  1.00  0.00    -0.200 F 
ENDBRANCH  30  54
BRANCH  42  65
ATOM     65  C   UNL A   1      38.924  32.234  36.124  1.00  0.00     0.064 A 
ATOM     66  C   UNL A   1      39.232  33.563  36.449  1.00  0.00     0.173 A 
ATOM     67  C   UNL A   1      38.121  31.501  37.009  1.00  0.00     0.173 A 
ATOM     68  F   UNL A   1      40.008  34.295  35.637  1.00  0.00    -0.203 F 
ATOM     69  C   UNL A   1      38.772  34.130  37.631  1.00  0.00     0.198 A 
ATOM     70  C   UNL A   1      37.636  32.083  38.174  1.00  0.00     0.198 A 
ATOM     71  F   UNL A   1      37.794  30.230  36.729  1.00  0.00    -0.203 F 
ATOM     72  F   UNL A   1      39.113  35.387  37.945  1.00  0.00    -0.200 F 
ATOM     73  C   UNL A   1      37.972  33.391  38.490  1.00  0.00     0.200 A 
ATOM     74  F   UNL A   1      36.843  31.377  38.992  1.00  0.00    -0.200 F 
ATOM     75  F   UNL A   1      37.522  33.942  39.626  1.00  0.00    -0.200 F 
ENDBRANCH  42  65
ENDBRANCH  16  17
ENDBRANCH   9  11
ENDBRANCH   8   9
ENDBRANCH   7   8
ENDBRANCH   6   7
ENDBRANCH   5   6
ENDBRANCH   4   5
ENDBRANCH   3   4
ENDBRANCH   2   3
ENDBRANCH   1   2
BRANCH   1  76
ATOM     76  C   UNL A   1      40.221  22.569  26.829  1.00  0.00     0.188 C 
BRANCH  76  77
ATOM     77  O   UNL A   1      39.534  23.813  26.897  1.00  0.00    -0.376 OA
BRANCH  77  78
ATOM     78  C   UNL A   1      38.270  23.850  26.236  1.00  0.00     0.202 C 
BRANCH  78  79
ATOM     79  C   UNL A   1      37.725  22.509  25.710  1.00  0.00     0.261 C 
BRANCH  79  80
ATOM     80  O   UNL A   1      37.462  22.508  24.300  1.00  0.00    -0.463 OA
BRANCH  80  81
ATOM     81  C   UNL A   1      36.206  22.736  23.835  1.00  0.00     0.312 C 
ATOM     82  O   UNL A   1      35.941  23.061  22.687  1.00  0.00    -0.252 OA
BRANCH  81  83
ATOM     83  C   UNL A   1      35.184  22.320  24.904  1.00  0.00     0.123 C 
ATOM     84  C   UNL A   1      34.072  21.441  24.425  1.00  0.00    -0.015 C 
ATOM     85  C   UNL A   1      34.411  23.487  25.543  1.00  0.00     0.043 C 
ATOM     86  C   UNL A   1      32.889  22.066  24.468  1.00  0.00    -0.011 C 
ATOM     87  C   UNL A   1      33.035  23.487  24.883  1.00  0.00     0.093 C 
BRANCH  87  88
ATOM     88  N   UNL A   1      32.026  23.872  25.848  1.00  0.00    -0.204 NA
ATOM     89  H   UNL A   1      32.522  24.323  26.616  1.00  0.00     0.142 HD
BRANCH  88  90
ATOM     90  S   UNL A   1      30.770  24.886  25.439  1.00  0.00     0.244 S 
ATOM     91  O   UNL A   1      30.338  24.510  24.112  1.00  0.00    -0.207 OA
ATOM     92  O   UNL A   1      29.852  24.897  26.557  1.00  0.00    -0.207 OA
BRANCH  90  93
ATOM     93  C   UNL A   1      31.467  26.500  25.320  1.00  0.00     0.121 A 
ATOM     94  C   UNL A   1      32.708  26.753  25.924  1.00  0.00     0.028 A 
ATOM     95  C   UNL A   1      30.770  27.523  24.688  1.00  0.00     0.181 A 
ATOM     96  C   UNL A   1      33.239  28.043  25.897  1.00  0.00     0.044 A 
ATOM     97  C   UNL A   1      31.298  28.808  24.675  1.00  0.00     0.195 A 
ATOM     98  F   UNL A   1      29.575  27.300  24.122  1.00  0.00    -0.202 F 
ATOM     99  C   UNL A   1      32.525  29.065  25.278  1.00  0.00     0.161 A 
ATOM    100  F   UNL A   1      30.613  29.809  24.103  1.00  0.00    -0.200 F 
ATOM    101  F   UNL A   1      33.030  30.306  25.278  1.00  0.00    -0.204 F 
ENDBRANCH  90  93
ENDBRANCH  88  90
ENDBRANCH  87  88
ENDBRANCH  81  83
ENDBRANCH  80  81
ENDBRANCH  79  80
ENDBRANCH  78  79
ENDBRANCH  77  78
ENDBRANCH  76  77
ENDBRANCH   1  76
TORSDOF 23
ENDMDL
MODEL 2
REMARK VINA RESULT:     -10.4      4.953      9.795
REMARK SMILES O=C(OCCOCCOCCOCCOC(=O)[C@@H]1C=C[C@@H](NS(=O)(=O)c2ccc(F)c(F)c2F)C1)c1ccc(-c2c3nc(c(-c4c(F)c(F)c(F)c(F)c4F)c4ccc([nH]4)c(-c4c(F)c(F)c(F)c(F)c4F)c4nc(c(-c5c(F)c(F)c(F)c(F)c5F)c5ccc2[nH]5)C=C4)C=C3)cc1
REMARK SMILES IDX 10 1 9 2 8 3 7 4 6 5 5 6 4 7 3 8 2 9 1 10 36 11 37 12 98 13
REMARK SMILES IDX 38 14 97 15 39 16 40 17 41 18 91 19 42 20 96 21 90 22 92 23
REMARK SMILES IDX 43 24 95 25 89 26 88 27 44 29 76 30 56 31 75 32 57 33 60 34
REMARK SMILES IDX 74 35 93 36 58 37 59 38 73 40 94 41 61 42 45 43 46 44 54 45
REMARK SMILES IDX 47 46 48 47 52 48 55 49 49 50 50 51 53 52 51 53 77 54 78 55
REMARK SMILES IDX 86 56 79 57 80 58 84 59 87 60 81 61 82 62 85 63 83 64 62 65
REMARK SMILES IDX 63 66 71 67 64 68 65 69 69 70 72 71 66 72 67 73 70 74 68 75
REMARK SMILES IDX 11 76 12 77 13 78 14 79 15 80 16 81 17 82 18 83 19 84 35 85
REMARK SMILES IDX 20 86 21 87 22 88 23 90 24 91 25 92 26 93 27 94 33 95 28 96
REMARK SMILES IDX 31 97 34 98 29 99 32 100 30 101
REMARK H PARENT 92 28 60 39 22 89
REMARK Flexibility Score: inf
ROOT
ATOM      1  C   UNL A   1      37.995  22.951  25.851  1.00  0.00     0.188 C 
ENDROOT
BRANCH   1   2
ATOM      2  O   UNL A   1      39.112  23.023  26.733  1.00  0.00    -0.377 OA
BRANCH   2   3
ATOM      3  C   UNL A   1      40.057  21.950  26.654  1.00  0.00     0.188 C 
BRANCH   3   4
ATOM      4  C   UNL A   1      41.390  22.221  27.352  1.00  0.00     0.188 C 
BRANCH   4   5
ATOM      5  O   UNL A   1      42.119  21.006  27.493  1.00  0.00    -0.376 OA
BRANCH   5   6
ATOM      6  C   UNL A   1      41.513  19.825  26.978  1.00  0.00     0.202 C 
BRANCH   6   7
ATOM      7  C   UNL A   1      42.448  18.892  26.210  1.00  0.00     0.261 C 
BRANCH   7   8
ATOM      8  O   UNL A   1      42.921  19.434  24.963  1.00  0.00    -0.460 OA
BRANCH   8   9
ATOM      9  C   UNL A   1      44.176  19.837  24.645  1.00  0.00     0.338 C 
ATOM     10  O   UNL A   1      44.926  19.062  24.057  1.00  0.00    -0.246 OA
BRANCH   9  11
ATOM     11  C   UNL A   1      44.681  21.206  24.938  1.00  0.00     0.060 A 
ATOM     12  C   UNL A   1      45.339  21.554  26.110  1.00  0.00     0.016 A 
ATOM     13  C   UNL A   1      44.571  22.181  23.937  1.00  0.00     0.016 A 
ATOM     14  C   UNL A   1      45.717  22.853  26.381  1.00  0.00     0.010 A 
ATOM     15  C   UNL A   1      45.041  23.482  24.157  1.00  0.00     0.010 A 
ATOM     16  C   UNL A   1      45.569  23.831  25.406  1.00  0.00    -0.014 A 
BRANCH  16  17
ATOM     17  C   UNL A   1      45.828  25.222  25.818  1.00  0.00     0.031 A 
ATOM     18  C   UNL A   1      44.720  25.960  26.506  1.00  0.00     0.074 A 
ATOM     19  C   UNL A   1      47.083  25.712  25.771  1.00  0.00     0.049 A 
ATOM     20  N   UNL A   1      44.689  27.189  26.942  1.00  0.00    -0.248 NA
ATOM     21  C   UNL A   1      43.478  25.205  26.761  1.00  0.00     0.031 C 
ATOM     22  C   UNL A   1      48.255  24.981  25.277  1.00  0.00     0.029 A 
ATOM     23  N   UNL A   1      47.600  26.903  26.205  1.00  0.00    -0.354 N 
ATOM     24  C   UNL A   1      43.419  27.365  27.472  1.00  0.00     0.074 A 
ATOM     25  C   UNL A   1      42.703  26.123  27.314  1.00  0.00     0.031 C 
ATOM     26  C   UNL A   1      49.358  25.712  25.499  1.00  0.00     0.029 A 
ATOM     27  C   UNL A   1      48.963  27.000  26.051  1.00  0.00     0.049 A 
ATOM     28  H   UNL A   1      47.049  27.621  26.590  1.00  0.00     0.167 HD
ATOM     29  C   UNL A   1      42.906  28.478  28.037  1.00  0.00     0.037 A 
ATOM     30  C   UNL A   1      49.784  28.038  26.301  1.00  0.00     0.037 A 
ATOM     31  C   UNL A   1      43.665  29.685  28.210  1.00  0.00     0.049 A 
ATOM     32  C   UNL A   1      49.159  29.303  26.824  1.00  0.00     0.074 A 
ATOM     33  C   UNL A   1      43.245  30.911  28.684  1.00  0.00     0.029 A 
ATOM     34  N   UNL A   1      45.020  29.800  27.923  1.00  0.00    -0.354 N 
ATOM     35  N   UNL A   1      47.920  29.514  27.206  1.00  0.00    -0.248 NA
ATOM     36  C   UNL A   1      50.028  30.483  26.918  1.00  0.00     0.031 C 
ATOM     37  C   UNL A   1      44.338  31.781  28.646  1.00  0.00     0.029 A 
ATOM     38  C   UNL A   1      45.450  31.083  28.198  1.00  0.00     0.049 A 
ATOM     39  H   UNL A   1      45.588  29.074  27.575  1.00  0.00     0.167 HD
ATOM     40  C   UNL A   1      47.860  30.843  27.593  1.00  0.00     0.074 A 
ATOM     41  C   UNL A   1      49.197  31.383  27.427  1.00  0.00     0.031 C 
ATOM     42  C   UNL A   1      46.799  31.564  28.031  1.00  0.00     0.037 A 
BRANCH  29  43
ATOM     43  C   UNL A   1      41.464  28.458  28.439  1.00  0.00     0.064 A 
ATOM     44  C   UNL A   1      40.483  28.907  27.542  1.00  0.00     0.173 A 
ATOM     45  C   UNL A   1      41.047  28.014  29.701  1.00  0.00     0.173 A 
ATOM     46  F   UNL A   1      40.829  29.327  26.317  1.00  0.00    -0.203 F 
ATOM     47  C   UNL A   1      39.139  28.933  27.903  1.00  0.00     0.198 A 
ATOM     48  C   UNL A   1      39.699  28.018  30.051  1.00  0.00     0.198 A 
ATOM     49  F   UNL A   1      41.943  27.539  30.580  1.00  0.00    -0.203 F 
ATOM     50  F   UNL A   1      38.222  29.387  27.037  1.00  0.00    -0.200 F 
ATOM     51  C   UNL A   1      38.747  28.487  29.156  1.00  0.00     0.200 A 
ATOM     52  F   UNL A   1      39.317  27.556  31.249  1.00  0.00    -0.200 F 
ATOM     53  F   UNL A   1      37.451  28.500  29.498  1.00  0.00    -0.200 F 
ENDBRANCH  29  43
BRANCH  30  54
ATOM     54  C   UNL A   1      51.243  27.947  26.010  1.00  0.00     0.064 A 
ATOM     55  C   UNL A   1      52.167  27.592  27.007  1.00  0.00     0.173 A 
ATOM     56  C   UNL A   1      51.747  28.197  24.727  1.00  0.00     0.173 A 
ATOM     57  F   UNL A   1      51.747  27.332  28.254  1.00  0.00    -0.203 F 
ATOM     58  C   UNL A   1      53.533  27.517  26.738  1.00  0.00     0.198 A 
ATOM     59  C   UNL A   1      53.111  28.086  24.450  1.00  0.00     0.198 A 
ATOM     60  F   UNL A   1      50.910  28.516  23.729  1.00  0.00    -0.203 F 
ATOM     61  F   UNL A   1      54.391  27.211  27.722  1.00  0.00    -0.200 F 
ATOM     62  C   UNL A   1      54.003  27.753  25.457  1.00  0.00     0.200 A 
ATOM     63  F   UNL A   1      53.557  28.286  23.201  1.00  0.00    -0.200 F 
ATOM     64  F   UNL A   1      55.313  27.653  25.192  1.00  0.00    -0.200 F 
ENDBRANCH  30  54
BRANCH  42  65
ATOM     65  C   UNL A   1      47.046  32.997  28.382  1.00  0.00     0.064 A 
ATOM     66  C   UNL A   1      46.888  33.999  27.414  1.00  0.00     0.173 A 
ATOM     67  C   UNL A   1      47.530  33.363  29.646  1.00  0.00     0.173 A 
ATOM     68  F   UNL A   1      46.440  33.690  26.189  1.00  0.00    -0.203 F 
ATOM     69  C   UNL A   1      47.226  35.318  27.694  1.00  0.00     0.198 A 
ATOM     70  C   UNL A   1      47.836  34.688  29.932  1.00  0.00     0.198 A 
ATOM     71  F   UNL A   1      47.685  32.437  30.604  1.00  0.00    -0.203 F 
ATOM     72  F   UNL A   1      47.110  36.253  26.742  1.00  0.00    -0.200 F 
ATOM     73  C   UNL A   1      47.696  35.661  28.953  1.00  0.00     0.200 A 
ATOM     74  F   UNL A   1      48.267  35.024  31.156  1.00  0.00    -0.200 F 
ATOM     75  F   UNL A   1      48.015  36.935  29.224  1.00  0.00    -0.200 F 
ENDBRANCH  42  65
ENDBRANCH  16  17
ENDBRANCH   9  11
ENDBRANCH   8   9
ENDBRANCH   7   8
ENDBRANCH   6   7
ENDBRANCH   5   6
ENDBRANCH   4   5
ENDBRANCH   3   4
ENDBRANCH   2   3
ENDBRANCH   1   2
BRANCH   1  76
ATOM     76  C   UNL A   1      37.684  21.610  25.152  1.00  0.00     0.188 C 
BRANCH  76  77
ATOM     77  O   UNL A   1      36.308  21.249  25.151  1.00  0.00    -0.376 OA
BRANCH  77  78
ATOM     78  C   UNL A   1      35.390  22.340  25.205  1.00  0.00     0.202 C 
BRANCH  78  79
ATOM     79  C   UNL A   1      34.572  22.492  26.500  1.00  0.00     0.261 C 
BRANCH  79  80
ATOM     80  O   UNL A   1      33.209  22.060  26.374  1.00  0.00    -0.463 OA
BRANCH  80  81
ATOM     81  C   UNL A   1      32.901  20.970  25.625  1.00  0.00     0.312 C 
ATOM     82  O   UNL A   1      33.249  19.828  25.886  1.00  0.00    -0.252 OA
BRANCH  81  83
ATOM     83  C   UNL A   1      31.888  21.367  24.540  1.00  0.00     0.123 C 
ATOM     84  C   UNL A   1      32.277  21.020  23.137  1.00  0.00    -0.015 C 
ATOM     85  C   UNL A   1      31.624  22.879  24.429  1.00  0.00     0.043 C 
ATOM     86  C   UNL A   1      32.511  22.112  22.400  1.00  0.00    -0.011 C 
ATOM     87  C   UNL A   1      32.418  23.353  23.215  1.00  0.00     0.093 C 
BRANCH  87  88
ATOM     88  N   UNL A   1      31.687  24.395  22.525  1.00  0.00    -0.204 NA
ATOM     89  H   UNL A   1      30.830  24.545  23.057  1.00  0.00     0.142 HD
BRANCH  88  90
ATOM     90  S   UNL A   1      32.349  25.901  22.269  1.00  0.00     0.244 S 
ATOM     91  O   UNL A   1      33.686  25.695  21.761  1.00  0.00    -0.207 OA
ATOM     92  O   UNL A   1      31.373  26.676  21.533  1.00  0.00    -0.207 OA
BRANCH  90  93
ATOM     93  C   UNL A   1      32.508  26.641  23.861  1.00  0.00     0.121 A 
ATOM     94  C   UNL A   1      33.752  27.155  24.252  1.00  0.00     0.028 A 
ATOM     95  C   UNL A   1      31.430  26.661  24.738  1.00  0.00     0.181 A 
ATOM     96  C   UNL A   1      33.911  27.681  25.535  1.00  0.00     0.044 A 
ATOM     97  C   UNL A   1      31.597  27.174  26.019  1.00  0.00     0.195 A 
ATOM     98  F   UNL A   1      30.239  26.156  24.385  1.00  0.00    -0.202 F 
ATOM     99  C   UNL A   1      32.831  27.680  26.414  1.00  0.00     0.161 A 
ATOM    100  F   UNL A   1      30.573  27.160  26.885  1.00  0.00    -0.200 F 
ATOM    101  F   UNL A   1      32.998  28.162  27.652  1.00  0.00    -0.204 F 
ENDBRANCH  90  93
ENDBRANCH  88  90
ENDBRANCH  87  88
ENDBRANCH  81  83
ENDBRANCH  80  81
ENDBRANCH  79  80
ENDBRANCH  78  79
ENDBRANCH  77  78
ENDBRANCH  76  77
ENDBRANCH   1  76
TORSDOF 23
ENDMDL
MODEL 3
REMARK VINA RESULT:     -10.1      4.752      9.537
REMARK SMILES O=C(OCCOCCOCCOCCOC(=O)[C@@H]1C=C[C@@H](NS(=O)(=O)c2ccc(F)c(F)c2F)C1)c1ccc(-c2c3nc(c(-c4c(F)c(F)c(F)c(F)c4F)c4ccc([nH]4)c(-c4c(F)c(F)c(F)c(F)c4F)c4nc(c(-c5c(F)c(F)c(F)c(F)c5F)c5ccc2[nH]5)C=C4)C=C3)cc1
REMARK SMILES IDX 10 1 9 2 8 3 7 4 6 5 5 6 4 7 3 8 2 9 1 10 36 11 37 12 98 13
REMARK SMILES IDX 38 14 97 15 39 16 40 17 41 18 91 19 42 20 96 21 90 22 92 23
REMARK SMILES IDX 43 24 95 25 89 26 88 27 44 29 76 30 56 31 75 32 57 33 60 34
REMARK SMILES IDX 74 35 93 36 58 37 59 38 73 40 94 41 61 42 45 43 46 44 54 45
REMARK SMILES IDX 47 46 48 47 52 48 55 49 49 50 50 51 53 52 51 53 77 54 78 55
REMARK SMILES IDX 86 56 79 57 80 58 84 59 87 60 81 61 82 62 85 63 83 64 62 65
REMARK SMILES IDX 63 66 71 67 64 68 65 69 69 70 72 71 66 72 67 73 70 74 68 75
REMARK SMILES IDX 11 76 12 77 13 78 14 79 15 80 16 81 17 82 18 83 19 84 35 85
REMARK SMILES IDX 20 86 21 87 22 88 23 90 24 91 25 92 26 93 27 94 33 95 28 96
REMARK SMILES IDX 31 97 34 98 29 99 32 100 30 101
REMARK H PARENT 92 28 60 39 22 89
REMARK Flexibility Score: inf
ROOT
ATOM      1  C   UNL A   1      37.802  22.209  25.411  1.00  0.00     0.188 C 
ENDROOT
BRANCH   1   2
ATOM      2  O   UNL A   1      39.002  22.397  26.155  1.00  0.00    -0.377 OA
BRANCH   2   3
ATOM      3  C   UNL A   1      39.947  21.322  26.126  1.00  0.00     0.188 C 
BRANCH   3   4
ATOM      4  C   UNL A   1      41.272  21.617  26.827  1.00  0.00     0.188 C 
BRANCH   4   5
ATOM      5  O   UNL A   1      41.928  20.397  27.159  1.00  0.00    -0.376 OA
BRANCH   5   6
ATOM      6  C   UNL A   1      41.656  19.271  26.332  1.00  0.00     0.202 C 
BRANCH   6   7
ATOM      7  C   UNL A   1      42.886  18.520  25.825  1.00  0.00     0.261 C 
BRANCH   7   8
ATOM      8  O   UNL A   1      43.440  19.057  24.610  1.00  0.00    -0.460 OA
BRANCH   8   9
ATOM      9  C   UNL A   1      44.543  19.831  24.460  1.00  0.00     0.338 C 
ATOM     10  O   UNL A   1      45.527  19.371  23.886  1.00  0.00    -0.246 OA
BRANCH   9  11
ATOM     11  C   UNL A   1      44.607  21.244  24.924  1.00  0.00     0.060 A 
ATOM     12  C   UNL A   1      44.107  22.319  24.202  1.00  0.00     0.016 A 
ATOM     13  C   UNL A   1      45.117  21.498  26.204  1.00  0.00     0.016 A 
ATOM     14  C   UNL A   1      44.262  23.623  24.627  1.00  0.00     0.010 A 
ATOM     15  C   UNL A   1      45.189  22.808  26.694  1.00  0.00     0.010 A 
ATOM     16  C   UNL A   1      44.807  23.880  25.878  1.00  0.00    -0.014 A 
BRANCH  16  17
ATOM     17  C   UNL A   1      45.103  25.288  26.196  1.00  0.00     0.031 A 
ATOM     18  C   UNL A   1      44.025  26.090  26.861  1.00  0.00     0.074 A 
ATOM     19  C   UNL A   1      46.366  25.747  26.092  1.00  0.00     0.049 A 
ATOM     20  N   UNL A   1      44.029  27.344  27.220  1.00  0.00    -0.248 NA
ATOM     21  C   UNL A   1      42.774  25.379  27.189  1.00  0.00     0.031 C 
ATOM     22  C   UNL A   1      47.511  24.962  25.618  1.00  0.00     0.029 A 
ATOM     23  N   UNL A   1      46.916  26.951  26.439  1.00  0.00    -0.354 N 
ATOM     24  C   UNL A   1      42.775  27.579  27.766  1.00  0.00     0.074 A 
ATOM     25  C   UNL A   1      42.031  26.345  27.701  1.00  0.00     0.031 C 
ATOM     26  C   UNL A   1      48.633  25.682  25.771  1.00  0.00     0.029 A 
ATOM     27  C   UNL A   1      48.276  27.010  26.250  1.00  0.00     0.049 A 
ATOM     28  H   UNL A   1      46.388  27.703  26.791  1.00  0.00     0.167 HD
ATOM     29  C   UNL A   1      42.298  28.736  28.272  1.00  0.00     0.037 A 
ATOM     30  C   UNL A   1      49.124  28.043  26.417  1.00  0.00     0.037 A 
ATOM     31  C   UNL A   1      43.083  29.935  28.352  1.00  0.00     0.049 A 
ATOM     32  C   UNL A   1      48.536  29.351  26.874  1.00  0.00     0.074 A 
ATOM     33  C   UNL A   1      42.699  31.197  28.758  1.00  0.00     0.029 A 
ATOM     34  N   UNL A   1      44.433  30.003  28.029  1.00  0.00    -0.354 N 
ATOM     35  N   UNL A   1      47.311  29.612  27.268  1.00  0.00    -0.248 NA
ATOM     36  C   UNL A   1      49.429  30.516  26.875  1.00  0.00     0.031 C 
ATOM     37  C   UNL A   1      43.808  32.039  28.643  1.00  0.00     0.029 A 
ATOM     38  C   UNL A   1      44.896  31.291  28.215  1.00  0.00     0.049 A 
ATOM     39  H   UNL A   1      44.979  29.245  27.715  1.00  0.00     0.167 HD
ATOM     40  C   UNL A   1      47.286  30.964  27.573  1.00  0.00     0.074 A 
ATOM     41  C   UNL A   1      48.629  31.463  27.345  1.00  0.00     0.031 C 
ATOM     42  C   UNL A   1      46.249  31.732  27.989  1.00  0.00     0.037 A 
BRANCH  29  43
ATOM     43  C   UNL A   1      40.865  28.771  28.705  1.00  0.00     0.064 A 
ATOM     44  C   UNL A   1      39.862  29.089  27.776  1.00  0.00     0.173 A 
ATOM     45  C   UNL A   1      40.478  28.509  30.026  1.00  0.00     0.173 A 
ATOM     46  F   UNL A   1      40.178  29.333  26.497  1.00  0.00    -0.203 F 
ATOM     47  C   UNL A   1      38.526  29.164  28.161  1.00  0.00     0.198 A 
ATOM     48  C   UNL A   1      39.138  28.561  30.402  1.00  0.00     0.198 A 
ATOM     49  F   UNL A   1      41.396  28.163  30.943  1.00  0.00    -0.203 F 
ATOM     50  F   UNL A   1      37.588  29.491  27.261  1.00  0.00    -0.200 F 
ATOM     51  C   UNL A   1      38.165  28.899  29.473  1.00  0.00     0.200 A 
ATOM     52  F   UNL A   1      38.786  28.272  31.662  1.00  0.00    -0.200 F 
ATOM     53  F   UNL A   1      36.877  28.958  29.839  1.00  0.00    -0.200 F 
ENDBRANCH  29  43
BRANCH  30  54
ATOM     54  C   UNL A   1      50.573  27.903  26.101  1.00  0.00     0.064 A 
ATOM     55  C   UNL A   1      51.047  27.994  24.781  1.00  0.00     0.173 A 
ATOM     56  C   UNL A   1      51.522  27.691  27.111  1.00  0.00     0.173 A 
ATOM     57  F   UNL A   1      50.190  28.204  23.771  1.00  0.00    -0.203 F 
ATOM     58  C   UNL A   1      52.402  27.853  24.484  1.00  0.00     0.198 A 
ATOM     59  C   UNL A   1      52.882  27.586  26.816  1.00  0.00     0.198 A 
ATOM     60  F   UNL A   1      51.132  27.620  28.391  1.00  0.00    -0.203 F 
ATOM     61  F   UNL A   1      52.815  27.909  23.210  1.00  0.00    -0.200 F 
ATOM     62  C   UNL A   1      53.320  27.660  25.503  1.00  0.00     0.200 A 
ATOM     63  F   UNL A   1      53.770  27.430  27.808  1.00  0.00    -0.200 F 
ATOM     64  F   UNL A   1      54.625  27.552  25.220  1.00  0.00    -0.200 F 
ENDBRANCH  30  54
BRANCH  42  65
ATOM     65  C   UNL A   1      46.533  33.179  28.245  1.00  0.00     0.064 A 
ATOM     66  C   UNL A   1      46.935  33.604  29.519  1.00  0.00     0.173 A 
ATOM     67  C   UNL A   1      46.316  34.149  27.257  1.00  0.00     0.173 A 
ATOM     68  F   UNL A   1      47.142  32.710  30.497  1.00  0.00    -0.203 F 
ATOM     69  C   UNL A   1      47.090  34.956  29.801  1.00  0.00     0.198 A 
ATOM     70  C   UNL A   1      46.503  35.498  27.534  1.00  0.00     0.198 A 
ATOM     71  F   UNL A   1      45.942  33.783  26.021  1.00  0.00    -0.203 F 
ATOM     72  F   UNL A   1      47.431  35.346  31.037  1.00  0.00    -0.200 F 
ATOM     73  C   UNL A   1      46.877  35.901  28.808  1.00  0.00     0.200 A 
ATOM     74  F   UNL A   1      46.322  36.409  26.568  1.00  0.00    -0.200 F 
ATOM     75  F   UNL A   1      47.034  37.204  29.079  1.00  0.00    -0.200 F 
ENDBRANCH  42  65
ENDBRANCH  16  17
ENDBRANCH   9  11
ENDBRANCH   8   9
ENDBRANCH   7   8
ENDBRANCH   6   7
ENDBRANCH   5   6
ENDBRANCH   4   5
ENDBRANCH   3   4
ENDBRANCH   2   3
ENDBRANCH   1   2
BRANCH   1  76
ATOM     76  C   UNL A   1      37.521  20.822  24.792  1.00  0.00     0.188 C 
BRANCH  76  77
ATOM     77  O   UNL A   1      36.270  20.253  25.159  1.00  0.00    -0.376 OA
BRANCH  77  78
ATOM     78  C   UNL A   1      35.134  21.095  24.961  1.00  0.00     0.202 C 
BRANCH  78  79
ATOM     79  C   UNL A   1      33.851  20.714  25.721  1.00  0.00     0.261 C 
BRANCH  79  80
ATOM     80  O   UNL A   1      32.678  21.392  25.246  1.00  0.00    -0.463 OA
BRANCH  80  81
ATOM     81  C   UNL A   1      32.434  21.489  23.913  1.00  0.00     0.312 C 
ATOM     82  O   UNL A   1      32.238  20.536  23.174  1.00  0.00    -0.252 OA
BRANCH  81  83
ATOM     83  C   UNL A   1      32.235  22.965  23.538  1.00  0.00     0.123 C 
ATOM     84  C   UNL A   1      33.103  23.471  22.430  1.00  0.00    -0.015 C 
ATOM     85  C   UNL A   1      32.548  23.964  24.666  1.00  0.00     0.043 C 
ATOM     86  C   UNL A   1      33.989  24.376  22.865  1.00  0.00    -0.011 C 
ATOM     87  C   UNL A   1      33.923  24.542  24.341  1.00  0.00     0.093 C 
BRANCH  87  88
ATOM     88  N   UNL A   1      33.974  25.936  24.729  1.00  0.00    -0.204 NA
ATOM     89  H   UNL A   1      34.822  26.319  24.310  1.00  0.00     0.142 HD
BRANCH  88  90
ATOM     90  S   UNL A   1      32.744  26.992  24.349  1.00  0.00     0.244 S 
ATOM     91  O   UNL A   1      32.973  27.438  22.993  1.00  0.00    -0.207 OA
ATOM     92  O   UNL A   1      31.503  26.357  24.735  1.00  0.00    -0.207 OA
BRANCH  90  93
ATOM     93  C   UNL A   1      32.963  28.391  25.398  1.00  0.00     0.121 A 
ATOM     94  C   UNL A   1      34.028  28.399  26.310  1.00  0.00     0.028 A 
ATOM     95  C   UNL A   1      32.059  29.446  25.361  1.00  0.00     0.181 A 
ATOM     96  C   UNL A   1      34.173  29.469  27.194  1.00  0.00     0.044 A 
ATOM     97  C   UNL A   1      32.201  30.503  26.252  1.00  0.00     0.195 A 
ATOM     98  F   UNL A   1      31.025  29.444  24.507  1.00  0.00    -0.202 F 
ATOM     99  C   UNL A   1      33.252  30.512  27.163  1.00  0.00     0.161 A 
ATOM    100  F   UNL A   1      31.309  31.505  26.252  1.00  0.00    -0.200 F 
ATOM    101  F   UNL A   1      33.383  31.523  28.032  1.00  0.00    -0.204 F 
ENDBRANCH  90  93
ENDBRANCH  88  90
ENDBRANCH  87  88
ENDBRANCH  81  83
ENDBRANCH  80  81
ENDBRANCH  79  80
ENDBRANCH  78  79
ENDBRANCH  77  78
ENDBRANCH  76  77
ENDBRANCH   1  76
TORSDOF 23
ENDMDL
