MODEL 1
REMARK VINA RESULT:     -10.0      0.000      0.000
REMARK SMILES O=C(OCCOCCOCCOCCOC(=O)[C@H]1CCCN(C(=O)C2CCN(S(=O)(=O)c3ccccc3)CC2)C1)c1ccc(-c2c3nc(c(-c4c(F)c(F)c(F)c(F)c4F)c4ccc([nH]4)c(-c4c(F)c(F)c(F)c(F)c4F)c4nc(c(-c5c(F)c(F)c(F)c(F)c5F)c5ccc2[nH]5)C=C4)C=C3)cc1
REMARK SMILES IDX 10 1 9 2 8 3 7 4 6 5 5 6 4 7 3 8 2 9 1 10 41 11 42 12 103 13
REMARK SMILES IDX 43 14 102 15 44 16 45 17 46 18 96 19 47 20 101 21 95 22
REMARK SMILES IDX 97 23 48 24 100 25 94 26 93 27 49 29 81 30 61 31 80 32 62 33
REMARK SMILES IDX 65 34 79 35 98 36 63 37 64 38 78 40 99 41 66 42 50 43 51 44
REMARK SMILES IDX 59 45 52 46 53 47 57 48 60 49 54 50 55 51 58 52 56 53 82 54
REMARK SMILES IDX 83 55 91 56 84 57 85 58 89 59 92 60 86 61 87 62 90 63 88 64
REMARK SMILES IDX 67 65 68 66 76 67 69 68 70 69 74 70 77 71 71 72 72 73 75 74
REMARK SMILES IDX 73 75 11 76 12 77 13 78 14 79 15 80 16 81 17 82 18 83 19 84
REMARK SMILES IDX 40 85 20 86 22 87 21 88 23 89 24 90 25 91 26 92 39 93 27 94
REMARK SMILES IDX 38 95 28 96 29 97 30 98 31 99 32 100 33 101 37 102 34 103
REMARK SMILES IDX 36 104 35 105
REMARK H PARENT 97 28 65 39
REMARK Flexibility Score: inf
ROOT
ATOM      1  C   UNL A   1      37.688  22.403  25.264  1.00  0.00     0.188 C 
ENDROOT
BRANCH   1   2
ATOM      2  O   UNL A   1      38.586  21.782  26.180  1.00  0.00    -0.377 OA
BRANCH   2   3
ATOM      3  C   UNL A   1      39.375  20.704  25.681  1.00  0.00     0.188 C 
BRANCH   3   4
ATOM      4  C   UNL A   1      40.624  20.434  26.509  1.00  0.00     0.188 C 
BRANCH   4   5
ATOM      5  O   UNL A   1      40.679  21.374  27.582  1.00  0.00    -0.376 OA
BRANCH   5   6
ATOM      6  C   UNL A   1      41.774  22.284  27.533  1.00  0.00     0.202 C 
BRANCH   6   7
ATOM      7  C   UNL A   1      42.785  21.946  26.439  1.00  0.00     0.261 C 
BRANCH   7   8
ATOM      8  O   UNL A   1      42.769  22.887  25.355  1.00  0.00    -0.460 OA
BRANCH   8   9
ATOM      9  C   UNL A   1      43.701  23.819  25.040  1.00  0.00     0.338 C 
ATOM     10  O   UNL A   1      44.509  23.558  24.148  1.00  0.00    -0.246 OA
BRANCH   9  11
ATOM     11  C   UNL A   1      43.807  25.167  25.682  1.00  0.00     0.060 A 
ATOM     12  C   UNL A   1      43.376  26.369  25.121  1.00  0.00     0.016 A 
ATOM     13  C   UNL A   1      44.274  25.200  27.007  1.00  0.00     0.016 A 
ATOM     14  C   UNL A   1      43.409  27.565  25.824  1.00  0.00     0.010 A 
ATOM     15  C   UNL A   1      44.306  26.397  27.732  1.00  0.00     0.010 A 
ATOM     16  C   UNL A   1      43.874  27.583  27.132  1.00  0.00    -0.014 A 
BRANCH  16  17
ATOM     17  C   UNL A   1      44.028  28.891  27.786  1.00  0.00     0.031 A 
ATOM     18  C   UNL A   1      42.873  29.405  28.584  1.00  0.00     0.074 A 
ATOM     19  C   UNL A   1      45.215  29.523  27.762  1.00  0.00     0.049 A 
ATOM     20  N   UNL A   1      42.705  30.570  29.146  1.00  0.00    -0.248 NA
ATOM     21  C   UNL A   1      41.754  28.468  28.790  1.00  0.00     0.031 C 
ATOM     22  C   UNL A   1      46.435  29.004  27.138  1.00  0.00     0.029 A 
ATOM     23  N   UNL A   1      45.596  30.729  28.286  1.00  0.00    -0.354 N 
ATOM     24  C   UNL A   1      41.444  30.523  29.723  1.00  0.00     0.074 A 
ATOM     25  C   UNL A   1      40.897  29.211  29.473  1.00  0.00     0.031 C 
ATOM     26  C   UNL A   1      47.428  29.891  27.312  1.00  0.00     0.029 A 
ATOM     27  C   UNL A   1      46.892  31.070  27.982  1.00  0.00     0.049 A 
ATOM     28  H   UNL A   1      45.001  31.295  28.829  1.00  0.00     0.167 HD
ATOM     29  C   UNL A   1      40.804  31.515  30.380  1.00  0.00     0.037 A 
ATOM     30  C   UNL A   1      47.536  32.238  28.170  1.00  0.00     0.037 A 
ATOM     31  C   UNL A   1      41.399  32.799  30.622  1.00  0.00     0.049 A 
ATOM     32  C   UNL A   1      46.763  33.361  28.815  1.00  0.00     0.074 A 
ATOM     33  C   UNL A   1      40.853  33.903  31.247  1.00  0.00     0.029 A 
ATOM     34  N   UNL A   1      42.688  33.143  30.239  1.00  0.00    -0.354 N 
ATOM     35  N   UNL A   1      45.545  33.349  29.308  1.00  0.00    -0.248 NA
ATOM     36  C   UNL A   1      47.431  34.664  28.900  1.00  0.00     0.031 C 
ATOM     37  C   UNL A   1      41.799  34.933  31.195  1.00  0.00     0.029 A 
ATOM     38  C   UNL A   1      42.948  34.457  30.580  1.00  0.00     0.049 A 
ATOM     39  H   UNL A   1      43.325  32.539  29.791  1.00  0.00     0.167 HD
ATOM     40  C   UNL A   1      45.301  34.636  29.760  1.00  0.00     0.074 A 
ATOM     41  C   UNL A   1      46.512  35.396  29.515  1.00  0.00     0.031 C 
ATOM     42  C   UNL A   1      44.178  35.158  30.314  1.00  0.00     0.037 A 
BRANCH  29  43
ATOM     43  C   UNL A   1      39.384  31.271  30.785  1.00  0.00     0.064 A 
ATOM     44  C   UNL A   1      38.300  31.585  29.953  1.00  0.00     0.173 A 
ATOM     45  C   UNL A   1      39.107  30.722  32.046  1.00  0.00     0.173 A 
ATOM     46  F   UNL A   1      38.511  32.144  28.752  1.00  0.00    -0.203 F 
ATOM     47  C   UNL A   1      36.990  31.370  30.376  1.00  0.00     0.198 A 
ATOM     48  C   UNL A   1      37.798  30.489  32.457  1.00  0.00     0.198 A 
ATOM     49  F   UNL A   1      40.108  30.419  32.886  1.00  0.00    -0.203 F 
ATOM     50  F   UNL A   1      35.966  31.719  29.583  1.00  0.00    -0.200 F 
ATOM     51  C   UNL A   1      36.740  30.817  31.623  1.00  0.00     0.200 A 
ATOM     52  F   UNL A   1      37.560  29.956  33.663  1.00  0.00    -0.200 F 
ATOM     53  F   UNL A   1      35.479  30.614  32.028  1.00  0.00    -0.200 F 
ENDBRANCH  29  43
BRANCH  30  54
ATOM     54  C   UNL A   1      48.918  32.442  27.653  1.00  0.00     0.064 A 
ATOM     55  C   UNL A   1      49.160  33.126  26.454  1.00  0.00     0.173 A 
ATOM     56  C   UNL A   1      50.032  31.915  28.329  1.00  0.00     0.173 A 
ATOM     57  F   UNL A   1      48.133  33.629  25.751  1.00  0.00    -0.203 F 
ATOM     58  C   UNL A   1      50.451  33.253  25.941  1.00  0.00     0.198 A 
ATOM     59  C   UNL A   1      51.325  32.074  27.836  1.00  0.00     0.198 A 
ATOM     60  F   UNL A   1      49.866  31.242  29.478  1.00  0.00    -0.203 F 
ATOM     61  F   UNL A   1      50.644  33.861  24.762  1.00  0.00    -0.200 F 
ATOM     62  C   UNL A   1      51.533  32.732  26.634  1.00  0.00     0.200 A 
ATOM     63  F   UNL A   1      52.367  31.580  28.519  1.00  0.00    -0.200 F 
ATOM     64  F   UNL A   1      52.773  32.852  26.139  1.00  0.00    -0.200 F 
ENDBRANCH  30  54
BRANCH  42  65
ATOM     65  C   UNL A   1      44.221  36.606  30.686  1.00  0.00     0.064 A 
ATOM     66  C   UNL A   1      43.809  37.599  29.788  1.00  0.00     0.173 A 
ATOM     67  C   UNL A   1      44.607  36.995  31.977  1.00  0.00     0.173 A 
ATOM     68  F   UNL A   1      43.448  37.271  28.538  1.00  0.00    -0.203 F 
ATOM     69  C   UNL A   1      43.792  38.937  30.166  1.00  0.00     0.198 A 
ATOM     70  C   UNL A   1      44.560  38.330  32.361  1.00  0.00     0.198 A 
ATOM     71  F   UNL A   1      45.001  36.076  32.872  1.00  0.00    -0.203 F 
ATOM     72  F   UNL A   1      43.428  39.876  29.282  1.00  0.00    -0.200 F 
ATOM     73  C   UNL A   1      44.157  39.300  31.455  1.00  0.00     0.200 A 
ATOM     74  F   UNL A   1      44.898  38.677  33.610  1.00  0.00    -0.200 F 
ATOM     75  F   UNL A   1      44.123  40.587  31.823  1.00  0.00    -0.200 F 
ENDBRANCH  42  65
ENDBRANCH  16  17
ENDBRANCH   9  11
ENDBRANCH   8   9
ENDBRANCH   7   8
ENDBRANCH   6   7
ENDBRANCH   5   6
ENDBRANCH   4   5
ENDBRANCH   3   4
ENDBRANCH   2   3
ENDBRANCH   1   2
BRANCH   1  76
ATOM     76  C   UNL A   1      36.603  21.551  24.588  1.00  0.00     0.188 C 
BRANCH  76  77
ATOM     77  O   UNL A   1      35.974  20.635  25.468  1.00  0.00    -0.376 OA
BRANCH  77  78
ATOM     78  C   UNL A   1      35.881  19.302  24.984  1.00  0.00     0.202 C 
BRANCH  78  79
ATOM     79  C   UNL A   1      34.487  18.728  24.651  1.00  0.00     0.261 C 
BRANCH  79  80
ATOM     80  O   UNL A   1      33.382  19.624  24.894  1.00  0.00    -0.463 OA
BRANCH  80  81
ATOM     81  C   UNL A   1      32.778  20.240  23.851  1.00  0.00     0.310 C 
ATOM     82  O   UNL A   1      32.226  19.649  22.931  1.00  0.00    -0.252 OA
BRANCH  81  83
ATOM     83  C   UNL A   1      32.685  21.758  24.025  1.00  0.00     0.119 C 
ATOM     84  C   UNL A   1      32.052  22.322  22.743  1.00  0.00     0.019 C 
ATOM     85  C   UNL A   1      32.059  22.258  25.353  1.00  0.00     0.134 C 
ATOM     86  C   UNL A   1      31.625  23.769  22.879  1.00  0.00     0.022 C 
ATOM     87  N   UNL A   1      31.645  23.683  25.305  1.00  0.00    -0.342 N 
ATOM     88  C   UNL A   1      30.842  24.019  24.155  1.00  0.00     0.119 C 
BRANCH  87  89
ATOM     89  C   UNL A   1      31.730  24.473  26.442  1.00  0.00     0.225 C 
ATOM     90  O   UNL A   1      31.327  24.026  27.524  1.00  0.00    -0.275 OA
BRANCH  89  91
ATOM     91  C   UNL A   1      32.394  25.888  26.453  1.00  0.00     0.081 C 
ATOM     92  C   UNL A   1      31.542  27.134  26.650  1.00  0.00     0.030 C 
ATOM     93  C   UNL A   1      33.513  26.161  25.465  1.00  0.00     0.030 C 
ATOM     94  C   UNL A   1      31.136  27.904  25.402  1.00  0.00     0.103 C 
ATOM     95  C   UNL A   1      33.096  26.827  24.169  1.00  0.00     0.103 C 
ATOM     96  N   UNL A   1      32.125  27.941  24.268  1.00  0.00    -0.198 NA
BRANCH  96  97
ATOM     97  S   UNL A   1      31.263  28.324  22.787  1.00  0.00     0.243 S 
ATOM     98  O   UNL A   1      32.093  29.271  22.047  1.00  0.00    -0.207 OA
ATOM     99  O   UNL A   1      30.897  27.073  22.184  1.00  0.00    -0.207 OA
BRANCH  97 100
ATOM    100  C   UNL A   1      29.778  29.219  23.200  1.00  0.00     0.082 A 
ATOM    101  C   UNL A   1      28.531  28.669  22.888  1.00  0.00     0.022 A 
ATOM    102  C   UNL A   1      29.858  30.560  23.603  1.00  0.00     0.022 A 
ATOM    103  C   UNL A   1      27.378  29.449  23.026  1.00  0.00     0.001 A 
ATOM    104  C   UNL A   1      28.704  31.322  23.776  1.00  0.00     0.001 A 
ATOM    105  C   UNL A   1      27.463  30.767  23.483  1.00  0.00     0.000 A 
ENDBRANCH  97 100
ENDBRANCH  96  97
ENDBRANCH  89  91
ENDBRANCH  87  89
ENDBRANCH  81  83
ENDBRANCH  80  81
ENDBRANCH  79  80
ENDBRANCH  78  79
ENDBRANCH  77  78
ENDBRANCH  76  77
ENDBRANCH   1  76
TORSDOF 24
ENDMDL
MODEL 2
REMARK VINA RESULT:      -9.9      4.702      8.392
REMARK SMILES O=C(OCCOCCOCCOCCOC(=O)[C@H]1CCCN(C(=O)C2CCN(S(=O)(=O)c3ccccc3)CC2)C1)c1ccc(-c2c3nc(c(-c4c(F)c(F)c(F)c(F)c4F)c4ccc([nH]4)c(-c4c(F)c(F)c(F)c(F)c4F)c4nc(c(-c5c(F)c(F)c(F)c(F)c5F)c5ccc2[nH]5)C=C4)C=C3)cc1
REMARK SMILES IDX 10 1 9 2 8 3 7 4 6 5 5 6 4 7 3 8 2 9 1 10 41 11 42 12 103 13
REMARK SMILES IDX 43 14 102 15 44 16 45 17 46 18 96 19 47 20 101 21 95 22
REMARK SMILES IDX 97 23 48 24 100 25 94 26 93 27 49 29 81 30 61 31 80 32 62 33
REMARK SMILES IDX 65 34 79 35 98 36 63 37 64 38 78 40 99 41 66 42 50 43 51 44
REMARK SMILES IDX 59 45 52 46 53 47 57 48 60 49 54 50 55 51 58 52 56 53 82 54
REMARK SMILES IDX 83 55 91 56 84 57 85 58 89 59 92 60 86 61 87 62 90 63 88 64
REMARK SMILES IDX 67 65 68 66 76 67 69 68 70 69 74 70 77 71 71 72 72 73 75 74
REMARK SMILES IDX 73 75 11 76 12 77 13 78 14 79 15 80 16 81 17 82 18 83 19 84
REMARK SMILES IDX 40 85 20 86 22 87 21 88 23 89 24 90 25 91 26 92 39 93 27 94
REMARK SMILES IDX 38 95 28 96 29 97 30 98 31 99 32 100 33 101 37 102 34 103
REMARK SMILES IDX 36 104 35 105
REMARK H PARENT 97 28 65 39
REMARK Flexibility Score: inf
ROOT
ATOM      1  C   UNL A   1      31.766  21.883  25.126  1.00  0.00     0.188 C 
ENDROOT
BRANCH   1   2
ATOM      2  O   UNL A   1      32.657  21.376  24.137  1.00  0.00    -0.377 OA
BRANCH   2   3
ATOM      3  C   UNL A   1      32.993  19.993  24.219  1.00  0.00     0.188 C 
BRANCH   3   4
ATOM      4  C   UNL A   1      34.286  19.728  24.979  1.00  0.00     0.188 C 
BRANCH   4   5
ATOM      5  O   UNL A   1      35.225  20.757  24.666  1.00  0.00    -0.376 OA
BRANCH   5   6
ATOM      6  C   UNL A   1      36.557  20.514  25.108  1.00  0.00     0.202 C 
BRANCH   6   7
ATOM      7  C   UNL A   1      37.497  21.689  24.850  1.00  0.00     0.261 C 
BRANCH   7   8
ATOM      8  O   UNL A   1      38.375  21.955  25.954  1.00  0.00    -0.460 OA
BRANCH   8   9
ATOM      9  C   UNL A   1      39.622  21.471  26.170  1.00  0.00     0.338 C 
ATOM     10  O   UNL A   1      39.826  20.274  25.966  1.00  0.00    -0.246 OA
BRANCH   9  11
ATOM     11  C   UNL A   1      40.790  22.295  26.618  1.00  0.00     0.060 A 
ATOM     12  C   UNL A   1      40.731  23.622  27.041  1.00  0.00     0.016 A 
ATOM     13  C   UNL A   1      42.024  21.632  26.731  1.00  0.00     0.016 A 
ATOM     14  C   UNL A   1      41.840  24.286  27.545  1.00  0.00     0.010 A 
ATOM     15  C   UNL A   1      43.150  22.284  27.245  1.00  0.00     0.010 A 
ATOM     16  C   UNL A   1      43.054  23.620  27.649  1.00  0.00    -0.014 A 
BRANCH  16  17
ATOM     17  C   UNL A   1      44.233  24.402  28.050  1.00  0.00     0.031 A 
ATOM     18  C   UNL A   1      44.510  24.534  29.513  1.00  0.00     0.074 A 
ATOM     19  C   UNL A   1      45.086  24.862  27.119  1.00  0.00     0.049 A 
ATOM     20  N   UNL A   1      45.397  25.265  30.127  1.00  0.00    -0.248 NA
ATOM     21  C   UNL A   1      43.676  23.714  30.411  1.00  0.00     0.031 C 
ATOM     22  C   UNL A   1      44.967  24.632  25.676  1.00  0.00     0.029 A 
ATOM     23  N   UNL A   1      46.231  25.603  27.244  1.00  0.00    -0.354 N 
ATOM     24  C   UNL A   1      45.193  25.035  31.480  1.00  0.00     0.074 A 
ATOM     25  C   UNL A   1      44.121  24.077  31.604  1.00  0.00     0.031 C 
ATOM     26  C   UNL A   1      45.996  25.227  25.050  1.00  0.00     0.029 A 
ATOM     27  C   UNL A   1      46.793  25.946  26.037  1.00  0.00     0.049 A 
ATOM     28  H   UNL A   1      46.614  25.864  28.112  1.00  0.00     0.167 HD
ATOM     29  C   UNL A   1      45.842  25.607  32.518  1.00  0.00     0.037 A 
ATOM     30  C   UNL A   1      47.797  26.803  25.775  1.00  0.00     0.037 A 
ATOM     31  C   UNL A   1      46.918  26.542  32.344  1.00  0.00     0.049 A 
ATOM     32  C   UNL A   1      48.436  27.505  26.947  1.00  0.00     0.074 A 
ATOM     33  C   UNL A   1      47.642  27.220  33.305  1.00  0.00     0.029 A 
ATOM     34  N   UNL A   1      47.420  26.927  31.108  1.00  0.00    -0.354 N 
ATOM     35  N   UNL A   1      48.207  27.344  28.231  1.00  0.00    -0.248 NA
ATOM     36  C   UNL A   1      49.441  28.529  26.641  1.00  0.00     0.031 C 
ATOM     37  C   UNL A   1      48.549  28.055  32.645  1.00  0.00     0.029 A 
ATOM     38  C   UNL A   1      48.422  27.863  31.276  1.00  0.00     0.049 A 
ATOM     39  H   UNL A   1      47.109  26.583  30.239  1.00  0.00     0.167 HD
ATOM     40  C   UNL A   1      49.036  28.242  28.884  1.00  0.00     0.074 A 
ATOM     41  C   UNL A   1      49.800  28.922  27.856  1.00  0.00     0.031 C 
ATOM     42  C   UNL A   1      49.152  28.502  30.211  1.00  0.00     0.037 A 
BRANCH  29  43
ATOM     43  C   UNL A   1      45.341  25.308  33.896  1.00  0.00     0.064 A 
ATOM     44  C   UNL A   1      45.881  24.285  34.688  1.00  0.00     0.173 A 
ATOM     45  C   UNL A   1      44.280  26.059  34.426  1.00  0.00     0.173 A 
ATOM     46  F   UNL A   1      46.873  23.517  34.213  1.00  0.00    -0.203 F 
ATOM     47  C   UNL A   1      45.368  24.017  35.956  1.00  0.00     0.198 A 
ATOM     48  C   UNL A   1      43.785  25.802  35.701  1.00  0.00     0.198 A 
ATOM     49  F   UNL A   1      43.718  27.038  33.702  1.00  0.00    -0.203 F 
ATOM     50  F   UNL A   1      45.870  23.006  36.679  1.00  0.00    -0.200 F 
ATOM     51  C   UNL A   1      44.326  24.779  36.463  1.00  0.00     0.200 A 
ATOM     52  F   UNL A   1      42.777  26.539  36.188  1.00  0.00    -0.200 F 
ATOM     53  F   UNL A   1      43.834  24.518  37.682  1.00  0.00    -0.200 F 
ENDBRANCH  29  43
BRANCH  30  54
ATOM     54  C   UNL A   1      48.179  27.129  24.372  1.00  0.00     0.064 A 
ATOM     55  C   UNL A   1      47.326  27.852  23.528  1.00  0.00     0.173 A 
ATOM     56  C   UNL A   1      49.395  26.682  23.828  1.00  0.00     0.173 A 
ATOM     57  F   UNL A   1      46.140  28.283  23.984  1.00  0.00    -0.203 F 
ATOM     58  C   UNL A   1      47.660  28.094  22.195  1.00  0.00     0.198 A 
ATOM     59  C   UNL A   1      49.745  26.955  22.507  1.00  0.00     0.198 A 
ATOM     60  F   UNL A   1      50.251  25.976  24.582  1.00  0.00    -0.203 F 
ATOM     61  F   UNL A   1      46.797  28.737  21.396  1.00  0.00    -0.200 F 
ATOM     62  C   UNL A   1      48.871  27.650  21.687  1.00  0.00     0.200 A 
ATOM     63  F   UNL A   1      50.924  26.534  22.027  1.00  0.00    -0.200 F 
ATOM     64  F   UNL A   1      49.190  27.879  20.405  1.00  0.00    -0.200 F 
ENDBRANCH  30  54
BRANCH  42  65
ATOM     65  C   UNL A   1      50.137  29.555  30.607  1.00  0.00     0.064 A 
ATOM     66  C   UNL A   1      49.740  30.885  30.799  1.00  0.00     0.173 A 
ATOM     67  C   UNL A   1      51.472  29.215  30.869  1.00  0.00     0.173 A 
ATOM     68  F   UNL A   1      48.475  31.255  30.544  1.00  0.00    -0.203 F 
ATOM     69  C   UNL A   1      50.650  31.844  31.229  1.00  0.00     0.198 A 
ATOM     70  C   UNL A   1      52.372  30.170  31.327  1.00  0.00     0.198 A 
ATOM     71  F   UNL A   1      51.894  27.952  30.705  1.00  0.00    -0.203 F 
ATOM     72  F   UNL A   1      50.260  33.118  31.375  1.00  0.00    -0.200 F 
ATOM     73  C   UNL A   1      51.961  31.484  31.504  1.00  0.00     0.200 A 
ATOM     74  F   UNL A   1      53.634  29.818  31.606  1.00  0.00    -0.200 F 
ATOM     75  F   UNL A   1      52.832  32.404  31.936  1.00  0.00    -0.200 F 
ENDBRANCH  42  65
ENDBRANCH  16  17
ENDBRANCH   9  11
ENDBRANCH   8   9
ENDBRANCH   7   8
ENDBRANCH   6   7
ENDBRANCH   5   6
ENDBRANCH   4   5
ENDBRANCH   3   4
ENDBRANCH   2   3
ENDBRANCH   1   2
BRANCH   1  76
ATOM     76  C   UNL A   1      32.315  22.806  26.223  1.00  0.00     0.188 C 
BRANCH  76  77
ATOM     77  O   UNL A   1      33.604  23.322  25.934  1.00  0.00    -0.376 OA
BRANCH  77  78
ATOM     78  C   UNL A   1      33.713  24.738  25.994  1.00  0.00     0.202 C 
BRANCH  78  79
ATOM     79  C   UNL A   1      33.065  25.580  24.873  1.00  0.00     0.261 C 
BRANCH  79  80
ATOM     80  O   UNL A   1      33.919  26.594  24.299  1.00  0.00    -0.463 OA
BRANCH  80  81
ATOM     81  C   UNL A   1      33.368  27.710  23.768  1.00  0.00     0.310 C 
ATOM     82  O   UNL A   1      32.741  27.732  22.716  1.00  0.00    -0.252 OA
BRANCH  81  83
ATOM     83  C   UNL A   1      33.442  28.918  24.706  1.00  0.00     0.119 C 
ATOM     84  C   UNL A   1      32.004  29.422  24.908  1.00  0.00     0.019 C 
ATOM     85  C   UNL A   1      34.271  28.728  26.003  1.00  0.00     0.134 C 
ATOM     86  C   UNL A   1      31.880  30.425  26.036  1.00  0.00     0.022 C 
ATOM     87  N   UNL A   1      33.994  29.764  27.030  1.00  0.00    -0.342 N 
ATOM     88  C   UNL A   1      32.591  29.963  27.295  1.00  0.00     0.119 C 
BRANCH  87  89
ATOM     89  C   UNL A   1      35.006  30.197  27.874  1.00  0.00     0.225 C 
ATOM     90  O   UNL A   1      35.559  29.384  28.626  1.00  0.00    -0.275 OA
BRANCH  89  91
ATOM     91  C   UNL A   1      35.555  31.660  27.872  1.00  0.00     0.081 C 
ATOM     92  C   UNL A   1      36.749  32.035  28.740  1.00  0.00     0.030 C 
ATOM     93  C   UNL A   1      34.554  32.800  27.827  1.00  0.00     0.030 C 
ATOM     94  C   UNL A   1      36.455  32.698  30.078  1.00  0.00     0.103 C 
ATOM     95  C   UNL A   1      34.171  33.391  29.169  1.00  0.00     0.103 C 
ATOM     96  N   UNL A   1      35.266  33.619  30.139  1.00  0.00    -0.198 NA
BRANCH  96  97
ATOM     97  S   UNL A   1      34.769  33.777  31.816  1.00  0.00     0.243 S 
ATOM     98  O   UNL A   1      34.222  35.123  31.969  1.00  0.00    -0.207 OA
ATOM     99  O   UNL A   1      33.950  32.636  32.115  1.00  0.00    -0.207 OA
BRANCH  97 100
ATOM    100  C   UNL A   1      36.217  33.733  32.854  1.00  0.00     0.082 A 
ATOM    101  C   UNL A   1      37.228  34.680  32.668  1.00  0.00     0.022 A 
ATOM    102  C   UNL A   1      36.456  32.622  33.675  1.00  0.00     0.022 A 
ATOM    103  C   UNL A   1      38.446  34.530  33.339  1.00  0.00     0.001 A 
ATOM    104  C   UNL A   1      37.656  32.496  34.373  1.00  0.00     0.001 A 
ATOM    105  C   UNL A   1      38.654  33.450  34.200  1.00  0.00     0.000 A 
ENDBRANCH  97 100
ENDBRANCH  96  97
ENDBRANCH  89  91
ENDBRANCH  87  89
ENDBRANCH  81  83
ENDBRANCH  80  81
ENDBRANCH  79  80
ENDBRANCH  78  79
ENDBRANCH  77  78
ENDBRANCH  76  77
ENDBRANCH   1  76
TORSDOF 24
ENDMDL
MODEL 3
REMARK VINA RESULT:      -9.8      3.755      9.449
REMARK SMILES O=C(OCCOCCOCCOCCOC(=O)[C@H]1CCCN(C(=O)C2CCN(S(=O)(=O)c3ccccc3)CC2)C1)c1ccc(-c2c3nc(c(-c4c(F)c(F)c(F)c(F)c4F)c4ccc([nH]4)c(-c4c(F)c(F)c(F)c(F)c4F)c4nc(c(-c5c(F)c(F)c(F)c(F)c5F)c5ccc2[nH]5)C=C4)C=C3)cc1
REMARK SMILES IDX 10 1 9 2 8 3 7 4 6 5 5 6 4 7 3 8 2 9 1 10 41 11 42 12 103 13
REMARK SMILES IDX 43 14 102 15 44 16 45 17 46 18 96 19 47 20 101 21 95 22
REMARK SMILES IDX 97 23 48 24 100 25 94 26 93 27 49 29 81 30 61 31 80 32 62 33
REMARK SMILES IDX 65 34 79 35 98 36 63 37 64 38 78 40 99 41 66 42 50 43 51 44
REMARK SMILES IDX 59 45 52 46 53 47 57 48 60 49 54 50 55 51 58 52 56 53 82 54
REMARK SMILES IDX 83 55 91 56 84 57 85 58 89 59 92 60 86 61 87 62 90 63 88 64
REMARK SMILES IDX 67 65 68 66 76 67 69 68 70 69 74 70 77 71 71 72 72 73 75 74
REMARK SMILES IDX 73 75 11 76 12 77 13 78 14 79 15 80 16 81 17 82 18 83 19 84
REMARK SMILES IDX 40 85 20 86 22 87 21 88 23 89 24 90 25 91 26 92 39 93 27 94
REMARK SMILES IDX 38 95 28 96 29 97 30 98 31 99 32 100 33 101 37 102 34 103
REMARK SMILES IDX 36 104 35 105
REMARK H PARENT 97 28 65 39
REMARK Flexibility Score: inf
ROOT
ATOM      1  C   UNL A   1      34.699  33.886  33.457  1.00  0.00     0.188 C 
ENDROOT
BRANCH   1   2
ATOM      2  O   UNL A   1      35.263  33.546  34.721  1.00  0.00    -0.377 OA
BRANCH   2   3
ATOM      3  C   UNL A   1      36.576  34.031  34.994  1.00  0.00     0.188 C 
BRANCH   3   4
ATOM      4  C   UNL A   1      37.235  33.355  36.189  1.00  0.00     0.188 C 
BRANCH   4   5
ATOM      5  O   UNL A   1      37.443  31.976  35.882  1.00  0.00    -0.376 OA
BRANCH   5   6
ATOM      6  C   UNL A   1      38.314  31.727  34.783  1.00  0.00     0.202 C 
BRANCH   6   7
ATOM      7  C   UNL A   1      37.684  30.846  33.707  1.00  0.00     0.261 C 
BRANCH   7   8
ATOM      8  O   UNL A   1      38.169  29.495  33.735  1.00  0.00    -0.460 OA
BRANCH   8   9
ATOM      9  C   UNL A   1      39.001  28.884  32.856  1.00  0.00     0.338 C 
ATOM     10  O   UNL A   1      38.813  27.693  32.608  1.00  0.00    -0.246 OA
BRANCH   9  11
ATOM     11  C   UNL A   1      40.126  29.562  32.137  1.00  0.00     0.060 A 
ATOM     12  C   UNL A   1      41.272  30.085  32.735  1.00  0.00     0.016 A 
ATOM     13  C   UNL A   1      40.069  29.562  30.732  1.00  0.00     0.016 A 
ATOM     14  C   UNL A   1      42.322  30.602  31.989  1.00  0.00     0.010 A 
ATOM     15  C   UNL A   1      41.123  30.071  29.967  1.00  0.00     0.010 A 
ATOM     16  C   UNL A   1      42.252  30.597  30.603  1.00  0.00    -0.014 A 
BRANCH  16  17
ATOM     17  C   UNL A   1      43.318  31.285  29.861  1.00  0.00     0.031 A 
ATOM     18  C   UNL A   1      44.492  30.469  29.422  1.00  0.00     0.074 A 
ATOM     19  C   UNL A   1      43.163  32.568  29.489  1.00  0.00     0.049 A 
ATOM     20  N   UNL A   1      45.611  30.852  28.873  1.00  0.00    -0.248 NA
ATOM     21  C   UNL A   1      44.383  29.012  29.618  1.00  0.00     0.031 C 
ATOM     22  C   UNL A   1      41.972  33.382  29.742  1.00  0.00     0.029 A 
ATOM     23  N   UNL A   1      44.002  33.408  28.806  1.00  0.00    -0.354 N 
ATOM     24  C   UNL A   1      46.357  29.695  28.708  1.00  0.00     0.074 A 
ATOM     25  C   UNL A   1      45.561  28.589  29.185  1.00  0.00     0.031 C 
ATOM     26  C   UNL A   1      42.160  34.607  29.225  1.00  0.00     0.029 A 
ATOM     27  C   UNL A   1      43.512  34.686  28.684  1.00  0.00     0.049 A 
ATOM     28  H   UNL A   1      44.870  33.124  28.438  1.00  0.00     0.167 HD
ATOM     29  C   UNL A   1      47.613  29.589  28.221  1.00  0.00     0.037 A 
ATOM     30  C   UNL A   1      44.128  35.799  28.244  1.00  0.00     0.037 A 
ATOM     31  C   UNL A   1      48.359  30.717  27.738  1.00  0.00     0.049 A 
ATOM     32  C   UNL A   1      45.564  35.670  27.801  1.00  0.00     0.074 A 
ATOM     33  C   UNL A   1      49.649  30.757  27.247  1.00  0.00     0.029 A 
ATOM     34  N   UNL A   1      47.864  32.013  27.693  1.00  0.00    -0.354 N 
ATOM     35  N   UNL A   1      46.303  34.589  27.702  1.00  0.00    -0.248 NA
ATOM     36  C   UNL A   1      46.263  36.910  27.444  1.00  0.00     0.031 C 
ATOM     37  C   UNL A   1      49.951  32.091  26.952  1.00  0.00     0.029 A 
ATOM     38  C   UNL A   1      48.835  32.873  27.216  1.00  0.00     0.049 A 
ATOM     39  H   UNL A   1      46.954  32.281  27.960  1.00  0.00     0.167 HD
ATOM     40  C   UNL A   1      47.550  35.015  27.273  1.00  0.00     0.074 A 
ATOM     41  C   UNL A   1      47.458  36.452  27.097  1.00  0.00     0.031 C 
ATOM     42  C   UNL A   1      48.681  34.296  27.057  1.00  0.00     0.037 A 
BRANCH  29  43
ATOM     43  C   UNL A   1      48.266  28.243  28.280  1.00  0.00     0.064 A 
ATOM     44  C   UNL A   1      48.159  27.308  27.241  1.00  0.00     0.173 A 
ATOM     45  C   UNL A   1      49.005  27.880  29.416  1.00  0.00     0.173 A 
ATOM     46  F   UNL A   1      47.435  27.594  26.148  1.00  0.00    -0.203 F 
ATOM     47  C   UNL A   1      48.757  26.054  27.344  1.00  0.00     0.198 A 
ATOM     48  C   UNL A   1      49.618  26.635  29.508  1.00  0.00     0.198 A 
ATOM     49  F   UNL A   1      49.124  28.733  30.445  1.00  0.00    -0.203 F 
ATOM     50  F   UNL A   1      48.605  25.158  26.358  1.00  0.00    -0.200 F 
ATOM     51  C   UNL A   1      49.491  25.721  28.473  1.00  0.00     0.200 A 
ATOM     52  F   UNL A   1      50.326  26.316  30.600  1.00  0.00    -0.200 F 
ATOM     53  F   UNL A   1      50.063  24.513  28.571  1.00  0.00    -0.200 F 
ENDBRANCH  29  43
BRANCH  30  54
ATOM     54  C   UNL A   1      43.450  37.125  28.307  1.00  0.00     0.064 A 
ATOM     55  C   UNL A   1      43.585  37.968  29.417  1.00  0.00     0.173 A 
ATOM     56  C   UNL A   1      42.609  37.560  27.267  1.00  0.00     0.173 A 
ATOM     57  F   UNL A   1      44.354  37.594  30.451  1.00  0.00    -0.203 F 
ATOM     58  C   UNL A   1      42.892  39.176  29.498  1.00  0.00     0.198 A 
ATOM     59  C   UNL A   1      41.946  38.783  27.332  1.00  0.00     0.198 A 
ATOM     60  F   UNL A   1      42.430  36.794  26.180  1.00  0.00    -0.203 F 
ATOM     61  F   UNL A   1      42.996  39.933  30.599  1.00  0.00    -0.200 F 
ATOM     62  C   UNL A   1      42.077  39.586  28.453  1.00  0.00     0.200 A 
ATOM     63  F   UNL A   1      41.171  39.178  26.312  1.00  0.00    -0.200 F 
ATOM     64  F   UNL A   1      41.409  40.745  28.533  1.00  0.00    -0.200 F 
ENDBRANCH  30  54
BRANCH  42  65
ATOM     65  C   UNL A   1      49.887  35.058  26.608  1.00  0.00     0.064 A 
ATOM     66  C   UNL A   1      50.031  35.470  25.276  1.00  0.00     0.173 A 
ATOM     67  C   UNL A   1      50.869  35.442  27.534  1.00  0.00     0.173 A 
ATOM     68  F   UNL A   1      49.124  35.110  24.356  1.00  0.00    -0.203 F 
ATOM     69  C   UNL A   1      51.125  36.233  24.883  1.00  0.00     0.198 A 
ATOM     70  C   UNL A   1      51.945  36.229  27.143  1.00  0.00     0.198 A 
ATOM     71  F   UNL A   1      50.766  35.075  28.820  1.00  0.00    -0.203 F 
ATOM     72  F   UNL A   1      51.264  36.589  23.599  1.00  0.00    -0.200 F 
ATOM     73  C   UNL A   1      52.075  36.621  25.818  1.00  0.00     0.200 A 
ATOM     74  F   UNL A   1      52.853  36.616  28.049  1.00  0.00    -0.200 F 
ATOM     75  F   UNL A   1      53.118  37.371  25.441  1.00  0.00    -0.200 F 
ENDBRANCH  42  65
ENDBRANCH  16  17
ENDBRANCH   9  11
ENDBRANCH   8   9
ENDBRANCH   7   8
ENDBRANCH   6   7
ENDBRANCH   5   6
ENDBRANCH   4   5
ENDBRANCH   3   4
ENDBRANCH   2   3
ENDBRANCH   1   2
BRANCH   1  76
ATOM     76  C   UNL A   1      34.681  32.834  32.339  1.00  0.00     0.188 C 
BRANCH  76  77
ATOM     77  O   UNL A   1      34.127  33.310  31.124  1.00  0.00    -0.376 OA
BRANCH  77  78
ATOM     78  C   UNL A   1      34.954  33.146  29.980  1.00  0.00     0.202 C 
BRANCH  78  79
ATOM     79  C   UNL A   1      35.195  31.720  29.436  1.00  0.00     0.261 C 
BRANCH  79  80
ATOM     80  O   UNL A   1      34.986  31.565  28.016  1.00  0.00    -0.463 OA
BRANCH  80  81
ATOM     81  C   UNL A   1      33.726  31.554  27.522  1.00  0.00     0.310 C 
ATOM     82  O   UNL A   1      32.939  32.486  27.631  1.00  0.00    -0.252 OA
BRANCH  81  83
ATOM     83  C   UNL A   1      33.437  30.332  26.646  1.00  0.00     0.119 C 
ATOM     84  C   UNL A   1      33.810  29.088  27.469  1.00  0.00     0.019 C 
ATOM     85  C   UNL A   1      32.043  30.290  25.968  1.00  0.00     0.134 C 
ATOM     86  C   UNL A   1      33.309  27.798  26.854  1.00  0.00     0.022 C 
ATOM     87  N   UNL A   1      31.679  28.941  25.465  1.00  0.00    -0.342 N 
ATOM     88  C   UNL A   1      31.853  27.889  26.436  1.00  0.00     0.119 C 
BRANCH  87  89
ATOM     89  C   UNL A   1      30.914  28.809  24.315  1.00  0.00     0.225 C 
ATOM     90  O   UNL A   1      30.223  29.762  23.932  1.00  0.00    -0.275 OA
BRANCH  89  91
ATOM     91  C   UNL A   1      30.938  27.532  23.414  1.00  0.00     0.081 C 
ATOM     92  C   UNL A   1      30.120  26.307  23.796  1.00  0.00     0.030 C 
ATOM     93  C   UNL A   1      32.262  27.116  22.798  1.00  0.00     0.030 C 
ATOM     94  C   UNL A   1      30.848  25.181  24.515  1.00  0.00     0.103 C 
ATOM     95  C   UNL A   1      33.046  26.075  23.570  1.00  0.00     0.103 C 
ATOM     96  N   UNL A   1      32.283  24.936  24.129  1.00  0.00    -0.198 NA
BRANCH  96  97
ATOM     97  S   UNL A   1      33.071  24.065  25.434  1.00  0.00     0.243 S 
ATOM     98  O   UNL A   1      34.416  24.621  25.560  1.00  0.00    -0.207 OA
ATOM     99  O   UNL A   1      32.177  24.100  26.557  1.00  0.00    -0.207 OA
BRANCH  97 100
ATOM    100  C   UNL A   1      33.304  22.369  24.937  1.00  0.00     0.082 A 
ATOM    101  C   UNL A   1      32.196  21.595  24.583  1.00  0.00     0.022 A 
ATOM    102  C   UNL A   1      34.545  21.746  25.137  1.00  0.00     0.022 A 
ATOM    103  C   UNL A   1      32.349  20.218  24.387  1.00  0.00     0.001 A 
ATOM    104  C   UNL A   1      34.702  20.381  24.903  1.00  0.00     0.001 A 
ATOM    105  C   UNL A   1      33.601  19.616  24.533  1.00  0.00     0.000 A 
ENDBRANCH  97 100
ENDBRANCH  96  97
ENDBRANCH  89  91
ENDBRANCH  87  89
ENDBRANCH  81  83
ENDBRANCH  80  81
ENDBRANCH  79  80
ENDBRANCH  78  79
ENDBRANCH  77  78
ENDBRANCH  76  77
ENDBRANCH   1  76
TORSDOF 24
ENDMDL
