MODEL 1
REMARK VINA RESULT:     -11.0      0.000      0.000
REMARK SMILES Cc1ccccc1C(=O)Nc1ccc(N2CCCCC2)cc1C(=O)OCCOCCOCCOCCOC(=O)c1ccc(-c2c3nc(c(-c4c(F)c(F)c(F)c(F)c4F)c4ccc([nH]4)c(-c4c(F)c(F)c(F)c(F)c4F)c4nc(c(-c5c(F)c(F)c(F)c(F)c5F)c5ccc2[nH]5)C=C4)C=C3)cc1
REMARK SMILES IDX 31 1 30 2 29 3 28 4 27 5 26 6 25 7 23 8 24 9 22 10 11 11
REMARK SMILES IDX 12 12 13 13 21 14 14 15 10 16 8 17 9 18 7 20 1 21 2 22 3 23
REMARK SMILES IDX 4 24 6 25 5 26 15 27 16 28 20 29 17 30 19 31 18 32 32 33
REMARK SMILES IDX 33 34 34 35 35 36 36 37 37 38 38 39 39 40 40 41 41 42 102 43
REMARK SMILES IDX 42 44 101 45 43 46 44 47 45 48 95 49 46 50 100 51 94 52
REMARK SMILES IDX 96 53 47 54 99 55 93 56 92 57 48 59 80 60 60 61 79 62 61 63
REMARK SMILES IDX 64 64 78 65 97 66 62 67 63 68 77 70 98 71 65 72 49 73 50 74
REMARK SMILES IDX 58 75 51 76 52 77 56 78 59 79 53 80 54 81 57 82 55 83 81 84
REMARK SMILES IDX 82 85 90 86 83 87 84 88 88 89 91 90 85 91 86 92 89 93 87 94
REMARK SMILES IDX 66 95 67 96 75 97 68 98 69 99 73 100 76 101 70 102 71 103
REMARK SMILES IDX 74 104 72 105
REMARK H PARENT 10 19 96 58 64 69
REMARK Flexibility Score: inf
ROOT
ATOM      1  O   UNL A   1      44.268  22.572  27.795  1.00  0.00    -0.377 OA
ENDROOT
BRANCH   1   2
ATOM      2  C   UNL A   1      43.360  22.851  26.715  1.00  0.00     0.188 C 
BRANCH   2   3
ATOM      3  C   UNL A   1      41.931  22.493  27.115  1.00  0.00     0.188 C 
BRANCH   3   4
ATOM      4  O   UNL A   1      41.005  21.989  26.174  1.00  0.00    -0.376 OA
BRANCH   4   5
ATOM      5  C   UNL A   1      39.679  21.953  26.626  1.00  0.00     0.202 C 
BRANCH   5   6
ATOM      6  C   UNL A   1      38.522  21.829  25.621  1.00  0.00     0.261 C 
BRANCH   6   7
ATOM      7  O   UNL A   1      37.702  22.958  25.380  1.00  0.00    -0.460 OA
BRANCH   7   8
ATOM      8  C   UNL A   1      36.691  22.679  24.532  1.00  0.00     0.340 C 
ATOM      9  O   UNL A   1      36.704  22.687  23.307  1.00  0.00    -0.246 OA
BRANCH   8  10
ATOM     10  C   UNL A   1      35.592  22.118  25.301  1.00  0.00     0.085 A 
ATOM     11  C   UNL A   1      34.788  23.015  26.010  1.00  0.00     0.056 A 
ATOM     12  C   UNL A   1      33.793  22.527  26.827  1.00  0.00     0.029 A 
ATOM     13  C   UNL A   1      33.420  21.198  26.692  1.00  0.00     0.028 A 
ATOM     14  C   UNL A   1      35.150  20.808  25.077  1.00  0.00     0.043 A 
ATOM     15  C   UNL A   1      33.942  20.400  25.654  1.00  0.00     0.038 A 
BRANCH  11  16
ATOM     16  N   UNL A   1      34.885  24.385  25.774  1.00  0.00    -0.321 N 
ATOM     17  C   UNL A   1      33.888  25.322  25.593  1.00  0.00     0.255 C 
ATOM     18  O   UNL A   1      34.195  26.481  25.904  1.00  0.00    -0.269 OA
ATOM     19  H   UNL A   1      35.803  24.737  25.732  1.00  0.00     0.170 HD
BRANCH  17  20
ATOM     20  C   UNL A   1      32.555  25.111  24.829  1.00  0.00     0.043 A 
ATOM     21  C   UNL A   1      33.068  23.533  22.804  1.00  0.00     0.045 C 
ATOM     22  C   UNL A   1      32.185  24.297  23.732  1.00  0.00    -0.038 A 
ATOM     23  C   UNL A   1      30.843  24.269  23.268  1.00  0.00     0.004 A 
ATOM     24  C   UNL A   1      29.923  25.214  23.670  1.00  0.00     0.000 A 
ATOM     25  C   UNL A   1      31.595  26.104  25.157  1.00  0.00     0.014 A 
ATOM     26  C   UNL A   1      30.329  26.187  24.561  1.00  0.00     0.001 A 
ENDBRANCH  17  20
ENDBRANCH  11  16
BRANCH  15  27
ATOM     27  N   UNL A   1      33.155  19.409  25.102  1.00  0.00    -0.372 N 
ATOM     28  C   UNL A   1      32.791  18.216  25.884  1.00  0.00     0.116 C 
ATOM     29  C   UNL A   1      32.497  19.487  23.808  1.00  0.00     0.116 C 
ATOM     30  C   UNL A   1      33.302  16.988  25.154  1.00  0.00     0.021 C 
ATOM     31  C   UNL A   1      33.032  18.313  22.989  1.00  0.00     0.021 C 
ATOM     32  C   UNL A   1      32.814  16.972  23.704  1.00  0.00     0.004 C 
ENDBRANCH  15  27
ENDBRANCH   8  10
ENDBRANCH   7   8
ENDBRANCH   6   7
ENDBRANCH   5   6
ENDBRANCH   4   5
ENDBRANCH   3   4
ENDBRANCH   2   3
ENDBRANCH   1   2
BRANCH   1  33
ATOM     33  C   UNL A   1      45.115  23.654  28.194  1.00  0.00     0.188 C 
BRANCH  33  34
ATOM     34  C   UNL A   1      44.474  24.690  29.110  1.00  0.00     0.188 C 
BRANCH  34  35
ATOM     35  O   UNL A   1      44.908  24.437  30.436  1.00  0.00    -0.376 OA
BRANCH  35  36
ATOM     36  C   UNL A   1      44.013  23.709  31.263  1.00  0.00     0.202 C 
BRANCH  36  37
ATOM     37  C   UNL A   1      44.703  23.239  32.540  1.00  0.00     0.261 C 
BRANCH  37  38
ATOM     38  O   UNL A   1      43.691  23.116  33.567  1.00  0.00    -0.460 OA
BRANCH  38  39
ATOM     39  C   UNL A   1      44.039  23.621  34.781  1.00  0.00     0.338 C 
ATOM     40  O   UNL A   1      44.502  22.966  35.703  1.00  0.00    -0.246 OA
BRANCH  39  41
ATOM     41  C   UNL A   1      43.536  25.023  34.943  1.00  0.00     0.060 A 
ATOM     42  C   UNL A   1      42.187  25.248  35.267  1.00  0.00     0.016 A 
ATOM     43  C   UNL A   1      44.299  26.087  34.479  1.00  0.00     0.016 A 
ATOM     44  C   UNL A   1      41.572  26.484  34.979  1.00  0.00     0.010 A 
ATOM     45  C   UNL A   1      43.665  27.267  34.110  1.00  0.00     0.010 A 
ATOM     46  C   UNL A   1      42.286  27.483  34.309  1.00  0.00    -0.014 A 
BRANCH  46  47
ATOM     47  C   UNL A   1      41.677  28.635  33.568  1.00  0.00     0.031 A 
ATOM     48  C   UNL A   1      41.012  29.779  34.350  1.00  0.00     0.074 A 
ATOM     49  C   UNL A   1      42.140  28.812  32.299  1.00  0.00     0.049 A 
ATOM     50  N   UNL A   1      40.503  30.884  33.879  1.00  0.00    -0.248 NA
ATOM     51  C   UNL A   1      40.826  29.706  35.806  1.00  0.00     0.031 C 
ATOM     52  C   UNL A   1      42.728  30.001  31.719  1.00  0.00     0.029 A 
ATOM     53  N   UNL A   1      42.296  27.914  31.239  1.00  0.00    -0.354 N 
ATOM     54  C   UNL A   1      40.213  31.753  34.955  1.00  0.00     0.074 A 
ATOM     55  C   UNL A   1      40.356  30.917  36.116  1.00  0.00     0.031 C 
ATOM     56  C   UNL A   1      42.811  29.951  30.392  1.00  0.00     0.029 A 
ATOM     57  C   UNL A   1      42.308  28.675  30.035  1.00  0.00     0.049 A 
ATOM     58  H   UNL A   1      42.381  26.935  31.312  1.00  0.00     0.167 HD
ATOM     59  C   UNL A   1      40.031  33.117  34.778  1.00  0.00     0.037 A 
ATOM     60  C   UNL A   1      41.429  28.472  29.028  1.00  0.00     0.037 A 
ATOM     61  C   UNL A   1      39.865  33.498  33.350  1.00  0.00     0.049 A 
ATOM     62  C   UNL A   1      40.292  29.491  29.029  1.00  0.00     0.074 A 
ATOM     63  C   UNL A   1      40.193  34.584  32.539  1.00  0.00     0.029 A 
ATOM     64  N   UNL A   1      39.341  32.566  32.464  1.00  0.00    -0.354 N 
ATOM     65  N   UNL A   1      40.243  30.618  29.717  1.00  0.00    -0.248 NA
ATOM     66  C   UNL A   1      39.068  29.260  28.267  1.00  0.00     0.031 C 
ATOM     67  C   UNL A   1      39.912  34.259  31.178  1.00  0.00     0.029 A 
ATOM     68  C   UNL A   1      39.330  33.010  31.166  1.00  0.00     0.049 A 
ATOM     69  H   UNL A   1      39.012  31.679  32.738  1.00  0.00     0.167 HD
ATOM     70  C   UNL A   1      38.984  31.182  29.576  1.00  0.00     0.074 A 
ATOM     71  C   UNL A   1      38.302  30.291  28.654  1.00  0.00     0.031 C 
ATOM     72  C   UNL A   1      38.505  32.293  30.227  1.00  0.00     0.037 A 
BRANCH  59  73
ATOM     73  C   UNL A   1      40.212  34.226  35.881  1.00  0.00     0.064 A 
ATOM     74  C   UNL A   1      41.417  34.977  35.973  1.00  0.00     0.173 A 
ATOM     75  C   UNL A   1      39.330  34.501  36.955  1.00  0.00     0.173 A 
ATOM     76  F   UNL A   1      42.300  35.004  34.968  1.00  0.00    -0.203 F 
ATOM     77  C   UNL A   1      41.764  35.781  37.074  1.00  0.00     0.198 A 
ATOM     78  C   UNL A   1      39.633  35.395  38.006  1.00  0.00     0.198 A 
ATOM     79  F   UNL A   1      38.138  33.913  37.071  1.00  0.00    -0.203 F 
ATOM     80  F   UNL A   1      42.976  36.354  37.128  1.00  0.00    -0.200 F 
ATOM     81  C   UNL A   1      40.866  36.000  38.090  1.00  0.00     0.200 A 
ATOM     82  F   UNL A   1      38.711  35.649  38.946  1.00  0.00    -0.200 F 
ATOM     83  F   UNL A   1      41.171  36.802  39.119  1.00  0.00    -0.200 F 
ENDBRANCH  59  73
BRANCH  60  84
ATOM     84  C   UNL A   1      41.562  27.029  28.618  1.00  0.00     0.064 A 
ATOM     85  C   UNL A   1      40.331  26.328  28.768  1.00  0.00     0.173 A 
ATOM     86  C   UNL A   1      42.315  26.739  27.469  1.00  0.00     0.173 A 
ATOM     87  F   UNL A   1      39.580  26.530  29.864  1.00  0.00    -0.203 F 
ATOM     88  C   UNL A   1      39.730  25.694  27.676  1.00  0.00     0.198 A 
ATOM     89  C   UNL A   1      41.715  26.080  26.385  1.00  0.00     0.198 A 
ATOM     90  F   UNL A   1      43.499  27.340  27.283  1.00  0.00    -0.203 F 
ATOM     91  F   UNL A   1      38.445  25.312  27.747  1.00  0.00    -0.200 F 
ATOM     92  C   UNL A   1      40.402  25.629  26.468  1.00  0.00     0.200 A 
ATOM     93  F   UNL A   1      42.339  26.048  25.199  1.00  0.00    -0.200 F 
ATOM     94  F   UNL A   1      39.751  25.235  25.362  1.00  0.00    -0.200 F 
ENDBRANCH  60  84
BRANCH  72  95
ATOM     95  C   UNL A   1      37.087  32.823  30.136  1.00  0.00     0.064 A 
ATOM     96  C   UNL A   1      36.104  32.540  31.085  1.00  0.00     0.173 A 
ATOM     97  C   UNL A   1      36.647  33.547  28.991  1.00  0.00     0.173 A 
ATOM     98  F   UNL A   1      36.374  31.748  32.133  1.00  0.00    -0.203 F 
ATOM     99  C   UNL A   1      34.808  33.048  30.963  1.00  0.00     0.198 A 
ATOM    100  C   UNL A   1      35.338  33.988  28.839  1.00  0.00     0.198 A 
ATOM    101  F   UNL A   1      37.472  33.869  27.986  1.00  0.00    -0.203 F 
ATOM    102  F   UNL A   1      33.921  32.833  31.943  1.00  0.00    -0.200 F 
ATOM    103  C   UNL A   1      34.426  33.771  29.844  1.00  0.00     0.200 A 
ATOM    104  F   UNL A   1      34.980  34.637  27.721  1.00  0.00    -0.200 F 
ATOM    105  F   UNL A   1      33.183  34.258  29.737  1.00  0.00    -0.200 F 
ENDBRANCH  72  95
ENDBRANCH  46  47
ENDBRANCH  39  41
ENDBRANCH  38  39
ENDBRANCH  37  38
ENDBRANCH  36  37
ENDBRANCH  35  36
ENDBRANCH  34  35
ENDBRANCH  33  34
ENDBRANCH   1  33
TORSDOF 23
ENDMDL
MODEL 2
REMARK VINA RESULT:     -10.7      4.053      7.414
REMARK SMILES Cc1ccccc1C(=O)Nc1ccc(N2CCCCC2)cc1C(=O)OCCOCCOCCOCCOC(=O)c1ccc(-c2c3nc(c(-c4c(F)c(F)c(F)c(F)c4F)c4ccc([nH]4)c(-c4c(F)c(F)c(F)c(F)c4F)c4nc(c(-c5c(F)c(F)c(F)c(F)c5F)c5ccc2[nH]5)C=C4)C=C3)cc1
REMARK SMILES IDX 31 1 30 2 29 3 28 4 27 5 26 6 25 7 23 8 24 9 22 10 11 11
REMARK SMILES IDX 12 12 13 13 21 14 14 15 10 16 8 17 9 18 7 20 1 21 2 22 3 23
REMARK SMILES IDX 4 24 6 25 5 26 15 27 16 28 20 29 17 30 19 31 18 32 32 33
REMARK SMILES IDX 33 34 34 35 35 36 36 37 37 38 38 39 39 40 40 41 41 42 102 43
REMARK SMILES IDX 42 44 101 45 43 46 44 47 45 48 95 49 46 50 100 51 94 52
REMARK SMILES IDX 96 53 47 54 99 55 93 56 92 57 48 59 80 60 60 61 79 62 61 63
REMARK SMILES IDX 64 64 78 65 97 66 62 67 63 68 77 70 98 71 65 72 49 73 50 74
REMARK SMILES IDX 58 75 51 76 52 77 56 78 59 79 53 80 54 81 57 82 55 83 81 84
REMARK SMILES IDX 82 85 90 86 83 87 84 88 88 89 91 90 85 91 86 92 89 93 87 94
REMARK SMILES IDX 66 95 67 96 75 97 68 98 69 99 73 100 76 101 70 102 71 103
REMARK SMILES IDX 74 104 72 105
REMARK H PARENT 10 19 96 58 64 69
REMARK Flexibility Score: inf
ROOT
ATOM      1  O   UNL A   1      37.357  22.718  24.446  1.00  0.00    -0.377 OA
ENDROOT
BRANCH   1   2
ATOM      2  C   UNL A   1      36.049  23.299  24.594  1.00  0.00     0.188 C 
BRANCH   2   3
ATOM      3  C   UNL A   1      35.244  22.534  25.642  1.00  0.00     0.188 C 
BRANCH   3   4
ATOM      4  O   UNL A   1      34.993  23.079  26.922  1.00  0.00    -0.376 OA
BRANCH   4   5
ATOM      5  C   UNL A   1      34.376  22.196  27.818  1.00  0.00     0.202 C 
BRANCH   5   6
ATOM      6  C   UNL A   1      32.848  22.211  27.991  1.00  0.00     0.261 C 
BRANCH   6   7
ATOM      7  O   UNL A   1      32.141  23.407  27.711  1.00  0.00    -0.460 OA
BRANCH   7   8
ATOM      8  C   UNL A   1      31.027  23.178  26.985  1.00  0.00     0.340 C 
ATOM      9  O   UNL A   1      29.860  23.373  27.303  1.00  0.00    -0.246 OA
BRANCH   8  10
ATOM     10  C   UNL A   1      31.427  22.870  25.621  1.00  0.00     0.085 A 
ATOM     11  C   UNL A   1      32.005  23.902  24.878  1.00  0.00     0.056 A 
ATOM     12  C   UNL A   1      32.315  23.689  23.553  1.00  0.00     0.029 A 
ATOM     13  C   UNL A   1      32.330  22.385  23.082  1.00  0.00     0.028 A 
ATOM     14  C   UNL A   1      31.547  21.544  25.188  1.00  0.00     0.043 A 
ATOM     15  C   UNL A   1      32.171  21.293  23.960  1.00  0.00     0.038 A 
BRANCH  11  16
ATOM     16  N   UNL A   1      32.409  25.080  25.505  1.00  0.00    -0.321 N 
ATOM     17  C   UNL A   1      31.704  26.246  25.729  1.00  0.00     0.255 C 
ATOM     18  O   UNL A   1      32.085  26.908  26.705  1.00  0.00    -0.269 OA
ATOM     19  H   UNL A   1      33.335  25.080  25.839  1.00  0.00     0.170 HD
BRANCH  17  20
ATOM     20  C   UNL A   1      30.686  26.906  24.764  1.00  0.00     0.043 A 
ATOM     21  C   UNL A   1      31.482  29.368  24.370  1.00  0.00     0.045 C 
ATOM     22  C   UNL A   1      30.637  28.165  24.120  1.00  0.00    -0.038 A 
ATOM     23  C   UNL A   1      29.581  28.484  23.226  1.00  0.00     0.004 A 
ATOM     24  C   UNL A   1      28.439  27.714  23.160  1.00  0.00     0.000 A 
ATOM     25  C   UNL A   1      29.463  26.188  24.715  1.00  0.00     0.014 A 
ATOM     26  C   UNL A   1      28.349  26.602  23.972  1.00  0.00     0.001 A 
ENDBRANCH  17  20
ENDBRANCH  11  16
BRANCH  15  27
ATOM     27  N   UNL A   1      32.822  20.107  23.688  1.00  0.00    -0.372 N 
ATOM     28  C   UNL A   1      32.592  19.396  22.420  1.00  0.00     0.116 C 
ATOM     29  C   UNL A   1      33.874  19.523  24.507  1.00  0.00     0.116 C 
ATOM     30  C   UNL A   1      32.064  18.009  22.735  1.00  0.00     0.021 C 
ATOM     31  C   UNL A   1      33.368  18.144  24.926  1.00  0.00     0.021 C 
ATOM     32  C   UNL A   1      32.990  17.282  23.712  1.00  0.00     0.004 C 
ENDBRANCH  15  27
ENDBRANCH   8  10
ENDBRANCH   7   8
ENDBRANCH   6   7
ENDBRANCH   5   6
ENDBRANCH   4   5
ENDBRANCH   3   4
ENDBRANCH   2   3
ENDBRANCH   1   2
BRANCH   1  33
ATOM     33  C   UNL A   1      37.671  21.649  25.342  1.00  0.00     0.188 C 
BRANCH  33  34
ATOM     34  C   UNL A   1      38.024  20.319  24.684  1.00  0.00     0.188 C 
BRANCH  34  35
ATOM     35  O   UNL A   1      38.626  19.487  25.663  1.00  0.00    -0.376 OA
BRANCH  35  36
ATOM     36  C   UNL A   1      40.042  19.408  25.638  1.00  0.00     0.202 C 
BRANCH  36  37
ATOM     37  C   UNL A   1      40.645  19.920  26.944  1.00  0.00     0.261 C 
BRANCH  37  38
ATOM     38  O   UNL A   1      42.081  19.770  26.853  1.00  0.00    -0.460 OA
BRANCH  38  39
ATOM     39  C   UNL A   1      42.693  20.605  25.971  1.00  0.00     0.338 C 
ATOM     40  O   UNL A   1      43.610  20.288  25.230  1.00  0.00    -0.246 OA
BRANCH  39  41
ATOM     41  C   UNL A   1      42.287  22.028  26.210  1.00  0.00     0.060 A 
ATOM     42  C   UNL A   1      42.518  22.997  25.220  1.00  0.00     0.016 A 
ATOM     43  C   UNL A   1      41.975  22.449  27.497  1.00  0.00     0.016 A 
ATOM     44  C   UNL A   1      42.593  24.365  25.551  1.00  0.00     0.010 A 
ATOM     45  C   UNL A   1      42.144  23.786  27.833  1.00  0.00     0.010 A 
ATOM     46  C   UNL A   1      42.496  24.769  26.887  1.00  0.00    -0.014 A 
BRANCH  46  47
ATOM     47  C   UNL A   1      42.974  26.081  27.432  1.00  0.00     0.031 A 
ATOM     48  C   UNL A   1      41.955  27.165  27.816  1.00  0.00     0.074 A 
ATOM     49  C   UNL A   1      44.229  26.060  27.963  1.00  0.00     0.049 A 
ATOM     50  N   UNL A   1      42.184  28.324  28.369  1.00  0.00    -0.248 NA
ATOM     51  C   UNL A   1      40.522  27.007  27.528  1.00  0.00     0.031 C 
ATOM     52  C   UNL A   1      44.644  26.454  29.293  1.00  0.00     0.029 A 
ATOM     53  N   UNL A   1      45.436  25.566  27.462  1.00  0.00    -0.354 N 
ATOM     54  C   UNL A   1      40.955  28.899  28.762  1.00  0.00     0.074 A 
ATOM     55  C   UNL A   1      39.970  28.066  28.125  1.00  0.00     0.031 C 
ATOM     56  C   UNL A   1      45.962  26.591  29.412  1.00  0.00     0.029 A 
ATOM     57  C   UNL A   1      46.489  26.242  28.143  1.00  0.00     0.049 A 
ATOM     58  H   UNL A   1      45.540  24.878  26.764  1.00  0.00     0.167 HD
ATOM     59  C   UNL A   1      40.879  29.920  29.699  1.00  0.00     0.037 A 
ATOM     60  C   UNL A   1      47.438  26.961  27.503  1.00  0.00     0.037 A 
ATOM     61  C   UNL A   1      42.201  30.533  29.994  1.00  0.00     0.049 A 
ATOM     62  C   UNL A   1      47.166  28.462  27.550  1.00  0.00     0.074 A 
ATOM     63  C   UNL A   1      42.839  31.101  31.097  1.00  0.00     0.029 A 
ATOM     64  N   UNL A   1      43.187  30.505  29.016  1.00  0.00    -0.354 N 
ATOM     65  N   UNL A   1      46.294  29.082  28.324  1.00  0.00    -0.248 NA
ATOM     66  C   UNL A   1      47.850  29.383  26.647  1.00  0.00     0.031 C 
ATOM     67  C   UNL A   1      44.207  31.350  30.775  1.00  0.00     0.029 A 
ATOM     68  C   UNL A   1      44.384  31.017  29.449  1.00  0.00     0.049 A 
ATOM     69  H   UNL A   1      43.042  30.155  28.108  1.00  0.00     0.167 HD
ATOM     70  C   UNL A   1      46.229  30.418  27.957  1.00  0.00     0.074 A 
ATOM     71  C   UNL A   1      47.230  30.543  26.912  1.00  0.00     0.031 C 
ATOM     72  C   UNL A   1      45.359  31.362  28.446  1.00  0.00     0.037 A 
BRANCH  59  73
ATOM     73  C   UNL A   1      39.621  30.281  30.575  1.00  0.00     0.064 A 
ATOM     74  C   UNL A   1      39.120  29.369  31.545  1.00  0.00     0.173 A 
ATOM     75  C   UNL A   1      38.780  31.410  30.420  1.00  0.00     0.173 A 
ATOM     76  F   UNL A   1      39.852  28.334  31.974  1.00  0.00    -0.203 F 
ATOM     77  C   UNL A   1      37.865  29.492  32.169  1.00  0.00     0.198 A 
ATOM     78  C   UNL A   1      37.573  31.588  31.129  1.00  0.00     0.198 A 
ATOM     79  F   UNL A   1      39.057  32.396  29.566  1.00  0.00    -0.203 F 
ATOM     80  F   UNL A   1      37.423  28.518  32.980  1.00  0.00    -0.200 F 
ATOM     81  C   UNL A   1      37.092  30.609  31.969  1.00  0.00     0.200 A 
ATOM     82  F   UNL A   1      36.872  32.721  30.973  1.00  0.00    -0.200 F 
ATOM     83  F   UNL A   1      35.916  30.755  32.596  1.00  0.00    -0.200 F 
ENDBRANCH  59  73
BRANCH  60  84
ATOM     84  C   UNL A   1      48.099  26.030  26.520  1.00  0.00     0.064 A 
ATOM     85  C   UNL A   1      47.839  26.422  25.175  1.00  0.00     0.173 A 
ATOM     86  C   UNL A   1      49.401  25.589  26.806  1.00  0.00     0.173 A 
ATOM     87  F   UNL A   1      46.603  26.818  24.826  1.00  0.00    -0.203 F 
ATOM     88  C   UNL A   1      48.888  26.715  24.298  1.00  0.00     0.198 A 
ATOM     89  C   UNL A   1      50.447  25.864  25.911  1.00  0.00     0.198 A 
ATOM     90  F   UNL A   1      49.704  25.176  28.044  1.00  0.00    -0.203 F 
ATOM     91  F   UNL A   1      48.642  27.372  23.154  1.00  0.00    -0.200 F 
ATOM     92  C   UNL A   1      50.194  26.493  24.696  1.00  0.00     0.200 A 
ATOM     93  F   UNL A   1      51.718  25.693  26.303  1.00  0.00    -0.200 F 
ATOM     94  F   UNL A   1      51.208  26.982  23.965  1.00  0.00    -0.200 F 
ENDBRANCH  60  84
BRANCH  72  95
ATOM     95  C   UNL A   1      45.238  32.789  27.947  1.00  0.00     0.064 A 
ATOM     96  C   UNL A   1      45.788  33.882  28.618  1.00  0.00     0.173 A 
ATOM     97  C   UNL A   1      44.434  33.103  26.814  1.00  0.00     0.173 A 
ATOM     98  F   UNL A   1      46.446  33.714  29.773  1.00  0.00    -0.203 F 
ATOM     99  C   UNL A   1      45.651  35.182  28.123  1.00  0.00     0.198 A 
ATOM    100  C   UNL A   1      44.240  34.405  26.368  1.00  0.00     0.198 A 
ATOM    101  F   UNL A   1      43.820  32.160  26.087  1.00  0.00    -0.203 F 
ATOM    102  F   UNL A   1      46.275  36.192  28.744  1.00  0.00    -0.200 F 
ATOM    103  C   UNL A   1      44.881  35.443  27.001  1.00  0.00     0.200 A 
ATOM    104  F   UNL A   1      43.444  34.636  25.313  1.00  0.00    -0.200 F 
ATOM    105  F   UNL A   1      44.758  36.691  26.532  1.00  0.00    -0.200 F 
ENDBRANCH  72  95
ENDBRANCH  46  47
ENDBRANCH  39  41
ENDBRANCH  38  39
ENDBRANCH  37  38
ENDBRANCH  36  37
ENDBRANCH  35  36
ENDBRANCH  34  35
ENDBRANCH  33  34
ENDBRANCH   1  33
TORSDOF 23
ENDMDL
MODEL 3
REMARK VINA RESULT:     -10.5      4.122     10.871
REMARK SMILES Cc1ccccc1C(=O)Nc1ccc(N2CCCCC2)cc1C(=O)OCCOCCOCCOCCOC(=O)c1ccc(-c2c3nc(c(-c4c(F)c(F)c(F)c(F)c4F)c4ccc([nH]4)c(-c4c(F)c(F)c(F)c(F)c4F)c4nc(c(-c5c(F)c(F)c(F)c(F)c5F)c5ccc2[nH]5)C=C4)C=C3)cc1
REMARK SMILES IDX 31 1 30 2 29 3 28 4 27 5 26 6 25 7 23 8 24 9 22 10 11 11
REMARK SMILES IDX 12 12 13 13 21 14 14 15 10 16 8 17 9 18 7 20 1 21 2 22 3 23
REMARK SMILES IDX 4 24 6 25 5 26 15 27 16 28 20 29 17 30 19 31 18 32 32 33
REMARK SMILES IDX 33 34 34 35 35 36 36 37 37 38 38 39 39 40 40 41 41 42 102 43
REMARK SMILES IDX 42 44 101 45 43 46 44 47 45 48 95 49 46 50 100 51 94 52
REMARK SMILES IDX 96 53 47 54 99 55 93 56 92 57 48 59 80 60 60 61 79 62 61 63
REMARK SMILES IDX 64 64 78 65 97 66 62 67 63 68 77 70 98 71 65 72 49 73 50 74
REMARK SMILES IDX 58 75 51 76 52 77 56 78 59 79 53 80 54 81 57 82 55 83 81 84
REMARK SMILES IDX 82 85 90 86 83 87 84 88 88 89 91 90 85 91 86 92 89 93 87 94
REMARK SMILES IDX 66 95 67 96 75 97 68 98 69 99 73 100 76 101 70 102 71 103
REMARK SMILES IDX 74 104 72 105
REMARK H PARENT 10 19 96 58 64 69
REMARK Flexibility Score: inf
ROOT
ATOM      1  O   UNL A   1      34.167  31.863  27.890  1.00  0.00    -0.377 OA
ENDROOT
BRANCH   1   2
ATOM      2  C   UNL A   1      32.985  31.563  27.128  1.00  0.00     0.188 C 
BRANCH   2   3
ATOM      3  C   UNL A   1      32.657  30.074  27.217  1.00  0.00     0.188 C 
BRANCH   3   4
ATOM      4  O   UNL A   1      32.997  29.180  26.177  1.00  0.00    -0.376 OA
BRANCH   4   5
ATOM      5  C   UNL A   1      33.486  27.941  26.612  1.00  0.00     0.202 C 
BRANCH   5   6
ATOM      6  C   UNL A   1      32.603  26.686  26.520  1.00  0.00     0.261 C 
BRANCH   6   7
ATOM      7  O   UNL A   1      31.272  26.750  27.003  1.00  0.00    -0.460 OA
BRANCH   7   8
ATOM      8  C   UNL A   1      30.421  26.034  26.239  1.00  0.00     0.340 C 
ATOM      9  O   UNL A   1      29.531  25.275  26.602  1.00  0.00    -0.246 OA
BRANCH   8  10
ATOM     10  C   UNL A   1      30.557  26.482  24.863  1.00  0.00     0.085 A 
ATOM     11  C   UNL A   1      30.792  25.503  23.894  1.00  0.00     0.056 A 
ATOM     12  C   UNL A   1      31.021  25.884  22.591  1.00  0.00     0.029 A 
ATOM     13  C   UNL A   1      30.712  27.184  22.220  1.00  0.00     0.028 A 
ATOM     14  C   UNL A   1      30.136  27.761  24.476  1.00  0.00     0.043 A 
ATOM     15  C   UNL A   1      30.052  28.055  23.110  1.00  0.00     0.038 A 
BRANCH  11  16
ATOM     16  N   UNL A   1      30.644  24.153  24.208  1.00  0.00    -0.321 N 
ATOM     17  C   UNL A   1      31.552  23.270  24.757  1.00  0.00     0.255 C 
ATOM     18  O   UNL A   1      31.051  22.326  25.384  1.00  0.00    -0.269 OA
ATOM     19  H   UNL A   1      29.758  23.773  24.009  1.00  0.00     0.170 HD
BRANCH  17  20
ATOM     20  C   UNL A   1      33.072  23.211  24.460  1.00  0.00     0.043 A 
ATOM     21  C   UNL A   1      33.350  23.213  21.857  1.00  0.00     0.045 C 
ATOM     22  C   UNL A   1      33.831  23.284  23.267  1.00  0.00    -0.038 A 
ATOM     23  C   UNL A   1      35.250  23.253  23.305  1.00  0.00     0.004 A 
ATOM     24  C   UNL A   1      35.931  22.880  24.445  1.00  0.00     0.000 A 
ATOM     25  C   UNL A   1      33.813  22.762  25.585  1.00  0.00     0.014 A 
ATOM     26  C   UNL A   1      35.199  22.555  25.569  1.00  0.00     0.001 A 
ENDBRANCH  17  20
ENDBRANCH  11  16
BRANCH  15  27
ATOM     27  N   UNL A   1      29.181  29.001  22.609  1.00  0.00    -0.372 N 
ATOM     28  C   UNL A   1      29.668  30.090  21.746  1.00  0.00     0.116 C 
ATOM     29  C   UNL A   1      27.732  28.955  22.734  1.00  0.00     0.116 C 
ATOM     30  C   UNL A   1      29.329  31.414  22.406  1.00  0.00     0.021 C 
ATOM     31  C   UNL A   1      27.330  30.234  23.466  1.00  0.00     0.021 C 
ATOM     32  C   UNL A   1      27.839  31.489  22.743  1.00  0.00     0.004 C 
ENDBRANCH  15  27
ENDBRANCH   8  10
ENDBRANCH   7   8
ENDBRANCH   6   7
ENDBRANCH   5   6
ENDBRANCH   4   5
ENDBRANCH   3   4
ENDBRANCH   2   3
ENDBRANCH   1   2
BRANCH   1  33
ATOM     33  C   UNL A   1      34.266  33.198  28.391  1.00  0.00     0.188 C 
BRANCH  33  34
ATOM     34  C   UNL A   1      33.190  34.165  27.909  1.00  0.00     0.188 C 
BRANCH  34  35
ATOM     35  O   UNL A   1      32.736  34.913  29.025  1.00  0.00    -0.376 OA
BRANCH  35  36
ATOM     36  C   UNL A   1      33.719  35.275  29.982  1.00  0.00     0.202 C 
BRANCH  36  37
ATOM     37  C   UNL A   1      33.111  35.393  31.377  1.00  0.00     0.261 C 
BRANCH  37  38
ATOM     38  O   UNL A   1      34.108  34.958  32.330  1.00  0.00    -0.460 OA
BRANCH  38  39
ATOM     39  C   UNL A   1      34.595  33.704  32.121  1.00  0.00     0.338 C 
ATOM     40  O   UNL A   1      33.912  32.696  32.032  1.00  0.00    -0.246 OA
BRANCH  39  41
ATOM     41  C   UNL A   1      36.085  33.674  32.282  1.00  0.00     0.060 A 
ATOM     42  C   UNL A   1      36.910  33.658  31.145  1.00  0.00     0.016 A 
ATOM     43  C   UNL A   1      36.639  33.354  33.515  1.00  0.00     0.016 A 
ATOM     44  C   UNL A   1      38.232  33.173  31.219  1.00  0.00     0.010 A 
ATOM     45  C   UNL A   1      37.907  32.790  33.563  1.00  0.00     0.010 A 
ATOM     46  C   UNL A   1      38.719  32.645  32.420  1.00  0.00    -0.014 A 
BRANCH  46  47
ATOM     47  C   UNL A   1      39.896  31.727  32.548  1.00  0.00     0.031 A 
ATOM     48  C   UNL A   1      39.986  30.472  31.665  1.00  0.00     0.074 A 
ATOM     49  C   UNL A   1      41.005  32.288  33.106  1.00  0.00     0.049 A 
ATOM     50  N   UNL A   1      40.962  29.610  31.590  1.00  0.00    -0.248 NA
ATOM     51  C   UNL A   1      38.873  30.067  30.794  1.00  0.00     0.031 C 
ATOM     52  C   UNL A   1      42.344  32.358  32.559  1.00  0.00     0.029 A 
ATOM     53  N   UNL A   1      41.173  33.041  34.271  1.00  0.00    -0.354 N 
ATOM     54  C   UNL A   1      40.737  28.752  30.490  1.00  0.00     0.074 A 
ATOM     55  C   UNL A   1      39.380  29.040  30.106  1.00  0.00     0.031 C 
ATOM     56  C   UNL A   1      43.261  32.707  33.458  1.00  0.00     0.029 A 
ATOM     57  C   UNL A   1      42.540  32.929  34.658  1.00  0.00     0.049 A 
ATOM     58  H   UNL A   1      40.474  33.553  34.740  1.00  0.00     0.167 HD
ATOM     59  C   UNL A   1      41.750  27.997  29.918  1.00  0.00     0.037 A 
ATOM     60  C   UNL A   1      42.927  32.455  35.862  1.00  0.00     0.037 A 
ATOM     61  C   UNL A   1      42.979  27.950  30.754  1.00  0.00     0.049 A 
ATOM     62  C   UNL A   1      43.383  30.999  35.799  1.00  0.00     0.074 A 
ATOM     63  C   UNL A   1      44.356  27.888  30.542  1.00  0.00     0.029 A 
ATOM     64  N   UNL A   1      42.859  28.097  32.130  1.00  0.00    -0.354 N 
ATOM     65  N   UNL A   1      43.655  30.304  34.709  1.00  0.00    -0.248 NA
ATOM     66  C   UNL A   1      43.507  30.192  37.010  1.00  0.00     0.031 C 
ATOM     67  C   UNL A   1      45.034  28.054  31.787  1.00  0.00     0.029 A 
ATOM     68  C   UNL A   1      44.072  28.130  32.772  1.00  0.00     0.049 A 
ATOM     69  H   UNL A   1      41.996  28.170  32.597  1.00  0.00     0.167 HD
ATOM     70  C   UNL A   1      43.876  28.980  35.058  1.00  0.00     0.074 A 
ATOM     71  C   UNL A   1      43.777  28.977  36.507  1.00  0.00     0.031 C 
ATOM     72  C   UNL A   1      44.074  27.927  34.198  1.00  0.00     0.037 A 
BRANCH  59  73
ATOM     73  C   UNL A   1      41.766  27.430  28.449  1.00  0.00     0.064 A 
ATOM     74  C   UNL A   1      41.935  26.039  28.204  1.00  0.00     0.173 A 
ATOM     75  C   UNL A   1      41.772  28.187  27.251  1.00  0.00     0.173 A 
ATOM     76  F   UNL A   1      41.774  25.134  29.177  1.00  0.00    -0.203 F 
ATOM     77  C   UNL A   1      42.227  25.490  26.942  1.00  0.00     0.198 A 
ATOM     78  C   UNL A   1      41.955  27.621  25.971  1.00  0.00     0.198 A 
ATOM     79  F   UNL A   1      41.625  29.513  27.242  1.00  0.00    -0.203 F 
ATOM     80  F   UNL A   1      42.493  24.179  26.828  1.00  0.00    -0.200 F 
ATOM     81  C   UNL A   1      42.228  26.281  25.819  1.00  0.00     0.200 A 
ATOM     82  F   UNL A   1      41.878  28.403  24.883  1.00  0.00    -0.200 F 
ATOM     83  F   UNL A   1      42.460  25.757  24.607  1.00  0.00    -0.200 F 
ENDBRANCH  59  73
BRANCH  60  84
ATOM     84  C   UNL A   1      42.262  33.316  36.904  1.00  0.00     0.064 A 
ATOM     85  C   UNL A   1      42.773  34.646  36.887  1.00  0.00     0.173 A 
ATOM     86  C   UNL A   1      40.876  33.177  37.084  1.00  0.00     0.173 A 
ATOM     87  F   UNL A   1      44.095  34.847  36.757  1.00  0.00    -0.203 F 
ATOM     88  C   UNL A   1      41.925  35.737  36.674  1.00  0.00     0.198 A 
ATOM     89  C   UNL A   1      40.030  34.281  36.894  1.00  0.00     0.198 A 
ATOM     90  F   UNL A   1      40.334  31.953  37.141  1.00  0.00    -0.203 F 
ATOM     91  F   UNL A   1      42.440  36.933  36.352  1.00  0.00    -0.200 F 
ATOM     92  C   UNL A   1      40.557  35.538  36.615  1.00  0.00     0.200 A 
ATOM     93  F   UNL A   1      38.707  34.094  36.793  1.00  0.00    -0.200 F 
ATOM     94  F   UNL A   1      39.757  36.526  36.185  1.00  0.00    -0.200 F 
ENDBRANCH  60  84
BRANCH  72  95
ATOM     95  C   UNL A   1      44.203  26.471  34.604  1.00  0.00     0.064 A 
ATOM     96  C   UNL A   1      45.426  25.805  34.677  1.00  0.00     0.173 A 
ATOM     97  C   UNL A   1      43.048  25.664  34.813  1.00  0.00     0.173 A 
ATOM     98  F   UNL A   1      46.568  26.434  34.362  1.00  0.00    -0.203 F 
ATOM     99  C   UNL A   1      45.501  24.461  35.054  1.00  0.00     0.198 A 
ATOM    100  C   UNL A   1      43.124  24.310  35.117  1.00  0.00     0.198 A 
ATOM    101  F   UNL A   1      41.805  26.160  34.749  1.00  0.00    -0.203 F 
ATOM    102  F   UNL A   1      46.700  23.885  35.205  1.00  0.00    -0.200 F 
ATOM    103  C   UNL A   1      44.353  23.716  35.275  1.00  0.00     0.200 A 
ATOM    104  F   UNL A   1      41.997  23.598  35.270  1.00  0.00    -0.200 F 
ATOM    105  F   UNL A   1      44.434  22.430  35.640  1.00  0.00    -0.200 F 
ENDBRANCH  72  95
ENDBRANCH  46  47
ENDBRANCH  39  41
ENDBRANCH  38  39
ENDBRANCH  37  38
ENDBRANCH  36  37
ENDBRANCH  35  36
ENDBRANCH  34  35
ENDBRANCH  33  34
ENDBRANCH   1  33
TORSDOF 23
ENDMDL
