MODEL 1
REMARK VINA RESULT:      -9.0      0.000      0.000
REMARK SMILES Cc1cccc2c1[C@H]1c3c(C)cccc3[C@H](CC(=O)OCCOCCOCCOCCOC(=O)c3ccc(-c4c5nc(c(-c6c(F)c(F)c(F)c(F)c6F)c6ccc([nH]6)c(-c6c(F)c(F)c(F)c(F)c6F)c6nc(c(-c7c(F)c(F)c(F)c(F)c7F)c7ccc4[nH]7)C=C6)C=C5)cc3)C[C@H]1CC2
REMARK SMILES IDX 27 1 26 2 25 3 24 4 23 5 22 6 21 7 20 8 18 9 19 10 17 11
REMARK SMILES IDX 16 12 1 13 2 14 3 15 7 16 4 17 6 18 8 19 5 20 101 21 9 22
REMARK SMILES IDX 99 23 100 24 10 25 15 26 98 27 12 28 11 29 14 30 13 31 28 32
REMARK SMILES IDX 29 33 30 34 31 35 32 36 33 37 34 38 35 39 36 40 97 41 37 42
REMARK SMILES IDX 96 43 38 44 39 45 40 46 90 47 41 48 95 49 89 50 91 51 42 52
REMARK SMILES IDX 94 53 88 54 87 55 43 57 75 58 55 59 74 60 56 61 59 62 73 63
REMARK SMILES IDX 92 64 57 65 58 66 72 68 93 69 60 70 44 71 45 72 53 73 46 74
REMARK SMILES IDX 47 75 51 76 54 77 48 78 49 79 52 80 50 81 76 82 77 83 85 84
REMARK SMILES IDX 78 85 79 86 83 87 86 88 80 89 81 90 84 91 82 92 61 93 62 94
REMARK SMILES IDX 70 95 63 96 64 97 68 98 71 99 65 100 66 101 69 102 67 103
REMARK H PARENT 91 56 59 67
REMARK Flexibility Score: inf
ROOT
ATOM      1  C   UNL A   1      37.668  33.117  29.309  1.00  0.00     0.188 C 
ENDROOT
BRANCH   1   2
ATOM      2  O   UNL A   1      38.158  31.791  29.141  1.00  0.00    -0.377 OA
BRANCH   2   3
ATOM      3  C   UNL A   1      37.251  30.812  28.669  1.00  0.00     0.188 C 
BRANCH   3   4
ATOM      4  C   UNL A   1      37.880  29.450  28.375  1.00  0.00     0.188 C 
BRANCH   4   5
ATOM      5  O   UNL A   1      39.283  29.430  28.173  1.00  0.00    -0.376 OA
BRANCH   5   6
ATOM      6  C   UNL A   1      39.767  28.848  26.962  1.00  0.00     0.202 C 
BRANCH   6   7
ATOM      7  C   UNL A   1      41.130  28.129  26.928  1.00  0.00     0.261 C 
BRANCH   7   8
ATOM      8  O   UNL A   1      42.316  28.969  26.979  1.00  0.00    -0.463 OA
BRANCH   8   9
ATOM      9  C   UNL A   1      43.408  28.353  27.508  1.00  0.00     0.306 C 
ATOM     10  O   UNL A   1      43.561  28.189  28.719  1.00  0.00    -0.252 OA
BRANCH   9  11
ATOM     11  C   UNL A   1      44.363  27.672  26.535  1.00  0.00     0.131 C 
BRANCH  11  12
ATOM     12  C   UNL A   1      44.452  26.160  26.236  1.00  0.00     0.031 C 
ATOM     13  C   UNL A   1      39.624  22.986  26.647  1.00  0.00     0.044 C 
ATOM     14  C   UNL A   1      40.741  22.009  26.410  1.00  0.00    -0.047 A 
ATOM     15  C   UNL A   1      40.421  20.641  26.470  1.00  0.00     0.004 A 
ATOM     16  C   UNL A   1      42.068  22.407  26.118  1.00  0.00    -0.034 A 
ATOM     17  C   UNL A   1      41.389  19.671  26.243  1.00  0.00     0.001 A 
ATOM     18  C   UNL A   1      43.009  21.418  25.759  1.00  0.00    -0.044 A 
ATOM     19  C   UNL A   1      42.545  23.857  26.262  1.00  0.00     0.053 C 
ATOM     20  C   UNL A   1      42.670  20.058  25.866  1.00  0.00     0.004 A 
ATOM     21  C   UNL A   1      44.377  21.771  25.229  1.00  0.00     0.036 C 
ATOM     22  C   UNL A   1      43.407  24.179  27.503  1.00  0.00    -0.034 A 
ATOM     23  C   UNL A   1      43.397  24.161  25.009  1.00  0.00     0.002 C 
ATOM     24  C   UNL A   1      44.662  23.263  24.986  1.00  0.00     0.009 C 
ATOM     25  C   UNL A   1      43.411  23.394  28.665  1.00  0.00    -0.047 A 
ATOM     26  C   UNL A   1      44.365  25.228  27.421  1.00  0.00    -0.040 A 
ATOM     27  C   UNL A   1      43.674  25.680  24.999  1.00  0.00     0.013 C 
ATOM     28  C   UNL A   1      44.520  23.435  29.519  1.00  0.00     0.004 A 
ATOM     29  C   UNL A   1      42.299  22.491  29.086  1.00  0.00     0.044 C 
ATOM     30  C   UNL A   1      45.421  25.295  28.348  1.00  0.00     0.004 A 
ATOM     31  C   UNL A   1      45.531  24.363  29.360  1.00  0.00     0.001 A 
ENDBRANCH  11  12
ENDBRANCH   9  11
ENDBRANCH   8   9
ENDBRANCH   7   8
ENDBRANCH   6   7
ENDBRANCH   5   6
ENDBRANCH   4   5
ENDBRANCH   3   4
ENDBRANCH   2   3
ENDBRANCH   1   2
BRANCH   1  32
ATOM     32  C   UNL A   1      36.383  33.498  28.578  1.00  0.00     0.188 C 
BRANCH  32  33
ATOM     33  O   UNL A   1      35.416  34.021  29.482  1.00  0.00    -0.376 OA
BRANCH  33  34
ATOM     34  C   UNL A   1      34.592  33.014  30.061  1.00  0.00     0.202 C 
BRANCH  34  35
ATOM     35  C   UNL A   1      34.780  32.989  31.584  1.00  0.00     0.261 C 
BRANCH  35  36
ATOM     36  O   UNL A   1      35.564  31.879  32.072  1.00  0.00    -0.460 OA
BRANCH  36  37
ATOM     37  C   UNL A   1      36.272  32.079  33.209  1.00  0.00     0.338 C 
ATOM     38  O   UNL A   1      35.928  32.716  34.177  1.00  0.00    -0.246 OA
BRANCH  37  39
ATOM     39  C   UNL A   1      37.527  31.284  33.154  1.00  0.00     0.060 A 
ATOM     40  C   UNL A   1      38.583  31.647  34.001  1.00  0.00     0.016 A 
ATOM     41  C   UNL A   1      37.679  30.213  32.268  1.00  0.00     0.016 A 
ATOM     42  C   UNL A   1      39.816  30.989  33.912  1.00  0.00     0.010 A 
ATOM     43  C   UNL A   1      38.902  29.532  32.203  1.00  0.00     0.010 A 
ATOM     44  C   UNL A   1      39.999  29.966  32.973  1.00  0.00    -0.014 A 
BRANCH  44  45
ATOM     45  C   UNL A   1      41.375  29.585  32.547  1.00  0.00     0.031 A 
ATOM     46  C   UNL A   1      42.012  30.418  31.463  1.00  0.00     0.074 A 
ATOM     47  C   UNL A   1      42.078  28.580  33.099  1.00  0.00     0.049 A 
ATOM     48  N   UNL A   1      43.168  30.276  30.866  1.00  0.00    -0.248 NA
ATOM     49  C   UNL A   1      41.233  31.576  30.993  1.00  0.00     0.031 C 
ATOM     50  C   UNL A   1      41.643  27.750  34.216  1.00  0.00     0.029 A 
ATOM     51  N   UNL A   1      43.316  28.077  32.771  1.00  0.00    -0.354 N 
ATOM     52  C   UNL A   1      43.255  31.334  29.972  1.00  0.00     0.074 A 
ATOM     53  C   UNL A   1      42.005  32.054  30.033  1.00  0.00     0.031 C 
ATOM     54  C   UNL A   1      42.571  26.802  34.445  1.00  0.00     0.029 A 
ATOM     55  C   UNL A   1      43.674  26.969  33.498  1.00  0.00     0.049 A 
ATOM     56  H   UNL A   1      43.891  28.474  32.078  1.00  0.00     0.167 HD
ATOM     57  C   UNL A   1      44.301  31.714  29.202  1.00  0.00     0.037 A 
ATOM     58  C   UNL A   1      44.763  26.180  33.408  1.00  0.00     0.037 A 
ATOM     59  C   UNL A   1      45.551  31.016  29.133  1.00  0.00     0.049 A 
ATOM     60  C   UNL A   1      45.858  26.523  32.430  1.00  0.00     0.074 A 
ATOM     61  C   UNL A   1      46.672  31.328  28.385  1.00  0.00     0.029 A 
ATOM     62  N   UNL A   1      45.845  29.859  29.837  1.00  0.00    -0.354 N 
ATOM     63  N   UNL A   1      45.945  27.539  31.607  1.00  0.00    -0.248 NA
ATOM     64  C   UNL A   1      47.022  25.623  32.387  1.00  0.00     0.031 C 
ATOM     65  C   UNL A   1      47.629  30.332  28.603  1.00  0.00     0.029 A 
ATOM     66  C   UNL A   1      47.122  29.428  29.522  1.00  0.00     0.049 A 
ATOM     67  H   UNL A   1      45.236  29.410  30.468  1.00  0.00     0.167 HD
ATOM     68  C   UNL A   1      47.183  27.429  30.986  1.00  0.00     0.074 A 
ATOM     69  C   UNL A   1      47.813  26.240  31.519  1.00  0.00     0.031 C 
ATOM     70  C   UNL A   1      47.749  28.250  30.068  1.00  0.00     0.037 A 
BRANCH  57  71
ATOM     71  C   UNL A   1      44.117  32.955  28.381  1.00  0.00     0.064 A 
ATOM     72  C   UNL A   1      44.190  34.231  28.963  1.00  0.00     0.173 A 
ATOM     73  C   UNL A   1      43.846  32.872  27.009  1.00  0.00     0.173 A 
ATOM     74  F   UNL A   1      44.424  34.361  30.279  1.00  0.00    -0.203 F 
ATOM     75  C   UNL A   1      43.957  35.376  28.208  1.00  0.00     0.198 A 
ATOM     76  C   UNL A   1      43.646  34.022  26.250  1.00  0.00     0.198 A 
ATOM     77  F   UNL A   1      43.765  31.677  26.406  1.00  0.00    -0.203 F 
ATOM     78  F   UNL A   1      43.963  36.579  28.800  1.00  0.00    -0.200 F 
ATOM     79  C   UNL A   1      43.690  35.271  26.852  1.00  0.00     0.200 A 
ATOM     80  F   UNL A   1      43.396  33.920  24.938  1.00  0.00    -0.200 F 
ATOM     81  F   UNL A   1      43.462  36.373  26.126  1.00  0.00    -0.200 F 
ENDBRANCH  57  71
BRANCH  58  82
ATOM     82  C   UNL A   1      44.896  25.002  34.304  1.00  0.00     0.064 A 
ATOM     83  C   UNL A   1      44.457  23.736  33.894  1.00  0.00     0.173 A 
ATOM     84  C   UNL A   1      45.463  25.116  35.581  1.00  0.00     0.173 A 
ATOM     85  F   UNL A   1      43.882  23.585  32.692  1.00  0.00    -0.203 F 
ATOM     86  C   UNL A   1      44.579  22.627  34.729  1.00  0.00     0.198 A 
ATOM     87  C   UNL A   1      45.600  24.002  36.409  1.00  0.00     0.198 A 
ATOM     88  F   UNL A   1      45.890  26.307  36.023  1.00  0.00    -0.203 F 
ATOM     89  F   UNL A   1      44.128  21.432  34.322  1.00  0.00    -0.200 F 
ATOM     90  C   UNL A   1      45.157  22.759  35.983  1.00  0.00     0.200 A 
ATOM     91  F   UNL A   1      46.161  24.133  37.619  1.00  0.00    -0.200 F 
ATOM     92  F   UNL A   1      45.280  21.691  36.782  1.00  0.00    -0.200 F 
ENDBRANCH  58  82
BRANCH  70  93
ATOM     93  C   UNL A   1      49.136  27.931  29.591  1.00  0.00     0.064 A 
ATOM     94  C   UNL A   1      50.271  28.347  30.300  1.00  0.00     0.173 A 
ATOM     95  C   UNL A   1      49.327  27.109  28.468  1.00  0.00     0.173 A 
ATOM     96  F   UNL A   1      50.143  29.141  31.373  1.00  0.00    -0.203 F 
ATOM     97  C   UNL A   1      51.547  27.956  29.900  1.00  0.00     0.198 A 
ATOM     98  C   UNL A   1      50.601  26.698  28.088  1.00  0.00     0.198 A 
ATOM     99  F   UNL A   1      48.272  26.676  27.761  1.00  0.00    -0.203 F 
ATOM    100  F   UNL A   1      52.620  28.385  30.579  1.00  0.00    -0.200 F 
ATOM    101  C   UNL A   1      51.710  27.122  28.803  1.00  0.00     0.200 A 
ATOM    102  F   UNL A   1      50.754  25.877  27.040  1.00  0.00    -0.200 F 
ATOM    103  F   UNL A   1      52.937  26.728  28.435  1.00  0.00    -0.200 F 
ENDBRANCH  70  93
ENDBRANCH  44  45
ENDBRANCH  37  39
ENDBRANCH  36  37
ENDBRANCH  35  36
ENDBRANCH  34  35
ENDBRANCH  33  34
ENDBRANCH  32  33
ENDBRANCH   1  32
TORSDOF 21
ENDMDL
MODEL 2
REMARK VINA RESULT:      -8.8      1.443      3.479
REMARK SMILES Cc1cccc2c1[C@H]1c3c(C)cccc3[C@H](CC(=O)OCCOCCOCCOCCOC(=O)c3ccc(-c4c5nc(c(-c6c(F)c(F)c(F)c(F)c6F)c6ccc([nH]6)c(-c6c(F)c(F)c(F)c(F)c6F)c6nc(c(-c7c(F)c(F)c(F)c(F)c7F)c7ccc4[nH]7)C=C6)C=C5)cc3)C[C@H]1CC2
REMARK SMILES IDX 27 1 26 2 25 3 24 4 23 5 22 6 21 7 20 8 18 9 19 10 17 11
REMARK SMILES IDX 16 12 1 13 2 14 3 15 7 16 4 17 6 18 8 19 5 20 101 21 9 22
REMARK SMILES IDX 99 23 100 24 10 25 15 26 98 27 12 28 11 29 14 30 13 31 28 32
REMARK SMILES IDX 29 33 30 34 31 35 32 36 33 37 34 38 35 39 36 40 97 41 37 42
REMARK SMILES IDX 96 43 38 44 39 45 40 46 90 47 41 48 95 49 89 50 91 51 42 52
REMARK SMILES IDX 94 53 88 54 87 55 43 57 75 58 55 59 74 60 56 61 59 62 73 63
REMARK SMILES IDX 92 64 57 65 58 66 72 68 93 69 60 70 44 71 45 72 53 73 46 74
REMARK SMILES IDX 47 75 51 76 54 77 48 78 49 79 52 80 50 81 76 82 77 83 85 84
REMARK SMILES IDX 78 85 79 86 83 87 86 88 80 89 81 90 84 91 82 92 61 93 62 94
REMARK SMILES IDX 70 95 63 96 64 97 68 98 71 99 65 100 66 101 69 102 67 103
REMARK H PARENT 91 56 59 67
REMARK Flexibility Score: inf
ROOT
ATOM      1  C   UNL A   1      33.437  35.956  30.693  1.00  0.00     0.188 C 
ENDROOT
BRANCH   1   2
ATOM      2  O   UNL A   1      32.602  35.766  29.556  1.00  0.00    -0.377 OA
BRANCH   2   3
ATOM      3  C   UNL A   1      33.132  35.032  28.469  1.00  0.00     0.188 C 
BRANCH   3   4
ATOM      4  C   UNL A   1      34.579  34.576  28.652  1.00  0.00     0.188 C 
BRANCH   4   5
ATOM      5  O   UNL A   1      34.899  33.277  28.181  1.00  0.00    -0.376 OA
BRANCH   5   6
ATOM      6  C   UNL A   1      35.212  32.280  29.154  1.00  0.00     0.202 C 
BRANCH   6   7
ATOM      7  C   UNL A   1      36.664  32.080  29.633  1.00  0.00     0.261 C 
BRANCH   7   8
ATOM      8  O   UNL A   1      37.472  31.124  28.893  1.00  0.00    -0.463 OA
BRANCH   8   9
ATOM      9  C   UNL A   1      37.748  29.983  29.580  1.00  0.00     0.306 C 
ATOM     10  O   UNL A   1      36.907  29.392  30.259  1.00  0.00    -0.252 OA
BRANCH   9  11
ATOM     11  C   UNL A   1      39.096  29.322  29.321  1.00  0.00     0.131 C 
BRANCH  11  12
ATOM     12  C   UNL A   1      39.352  28.039  28.501  1.00  0.00     0.031 C 
ATOM     13  C   UNL A   1      43.781  24.633  30.029  1.00  0.00     0.044 C 
ATOM     14  C   UNL A   1      43.247  24.063  28.746  1.00  0.00    -0.047 A 
ATOM     15  C   UNL A   1      43.961  22.997  28.169  1.00  0.00     0.004 A 
ATOM     16  C   UNL A   1      42.068  24.537  28.121  1.00  0.00    -0.034 A 
ATOM     17  C   UNL A   1      43.525  22.399  26.994  1.00  0.00     0.001 A 
ATOM     18  C   UNL A   1      41.564  23.835  27.004  1.00  0.00    -0.044 A 
ATOM     19  C   UNL A   1      41.367  25.830  28.553  1.00  0.00     0.053 C 
ATOM     20  C   UNL A   1      42.321  22.800  26.428  1.00  0.00     0.004 A 
ATOM     21  C   UNL A   1      40.210  24.142  26.412  1.00  0.00     0.036 C 
ATOM     22  C   UNL A   1      41.574  27.063  27.644  1.00  0.00    -0.034 A 
ATOM     23  C   UNL A   1      39.854  25.518  28.581  1.00  0.00     0.002 C 
ATOM     24  C   UNL A   1      39.348  25.178  27.154  1.00  0.00     0.009 C 
ATOM     25  C   UNL A   1      42.648  27.193  26.753  1.00  0.00    -0.047 A 
ATOM     26  C   UNL A   1      40.551  28.050  27.582  1.00  0.00    -0.040 A 
ATOM     27  C   UNL A   1      39.150  26.714  29.256  1.00  0.00     0.013 C 
ATOM     28  C   UNL A   1      42.526  28.046  25.648  1.00  0.00     0.004 A 
ATOM     29  C   UNL A   1      43.954  26.481  26.883  1.00  0.00     0.044 C 
ATOM     30  C   UNL A   1      40.504  28.952  26.503  1.00  0.00     0.004 A 
ATOM     31  C   UNL A   1      41.458  28.911  25.507  1.00  0.00     0.001 A 
ENDBRANCH  11  12
ENDBRANCH   9  11
ENDBRANCH   8   9
ENDBRANCH   7   8
ENDBRANCH   6   7
ENDBRANCH   5   6
ENDBRANCH   4   5
ENDBRANCH   3   4
ENDBRANCH   2   3
ENDBRANCH   1   2
BRANCH   1  32
ATOM     32  C   UNL A   1      32.844  35.657  32.068  1.00  0.00     0.188 C 
BRANCH  32  33
ATOM     33  O   UNL A   1      33.130  34.322  32.470  1.00  0.00    -0.376 OA
BRANCH  33  34
ATOM     34  C   UNL A   1      34.504  33.977  32.319  1.00  0.00     0.202 C 
BRANCH  34  35
ATOM     35  C   UNL A   1      35.071  33.468  33.651  1.00  0.00     0.261 C 
BRANCH  35  36
ATOM     36  O   UNL A   1      36.268  32.672  33.528  1.00  0.00    -0.460 OA
BRANCH  36  37
ATOM     37  C   UNL A   1      37.030  32.530  34.639  1.00  0.00     0.338 C 
ATOM     38  O   UNL A   1      36.809  32.991  35.735  1.00  0.00    -0.246 OA
BRANCH  37  39
ATOM     39  C   UNL A   1      38.153  31.600  34.351  1.00  0.00     0.060 A 
ATOM     40  C   UNL A   1      39.280  31.638  35.184  1.00  0.00     0.016 A 
ATOM     41  C   UNL A   1      38.117  30.720  33.265  1.00  0.00     0.016 A 
ATOM     42  C   UNL A   1      40.400  30.850  34.891  1.00  0.00     0.010 A 
ATOM     43  C   UNL A   1      39.225  29.907  32.992  1.00  0.00     0.010 A 
ATOM     44  C   UNL A   1      40.399  30.023  33.760  1.00  0.00    -0.014 A 
BRANCH  44  45
ATOM     45  C   UNL A   1      41.690  29.554  33.183  1.00  0.00     0.031 A 
ATOM     46  C   UNL A   1      42.256  30.349  32.033  1.00  0.00     0.074 A 
ATOM     47  C   UNL A   1      42.380  28.500  33.653  1.00  0.00     0.049 A 
ATOM     48  N   UNL A   1      43.326  30.133  31.310  1.00  0.00    -0.248 NA
ATOM     49  C   UNL A   1      41.510  31.560  31.653  1.00  0.00     0.031 C 
ATOM     50  C   UNL A   1      42.019  27.693  34.812  1.00  0.00     0.029 A 
ATOM     51  N   UNL A   1      43.537  27.916  33.188  1.00  0.00    -0.354 N 
ATOM     52  C   UNL A   1      43.383  31.189  30.411  1.00  0.00     0.074 A 
ATOM     53  C   UNL A   1      42.199  31.992  30.612  1.00  0.00     0.031 C 
ATOM     54  C   UNL A   1      42.900  26.683  34.936  1.00  0.00     0.029 A 
ATOM     55  C   UNL A   1      43.898  26.782  33.871  1.00  0.00     0.049 A 
ATOM     56  H   UNL A   1      44.056  28.279  32.434  1.00  0.00     0.167 HD
ATOM     57  C   UNL A   1      44.359  31.503  29.527  1.00  0.00     0.037 A 
ATOM     58  C   UNL A   1      44.915  25.922  33.659  1.00  0.00     0.037 A 
ATOM     59  C   UNL A   1      45.543  30.723  29.319  1.00  0.00     0.049 A 
ATOM     60  C   UNL A   1      45.914  26.197  32.563  1.00  0.00     0.074 A 
ATOM     61  C   UNL A   1      46.591  30.964  28.449  1.00  0.00     0.029 A 
ATOM     62  N   UNL A   1      45.835  29.544  29.986  1.00  0.00    -0.354 N 
ATOM     63  N   UNL A   1      45.975  27.210  31.735  1.00  0.00    -0.248 NA
ATOM     64  C   UNL A   1      47.001  25.220  32.391  1.00  0.00     0.031 C 
ATOM     65  C   UNL A   1      47.497  29.904  28.559  1.00  0.00     0.029 A 
ATOM     66  C   UNL A   1      47.036  29.030  29.529  1.00  0.00     0.049 A 
ATOM     67  H   UNL A   1      45.272  29.133  30.681  1.00  0.00     0.167 HD
ATOM     68  C   UNL A   1      47.126  27.021  30.979  1.00  0.00     0.074 A 
ATOM     69  C   UNL A   1      47.730  25.788  31.439  1.00  0.00     0.031 C 
ATOM     70  C   UNL A   1      47.640  27.808  30.002  1.00  0.00     0.037 A 
BRANCH  57  71
ATOM     71  C   UNL A   1      44.168  32.760  28.732  1.00  0.00     0.064 A 
ATOM     72  C   UNL A   1      43.802  32.715  27.377  1.00  0.00     0.173 A 
ATOM     73  C   UNL A   1      44.370  34.016  29.318  1.00  0.00     0.173 A 
ATOM     74  F   UNL A   1      43.619  31.535  26.764  1.00  0.00    -0.203 F 
ATOM     75  C   UNL A   1      43.686  33.883  26.629  1.00  0.00     0.198 A 
ATOM     76  C   UNL A   1      44.221  35.183  28.575  1.00  0.00     0.198 A 
ATOM     77  F   UNL A   1      44.721  34.111  30.609  1.00  0.00    -0.203 F 
ATOM     78  F   UNL A   1      43.404  33.812  25.320  1.00  0.00    -0.200 F 
ATOM     79  C   UNL A   1      43.891  35.115  27.230  1.00  0.00     0.200 A 
ATOM     80  F   UNL A   1      44.411  36.374  29.158  1.00  0.00    -0.200 F 
ATOM     81  F   UNL A   1      43.783  36.239  26.508  1.00  0.00    -0.200 F 
ENDBRANCH  57  71
BRANCH  58  82
ATOM     82  C   UNL A   1      45.067  24.731  34.535  1.00  0.00     0.064 A 
ATOM     83  C   UNL A   1      45.720  24.828  35.771  1.00  0.00     0.173 A 
ATOM     84  C   UNL A   1      44.562  23.479  34.158  1.00  0.00     0.173 A 
ATOM     85  F   UNL A   1      46.244  25.999  36.160  1.00  0.00    -0.203 F 
ATOM     86  C   UNL A   1      45.865  23.715  36.597  1.00  0.00     0.198 A 
ATOM     87  C   UNL A   1      44.694  22.369  34.994  1.00  0.00     0.198 A 
ATOM     88  F   UNL A   1      43.937  23.332  32.981  1.00  0.00    -0.203 F 
ATOM     89  F   UNL A   1      46.517  23.829  37.763  1.00  0.00    -0.200 F 
ATOM     90  C   UNL A   1      45.346  22.488  36.211  1.00  0.00     0.200 A 
ATOM     91  F   UNL A   1      44.188  21.186  34.619  1.00  0.00    -0.200 F 
ATOM     92  F   UNL A   1      45.480  21.421  37.010  1.00  0.00    -0.200 F 
ENDBRANCH  58  82
BRANCH  70  93
ATOM     93  C   UNL A   1      48.939  27.400  29.372  1.00  0.00     0.064 A 
ATOM     94  C   UNL A   1      50.172  27.763  29.931  1.00  0.00     0.173 A 
ATOM     95  C   UNL A   1      48.947  26.547  28.256  1.00  0.00     0.173 A 
ATOM     96  F   UNL A   1      50.219  28.583  30.990  1.00  0.00    -0.203 F 
ATOM     97  C   UNL A   1      51.367  27.290  29.391  1.00  0.00     0.198 A 
ATOM     98  C   UNL A   1      50.142  26.054  27.739  1.00  0.00     0.198 A 
ATOM     99  F   UNL A   1      47.793  26.163  27.691  1.00  0.00    -0.203 F 
ATOM    100  F   UNL A   1      52.537  27.668  29.927  1.00  0.00    -0.200 F 
ATOM    101  C   UNL A   1      51.351  26.427  28.305  1.00  0.00     0.200 A 
ATOM    102  F   UNL A   1      50.122  25.206  26.701  1.00  0.00    -0.200 F 
ATOM    103  F   UNL A   1      52.501  25.955  27.805  1.00  0.00    -0.200 F 
ENDBRANCH  70  93
ENDBRANCH  44  45
ENDBRANCH  37  39
ENDBRANCH  36  37
ENDBRANCH  35  36
ENDBRANCH  34  35
ENDBRANCH  33  34
ENDBRANCH  32  33
ENDBRANCH   1  32
TORSDOF 21
ENDMDL
MODEL 3
REMARK VINA RESULT:      -8.4      1.544      3.147
REMARK SMILES Cc1cccc2c1[C@H]1c3c(C)cccc3[C@H](CC(=O)OCCOCCOCCOCCOC(=O)c3ccc(-c4c5nc(c(-c6c(F)c(F)c(F)c(F)c6F)c6ccc([nH]6)c(-c6c(F)c(F)c(F)c(F)c6F)c6nc(c(-c7c(F)c(F)c(F)c(F)c7F)c7ccc4[nH]7)C=C6)C=C5)cc3)C[C@H]1CC2
REMARK SMILES IDX 27 1 26 2 25 3 24 4 23 5 22 6 21 7 20 8 18 9 19 10 17 11
REMARK SMILES IDX 16 12 1 13 2 14 3 15 7 16 4 17 6 18 8 19 5 20 101 21 9 22
REMARK SMILES IDX 99 23 100 24 10 25 15 26 98 27 12 28 11 29 14 30 13 31 28 32
REMARK SMILES IDX 29 33 30 34 31 35 32 36 33 37 34 38 35 39 36 40 97 41 37 42
REMARK SMILES IDX 96 43 38 44 39 45 40 46 90 47 41 48 95 49 89 50 91 51 42 52
REMARK SMILES IDX 94 53 88 54 87 55 43 57 75 58 55 59 74 60 56 61 59 62 73 63
REMARK SMILES IDX 92 64 57 65 58 66 72 68 93 69 60 70 44 71 45 72 53 73 46 74
REMARK SMILES IDX 47 75 51 76 54 77 48 78 49 79 52 80 50 81 76 82 77 83 85 84
REMARK SMILES IDX 78 85 79 86 83 87 86 88 80 89 81 90 84 91 82 92 61 93 62 94
REMARK SMILES IDX 70 95 63 96 64 97 68 98 71 99 65 100 66 101 69 102 67 103
REMARK H PARENT 91 56 59 67
REMARK Flexibility Score: inf
ROOT
ATOM      1  C   UNL A   1      33.940  34.303  29.544  1.00  0.00     0.188 C 
ENDROOT
BRANCH   1   2
ATOM      2  O   UNL A   1      34.201  33.641  28.311  1.00  0.00    -0.377 OA
BRANCH   2   3
ATOM      3  C   UNL A   1      34.299  32.230  28.332  1.00  0.00     0.188 C 
BRANCH   3   4
ATOM      4  C   UNL A   1      35.536  31.666  27.632  1.00  0.00     0.188 C 
BRANCH   4   5
ATOM      5  O   UNL A   1      35.815  30.293  27.849  1.00  0.00    -0.376 OA
BRANCH   5   6
ATOM      6  C   UNL A   1      36.862  29.969  28.765  1.00  0.00     0.202 C 
BRANCH   6   7
ATOM      7  C   UNL A   1      38.338  30.054  28.331  1.00  0.00     0.261 C 
BRANCH   7   8
ATOM      8  O   UNL A   1      39.323  30.231  29.387  1.00  0.00    -0.463 OA
BRANCH   8   9
ATOM      9  C   UNL A   1      40.475  29.534  29.192  1.00  0.00     0.306 C 
ATOM     10  O   UNL A   1      41.353  29.901  28.410  1.00  0.00    -0.252 OA
BRANCH   9  11
ATOM     11  C   UNL A   1      40.754  28.371  30.136  1.00  0.00     0.131 C 
BRANCH  11  12
ATOM     12  C   UNL A   1      41.600  27.117  29.830  1.00  0.00     0.031 C 
ATOM     13  C   UNL A   1      45.580  27.440  25.633  1.00  0.00     0.044 C 
ATOM     14  C   UNL A   1      45.543  25.999  26.055  1.00  0.00    -0.047 A 
ATOM     15  C   UNL A   1      46.318  25.090  25.311  1.00  0.00     0.004 A 
ATOM     16  C   UNL A   1      44.788  25.536  27.160  1.00  0.00    -0.034 A 
ATOM     17  C   UNL A   1      46.356  23.743  25.646  1.00  0.00     0.001 A 
ATOM     18  C   UNL A   1      44.940  24.193  27.571  1.00  0.00    -0.044 A 
ATOM     19  C   UNL A   1      43.747  26.408  27.873  1.00  0.00     0.053 C 
ATOM     20  C   UNL A   1      45.690  23.302  26.784  1.00  0.00     0.004 A 
ATOM     21  C   UNL A   1      44.342  23.678  28.857  1.00  0.00     0.036 C 
ATOM     22  C   UNL A   1      42.265  26.109  27.557  1.00  0.00    -0.034 A 
ATOM     23  C   UNL A   1      43.957  26.186  29.387  1.00  0.00     0.002 C 
ATOM     24  C   UNL A   1      43.653  24.713  29.764  1.00  0.00     0.009 C 
ATOM     25  C   UNL A   1      41.842  25.437  26.401  1.00  0.00    -0.047 A 
ATOM     26  C   UNL A   1      41.283  26.381  28.550  1.00  0.00    -0.040 A 
ATOM     27  C   UNL A   1      43.105  27.239  30.129  1.00  0.00     0.013 C 
ATOM     28  C   UNL A   1      40.606  24.778  26.401  1.00  0.00     0.004 A 
ATOM     29  C   UNL A   1      42.618  25.362  25.128  1.00  0.00     0.044 C 
ATOM     30  C   UNL A   1      40.016  25.772  28.477  1.00  0.00     0.004 A 
ATOM     31  C   UNL A   1      39.700  24.925  27.434  1.00  0.00     0.001 A 
ENDBRANCH  11  12
ENDBRANCH   9  11
ENDBRANCH   8   9
ENDBRANCH   7   8
ENDBRANCH   6   7
ENDBRANCH   5   6
ENDBRANCH   4   5
ENDBRANCH   3   4
ENDBRANCH   2   3
ENDBRANCH   1   2
BRANCH   1  32
ATOM     32  C   UNL A   1      34.499  33.676  30.820  1.00  0.00     0.188 C 
BRANCH  32  33
ATOM     33  O   UNL A   1      34.071  34.392  31.972  1.00  0.00    -0.376 OA
BRANCH  33  34
ATOM     34  C   UNL A   1      34.911  34.181  33.103  1.00  0.00     0.202 C 
BRANCH  34  35
ATOM     35  C   UNL A   1      36.256  33.589  32.660  1.00  0.00     0.261 C 
BRANCH  35  36
ATOM     36  O   UNL A   1      37.341  33.811  33.585  1.00  0.00    -0.460 OA
BRANCH  36  37
ATOM     37  C   UNL A   1      37.420  32.979  34.652  1.00  0.00     0.338 C 
ATOM     38  O   UNL A   1      36.650  32.917  35.583  1.00  0.00    -0.246 OA
BRANCH  37  39
ATOM     39  C   UNL A   1      38.555  32.040  34.462  1.00  0.00     0.060 A 
ATOM     40  C   UNL A   1      39.759  32.305  35.129  1.00  0.00     0.016 A 
ATOM     41  C   UNL A   1      38.454  30.927  33.621  1.00  0.00     0.016 A 
ATOM     42  C   UNL A   1      40.883  31.502  34.902  1.00  0.00     0.010 A 
ATOM     43  C   UNL A   1      39.570  30.104  33.420  1.00  0.00     0.010 A 
ATOM     44  C   UNL A   1      40.810  30.431  34.001  1.00  0.00    -0.014 A 
BRANCH  44  45
ATOM     45  C   UNL A   1      42.057  29.875  33.405  1.00  0.00     0.031 A 
ATOM     46  C   UNL A   1      42.624  30.593  32.207  1.00  0.00     0.074 A 
ATOM     47  C   UNL A   1      42.709  28.807  33.899  1.00  0.00     0.049 A 
ATOM     48  N   UNL A   1      43.658  30.295  31.462  1.00  0.00    -0.248 NA
ATOM     49  C   UNL A   1      41.926  31.823  31.799  1.00  0.00     0.031 C 
ATOM     50  C   UNL A   1      42.346  28.067  35.101  1.00  0.00     0.029 A 
ATOM     51  N   UNL A   1      43.820  28.148  33.424  1.00  0.00    -0.354 N 
ATOM     52  C   UNL A   1      43.738  31.309  30.517  1.00  0.00     0.074 A 
ATOM     53  C   UNL A   1      42.602  32.178  30.720  1.00  0.00     0.031 C 
ATOM     54  C   UNL A   1      43.180  27.020  35.240  1.00  0.00     0.029 A 
ATOM     55  C   UNL A   1      44.148  27.025  34.142  1.00  0.00     0.049 A 
ATOM     56  H   UNL A   1      44.332  28.453  32.640  1.00  0.00     0.167 HD
ATOM     57  C   UNL A   1      44.699  31.538  29.593  1.00  0.00     0.037 A 
ATOM     58  C   UNL A   1      45.113  26.107  33.937  1.00  0.00     0.037 A 
ATOM     59  C   UNL A   1      45.836  30.691  29.381  1.00  0.00     0.049 A 
ATOM     60  C   UNL A   1      46.089  26.287  32.801  1.00  0.00     0.074 A 
ATOM     61  C   UNL A   1      46.866  30.844  28.471  1.00  0.00     0.029 A 
ATOM     62  N   UNL A   1      46.091  29.527  30.089  1.00  0.00    -0.354 N 
ATOM     63  N   UNL A   1      46.173  27.262  31.929  1.00  0.00    -0.248 NA
ATOM     64  C   UNL A   1      47.121  25.251  32.637  1.00  0.00     0.031 C 
ATOM     65  C   UNL A   1      47.722  29.745  28.598  1.00  0.00     0.029 A 
ATOM     66  C   UNL A   1      47.251  28.935  29.618  1.00  0.00     0.049 A 
ATOM     67  H   UNL A   1      45.531  29.173  30.817  1.00  0.00     0.167 HD
ATOM     68  C   UNL A   1      47.288  26.985  31.147  1.00  0.00     0.074 A 
ATOM     69  C   UNL A   1      47.846  25.743  31.640  1.00  0.00     0.031 C 
ATOM     70  C   UNL A   1      47.808  27.705  30.123  1.00  0.00     0.037 A 
BRANCH  57  71
ATOM     71  C   UNL A   1      44.544  32.769  28.751  1.00  0.00     0.064 A 
ATOM     72  C   UNL A   1      44.848  34.042  29.260  1.00  0.00     0.173 A 
ATOM     73  C   UNL A   1      44.071  32.682  27.435  1.00  0.00     0.173 A 
ATOM     74  F   UNL A   1      45.284  34.179  30.522  1.00  0.00    -0.203 F 
ATOM     75  C   UNL A   1      44.644  35.185  28.494  1.00  0.00     0.198 A 
ATOM     76  C   UNL A   1      43.899  33.825  26.661  1.00  0.00     0.198 A 
ATOM     77  F   UNL A   1      43.765  31.488  26.904  1.00  0.00    -0.203 F 
ATOM     78  F   UNL A   1      44.876  36.394  29.025  1.00  0.00    -0.200 F 
ATOM     79  C   UNL A   1      44.175  35.076  27.194  1.00  0.00     0.200 A 
ATOM     80  F   UNL A   1      43.453  33.719  25.402  1.00  0.00    -0.200 F 
ATOM     81  F   UNL A   1      43.974  36.178  26.459  1.00  0.00    -0.200 F 
ENDBRANCH  57  71
BRANCH  58  82
ATOM     82  C   UNL A   1      45.235  24.947  34.857  1.00  0.00     0.064 A 
ATOM     83  C   UNL A   1      45.873  25.078  36.097  1.00  0.00     0.173 A 
ATOM     84  C   UNL A   1      44.716  23.689  34.518  1.00  0.00     0.173 A 
ATOM     85  F   UNL A   1      46.410  26.254  36.451  1.00  0.00    -0.203 F 
ATOM     86  C   UNL A   1      45.990  23.993  36.965  1.00  0.00     0.198 A 
ATOM     87  C   UNL A   1      44.819  22.609  35.395  1.00  0.00     0.198 A 
ATOM     88  F   UNL A   1      44.104  23.510  33.339  1.00  0.00    -0.203 F 
ATOM     89  F   UNL A   1      46.628  24.140  38.134  1.00  0.00    -0.200 F 
ATOM     90  C   UNL A   1      45.456  22.762  36.616  1.00  0.00     0.200 A 
ATOM     91  F   UNL A   1      44.300  21.421  35.055  1.00  0.00    -0.200 F 
ATOM     92  F   UNL A   1      45.564  21.722  37.454  1.00  0.00    -0.200 F 
ENDBRANCH  58  82
BRANCH  70  93
ATOM     93  C   UNL A   1      49.065  27.207  29.472  1.00  0.00     0.064 A 
ATOM     94  C   UNL A   1      49.040  26.196  28.503  1.00  0.00     0.173 A 
ATOM     95  C   UNL A   1      50.297  27.825  29.747  1.00  0.00     0.173 A 
ATOM     96  F   UNL A   1      47.892  25.569  28.211  1.00  0.00    -0.203 F 
ATOM     97  C   UNL A   1      50.203  25.817  27.835  1.00  0.00     0.198 A 
ATOM     98  C   UNL A   1      51.451  27.463  29.058  1.00  0.00     0.198 A 
ATOM     99  F   UNL A   1      50.372  28.805  30.660  1.00  0.00    -0.203 F 
ATOM    100  F   UNL A   1      50.161  24.832  26.927  1.00  0.00    -0.200 F 
ATOM    101  C   UNL A   1      51.404  26.459  28.103  1.00  0.00     0.200 A 
ATOM    102  F   UNL A   1      52.605  28.098  29.306  1.00  0.00    -0.200 F 
ATOM    103  F   UNL A   1      52.515  26.109  27.442  1.00  0.00    -0.200 F 
ENDBRANCH  70  93
ENDBRANCH  44  45
ENDBRANCH  37  39
ENDBRANCH  36  37
ENDBRANCH  35  36
ENDBRANCH  34  35
ENDBRANCH  33  34
ENDBRANCH  32  33
ENDBRANCH   1  32
TORSDOF 21
ENDMDL
