MODEL 1
REMARK VINA RESULT:     -11.8      0.000      0.000
REMARK SMILES Cc1cccc(-c2c(C(=O)OCCOCCOCCOCCOC(=O)c3ccc(-c4c5nc(c(-c6c(F)c(F)c(F)c(F)c6F)c6ccc([nH]6)c(-c6c(F)c(F)c(F)c(F)c6F)c6nc(c(-c7c(F)c(F)c(F)c(F)c7F)c7ccc4[nH]7)C=C6)C=C5)cc3)nnn2Cc2cc(F)cc(F)c2)c1
REMARK SMILES IDX 17 1 16 2 15 3 14 4 13 5 12 6 11 7 9 8 10 9 8 10 7 11 91 12
REMARK SMILES IDX 89 13 90 14 6 15 1 16 2 17 3 18 101 19 4 20 5 21 92 22 93 23
REMARK SMILES IDX 94 24 100 25 95 26 98 27 96 28 97 29 99 30 18 31 19 32 20 33
REMARK SMILES IDX 21 34 22 35 23 36 24 37 25 38 26 39 27 40 88 41 28 42 87 43
REMARK SMILES IDX 29 44 30 45 31 46 81 47 32 48 86 49 80 50 82 51 33 52 85 53
REMARK SMILES IDX 79 54 78 55 34 57 66 58 46 59 65 60 47 61 50 62 64 63 83 64
REMARK SMILES IDX 48 65 49 66 63 68 84 69 51 70 35 71 36 72 44 73 37 74 38 75
REMARK SMILES IDX 42 76 45 77 39 78 40 79 43 80 41 81 67 82 68 83 76 84 69 85
REMARK SMILES IDX 70 86 74 87 77 88 71 89 72 90 75 91 73 92 52 93 53 94 61 95
REMARK SMILES IDX 54 96 55 97 59 98 62 99 56 100 57 101 60 102 58 103
REMARK H PARENT 82 56 50 67
REMARK Flexibility Score: inf
ROOT
ATOM      1  O   UNL A   1      40.802  19.436  26.305  1.00  0.00    -0.377 OA
ENDROOT
BRANCH   1   2
ATOM      2  C   UNL A   1      40.634  20.843  26.380  1.00  0.00     0.188 C 
BRANCH   2   3
ATOM      3  C   UNL A   1      39.338  21.443  25.811  1.00  0.00     0.188 C 
BRANCH   3   4
ATOM      4  O   UNL A   1      38.806  22.620  26.405  1.00  0.00    -0.376 OA
BRANCH   4   5
ATOM      5  C   UNL A   1      37.660  23.202  25.779  1.00  0.00     0.202 C 
BRANCH   5   6
ATOM      6  C   UNL A   1      36.615  22.234  25.240  1.00  0.00     0.261 C 
BRANCH   6   7
ATOM      7  O   UNL A   1      35.399  22.974  25.067  1.00  0.00    -0.458 OA
BRANCH   7   8
ATOM      8  C   UNL A   1      34.330  22.355  25.624  1.00  0.00     0.361 C 
ATOM      9  O   UNL A   1      34.328  21.193  25.993  1.00  0.00    -0.244 OA
BRANCH   8  10
ATOM     10  C   UNL A   1      33.296  23.303  25.977  1.00  0.00     0.198 A 
ATOM     11  C   UNL A   1      32.799  24.433  25.331  1.00  0.00     0.104 A 
ATOM     12  N   UNL A   1      31.655  24.667  26.083  1.00  0.00    -0.239 N 
ATOM     13  N   UNL A   1      32.658  23.147  27.189  1.00  0.00    -0.122 NA
ATOM     14  N   UNL A   1      31.706  24.052  27.276  1.00  0.00    -0.066 NA
BRANCH  11  15
ATOM     15  C   UNL A   1      33.038  25.092  24.042  1.00  0.00     0.003 A 
ATOM     16  C   UNL A   1      34.172  28.538  22.810  1.00  0.00     0.044 C 
ATOM     17  C   UNL A   1      33.622  27.141  22.830  1.00  0.00    -0.050 A 
ATOM     18  C   UNL A   1      33.094  26.587  21.661  1.00  0.00     0.003 A 
ATOM     19  C   UNL A   1      33.606  26.379  24.009  1.00  0.00     0.013 A 
ATOM     20  C   UNL A   1      32.582  25.289  21.666  1.00  0.00     0.001 A 
ATOM     21  C   UNL A   1      32.565  24.541  22.847  1.00  0.00     0.010 A 
ENDBRANCH  11  15
BRANCH  12  22
ATOM     22  C   UNL A   1      30.366  25.180  25.634  1.00  0.00     0.182 C 
BRANCH  22  23
ATOM     23  C   UNL A   1      30.420  26.605  25.109  1.00  0.00    -0.021 A 
ATOM     24  C   UNL A   1      31.089  27.572  25.871  1.00  0.00     0.045 A 
ATOM     25  C   UNL A   1      29.848  27.016  23.890  1.00  0.00     0.045 A 
ATOM     26  C   UNL A   1      31.257  28.865  25.377  1.00  0.00     0.126 A 
ATOM     27  C   UNL A   1      30.078  28.296  23.390  1.00  0.00     0.126 A 
ATOM     28  F   UNL A   1      31.904  29.768  26.123  1.00  0.00    -0.207 F 
ATOM     29  C   UNL A   1      30.786  29.229  24.125  1.00  0.00     0.078 A 
ATOM     30  F   UNL A   1      29.631  28.611  22.168  1.00  0.00    -0.207 F 
ENDBRANCH  22  23
ENDBRANCH  12  22
ENDBRANCH   8  10
ENDBRANCH   7   8
ENDBRANCH   6   7
ENDBRANCH   5   6
ENDBRANCH   4   5
ENDBRANCH   3   4
ENDBRANCH   2   3
ENDBRANCH   1   2
BRANCH   1  31
ATOM     31  C   UNL A   1      42.079  18.869  26.603  1.00  0.00     0.188 C 
BRANCH  31  32
ATOM     32  C   UNL A   1      43.327  19.397  25.894  1.00  0.00     0.188 C 
BRANCH  32  33
ATOM     33  O   UNL A   1      43.678  18.473  24.868  1.00  0.00    -0.376 OA
BRANCH  33  34
ATOM     34  C   UNL A   1      44.949  18.680  24.258  1.00  0.00     0.202 C 
BRANCH  34  35
ATOM     35  C   UNL A   1      45.929  19.470  25.132  1.00  0.00     0.261 C 
BRANCH  35  36
ATOM     36  O   UNL A   1      46.399  20.617  24.401  1.00  0.00    -0.460 OA
BRANCH  36  37
ATOM     37  C   UNL A   1      45.510  21.642  24.322  1.00  0.00     0.338 C 
ATOM     38  O   UNL A   1      44.647  21.765  23.468  1.00  0.00    -0.246 OA
BRANCH  37  39
ATOM     39  C   UNL A   1      45.917  22.728  25.256  1.00  0.00     0.060 A 
ATOM     40  C   UNL A   1      45.417  22.736  26.568  1.00  0.00     0.016 A 
ATOM     41  C   UNL A   1      46.529  23.869  24.748  1.00  0.00     0.016 A 
ATOM     42  C   UNL A   1      45.381  23.933  27.299  1.00  0.00     0.010 A 
ATOM     43  C   UNL A   1      46.409  25.059  25.440  1.00  0.00     0.010 A 
ATOM     44  C   UNL A   1      45.789  25.124  26.698  1.00  0.00    -0.014 A 
BRANCH  44  45
ATOM     45  C   UNL A   1      45.433  26.477  27.175  1.00  0.00     0.031 A 
ATOM     46  C   UNL A   1      44.025  26.978  27.059  1.00  0.00     0.074 A 
ATOM     47  C   UNL A   1      46.282  27.136  28.011  1.00  0.00     0.049 A 
ATOM     48  N   UNL A   1      43.614  28.071  27.605  1.00  0.00    -0.248 NA
ATOM     49  C   UNL A   1      42.947  26.319  26.323  1.00  0.00     0.031 C 
ATOM     50  C   UNL A   1      45.898  28.094  29.050  1.00  0.00     0.029 A 
ATOM     51  N   UNL A   1      47.681  27.089  28.134  1.00  0.00    -0.354 N 
ATOM     52  C   UNL A   1      42.244  28.110  27.589  1.00  0.00     0.074 A 
ATOM     53  C   UNL A   1      41.880  27.047  26.688  1.00  0.00     0.031 C 
ATOM     54  C   UNL A   1      46.971  28.655  29.607  1.00  0.00     0.029 A 
ATOM     55  C   UNL A   1      48.085  28.284  28.781  1.00  0.00     0.049 A 
ATOM     56  H   UNL A   1      48.270  26.361  27.829  1.00  0.00     0.167 HD
ATOM     57  C   UNL A   1      41.623  28.994  28.427  1.00  0.00     0.037 A 
ATOM     58  C   UNL A   1      48.867  29.210  28.155  1.00  0.00     0.037 A 
ATOM     59  C   UNL A   1      42.586  29.963  28.982  1.00  0.00     0.049 A 
ATOM     60  C   UNL A   1      48.164  30.534  27.949  1.00  0.00     0.074 A 
ATOM     61  C   UNL A   1      43.003  30.332  30.250  1.00  0.00     0.029 A 
ATOM     62  N   UNL A   1      43.426  30.640  28.096  1.00  0.00    -0.354 N 
ATOM     63  N   UNL A   1      46.860  30.648  27.955  1.00  0.00    -0.248 NA
ATOM     64  C   UNL A   1      48.821  31.829  27.815  1.00  0.00     0.031 C 
ATOM     65  C   UNL A   1      44.107  31.225  30.113  1.00  0.00     0.029 A 
ATOM     66  C   UNL A   1      44.337  31.427  28.762  1.00  0.00     0.049 A 
ATOM     67  H   UNL A   1      43.375  30.562  27.116  1.00  0.00     0.167 HD
ATOM     68  C   UNL A   1      46.499  31.967  27.916  1.00  0.00     0.074 A 
ATOM     69  C   UNL A   1      47.764  32.666  27.787  1.00  0.00     0.031 C 
ATOM     70  C   UNL A   1      45.192  32.353  28.027  1.00  0.00     0.037 A 
BRANCH  57  71
ATOM     71  C   UNL A   1      40.157  28.975  28.845  1.00  0.00     0.064 A 
ATOM     72  C   UNL A   1      39.133  29.298  27.919  1.00  0.00     0.173 A 
ATOM     73  C   UNL A   1      39.688  28.729  30.152  1.00  0.00     0.173 A 
ATOM     74  F   UNL A   1      39.410  29.574  26.638  1.00  0.00    -0.203 F 
ATOM     75  C   UNL A   1      37.778  29.358  28.270  1.00  0.00     0.198 A 
ATOM     76  C   UNL A   1      38.327  28.734  30.489  1.00  0.00     0.198 A 
ATOM     77  F   UNL A   1      40.517  28.522  31.177  1.00  0.00    -0.203 F 
ATOM     78  F   UNL A   1      36.867  29.715  27.353  1.00  0.00    -0.200 F 
ATOM     79  C   UNL A   1      37.372  29.057  29.551  1.00  0.00     0.200 A 
ATOM     80  F   UNL A   1      37.957  28.440  31.744  1.00  0.00    -0.200 F 
ATOM     81  F   UNL A   1      36.076  29.090  29.884  1.00  0.00    -0.200 F 
ENDBRANCH  57  71
BRANCH  58  82
ATOM     82  C   UNL A   1      49.980  28.556  27.421  1.00  0.00     0.064 A 
ATOM     83  C   UNL A   1      50.985  28.033  28.265  1.00  0.00     0.173 A 
ATOM     84  C   UNL A   1      49.728  27.877  26.219  1.00  0.00     0.173 A 
ATOM     85  F   UNL A   1      51.280  28.661  29.414  1.00  0.00    -0.203 F 
ATOM     86  C   UNL A   1      51.519  26.765  28.048  1.00  0.00     0.198 A 
ATOM     87  C   UNL A   1      50.296  26.619  25.989  1.00  0.00     0.198 A 
ATOM     88  F   UNL A   1      48.788  28.325  25.375  1.00  0.00    -0.203 F 
ATOM     89  F   UNL A   1      52.297  26.200  28.982  1.00  0.00    -0.200 F 
ATOM     90  C   UNL A   1      51.136  26.040  26.932  1.00  0.00     0.200 A 
ATOM     91  F   UNL A   1      49.922  25.902  24.918  1.00  0.00    -0.200 F 
ATOM     92  F   UNL A   1      51.523  24.763  26.799  1.00  0.00    -0.200 F 
ENDBRANCH  58  82
BRANCH  70  93
ATOM     93  C   UNL A   1      44.557  33.637  27.513  1.00  0.00     0.064 A 
ATOM     94  C   UNL A   1      43.991  33.791  26.238  1.00  0.00     0.173 A 
ATOM     95  C   UNL A   1      44.310  34.721  28.404  1.00  0.00     0.173 A 
ATOM     96  F   UNL A   1      44.075  32.833  25.308  1.00  0.00    -0.203 F 
ATOM     97  C   UNL A   1      43.252  34.926  25.882  1.00  0.00     0.198 A 
ATOM     98  C   UNL A   1      43.524  35.821  28.064  1.00  0.00     0.198 A 
ATOM     99  F   UNL A   1      44.777  34.737  29.660  1.00  0.00    -0.203 F 
ATOM    100  F   UNL A   1      42.747  35.021  24.644  1.00  0.00    -0.200 F 
ATOM    101  C   UNL A   1      42.999  35.928  26.799  1.00  0.00     0.200 A 
ATOM    102  F   UNL A   1      43.254  36.756  28.987  1.00  0.00    -0.200 F 
ATOM    103  F   UNL A   1      42.231  36.975  26.471  1.00  0.00    -0.200 F 
ENDBRANCH  70  93
ENDBRANCH  44  45
ENDBRANCH  37  39
ENDBRANCH  36  37
ENDBRANCH  35  36
ENDBRANCH  34  35
ENDBRANCH  33  34
ENDBRANCH  32  33
ENDBRANCH  31  32
ENDBRANCH   1  31
TORSDOF 23
ENDMDL
MODEL 2
REMARK VINA RESULT:     -11.1      2.762      4.563
REMARK SMILES Cc1cccc(-c2c(C(=O)OCCOCCOCCOCCOC(=O)c3ccc(-c4c5nc(c(-c6c(F)c(F)c(F)c(F)c6F)c6ccc([nH]6)c(-c6c(F)c(F)c(F)c(F)c6F)c6nc(c(-c7c(F)c(F)c(F)c(F)c7F)c7ccc4[nH]7)C=C6)C=C5)cc3)nnn2Cc2cc(F)cc(F)c2)c1
REMARK SMILES IDX 17 1 16 2 15 3 14 4 13 5 12 6 11 7 9 8 10 9 8 10 7 11 91 12
REMARK SMILES IDX 89 13 90 14 6 15 1 16 2 17 3 18 101 19 4 20 5 21 92 22 93 23
REMARK SMILES IDX 94 24 100 25 95 26 98 27 96 28 97 29 99 30 18 31 19 32 20 33
REMARK SMILES IDX 21 34 22 35 23 36 24 37 25 38 26 39 27 40 88 41 28 42 87 43
REMARK SMILES IDX 29 44 30 45 31 46 81 47 32 48 86 49 80 50 82 51 33 52 85 53
REMARK SMILES IDX 79 54 78 55 34 57 66 58 46 59 65 60 47 61 50 62 64 63 83 64
REMARK SMILES IDX 48 65 49 66 63 68 84 69 51 70 35 71 36 72 44 73 37 74 38 75
REMARK SMILES IDX 42 76 45 77 39 78 40 79 43 80 41 81 67 82 68 83 76 84 69 85
REMARK SMILES IDX 70 86 74 87 77 88 71 89 72 90 75 91 73 92 52 93 53 94 61 95
REMARK SMILES IDX 54 96 55 97 59 98 62 99 56 100 57 101 60 102 58 103
REMARK H PARENT 82 56 50 67
REMARK Flexibility Score: inf
ROOT
ATOM      1  O   UNL A   1      40.289  18.837  25.712  1.00  0.00    -0.377 OA
ENDROOT
BRANCH   1   2
ATOM      2  C   UNL A   1      39.368  19.917  25.704  1.00  0.00     0.188 C 
BRANCH   2   3
ATOM      3  C   UNL A   1      38.060  19.739  24.916  1.00  0.00     0.188 C 
BRANCH   3   4
ATOM      4  O   UNL A   1      37.151  20.828  24.836  1.00  0.00    -0.376 OA
BRANCH   4   5
ATOM      5  C   UNL A   1      37.429  21.968  25.653  1.00  0.00     0.202 C 
BRANCH   5   6
ATOM      6  C   UNL A   1      37.352  23.328  24.971  1.00  0.00     0.261 C 
BRANCH   6   7
ATOM      7  O   UNL A   1      36.117  23.935  25.374  1.00  0.00    -0.458 OA
BRANCH   7   8
ATOM      8  C   UNL A   1      35.098  23.651  24.527  1.00  0.00     0.361 C 
ATOM      9  O   UNL A   1      35.234  23.074  23.463  1.00  0.00    -0.244 OA
BRANCH   8  10
ATOM     10  C   UNL A   1      33.813  23.865  25.158  1.00  0.00     0.198 A 
ATOM     11  C   UNL A   1      33.139  25.021  25.544  1.00  0.00     0.104 A 
ATOM     12  N   UNL A   1      31.877  24.500  25.800  1.00  0.00    -0.239 N 
ATOM     13  N   UNL A   1      33.070  22.758  25.508  1.00  0.00    -0.122 NA
ATOM     14  N   UNL A   1      31.913  23.170  25.983  1.00  0.00    -0.066 NA
BRANCH  11  15
ATOM     15  C   UNL A   1      33.382  26.463  25.428  1.00  0.00     0.003 A 
ATOM     16  C   UNL A   1      32.510  29.632  27.397  1.00  0.00     0.044 C 
ATOM     17  C   UNL A   1      32.980  28.717  26.303  1.00  0.00    -0.050 A 
ATOM     18  C   UNL A   1      33.393  29.254  25.081  1.00  0.00     0.003 A 
ATOM     19  C   UNL A   1      32.996  27.324  26.472  1.00  0.00     0.013 A 
ATOM     20  C   UNL A   1      33.834  28.415  24.058  1.00  0.00     0.001 A 
ATOM     21  C   UNL A   1      33.840  27.027  24.233  1.00  0.00     0.010 A 
ENDBRANCH  11  15
BRANCH  12  22
ATOM     22  C   UNL A   1      30.577  25.123  25.575  1.00  0.00     0.182 C 
BRANCH  22  23
ATOM     23  C   UNL A   1      30.524  26.006  24.340  1.00  0.00    -0.021 A 
ATOM     24  C   UNL A   1      30.082  27.328  24.484  1.00  0.00     0.045 A 
ATOM     25  C   UNL A   1      30.907  25.583  23.054  1.00  0.00     0.045 A 
ATOM     26  C   UNL A   1      30.120  28.205  23.400  1.00  0.00     0.126 A 
ATOM     27  C   UNL A   1      30.992  26.490  22.001  1.00  0.00     0.126 A 
ATOM     28  F   UNL A   1      29.696  29.463  23.565  1.00  0.00    -0.207 F 
ATOM     29  C   UNL A   1      30.604  27.806  22.164  1.00  0.00     0.078 A 
ATOM     30  F   UNL A   1      31.486  26.083  20.824  1.00  0.00    -0.207 F 
ENDBRANCH  22  23
ENDBRANCH  12  22
ENDBRANCH   8  10
ENDBRANCH   7   8
ENDBRANCH   6   7
ENDBRANCH   5   6
ENDBRANCH   4   5
ENDBRANCH   3   4
ENDBRANCH   2   3
ENDBRANCH   1   2
BRANCH   1  31
ATOM     31  C   UNL A   1      41.686  19.112  25.835  1.00  0.00     0.188 C 
BRANCH  31  32
ATOM     32  C   UNL A   1      42.298  19.319  27.221  1.00  0.00     0.188 C 
BRANCH  32  33
ATOM     33  O   UNL A   1      42.747  20.668  27.310  1.00  0.00    -0.376 OA
BRANCH  33  34
ATOM     34  C   UNL A   1      42.892  21.355  26.069  1.00  0.00     0.202 C 
BRANCH  34  35
ATOM     35  C   UNL A   1      42.690  22.870  26.179  1.00  0.00     0.261 C 
BRANCH  35  36
ATOM     36  O   UNL A   1      41.301  23.180  25.965  1.00  0.00    -0.460 OA
BRANCH  36  37
ATOM     37  C   UNL A   1      40.573  23.336  27.102  1.00  0.00     0.338 C 
ATOM     38  O   UNL A   1      40.165  22.429  27.808  1.00  0.00    -0.246 OA
BRANCH  37  39
ATOM     39  C   UNL A   1      40.110  24.747  27.207  1.00  0.00     0.060 A 
ATOM     40  C   UNL A   1      40.600  25.706  26.306  1.00  0.00     0.016 A 
ATOM     41  C   UNL A   1      39.449  25.163  28.359  1.00  0.00     0.016 A 
ATOM     42  C   UNL A   1      40.576  27.066  26.645  1.00  0.00     0.010 A 
ATOM     43  C   UNL A   1      39.510  26.495  28.723  1.00  0.00     0.010 A 
ATOM     44  C   UNL A   1      40.118  27.459  27.903  1.00  0.00    -0.014 A 
BRANCH  44  45
ATOM     45  C   UNL A   1      40.408  28.760  28.541  1.00  0.00     0.031 A 
ATOM     46  C   UNL A   1      39.349  29.817  28.628  1.00  0.00     0.074 A 
ATOM     47  C   UNL A   1      41.505  28.885  29.338  1.00  0.00     0.049 A 
ATOM     48  N   UNL A   1      39.481  30.899  29.316  1.00  0.00    -0.248 NA
ATOM     49  C   UNL A   1      38.051  29.776  27.956  1.00  0.00     0.031 C 
ATOM     50  C   UNL A   1      41.633  29.769  30.497  1.00  0.00     0.029 A 
ATOM     51  N   UNL A   1      42.753  28.238  29.302  1.00  0.00    -0.354 N 
ATOM     52  C   UNL A   1      38.263  31.512  29.453  1.00  0.00     0.074 A 
ATOM     53  C   UNL A   1      37.424  30.830  28.502  1.00  0.00     0.031 C 
ATOM     54  C   UNL A   1      42.874  29.748  30.984  1.00  0.00     0.029 A 
ATOM     55  C   UNL A   1      43.669  29.055  30.010  1.00  0.00     0.049 A 
ATOM     56  H   UNL A   1      42.952  27.377  28.867  1.00  0.00     0.167 HD
ATOM     57  C   UNL A   1      38.133  32.456  30.434  1.00  0.00     0.037 A 
ATOM     58  C   UNL A   1      44.735  29.641  29.392  1.00  0.00     0.037 A 
ATOM     59  C   UNL A   1      39.450  32.848  30.969  1.00  0.00     0.049 A 
ATOM     60  C   UNL A   1      44.660  31.152  29.390  1.00  0.00     0.074 A 
ATOM     61  C   UNL A   1      40.059  32.836  32.213  1.00  0.00     0.029 A 
ATOM     62  N   UNL A   1      40.446  33.219  30.064  1.00  0.00    -0.354 N 
ATOM     63  N   UNL A   1      43.534  31.802  29.550  1.00  0.00    -0.248 NA
ATOM     64  C   UNL A   1      45.801  32.057  29.308  1.00  0.00     0.031 C 
ATOM     65  C   UNL A   1      41.429  33.192  32.041  1.00  0.00     0.029 A 
ATOM     66  C   UNL A   1      41.644  33.456  30.697  1.00  0.00     0.049 A 
ATOM     67  H   UNL A   1      40.309  33.301  29.093  1.00  0.00     0.167 HD
ATOM     68  C   UNL A   1      43.775  33.143  29.675  1.00  0.00     0.074 A 
ATOM     69  C   UNL A   1      45.207  33.256  29.475  1.00  0.00     0.031 C 
ATOM     70  C   UNL A   1      42.769  34.024  29.964  1.00  0.00     0.037 A 
BRANCH  57  71
ATOM     71  C   UNL A   1      36.829  33.000  31.007  1.00  0.00     0.064 A 
ATOM     72  C   UNL A   1      35.997  33.851  30.237  1.00  0.00     0.173 A 
ATOM     73  C   UNL A   1      36.372  32.795  32.325  1.00  0.00     0.173 A 
ATOM     74  F   UNL A   1      36.295  34.161  28.968  1.00  0.00    -0.203 F 
ATOM     75  C   UNL A   1      34.823  34.429  30.739  1.00  0.00     0.198 A 
ATOM     76  C   UNL A   1      35.169  33.328  32.808  1.00  0.00     0.198 A 
ATOM     77  F   UNL A   1      37.085  32.116  33.226  1.00  0.00    -0.203 F 
ATOM     78  F   UNL A   1      34.107  35.262  29.969  1.00  0.00    -0.200 F 
ATOM     79  C   UNL A   1      34.398  34.152  32.019  1.00  0.00     0.200 A 
ATOM     80  F   UNL A   1      34.778  33.045  34.060  1.00  0.00    -0.200 F 
ATOM     81  F   UNL A   1      33.264  34.682  32.494  1.00  0.00    -0.200 F 
ENDBRANCH  57  71
BRANCH  58  82
ATOM     82  C   UNL A   1      45.412  28.683  28.482  1.00  0.00     0.064 A 
ATOM     83  C   UNL A   1      45.343  29.051  27.119  1.00  0.00     0.173 A 
ATOM     84  C   UNL A   1      46.559  27.996  28.908  1.00  0.00     0.173 A 
ATOM     85  F   UNL A   1      44.254  29.687  26.658  1.00  0.00    -0.203 F 
ATOM     86  C   UNL A   1      46.463  28.973  26.296  1.00  0.00     0.198 A 
ATOM     87  C   UNL A   1      47.669  27.889  28.063  1.00  0.00     0.198 A 
ATOM     88  F   UNL A   1      46.683  27.618  30.188  1.00  0.00    -0.203 F 
ATOM     89  F   UNL A   1      46.437  29.537  25.080  1.00  0.00    -0.200 F 
ATOM     90  C   UNL A   1      47.640  28.434  26.786  1.00  0.00     0.200 A 
ATOM     91  F   UNL A   1      48.819  27.381  28.532  1.00  0.00    -0.200 F 
ATOM     92  F   UNL A   1      48.762  28.500  26.053  1.00  0.00    -0.200 F 
ENDBRANCH  58  82
BRANCH  70  93
ATOM     93  C   UNL A   1      42.720  35.512  29.646  1.00  0.00     0.064 A 
ATOM     94  C   UNL A   1      43.428  36.500  30.347  1.00  0.00     0.173 A 
ATOM     95  C   UNL A   1      42.094  35.969  28.451  1.00  0.00     0.173 A 
ATOM     96  F   UNL A   1      44.127  36.218  31.452  1.00  0.00    -0.203 F 
ATOM     97  C   UNL A   1      43.501  37.825  29.899  1.00  0.00     0.198 A 
ATOM     98  C   UNL A   1      42.217  37.275  27.978  1.00  0.00     0.198 A 
ATOM     99  F   UNL A   1      41.377  35.156  27.661  1.00  0.00    -0.203 F 
ATOM    100  F   UNL A   1      44.182  38.726  30.619  1.00  0.00    -0.200 F 
ATOM    101  C   UNL A   1      42.917  38.206  28.706  1.00  0.00     0.200 A 
ATOM    102  F   UNL A   1      41.681  37.607  26.794  1.00  0.00    -0.200 F 
ATOM    103  F   UNL A   1      43.051  39.459  28.251  1.00  0.00    -0.200 F 
ENDBRANCH  70  93
ENDBRANCH  44  45
ENDBRANCH  37  39
ENDBRANCH  36  37
ENDBRANCH  35  36
ENDBRANCH  34  35
ENDBRANCH  33  34
ENDBRANCH  32  33
ENDBRANCH  31  32
ENDBRANCH   1  31
TORSDOF 23
ENDMDL
MODEL 3
REMARK VINA RESULT:     -11.1      1.051      2.032
REMARK SMILES Cc1cccc(-c2c(C(=O)OCCOCCOCCOCCOC(=O)c3ccc(-c4c5nc(c(-c6c(F)c(F)c(F)c(F)c6F)c6ccc([nH]6)c(-c6c(F)c(F)c(F)c(F)c6F)c6nc(c(-c7c(F)c(F)c(F)c(F)c7F)c7ccc4[nH]7)C=C6)C=C5)cc3)nnn2Cc2cc(F)cc(F)c2)c1
REMARK SMILES IDX 17 1 16 2 15 3 14 4 13 5 12 6 11 7 9 8 10 9 8 10 7 11 91 12
REMARK SMILES IDX 89 13 90 14 6 15 1 16 2 17 3 18 101 19 4 20 5 21 92 22 93 23
REMARK SMILES IDX 94 24 100 25 95 26 98 27 96 28 97 29 99 30 18 31 19 32 20 33
REMARK SMILES IDX 21 34 22 35 23 36 24 37 25 38 26 39 27 40 88 41 28 42 87 43
REMARK SMILES IDX 29 44 30 45 31 46 81 47 32 48 86 49 80 50 82 51 33 52 85 53
REMARK SMILES IDX 79 54 78 55 34 57 66 58 46 59 65 60 47 61 50 62 64 63 83 64
REMARK SMILES IDX 48 65 49 66 63 68 84 69 51 70 35 71 36 72 44 73 37 74 38 75
REMARK SMILES IDX 42 76 45 77 39 78 40 79 43 80 41 81 67 82 68 83 76 84 69 85
REMARK SMILES IDX 70 86 74 87 77 88 71 89 72 90 75 91 73 92 52 93 53 94 61 95
REMARK SMILES IDX 54 96 55 97 59 98 62 99 56 100 57 101 60 102 58 103
REMARK H PARENT 82 56 50 67
REMARK Flexibility Score: inf
ROOT
ATOM      1  O   UNL A   1      42.187  20.087  27.231  1.00  0.00    -0.377 OA
ENDROOT
BRANCH   1   2
ATOM      2  C   UNL A   1      41.856  21.419  27.589  1.00  0.00     0.188 C 
BRANCH   2   3
ATOM      3  C   UNL A   1      41.043  22.252  26.585  1.00  0.00     0.188 C 
BRANCH   3   4
ATOM      4  O   UNL A   1      40.588  23.542  26.970  1.00  0.00    -0.376 OA
BRANCH   4   5
ATOM      5  C   UNL A   1      39.346  23.984  26.419  1.00  0.00     0.202 C 
BRANCH   5   6
ATOM      6  C   UNL A   1      38.303  22.908  26.144  1.00  0.00     0.261 C 
BRANCH   6   7
ATOM      7  O   UNL A   1      37.017  23.488  26.399  1.00  0.00    -0.458 OA
BRANCH   7   8
ATOM      8  C   UNL A   1      36.276  23.625  25.272  1.00  0.00     0.361 C 
ATOM      9  O   UNL A   1      36.746  23.700  24.150  1.00  0.00    -0.244 OA
BRANCH   8  10
ATOM     10  C   UNL A   1      34.872  23.393  25.533  1.00  0.00     0.198 A 
ATOM     11  C   UNL A   1      33.804  24.260  25.755  1.00  0.00     0.104 A 
ATOM     12  N   UNL A   1      32.738  23.376  25.639  1.00  0.00    -0.239 N 
ATOM     13  N   UNL A   1      34.436  22.089  25.632  1.00  0.00    -0.122 NA
ATOM     14  N   UNL A   1      33.129  22.100  25.785  1.00  0.00    -0.066 NA
BRANCH  11  15
ATOM     15  C   UNL A   1      33.619  25.715  25.754  1.00  0.00     0.003 A 
ATOM     16  C   UNL A   1      31.517  28.287  27.662  1.00  0.00     0.044 C 
ATOM     17  C   UNL A   1      32.418  27.660  26.638  1.00  0.00    -0.050 A 
ATOM     18  C   UNL A   1      32.851  28.412  25.542  1.00  0.00     0.003 A 
ATOM     19  C   UNL A   1      32.822  26.320  26.743  1.00  0.00     0.013 A 
ATOM     20  C   UNL A   1      33.690  27.842  24.585  1.00  0.00     0.001 A 
ATOM     21  C   UNL A   1      34.082  26.504  24.695  1.00  0.00     0.010 A 
ENDBRANCH  11  15
BRANCH  12  22
ATOM     22  C   UNL A   1      31.411  23.626  25.086  1.00  0.00     0.182 C 
BRANCH  22  23
ATOM     23  C   UNL A   1      31.415  24.524  23.861  1.00  0.00    -0.021 A 
ATOM     24  C   UNL A   1      30.600  25.664  23.868  1.00  0.00     0.045 A 
ATOM     25  C   UNL A   1      32.201  24.290  22.717  1.00  0.00     0.045 A 
ATOM     26  C   UNL A   1      30.654  26.574  22.811  1.00  0.00     0.126 A 
ATOM     27  C   UNL A   1      32.282  25.241  21.702  1.00  0.00     0.126 A 
ATOM     28  F   UNL A   1      29.869  27.657  22.844  1.00  0.00    -0.207 F 
ATOM     29  C   UNL A   1      31.515  26.389  21.741  1.00  0.00     0.078 A 
ATOM     30  F   UNL A   1      33.140  25.047  20.691  1.00  0.00    -0.207 F 
ENDBRANCH  22  23
ENDBRANCH  12  22
ENDBRANCH   8  10
ENDBRANCH   7   8
ENDBRANCH   6   7
ENDBRANCH   5   6
ENDBRANCH   4   5
ENDBRANCH   3   4
ENDBRANCH   2   3
ENDBRANCH   1   2
BRANCH   1  31
ATOM     31  C   UNL A   1      42.420  19.771  25.857  1.00  0.00     0.188 C 
BRANCH  31  32
ATOM     32  C   UNL A   1      43.034  18.421  25.484  1.00  0.00     0.188 C 
BRANCH  32  33
ATOM     33  O   UNL A   1      44.204  18.665  24.708  1.00  0.00    -0.376 OA
BRANCH  33  34
ATOM     34  C   UNL A   1      45.444  18.499  25.390  1.00  0.00     0.202 C 
BRANCH  34  35
ATOM     35  C   UNL A   1      46.239  19.800  25.544  1.00  0.00     0.261 C 
BRANCH  35  36
ATOM     36  O   UNL A   1      46.179  20.541  24.312  1.00  0.00    -0.460 OA
BRANCH  36  37
ATOM     37  C   UNL A   1      45.268  21.550  24.300  1.00  0.00     0.338 C 
ATOM     38  O   UNL A   1      44.355  21.667  23.501  1.00  0.00    -0.246 OA
BRANCH  37  39
ATOM     39  C   UNL A   1      45.711  22.631  25.223  1.00  0.00     0.060 A 
ATOM     40  C   UNL A   1      45.212  22.669  26.535  1.00  0.00     0.016 A 
ATOM     41  C   UNL A   1      46.359  23.747  24.704  1.00  0.00     0.016 A 
ATOM     42  C   UNL A   1      45.215  23.873  27.254  1.00  0.00     0.010 A 
ATOM     43  C   UNL A   1      46.278  24.947  25.384  1.00  0.00     0.010 A 
ATOM     44  C   UNL A   1      45.661  25.044  26.642  1.00  0.00    -0.014 A 
BRANCH  44  45
ATOM     45  C   UNL A   1      45.349  26.413  27.104  1.00  0.00     0.031 A 
ATOM     46  C   UNL A   1      43.951  26.945  27.016  1.00  0.00     0.074 A 
ATOM     47  C   UNL A   1      46.234  27.065  27.908  1.00  0.00     0.049 A 
ATOM     48  N   UNL A   1      43.579  28.057  27.554  1.00  0.00    -0.248 NA
ATOM     49  C   UNL A   1      42.839  26.301  26.319  1.00  0.00     0.031 C 
ATOM     50  C   UNL A   1      45.899  28.049  28.939  1.00  0.00     0.029 A 
ATOM     51  N   UNL A   1      47.635  26.986  27.996  1.00  0.00    -0.354 N 
ATOM     52  C   UNL A   1      42.211  28.128  27.571  1.00  0.00     0.074 A 
ATOM     53  C   UNL A   1      41.799  27.060  26.698  1.00  0.00     0.031 C 
ATOM     54  C   UNL A   1      47.000  28.593  29.460  1.00  0.00     0.029 A 
ATOM     55  C   UNL A   1      48.083  28.182  28.612  1.00  0.00     0.049 A 
ATOM     56  H   UNL A   1      48.198  26.240  27.688  1.00  0.00     0.167 HD
ATOM     57  C   UNL A   1      41.633  29.040  28.410  1.00  0.00     0.037 A 
ATOM     58  C   UNL A   1      48.870  29.079  27.951  1.00  0.00     0.037 A 
ATOM     59  C   UNL A   1      42.632  29.995  28.924  1.00  0.00     0.049 A 
ATOM     60  C   UNL A   1      48.193  30.416  27.741  1.00  0.00     0.074 A 
ATOM     61  C   UNL A   1      43.090  30.374  30.175  1.00  0.00     0.029 A 
ATOM     62  N   UNL A   1      43.465  30.637  28.006  1.00  0.00    -0.354 N 
ATOM     63  N   UNL A   1      46.892  30.561  27.778  1.00  0.00    -0.248 NA
ATOM     64  C   UNL A   1      48.876  31.693  27.569  1.00  0.00     0.031 C 
ATOM     65  C   UNL A   1      44.210  31.238  29.995  1.00  0.00     0.029 A 
ATOM     66  C   UNL A   1      44.410  31.413  28.635  1.00  0.00     0.049 A 
ATOM     67  H   UNL A   1      43.386  30.545  27.029  1.00  0.00     0.167 HD
ATOM     68  C   UNL A   1      46.562  31.888  27.726  1.00  0.00     0.074 A 
ATOM     69  C   UNL A   1      47.839  32.554  27.554  1.00  0.00     0.031 C 
ATOM     70  C   UNL A   1      45.267  32.306  27.864  1.00  0.00     0.037 A 
BRANCH  57  71
ATOM     71  C   UNL A   1      40.178  29.063  28.865  1.00  0.00     0.064 A 
ATOM     72  C   UNL A   1      39.820  28.663  30.177  1.00  0.00     0.173 A 
ATOM     73  C   UNL A   1      39.076  29.390  28.048  1.00  0.00     0.173 A 
ATOM     74  F   UNL A   1      40.746  28.305  31.077  1.00  0.00    -0.203 F 
ATOM     75  C   UNL A   1      38.493  28.605  30.623  1.00  0.00     0.198 A 
ATOM     76  C   UNL A   1      37.753  29.386  28.511  1.00  0.00     0.198 A 
ATOM     77  F   UNL A   1      39.213  29.679  26.752  1.00  0.00    -0.203 F 
ATOM     78  F   UNL A   1      38.223  28.172  31.863  1.00  0.00    -0.200 F 
ATOM     79  C   UNL A   1      37.460  28.985  29.796  1.00  0.00     0.200 A 
ATOM     80  F   UNL A   1      36.763  29.758  27.686  1.00  0.00    -0.200 F 
ATOM     81  F   UNL A   1      36.191  28.955  30.225  1.00  0.00    -0.200 F 
ENDBRANCH  57  71
BRANCH  58  82
ATOM     82  C   UNL A   1      49.948  28.387  27.200  1.00  0.00     0.064 A 
ATOM     83  C   UNL A   1      50.963  27.855  28.027  1.00  0.00     0.173 A 
ATOM     84  C   UNL A   1      49.649  27.694  26.017  1.00  0.00     0.173 A 
ATOM     85  F   UNL A   1      51.303  28.497  29.157  1.00  0.00    -0.203 F 
ATOM     86  C   UNL A   1      51.462  26.572  27.819  1.00  0.00     0.198 A 
ATOM     87  C   UNL A   1      50.182  26.419  25.795  1.00  0.00     0.198 A 
ATOM     88  F   UNL A   1      48.698  28.148  25.190  1.00  0.00    -0.203 F 
ATOM     89  F   UNL A   1      52.251  26.006  28.742  1.00  0.00    -0.200 F 
ATOM     90  C   UNL A   1      51.034  25.838  26.726  1.00  0.00     0.200 A 
ATOM     91  F   UNL A   1      49.764  25.693  24.748  1.00  0.00    -0.200 F 
ATOM     92  F   UNL A   1      51.388  24.549  26.606  1.00  0.00    -0.200 F 
ENDBRANCH  58  82
BRANCH  70  93
ATOM     93  C   UNL A   1      44.649  33.597  27.345  1.00  0.00     0.064 A 
ATOM     94  C   UNL A   1      43.964  33.718  26.126  1.00  0.00     0.173 A 
ATOM     95  C   UNL A   1      44.552  34.737  28.193  1.00  0.00     0.173 A 
ATOM     96  F   UNL A   1      43.902  32.711  25.248  1.00  0.00    -0.203 F 
ATOM     97  C   UNL A   1      43.251  34.873  25.783  1.00  0.00     0.198 A 
ATOM     98  C   UNL A   1      43.793  35.861  27.873  1.00  0.00     0.198 A 
ATOM     99  F   UNL A   1      45.146  34.789  29.394  1.00  0.00    -0.203 F 
ATOM    100  F   UNL A   1      42.627  34.934  24.598  1.00  0.00    -0.200 F 
ATOM    101  C   UNL A   1      43.146  35.933  26.663  1.00  0.00     0.200 A 
ATOM    102  F   UNL A   1      43.668  36.856  28.765  1.00  0.00    -0.200 F 
ATOM    103  F   UNL A   1      42.404  37.004  26.355  1.00  0.00    -0.200 F 
ENDBRANCH  70  93
ENDBRANCH  44  45
ENDBRANCH  37  39
ENDBRANCH  36  37
ENDBRANCH  35  36
ENDBRANCH  34  35
ENDBRANCH  33  34
ENDBRANCH  32  33
ENDBRANCH  31  32
ENDBRANCH   1  31
TORSDOF 23
ENDMDL
