MODEL 1
REMARK VINA RESULT:      -9.8      0.000      0.000
REMARK SMILES C[C@H](O)[C@H](C)Oc1ccc(Br)cc1C(=O)OCCOCCOCCOCCOC(=O)c1ccc(-c2c3nc(c(-c4c(F)c(F)c(F)c(F)c4F)c4ccc([nH]4)c(-c4c(F)c(F)c(F)c(F)c4F)c4nc(c(-c5c(F)c(F)c(F)c(F)c5F)c5ccc2[nH]5)C=C4)C=C3)cc1
REMARK SMILES IDX 21 1 20 2 19 3 18 4 17 5 16 6 14 7 15 8 13 9 7 10 8 11 9 12
REMARK SMILES IDX 12 13 10 14 11 15 6 16 4 17 5 18 2 19 1 20 3 21 22 23 23 24
REMARK SMILES IDX 24 25 25 26 26 27 27 28 28 29 29 30 30 31 31 32 32 33 93 34
REMARK SMILES IDX 33 35 92 36 34 37 35 38 36 39 86 40 37 41 91 42 85 43 87 44
REMARK SMILES IDX 38 45 90 46 84 47 83 48 39 50 71 51 51 52 70 53 52 54 55 55
REMARK SMILES IDX 69 56 88 57 53 58 54 59 68 61 89 62 56 63 40 64 41 65 49 66
REMARK SMILES IDX 42 67 43 68 47 69 50 70 44 71 45 72 48 73 46 74 72 75 73 76
REMARK SMILES IDX 81 77 74 78 75 79 79 80 82 81 76 82 77 83 80 84 78 85 57 86
REMARK SMILES IDX 58 87 66 88 59 89 60 90 64 91 67 92 61 93 62 94 65 95 63 96
REMARK H PARENT 3 22 87 49 55 60
REMARK Flexibility Score: inf
ROOT
ATOM      1  C   UNL A   1      33.567  26.676  26.142  1.00  0.00     0.188 C 
ENDROOT
BRANCH   1   2
ATOM      2  C   UNL A   1      33.579  26.385  24.635  1.00  0.00     0.188 C 
BRANCH   2   3
ATOM      3  O   UNL A   1      33.591  25.002  24.350  1.00  0.00    -0.376 OA
BRANCH   3   4
ATOM      4  C   UNL A   1      34.669  24.465  23.605  1.00  0.00     0.202 C 
BRANCH   4   5
ATOM      5  C   UNL A   1      35.787  23.600  24.230  1.00  0.00     0.261 C 
BRANCH   5   6
ATOM      6  O   UNL A   1      35.741  22.182  24.020  1.00  0.00    -0.460 OA
BRANCH   6   7
ATOM      7  C   UNL A   1      35.486  21.432  25.120  1.00  0.00     0.342 C 
ATOM      8  O   UNL A   1      35.895  21.657  26.249  1.00  0.00    -0.246 OA
BRANCH   7   9
ATOM      9  C   UNL A   1      34.453  20.401  24.864  1.00  0.00     0.103 A 
ATOM     10  C   UNL A   1      33.078  20.671  24.736  1.00  0.00     0.134 A 
ATOM     11  C   UNL A   1      32.240  19.630  24.327  1.00  0.00     0.048 A 
ATOM     12  C   UNL A   1      32.731  18.332  24.150  1.00  0.00     0.019 A 
ATOM     13  C   UNL A   1      34.948  19.098  24.679  1.00  0.00     0.035 A 
ATOM     14  C   UNL A   1      34.080  18.067  24.351  1.00  0.00     0.019 A 
ATOM     15  Br  UNL A   1      34.734  16.305  24.167  1.00  0.00    -0.051 Br
BRANCH  10  16
ATOM     16  O   UNL A   1      32.656  21.942  24.969  1.00  0.00    -0.487 OA
BRANCH  16  17
ATOM     17  C   UNL A   1      31.936  22.343  26.153  1.00  0.00     0.198 C 
ATOM     18  C   UNL A   1      32.802  23.101  27.162  1.00  0.00     0.056 C 
BRANCH  17  19
ATOM     19  C   UNL A   1      30.512  22.938  25.965  1.00  0.00     0.151 C 
ATOM     20  C   UNL A   1      30.402  24.395  26.376  1.00  0.00     0.042 C 
BRANCH  19  21
ATOM     21  O   UNL A   1      29.491  22.185  26.627  1.00  0.00    -0.390 OA
ATOM     22  H   UNL A   1      29.838  21.836  27.463  1.00  0.00     0.211 HD
ENDBRANCH  19  21
ENDBRANCH  17  19
ENDBRANCH  16  17
ENDBRANCH  10  16
ENDBRANCH   7   9
ENDBRANCH   6   7
ENDBRANCH   5   6
ENDBRANCH   4   5
ENDBRANCH   3   4
ENDBRANCH   2   3
ENDBRANCH   1   2
BRANCH   1  23
ATOM     23  O   UNL A   1      33.080  27.933  26.586  1.00  0.00    -0.377 OA
BRANCH  23  24
ATOM     24  C   UNL A   1      33.367  29.121  25.858  1.00  0.00     0.188 C 
BRANCH  24  25
ATOM     25  C   UNL A   1      33.124  30.494  26.510  1.00  0.00     0.188 C 
BRANCH  25  26
ATOM     26  O   UNL A   1      31.763  30.886  26.566  1.00  0.00    -0.376 OA
BRANCH  26  27
ATOM     27  C   UNL A   1      31.496  32.277  26.667  1.00  0.00     0.202 C 
BRANCH  27  28
ATOM     28  C   UNL A   1      32.592  33.140  27.310  1.00  0.00     0.261 C 
BRANCH  28  29
ATOM     29  O   UNL A   1      32.201  33.923  28.455  1.00  0.00    -0.460 OA
BRANCH  29  30
ATOM     30  C   UNL A   1      32.959  34.979  28.807  1.00  0.00     0.338 C 
ATOM     31  O   UNL A   1      32.701  36.165  28.691  1.00  0.00    -0.246 OA
BRANCH  30  32
ATOM     32  C   UNL A   1      34.147  34.462  29.506  1.00  0.00     0.060 A 
ATOM     33  C   UNL A   1      35.389  34.473  28.859  1.00  0.00     0.016 A 
ATOM     34  C   UNL A   1      34.016  33.931  30.790  1.00  0.00     0.016 A 
ATOM     35  C   UNL A   1      36.504  33.916  29.486  1.00  0.00     0.010 A 
ATOM     36  C   UNL A   1      35.129  33.365  31.411  1.00  0.00     0.010 A 
ATOM     37  C   UNL A   1      36.369  33.323  30.749  1.00  0.00    -0.014 A 
BRANCH  37  38
ATOM     38  C   UNL A   1      37.471  32.505  31.312  1.00  0.00     0.031 A 
ATOM     39  C   UNL A   1      38.005  32.862  32.671  1.00  0.00     0.074 A 
ATOM     40  C   UNL A   1      37.991  31.473  30.627  1.00  0.00     0.049 A 
ATOM     41  N   UNL A   1      39.016  32.355  33.330  1.00  0.00    -0.248 NA
ATOM     42  C   UNL A   1      37.306  33.946  33.382  1.00  0.00     0.031 C 
ATOM     43  C   UNL A   1      37.533  31.008  29.321  1.00  0.00     0.029 A 
ATOM     44  N   UNL A   1      39.036  30.637  30.936  1.00  0.00    -0.354 N 
ATOM     45  C   UNL A   1      39.083  33.065  34.522  1.00  0.00     0.074 A 
ATOM     46  C   UNL A   1      38.033  34.060  34.483  1.00  0.00     0.031 C 
ATOM     47  C   UNL A   1      38.303  29.978  28.931  1.00  0.00     0.029 A 
ATOM     48  C   UNL A   1      39.332  29.737  29.942  1.00  0.00     0.049 A 
ATOM     49  H   UNL A   1      39.526  30.679  31.789  1.00  0.00     0.167 HD
ATOM     50  C   UNL A   1      39.937  32.896  35.558  1.00  0.00     0.037 A 
ATOM     51  C   UNL A   1      40.335  28.843  29.851  1.00  0.00     0.037 A 
ATOM     52  C   UNL A   1      40.979  31.903  35.589  1.00  0.00     0.049 A 
ATOM     53  C   UNL A   1      41.323  28.725  30.986  1.00  0.00     0.074 A 
ATOM     54  C   UNL A   1      41.882  31.632  36.601  1.00  0.00     0.029 A 
ATOM     55  N   UNL A   1      41.262  31.025  34.553  1.00  0.00    -0.354 N 
ATOM     56  N   UNL A   1      41.362  29.376  32.123  1.00  0.00    -0.248 NA
ATOM     57  C   UNL A   1      42.408  27.746  30.822  1.00  0.00     0.031 C 
ATOM     58  C   UNL A   1      42.754  30.635  36.152  1.00  0.00     0.029 A 
ATOM     59  C   UNL A   1      42.348  30.233  34.889  1.00  0.00     0.049 A 
ATOM     60  H   UNL A   1      40.765  30.972  33.705  1.00  0.00     0.167 HD
ATOM     61  C   UNL A   1      42.448  28.863  32.823  1.00  0.00     0.074 A 
ATOM     62  C   UNL A   1      43.036  27.839  31.986  1.00  0.00     0.031 C 
ATOM     63  C   UNL A   1      42.915  29.208  34.049  1.00  0.00     0.037 A 
BRANCH  50  64
ATOM     64  C   UNL A   1      39.801  33.823  36.732  1.00  0.00     0.064 A 
ATOM     65  C   UNL A   1      38.992  33.509  37.835  1.00  0.00     0.173 A 
ATOM     66  C   UNL A   1      40.513  35.032  36.765  1.00  0.00     0.173 A 
ATOM     67  F   UNL A   1      38.280  32.372  37.848  1.00  0.00    -0.203 F 
ATOM     68  C   UNL A   1      38.880  34.384  38.913  1.00  0.00     0.198 A 
ATOM     69  C   UNL A   1      40.426  35.887  37.860  1.00  0.00     0.198 A 
ATOM     70  F   UNL A   1      41.305  35.380  35.739  1.00  0.00    -0.203 F 
ATOM     71  F   UNL A   1      38.060  34.087  39.931  1.00  0.00    -0.200 F 
ATOM     72  C   UNL A   1      39.602  35.567  38.928  1.00  0.00     0.200 A 
ATOM     73  F   UNL A   1      41.136  37.023  37.880  1.00  0.00    -0.200 F 
ATOM     74  F   UNL A   1      39.499  36.404  39.971  1.00  0.00    -0.200 F 
ENDBRANCH  50  64
BRANCH  51  75
ATOM     75  C   UNL A   1      40.470  27.993  28.637  1.00  0.00     0.064 A 
ATOM     76  C   UNL A   1      39.856  26.736  28.561  1.00  0.00     0.173 A 
ATOM     77  C   UNL A   1      41.234  28.412  27.537  1.00  0.00     0.173 A 
ATOM     78  F   UNL A   1      39.136  26.279  29.595  1.00  0.00    -0.203 F 
ATOM     79  C   UNL A   1      40.019  25.920  27.442  1.00  0.00     0.198 A 
ATOM     80  C   UNL A   1      41.370  27.610  26.405  1.00  0.00     0.198 A 
ATOM     81  F   UNL A   1      41.846  29.605  27.557  1.00  0.00    -0.203 F 
ATOM     82  F   UNL A   1      39.464  24.701  27.418  1.00  0.00    -0.200 F 
ATOM     83  C   UNL A   1      40.770  26.360  26.362  1.00  0.00     0.200 A 
ATOM     84  F   UNL A   1      42.085  28.045  25.360  1.00  0.00    -0.200 F 
ATOM     85  F   UNL A   1      40.923  25.577  25.286  1.00  0.00    -0.200 F 
ENDBRANCH  51  75
BRANCH  63  86
ATOM     86  C   UNL A   1      44.092  28.444  34.586  1.00  0.00     0.064 A 
ATOM     87  C   UNL A   1      45.409  28.895  34.418  1.00  0.00     0.173 A 
ATOM     88  C   UNL A   1      43.892  27.273  35.335  1.00  0.00     0.173 A 
ATOM     89  F   UNL A   1      45.657  30.001  33.700  1.00  0.00    -0.203 F 
ATOM     90  C   UNL A   1      46.483  28.192  34.958  1.00  0.00     0.198 A 
ATOM     91  C   UNL A   1      44.964  26.591  35.904  1.00  0.00     0.198 A 
ATOM     92  F   UNL A   1      42.652  26.801  35.535  1.00  0.00    -0.203 F 
ATOM     93  F   UNL A   1      47.735  28.617  34.746  1.00  0.00    -0.200 F 
ATOM     94  C   UNL A   1      46.259  27.047  35.709  1.00  0.00     0.200 A 
ATOM     95  F   UNL A   1      44.743  25.497  36.645  1.00  0.00    -0.200 F 
ATOM     96  F   UNL A   1      47.292  26.380  36.242  1.00  0.00    -0.200 F 
ENDBRANCH  63  86
ENDBRANCH  37  38
ENDBRANCH  30  32
ENDBRANCH  29  30
ENDBRANCH  28  29
ENDBRANCH  27  28
ENDBRANCH  26  27
ENDBRANCH  25  26
ENDBRANCH  24  25
ENDBRANCH  23  24
ENDBRANCH   1  23
TORSDOF 24
ENDMDL
MODEL 2
REMARK VINA RESULT:      -9.8      2.391      3.776
REMARK SMILES C[C@H](O)[C@H](C)Oc1ccc(Br)cc1C(=O)OCCOCCOCCOCCOC(=O)c1ccc(-c2c3nc(c(-c4c(F)c(F)c(F)c(F)c4F)c4ccc([nH]4)c(-c4c(F)c(F)c(F)c(F)c4F)c4nc(c(-c5c(F)c(F)c(F)c(F)c5F)c5ccc2[nH]5)C=C4)C=C3)cc1
REMARK SMILES IDX 21 1 20 2 19 3 18 4 17 5 16 6 14 7 15 8 13 9 7 10 8 11 9 12
REMARK SMILES IDX 12 13 10 14 11 15 6 16 4 17 5 18 2 19 1 20 3 21 22 23 23 24
REMARK SMILES IDX 24 25 25 26 26 27 27 28 28 29 29 30 30 31 31 32 32 33 93 34
REMARK SMILES IDX 33 35 92 36 34 37 35 38 36 39 86 40 37 41 91 42 85 43 87 44
REMARK SMILES IDX 38 45 90 46 84 47 83 48 39 50 71 51 51 52 70 53 52 54 55 55
REMARK SMILES IDX 69 56 88 57 53 58 54 59 68 61 89 62 56 63 40 64 41 65 49 66
REMARK SMILES IDX 42 67 43 68 47 69 50 70 44 71 45 72 48 73 46 74 72 75 73 76
REMARK SMILES IDX 81 77 74 78 75 79 79 80 82 81 76 82 77 83 80 84 78 85 57 86
REMARK SMILES IDX 58 87 66 88 59 89 60 90 64 91 67 92 61 93 62 94 65 95 63 96
REMARK H PARENT 3 22 87 49 55 60
REMARK Flexibility Score: inf
ROOT
ATOM      1  C   UNL A   1      34.477  30.011  27.288  1.00  0.00     0.188 C 
ENDROOT
BRANCH   1   2
ATOM      2  C   UNL A   1      33.299  29.169  26.776  1.00  0.00     0.188 C 
BRANCH   2   3
ATOM      3  O   UNL A   1      33.527  27.782  26.908  1.00  0.00    -0.376 OA
BRANCH   3   4
ATOM      4  C   UNL A   1      32.684  26.880  26.214  1.00  0.00     0.202 C 
BRANCH   4   5
ATOM      5  C   UNL A   1      31.158  27.084  26.070  1.00  0.00     0.261 C 
BRANCH   5   6
ATOM      6  O   UNL A   1      30.336  25.922  25.889  1.00  0.00    -0.460 OA
BRANCH   6   7
ATOM      7  C   UNL A   1      29.865  25.723  24.634  1.00  0.00     0.342 C 
ATOM      8  O   UNL A   1      28.812  26.154  24.189  1.00  0.00    -0.246 OA
BRANCH   7   9
ATOM      9  C   UNL A   1      30.878  25.097  23.752  1.00  0.00     0.103 A 
ATOM     10  C   UNL A   1      31.420  25.711  22.607  1.00  0.00     0.134 A 
ATOM     11  C   UNL A   1      32.487  25.078  21.966  1.00  0.00     0.048 A 
ATOM     12  C   UNL A   1      32.940  23.821  22.383  1.00  0.00     0.019 A 
ATOM     13  C   UNL A   1      31.337  23.838  24.175  1.00  0.00     0.035 A 
ATOM     14  C   UNL A   1      32.345  23.195  23.471  1.00  0.00     0.019 A 
ATOM     15  Br  UNL A   1      32.918  21.475  24.000  1.00  0.00    -0.051 Br
BRANCH  10  16
ATOM     16  O   UNL A   1      30.903  26.909  22.225  1.00  0.00    -0.487 OA
BRANCH  16  17
ATOM     17  C   UNL A   1      31.307  28.174  22.789  1.00  0.00     0.198 C 
ATOM     18  C   UNL A   1      32.803  28.457  22.633  1.00  0.00     0.056 C 
BRANCH  17  19
ATOM     19  C   UNL A   1      30.396  29.405  22.525  1.00  0.00     0.151 C 
ATOM     20  C   UNL A   1      28.914  29.077  22.526  1.00  0.00     0.042 C 
BRANCH  19  21
ATOM     21  O   UNL A   1      30.721  30.102  21.318  1.00  0.00    -0.390 OA
ATOM     22  H   UNL A   1      31.682  30.226  21.265  1.00  0.00     0.211 HD
ENDBRANCH  19  21
ENDBRANCH  17  19
ENDBRANCH  16  17
ENDBRANCH  10  16
ENDBRANCH   7   9
ENDBRANCH   6   7
ENDBRANCH   5   6
ENDBRANCH   4   5
ENDBRANCH   3   4
ENDBRANCH   2   3
ENDBRANCH   1   2
BRANCH   1  23
ATOM     23  O   UNL A   1      34.242  31.369  27.628  1.00  0.00    -0.377 OA
BRANCH  23  24
ATOM     24  C   UNL A   1      35.290  32.179  28.146  1.00  0.00     0.188 C 
BRANCH  24  25
ATOM     25  C   UNL A   1      34.972  33.261  29.194  1.00  0.00     0.188 C 
BRANCH  25  26
ATOM     26  O   UNL A   1      35.297  34.581  28.794  1.00  0.00    -0.376 OA
BRANCH  26  27
ATOM     27  C   UNL A   1      34.213  35.462  28.534  1.00  0.00     0.202 C 
BRANCH  27  28
ATOM     28  C   UNL A   1      33.036  35.407  29.517  1.00  0.00     0.261 C 
BRANCH  28  29
ATOM     29  O   UNL A   1      33.199  36.131  30.753  1.00  0.00    -0.460 OA
BRANCH  29  30
ATOM     30  C   UNL A   1      32.820  35.543  31.903  1.00  0.00     0.338 C 
ATOM     31  O   UNL A   1      31.695  35.440  32.363  1.00  0.00    -0.246 OA
BRANCH  30  32
ATOM     32  C   UNL A   1      34.008  34.900  32.489  1.00  0.00     0.060 A 
ATOM     33  C   UNL A   1      35.260  35.512  32.357  1.00  0.00     0.016 A 
ATOM     34  C   UNL A   1      33.878  33.671  33.136  1.00  0.00     0.016 A 
ATOM     35  C   UNL A   1      36.400  34.872  32.843  1.00  0.00     0.010 A 
ATOM     36  C   UNL A   1      35.021  33.028  33.612  1.00  0.00     0.010 A 
ATOM     37  C   UNL A   1      36.290  33.608  33.438  1.00  0.00    -0.014 A 
BRANCH  37  38
ATOM     38  C   UNL A   1      37.505  32.807  33.723  1.00  0.00     0.031 A 
ATOM     39  C   UNL A   1      38.256  33.075  34.997  1.00  0.00     0.074 A 
ATOM     40  C   UNL A   1      37.937  31.867  32.865  1.00  0.00     0.049 A 
ATOM     41  N   UNL A   1      39.388  32.570  35.420  1.00  0.00    -0.248 NA
ATOM     42  C   UNL A   1      37.653  34.054  35.917  1.00  0.00     0.031 C 
ATOM     43  C   UNL A   1      37.273  31.492  31.619  1.00  0.00     0.029 A 
ATOM     44  N   UNL A   1      39.052  31.068  32.909  1.00  0.00    -0.354 N 
ATOM     45  C   UNL A   1      39.636  33.179  36.645  1.00  0.00     0.074 A 
ATOM     46  C   UNL A   1      38.558  34.113  36.881  1.00  0.00     0.031 C 
ATOM     47  C   UNL A   1      38.002  30.543  31.007  1.00  0.00     0.029 A 
ATOM     48  C   UNL A   1      39.202  30.273  31.798  1.00  0.00     0.049 A 
ATOM     49  H   UNL A   1      39.683  31.063  33.664  1.00  0.00     0.167 HD
ATOM     50  C   UNL A   1      40.666  32.968  37.498  1.00  0.00     0.037 A 
ATOM     51  C   UNL A   1      40.208  29.447  31.452  1.00  0.00     0.037 A 
ATOM     52  C   UNL A   1      41.735  32.036  37.255  1.00  0.00     0.049 A 
ATOM     53  C   UNL A   1      41.385  29.288  32.383  1.00  0.00     0.074 A 
ATOM     54  C   UNL A   1      42.813  31.729  38.065  1.00  0.00     0.029 A 
ATOM     55  N   UNL A   1      41.865  31.267  36.107  1.00  0.00    -0.354 N 
ATOM     56  N   UNL A   1      41.599  29.839  33.553  1.00  0.00    -0.248 NA
ATOM     57  C   UNL A   1      42.462  28.388  31.944  1.00  0.00     0.031 C 
ATOM     58  C   UNL A   1      43.630  30.824  37.382  1.00  0.00     0.029 A 
ATOM     59  C   UNL A   1      43.024  30.510  36.175  1.00  0.00     0.049 A 
ATOM     60  H   UNL A   1      41.228  31.259  35.357  1.00  0.00     0.167 HD
ATOM     61  C   UNL A   1      42.810  29.330  34.004  1.00  0.00     0.074 A 
ATOM     62  C   UNL A   1      43.281  28.415  32.985  1.00  0.00     0.031 C 
ATOM     63  C   UNL A   1      43.473  29.593  35.158  1.00  0.00     0.037 A 
BRANCH  50  64
ATOM     64  C   UNL A   1      40.703  33.783  38.759  1.00  0.00     0.064 A 
ATOM     65  C   UNL A   1      41.440  34.974  38.851  1.00  0.00     0.173 A 
ATOM     66  C   UNL A   1      39.967  33.381  39.884  1.00  0.00     0.173 A 
ATOM     67  F   UNL A   1      42.172  35.397  37.809  1.00  0.00    -0.203 F 
ATOM     68  C   UNL A   1      41.461  35.714  40.030  1.00  0.00     0.198 A 
ATOM     69  C   UNL A   1      39.962  34.142  41.049  1.00  0.00     0.198 A 
ATOM     70  F   UNL A   1      39.241  32.253  39.850  1.00  0.00    -0.203 F 
ATOM     71  F   UNL A   1      42.215  36.819  40.111  1.00  0.00    -0.200 F 
ATOM     72  C   UNL A   1      40.717  35.302  41.125  1.00  0.00     0.200 A 
ATOM     73  F   UNL A   1      39.231  33.750  42.101  1.00  0.00    -0.200 F 
ATOM     74  F   UNL A   1      40.733  36.021  42.256  1.00  0.00    -0.200 F 
ENDBRANCH  50  64
BRANCH  51  75
ATOM     75  C   UNL A   1      40.160  28.714  30.158  1.00  0.00     0.064 A 
ATOM     76  C   UNL A   1      39.512  27.476  30.052  1.00  0.00     0.173 A 
ATOM     77  C   UNL A   1      40.779  29.225  29.008  1.00  0.00     0.173 A 
ATOM     78  F   UNL A   1      38.927  26.932  31.128  1.00  0.00    -0.203 F 
ATOM     79  C   UNL A   1      39.505  26.766  28.852  1.00  0.00     0.198 A 
ATOM     80  C   UNL A   1      40.743  28.531  27.799  1.00  0.00     0.198 A 
ATOM     81  F   UNL A   1      41.415  30.405  29.054  1.00  0.00    -0.203 F 
ATOM     82  F   UNL A   1      38.924  25.561  28.792  1.00  0.00    -0.200 F 
ATOM     83  C   UNL A   1      40.114  27.297  27.725  1.00  0.00     0.200 A 
ATOM     84  F   UNL A   1      41.322  29.055  26.711  1.00  0.00    -0.200 F 
ATOM     85  F   UNL A   1      40.104  26.617  26.571  1.00  0.00    -0.200 F 
ENDBRANCH  51  75
BRANCH  63  86
ATOM     86  C   UNL A   1      44.756  28.853  35.409  1.00  0.00     0.064 A 
ATOM     87  C   UNL A   1      46.001  29.377  35.035  1.00  0.00     0.173 A 
ATOM     88  C   UNL A   1      44.741  27.626  36.093  1.00  0.00     0.173 A 
ATOM     89  F   UNL A   1      46.072  30.539  34.368  1.00  0.00    -0.203 F 
ATOM     90  C   UNL A   1      47.181  28.691  35.313  1.00  0.00     0.198 A 
ATOM     91  C   UNL A   1      45.923  26.960  36.401  1.00  0.00     0.198 A 
ATOM     92  F   UNL A   1      43.577  27.083  36.482  1.00  0.00    -0.203 F 
ATOM     93  F   UNL A   1      48.356  29.189  34.905  1.00  0.00    -0.200 F 
ATOM     94  C   UNL A   1      47.142  27.490  36.005  1.00  0.00     0.200 A 
ATOM     95  F   UNL A   1      45.884  25.809  37.086  1.00  0.00    -0.200 F 
ATOM     96  F   UNL A   1      48.279  26.838  36.287  1.00  0.00    -0.200 F 
ENDBRANCH  63  86
ENDBRANCH  37  38
ENDBRANCH  30  32
ENDBRANCH  29  30
ENDBRANCH  28  29
ENDBRANCH  27  28
ENDBRANCH  26  27
ENDBRANCH  25  26
ENDBRANCH  24  25
ENDBRANCH  23  24
ENDBRANCH   1  23
TORSDOF 24
ENDMDL
MODEL 3
REMARK VINA RESULT:      -9.8      0.635      7.351
REMARK SMILES C[C@H](O)[C@H](C)Oc1ccc(Br)cc1C(=O)OCCOCCOCCOCCOC(=O)c1ccc(-c2c3nc(c(-c4c(F)c(F)c(F)c(F)c4F)c4ccc([nH]4)c(-c4c(F)c(F)c(F)c(F)c4F)c4nc(c(-c5c(F)c(F)c(F)c(F)c5F)c5ccc2[nH]5)C=C4)C=C3)cc1
REMARK SMILES IDX 21 1 20 2 19 3 18 4 17 5 16 6 14 7 15 8 13 9 7 10 8 11 9 12
REMARK SMILES IDX 12 13 10 14 11 15 6 16 4 17 5 18 2 19 1 20 3 21 22 23 23 24
REMARK SMILES IDX 24 25 25 26 26 27 27 28 28 29 29 30 30 31 31 32 32 33 93 34
REMARK SMILES IDX 33 35 92 36 34 37 35 38 36 39 86 40 37 41 91 42 85 43 87 44
REMARK SMILES IDX 38 45 90 46 84 47 83 48 39 50 71 51 51 52 70 53 52 54 55 55
REMARK SMILES IDX 69 56 88 57 53 58 54 59 68 61 89 62 56 63 40 64 41 65 49 66
REMARK SMILES IDX 42 67 43 68 47 69 50 70 44 71 45 72 48 73 46 74 72 75 73 76
REMARK SMILES IDX 81 77 74 78 75 79 79 80 82 81 76 82 77 83 80 84 78 85 57 86
REMARK SMILES IDX 58 87 66 88 59 89 60 90 64 91 67 92 61 93 62 94 65 95 63 96
REMARK H PARENT 3 22 87 49 55 60
REMARK Flexibility Score: inf
ROOT
ATOM      1  C   UNL A   1      33.561  26.268  25.933  1.00  0.00     0.188 C 
ENDROOT
BRANCH   1   2
ATOM      2  C   UNL A   1      33.728  26.156  24.411  1.00  0.00     0.188 C 
BRANCH   2   3
ATOM      3  O   UNL A   1      33.365  24.884  23.918  1.00  0.00    -0.376 OA
BRANCH   3   4
ATOM      4  C   UNL A   1      34.329  24.122  23.213  1.00  0.00     0.202 C 
BRANCH   4   5
ATOM      5  C   UNL A   1      35.617  23.570  23.864  1.00  0.00     0.261 C 
BRANCH   5   6
ATOM      6  O   UNL A   1      35.814  22.149  23.871  1.00  0.00    -0.460 OA
BRANCH   6   7
ATOM      7  C   UNL A   1      35.564  21.526  25.048  1.00  0.00     0.342 C 
ATOM      8  O   UNL A   1      36.039  21.828  26.133  1.00  0.00    -0.246 OA
BRANCH   7   9
ATOM      9  C   UNL A   1      34.457  20.548  24.936  1.00  0.00     0.103 A 
ATOM     10  C   UNL A   1      33.093  20.877  25.052  1.00  0.00     0.134 A 
ATOM     11  C   UNL A   1      32.152  19.888  24.758  1.00  0.00     0.048 A 
ATOM     12  C   UNL A   1      32.546  18.580  24.456  1.00  0.00     0.019 A 
ATOM     13  C   UNL A   1      34.853  19.235  24.627  1.00  0.00     0.035 A 
ATOM     14  C   UNL A   1      33.895  18.253  24.417  1.00  0.00     0.019 A 
ATOM     15  Br  UNL A   1      34.427  16.476  24.065  1.00  0.00    -0.051 Br
BRANCH  10  16
ATOM     16  O   UNL A   1      32.776  22.153  25.397  1.00  0.00    -0.487 OA
BRANCH  16  17
ATOM     17  C   UNL A   1      32.133  22.513  26.637  1.00  0.00     0.198 C 
ATOM     18  C   UNL A   1      33.119  22.794  27.773  1.00  0.00     0.056 C 
BRANCH  17  19
ATOM     19  C   UNL A   1      30.941  23.510  26.569  1.00  0.00     0.151 C 
ATOM     20  C   UNL A   1      29.645  22.947  27.122  1.00  0.00     0.042 C 
BRANCH  19  21
ATOM     21  O   UNL A   1      30.707  24.023  25.253  1.00  0.00    -0.390 OA
ATOM     22  H   UNL A   1      30.884  23.329  24.599  1.00  0.00     0.211 HD
ENDBRANCH  19  21
ENDBRANCH  17  19
ENDBRANCH  16  17
ENDBRANCH  10  16
ENDBRANCH   7   9
ENDBRANCH   6   7
ENDBRANCH   5   6
ENDBRANCH   4   5
ENDBRANCH   3   4
ENDBRANCH   2   3
ENDBRANCH   1   2
BRANCH   1  23
ATOM     23  O   UNL A   1      33.173  27.517  26.483  1.00  0.00    -0.377 OA
BRANCH  23  24
ATOM     24  C   UNL A   1      33.544  28.736  25.849  1.00  0.00     0.188 C 
BRANCH  24  25
ATOM     25  C   UNL A   1      33.255  30.078  26.545  1.00  0.00     0.188 C 
BRANCH  25  26
ATOM     26  O   UNL A   1      31.890  30.459  26.544  1.00  0.00    -0.376 OA
BRANCH  26  27
ATOM     27  C   UNL A   1      31.609  31.849  26.634  1.00  0.00     0.202 C 
BRANCH  27  28
ATOM     28  C   UNL A   1      32.706  32.732  27.245  1.00  0.00     0.261 C 
BRANCH  28  29
ATOM     29  O   UNL A   1      32.334  33.510  28.400  1.00  0.00    -0.460 OA
BRANCH  29  30
ATOM     30  C   UNL A   1      32.991  34.658  28.647  1.00  0.00     0.338 C 
ATOM     31  O   UNL A   1      32.647  35.797  28.381  1.00  0.00    -0.246 OA
BRANCH  30  32
ATOM     32  C   UNL A   1      34.185  34.327  29.442  1.00  0.00     0.060 A 
ATOM     33  C   UNL A   1      35.452  34.407  28.851  1.00  0.00     0.016 A 
ATOM     34  C   UNL A   1      34.039  33.901  30.762  1.00  0.00     0.016 A 
ATOM     35  C   UNL A   1      36.582  34.022  29.574  1.00  0.00     0.010 A 
ATOM     36  C   UNL A   1      35.168  33.506  31.480  1.00  0.00     0.010 A 
ATOM     37  C   UNL A   1      36.439  33.532  30.880  1.00  0.00    -0.014 A 
BRANCH  37  38
ATOM     38  C   UNL A   1      37.584  32.882  31.563  1.00  0.00     0.031 A 
ATOM     39  C   UNL A   1      38.247  31.711  30.892  1.00  0.00     0.074 A 
ATOM     40  C   UNL A   1      38.020  33.317  32.756  1.00  0.00     0.049 A 
ATOM     41  N   UNL A   1      39.201  30.929  31.330  1.00  0.00    -0.248 NA
ATOM     42  C   UNL A   1      37.761  31.370  29.544  1.00  0.00     0.031 C 
ATOM     43  C   UNL A   1      37.484  34.463  33.486  1.00  0.00     0.029 A 
ATOM     44  N   UNL A   1      39.011  32.829  33.573  1.00  0.00    -0.354 N 
ATOM     45  C   UNL A   1      39.418  29.999  30.321  1.00  0.00     0.074 A 
ATOM     46  C   UNL A   1      38.475  30.292  29.263  1.00  0.00     0.031 C 
ATOM     47  C   UNL A   1      38.142  34.584  34.652  1.00  0.00     0.029 A 
ATOM     48  C   UNL A   1      39.117  33.500  34.767  1.00  0.00     0.049 A 
ATOM     49  H   UNL A   1      39.589  32.072  33.327  1.00  0.00     0.167 HD
ATOM     50  C   UNL A   1      40.328  28.998  30.278  1.00  0.00     0.037 A 
ATOM     51  C   UNL A   1      39.895  33.247  35.838  1.00  0.00     0.037 A 
ATOM     52  C   UNL A   1      41.263  28.714  31.335  1.00  0.00     0.049 A 
ATOM     53  C   UNL A   1      40.847  32.077  35.798  1.00  0.00     0.074 A 
ATOM     54  C   UNL A   1      42.243  27.738  31.380  1.00  0.00     0.029 A 
ATOM     55  N   UNL A   1      41.325  29.400  32.539  1.00  0.00    -0.354 N 
ATOM     56  N   UNL A   1      41.072  31.222  34.830  1.00  0.00    -0.248 NA
ATOM     57  C   UNL A   1      41.656  31.838  37.002  1.00  0.00     0.031 C 
ATOM     58  C   UNL A   1      42.854  27.791  32.636  1.00  0.00     0.029 A 
ATOM     59  C   UNL A   1      42.305  28.848  33.347  1.00  0.00     0.049 A 
ATOM     60  H   UNL A   1      40.757  30.167  32.782  1.00  0.00     0.167 HD
ATOM     61  C   UNL A   1      42.067  30.370  35.291  1.00  0.00     0.074 A 
ATOM     62  C   UNL A   1      42.412  30.817  36.624  1.00  0.00     0.031 C 
ATOM     63  C   UNL A   1      42.646  29.313  34.668  1.00  0.00     0.037 A 
BRANCH  50  64
ATOM     64  C   UNL A   1      40.337  28.117  29.061  1.00  0.00     0.064 A 
ATOM     65  C   UNL A   1      41.072  28.447  27.912  1.00  0.00     0.173 A 
ATOM     66  C   UNL A   1      39.623  26.909  29.056  1.00  0.00     0.173 A 
ATOM     67  F   UNL A   1      41.762  29.597  27.859  1.00  0.00    -0.203 F 
ATOM     68  C   UNL A   1      41.066  27.616  26.795  1.00  0.00     0.198 A 
ATOM     69  C   UNL A   1      39.648  26.064  27.951  1.00  0.00     0.198 A 
ATOM     70  F   UNL A   1      38.907  26.541  30.130  1.00  0.00    -0.203 F 
ATOM     71  F   UNL A   1      41.732  27.979  25.689  1.00  0.00    -0.200 F 
ATOM     72  C   UNL A   1      40.362  26.422  26.817  1.00  0.00     0.200 A 
ATOM     73  F   UNL A   1      38.978  24.904  27.980  1.00  0.00    -0.200 F 
ATOM     74  F   UNL A   1      40.364  25.620  25.743  1.00  0.00    -0.200 F 
ENDBRANCH  50  64
BRANCH  51  75
ATOM     75  C   UNL A   1      39.800  34.107  37.048  1.00  0.00     0.064 A 
ATOM     76  C   UNL A   1      40.550  35.285  37.160  1.00  0.00     0.173 A 
ATOM     77  C   UNL A   1      38.975  33.757  38.128  1.00  0.00     0.173 A 
ATOM     78  F   UNL A   1      41.374  35.650  36.167  1.00  0.00    -0.203 F 
ATOM     79  C   UNL A   1      40.497  36.068  38.312  1.00  0.00     0.198 A 
ATOM     80  C   UNL A   1      38.897  34.557  39.266  1.00  0.00     0.198 A 
ATOM     81  F   UNL A   1      38.236  32.639  38.075  1.00  0.00    -0.203 F 
ATOM     82  F   UNL A   1      41.265  37.161  38.413  1.00  0.00    -0.200 F 
ATOM     83  C   UNL A   1      39.665  35.707  39.362  1.00  0.00     0.200 A 
ATOM     84  F   UNL A   1      38.081  34.211  40.271  1.00  0.00    -0.200 F 
ATOM     85  F   UNL A   1      39.612  36.462  40.467  1.00  0.00    -0.200 F 
ENDBRANCH  51  75
BRANCH  63  86
ATOM     86  C   UNL A   1      43.744  28.591  35.395  1.00  0.00     0.064 A 
ATOM     87  C   UNL A   1      43.488  27.483  36.216  1.00  0.00     0.173 A 
ATOM     88  C   UNL A   1      45.082  28.978  35.217  1.00  0.00     0.173 A 
ATOM     89  F   UNL A   1      42.227  27.080  36.432  1.00  0.00    -0.203 F 
ATOM     90  C   UNL A   1      44.526  26.805  36.850  1.00  0.00     0.198 A 
ATOM     91  C   UNL A   1      46.121  28.276  35.823  1.00  0.00     0.198 A 
ATOM     92  F   UNL A   1      45.385  30.025  34.434  1.00  0.00    -0.203 F 
ATOM     93  F   UNL A   1      44.254  25.778  37.666  1.00  0.00    -0.200 F 
ATOM     94  C   UNL A   1      45.841  27.194  36.644  1.00  0.00     0.200 A 
ATOM     95  F   UNL A   1      47.392  28.643  35.607  1.00  0.00    -0.200 F 
ATOM     96  F   UNL A   1      46.841  26.530  37.242  1.00  0.00    -0.200 F 
ENDBRANCH  63  86
ENDBRANCH  37  38
ENDBRANCH  30  32
ENDBRANCH  29  30
ENDBRANCH  28  29
ENDBRANCH  27  28
ENDBRANCH  26  27
ENDBRANCH  25  26
ENDBRANCH  24  25
ENDBRANCH  23  24
ENDBRANCH   1  23
TORSDOF 24
ENDMDL
