MODEL 1
REMARK VINA RESULT:     -10.4      0.000      0.000
REMARK SMILES NS(=O)(=O)c1ccc(/N=C/c2ccc(O)c(C(=O)OCCOCCOCCOCCOC(=O)c3ccc(-c4c5nc(c(-c6c(F)c(F)c(F)c(F)c6F)c6ccc([nH]6)c(-c6c(F)c(F)c(F)c(F)c6F)c6nc(c(-c7c(F)c(F)c(F)c(F)c7F)c7ccc4[nH]7)C=C6)C=C5)cc3)c2)cc1
REMARK SMILES IDX 24 1 23 2 22 3 21 4 20 5 19 6 17 7 18 8 16 9 11 10 12 11
REMARK SMILES IDX 97 12 13 13 14 14 10 15 9 16 8 17 5 18 6 19 99 20 7 21 98 22
REMARK SMILES IDX 2 23 3 24 4 25 1 26 15 29 25 31 26 32 27 33 28 34 29 35
REMARK SMILES IDX 30 36 31 37 32 38 33 39 34 40 35 41 96 42 36 43 95 44 37 45
REMARK SMILES IDX 38 46 39 47 89 48 40 49 94 50 88 51 90 52 41 53 93 54 87 55
REMARK SMILES IDX 86 56 42 58 74 59 54 60 73 61 55 62 58 63 72 64 91 65 56 66
REMARK SMILES IDX 57 67 71 69 92 70 59 71 43 72 44 73 52 74 45 75 46 76 50 77
REMARK SMILES IDX 53 78 47 79 48 80 51 81 49 82 75 83 76 84 84 85 77 86 78 87
REMARK SMILES IDX 82 88 85 89 79 90 80 91 83 92 81 93 60 94 61 95 69 96 62 97
REMARK SMILES IDX 63 98 67 99 70 100 64 101 65 102 68 103 66 104
REMARK H PARENT 1 27 1 28 15 30 90 57 58 68
REMARK Flexibility Score: inf
ROOT
ATOM      1  C   UNL A   1      34.395  25.160  24.888  1.00  0.00     0.188 C 
ENDROOT
BRANCH   1   2
ATOM      2  C   UNL A   1      35.348  24.259  25.696  1.00  0.00     0.188 C 
BRANCH   2   3
ATOM      3  O   UNL A   1      35.479  22.951  25.159  1.00  0.00    -0.376 OA
BRANCH   3   4
ATOM      4  C   UNL A   1      35.480  21.861  26.063  1.00  0.00     0.202 C 
BRANCH   4   5
ATOM      5  C   UNL A   1      34.512  21.939  27.253  1.00  0.00     0.261 C 
BRANCH   5   6
ATOM      6  O   UNL A   1      33.161  21.525  27.002  1.00  0.00    -0.460 OA
BRANCH   6   7
ATOM      7  C   UNL A   1      32.953  20.579  26.063  1.00  0.00     0.342 C 
ATOM      8  O   UNL A   1      32.891  19.372  26.232  1.00  0.00    -0.246 OA
BRANCH   7   9
ATOM      9  C   UNL A   1      32.520  21.247  24.815  1.00  0.00     0.102 A 
ATOM     10  C   UNL A   1      31.406  23.067  23.675  1.00  0.00    -0.006 A 
ATOM     11  C   UNL A   1      31.467  22.359  22.470  1.00  0.00     0.013 A 
ATOM     12  C   UNL A   1      31.917  22.510  24.852  1.00  0.00     0.029 A 
ATOM     13  C   UNL A   1      32.069  21.100  22.435  1.00  0.00     0.048 A 
ATOM     14  C   UNL A   1      32.608  20.553  23.599  1.00  0.00     0.130 A 
BRANCH  10  15
ATOM     15  C   UNL A   1      30.814  24.421  23.678  1.00  0.00     0.119 C 
ATOM     16  N   UNL A   1      31.375  25.393  23.038  1.00  0.00    -0.256 NA
BRANCH  16  17
ATOM     17  C   UNL A   1      30.794  26.670  22.976  1.00  0.00     0.063 A 
ATOM     18  C   UNL A   1      29.439  29.132  22.928  1.00  0.00     0.082 A 
ATOM     19  C   UNL A   1      28.827  28.016  23.499  1.00  0.00     0.024 A 
ATOM     20  C   UNL A   1      30.712  29.028  22.366  1.00  0.00     0.024 A 
ATOM     21  C   UNL A   1      29.511  26.798  23.525  1.00  0.00     0.030 A 
ATOM     22  C   UNL A   1      31.379  27.796  22.384  1.00  0.00     0.030 A 
BRANCH  18  23
ATOM     23  S   UNL A   1      28.552  30.659  22.893  1.00  0.00     0.238 S 
ATOM     24  O   UNL A   1      27.262  30.452  23.500  1.00  0.00    -0.207 OA
ATOM     25  O   UNL A   1      28.721  31.264  21.590  1.00  0.00    -0.207 OA
BRANCH  23  26
ATOM     26  N   UNL A   1      29.404  31.657  23.946  1.00  0.00    -0.225 NA
ATOM     27  H   UNL A   1      30.406  31.548  23.783  1.00  0.00     0.137 HD
ATOM     28  H   UNL A   1      29.187  31.400  24.909  1.00  0.00     0.137 HD
ENDBRANCH  23  26
ENDBRANCH  18  23
ENDBRANCH  16  17
ENDBRANCH  10  15
BRANCH  14  29
ATOM     29  O   UNL A   1      33.164  19.308  23.485  1.00  0.00    -0.507 OA
ATOM     30  H   UNL A   1      33.047  18.813  22.697  1.00  0.00     0.293 HD
ENDBRANCH  14  29
ENDBRANCH   7   9
ENDBRANCH   6   7
ENDBRANCH   5   6
ENDBRANCH   4   5
ENDBRANCH   3   4
ENDBRANCH   2   3
ENDBRANCH   1   2
BRANCH   1  31
ATOM     31  O   UNL A   1      33.542  26.041  25.604  1.00  0.00    -0.377 OA
BRANCH  31  32
ATOM     32  C   UNL A   1      33.661  27.448  25.416  1.00  0.00     0.188 C 
BRANCH  32  33
ATOM     33  C   UNL A   1      33.097  28.468  26.435  1.00  0.00     0.188 C 
BRANCH  33  34
ATOM     34  O   UNL A   1      32.936  29.788  25.939  1.00  0.00    -0.376 OA
BRANCH  34  35
ATOM     35  C   UNL A   1      31.740  30.467  26.278  1.00  0.00     0.202 C 
BRANCH  35  36
ATOM     36  C   UNL A   1      31.939  31.838  26.937  1.00  0.00     0.261 C 
BRANCH  36  37
ATOM     37  O   UNL A   1      33.257  32.393  26.809  1.00  0.00    -0.460 OA
BRANCH  37  38
ATOM     38  C   UNL A   1      33.776  32.984  27.907  1.00  0.00     0.338 C 
ATOM     39  O   UNL A   1      33.241  33.808  28.626  1.00  0.00    -0.246 OA
BRANCH  38  40
ATOM     40  C   UNL A   1      35.059  32.323  28.214  1.00  0.00     0.060 A 
ATOM     41  C   UNL A   1      35.084  30.930  28.355  1.00  0.00     0.016 A 
ATOM     42  C   UNL A   1      36.223  33.078  28.377  1.00  0.00     0.016 A 
ATOM     43  C   UNL A   1      36.268  30.291  28.720  1.00  0.00     0.010 A 
ATOM     44  C   UNL A   1      37.404  32.439  28.760  1.00  0.00     0.010 A 
ATOM     45  C   UNL A   1      37.417  31.050  28.981  1.00  0.00    -0.014 A 
BRANCH  45  46
ATOM     46  C   UNL A   1      38.541  30.421  29.714  1.00  0.00     0.031 A 
ATOM     47  C   UNL A   1      38.746  30.804  31.155  1.00  0.00     0.074 A 
ATOM     48  C   UNL A   1      39.326  29.494  29.141  1.00  0.00     0.049 A 
ATOM     49  N   UNL A   1      39.641  30.385  32.012  1.00  0.00    -0.248 NA
ATOM     50  C   UNL A   1      37.809  31.800  31.703  1.00  0.00     0.031 C 
ATOM     51  C   UNL A   1      39.203  29.015  27.766  1.00  0.00     0.029 A 
ATOM     52  N   UNL A   1      40.385  28.788  29.653  1.00  0.00    -0.354 N 
ATOM     53  C   UNL A   1      39.375  31.064  33.195  1.00  0.00     0.074 A 
ATOM     54  C   UNL A   1      38.265  31.953  32.937  1.00  0.00     0.031 C 
ATOM     55  C   UNL A   1      40.157  28.093  27.541  1.00  0.00     0.029 A 
ATOM     56  C   UNL A   1      40.969  27.937  28.748  1.00  0.00     0.049 A 
ATOM     57  H   UNL A   1      40.697  28.883  30.582  1.00  0.00     0.167 HD
ATOM     58  C   UNL A   1      39.992  30.946  34.394  1.00  0.00     0.037 A 
ATOM     59  C   UNL A   1      42.044  27.136  28.882  1.00  0.00     0.037 A 
ATOM     60  C   UNL A   1      41.100  30.065  34.648  1.00  0.00     0.049 A 
ATOM     61  C   UNL A   1      42.756  27.073  30.211  1.00  0.00     0.074 A 
ATOM     62  C   UNL A   1      41.791  29.865  35.830  1.00  0.00     0.029 A 
ATOM     63  N   UNL A   1      41.684  29.241  33.697  1.00  0.00    -0.354 N 
ATOM     64  N   UNL A   1      42.482  27.693  31.333  1.00  0.00    -0.248 NA
ATOM     65  C   UNL A   1      43.926  26.185  30.291  1.00  0.00     0.031 C 
ATOM     66  C   UNL A   1      42.830  28.962  35.580  1.00  0.00     0.029 A 
ATOM     67  C   UNL A   1      42.744  28.548  34.260  1.00  0.00     0.049 A 
ATOM     68  H   UNL A   1      41.390  29.161  32.761  1.00  0.00     0.167 HD
ATOM     69  C   UNL A   1      43.416  27.244  32.259  1.00  0.00     0.074 A 
ATOM     70  C   UNL A   1      44.256  26.287  31.570  1.00  0.00     0.031 C 
ATOM     71  C   UNL A   1      43.564  27.589  33.563  1.00  0.00     0.037 A 
BRANCH  58  72
ATOM     72  C   UNL A   1      39.496  31.816  35.513  1.00  0.00     0.064 A 
ATOM     73  C   UNL A   1      39.957  33.131  35.688  1.00  0.00     0.173 A 
ATOM     74  C   UNL A   1      38.535  31.334  36.414  1.00  0.00     0.173 A 
ATOM     75  F   UNL A   1      40.890  33.636  34.866  1.00  0.00    -0.203 F 
ATOM     76  C   UNL A   1      39.494  33.919  36.740  1.00  0.00     0.198 A 
ATOM     77  C   UNL A   1      38.050  32.136  37.444  1.00  0.00     0.198 A 
ATOM     78  F   UNL A   1      38.061  30.085  36.292  1.00  0.00    -0.203 F 
ATOM     79  F   UNL A   1      39.988  35.152  36.919  1.00  0.00    -0.200 F 
ATOM     80  C   UNL A   1      38.536  33.423  37.612  1.00  0.00     0.200 A 
ATOM     81  F   UNL A   1      37.116  31.659  38.278  1.00  0.00    -0.200 F 
ATOM     82  F   UNL A   1      38.087  34.184  38.619  1.00  0.00    -0.200 F 
ENDBRANCH  58  72
BRANCH  59  83
ATOM     83  C   UNL A   1      42.519  26.325  27.730  1.00  0.00     0.064 A 
ATOM     84  C   UNL A   1      42.002  25.045  27.481  1.00  0.00     0.173 A 
ATOM     85  C   UNL A   1      43.524  26.797  26.874  1.00  0.00     0.173 A 
ATOM     86  F   UNL A   1      41.058  24.536  28.286  1.00  0.00    -0.203 F 
ATOM     87  C   UNL A   1      42.489  24.261  26.436  1.00  0.00     0.198 A 
ATOM     88  C   UNL A   1      43.988  26.026  25.809  1.00  0.00     0.198 A 
ATOM     89  F   UNL A   1      44.056  28.013  27.069  1.00  0.00    -0.203 F 
ATOM     90  F   UNL A   1      42.016  23.020  26.256  1.00  0.00    -0.200 F 
ATOM     91  C   UNL A   1      43.477  24.754  25.598  1.00  0.00     0.200 A 
ATOM     92  F   UNL A   1      44.935  26.511  24.995  1.00  0.00    -0.200 F 
ATOM     93  F   UNL A   1      43.945  24.000  24.594  1.00  0.00    -0.200 F 
ENDBRANCH  59  83
BRANCH  71  94
ATOM     94  C   UNL A   1      44.642  26.890  34.345  1.00  0.00     0.064 A 
ATOM     95  C   UNL A   1      45.948  27.394  34.428  1.00  0.00     0.173 A 
ATOM     96  C   UNL A   1      44.352  25.707  35.044  1.00  0.00     0.173 A 
ATOM     97  F   UNL A   1      46.281  28.515  33.771  1.00  0.00    -0.203 F 
ATOM     98  C   UNL A   1      46.933  26.720  35.145  1.00  0.00     0.198 A 
ATOM     99  C   UNL A   1      45.329  25.056  35.792  1.00  0.00     0.198 A 
ATOM    100  F   UNL A   1      43.116  25.186  35.011  1.00  0.00    -0.203 F 
ATOM    101  F   UNL A   1      48.189  27.187  35.157  1.00  0.00    -0.200 F 
ATOM    102  C   UNL A   1      46.622  25.556  35.832  1.00  0.00     0.200 A 
ATOM    103  F   UNL A   1      45.021  23.941  36.469  1.00  0.00    -0.200 F 
ATOM    104  F   UNL A   1      47.570  24.910  36.524  1.00  0.00    -0.200 F 
ENDBRANCH  71  94
ENDBRANCH  45  46
ENDBRANCH  38  40
ENDBRANCH  37  38
ENDBRANCH  36  37
ENDBRANCH  35  36
ENDBRANCH  34  35
ENDBRANCH  33  34
ENDBRANCH  32  33
ENDBRANCH  31  32
ENDBRANCH   1  31
TORSDOF 25
ENDMDL
MODEL 2
REMARK VINA RESULT:     -10.3      3.509      9.380
REMARK SMILES NS(=O)(=O)c1ccc(/N=C/c2ccc(O)c(C(=O)OCCOCCOCCOCCOC(=O)c3ccc(-c4c5nc(c(-c6c(F)c(F)c(F)c(F)c6F)c6ccc([nH]6)c(-c6c(F)c(F)c(F)c(F)c6F)c6nc(c(-c7c(F)c(F)c(F)c(F)c7F)c7ccc4[nH]7)C=C6)C=C5)cc3)c2)cc1
REMARK SMILES IDX 24 1 23 2 22 3 21 4 20 5 19 6 17 7 18 8 16 9 11 10 12 11
REMARK SMILES IDX 97 12 13 13 14 14 10 15 9 16 8 17 5 18 6 19 99 20 7 21 98 22
REMARK SMILES IDX 2 23 3 24 4 25 1 26 15 29 25 31 26 32 27 33 28 34 29 35
REMARK SMILES IDX 30 36 31 37 32 38 33 39 34 40 35 41 96 42 36 43 95 44 37 45
REMARK SMILES IDX 38 46 39 47 89 48 40 49 94 50 88 51 90 52 41 53 93 54 87 55
REMARK SMILES IDX 86 56 42 58 74 59 54 60 73 61 55 62 58 63 72 64 91 65 56 66
REMARK SMILES IDX 57 67 71 69 92 70 59 71 43 72 44 73 52 74 45 75 46 76 50 77
REMARK SMILES IDX 53 78 47 79 48 80 51 81 49 82 75 83 76 84 84 85 77 86 78 87
REMARK SMILES IDX 82 88 85 89 79 90 80 91 83 92 81 93 60 94 61 95 69 96 62 97
REMARK SMILES IDX 63 98 67 99 70 100 64 101 65 102 68 103 66 104
REMARK H PARENT 1 27 1 28 15 30 90 57 58 68
REMARK Flexibility Score: inf
ROOT
ATOM      1  C   UNL A   1      31.762  25.362  23.303  1.00  0.00     0.188 C 
ENDROOT
BRANCH   1   2
ATOM      2  C   UNL A   1      32.547  24.094  23.688  1.00  0.00     0.188 C 
BRANCH   2   3
ATOM      3  O   UNL A   1      31.805  23.194  24.497  1.00  0.00    -0.376 OA
BRANCH   3   4
ATOM      4  C   UNL A   1      31.963  21.807  24.259  1.00  0.00     0.202 C 
BRANCH   4   5
ATOM      5  C   UNL A   1      33.367  21.317  23.880  1.00  0.00     0.261 C 
BRANCH   5   6
ATOM      6  O   UNL A   1      34.052  20.527  24.863  1.00  0.00    -0.460 OA
BRANCH   6   7
ATOM      7  C   UNL A   1      34.282  21.081  26.072  1.00  0.00     0.342 C 
ATOM      8  O   UNL A   1      33.774  20.766  27.136  1.00  0.00    -0.246 OA
BRANCH   7   9
ATOM      9  C   UNL A   1      35.472  21.954  25.968  1.00  0.00     0.102 A 
ATOM     10  C   UNL A   1      37.865  22.242  25.755  1.00  0.00    -0.006 A 
ATOM     11  C   UNL A   1      37.735  23.603  26.048  1.00  0.00     0.013 A 
ATOM     12  C   UNL A   1      36.739  21.411  25.728  1.00  0.00     0.029 A 
ATOM     13  C   UNL A   1      36.470  24.143  26.288  1.00  0.00     0.048 A 
ATOM     14  C   UNL A   1      35.341  23.326  26.231  1.00  0.00     0.130 A 
BRANCH  10  15
ATOM     15  C   UNL A   1      39.206  21.702  25.451  1.00  0.00     0.119 C 
ATOM     16  N   UNL A   1      39.959  21.225  26.386  1.00  0.00    -0.256 NA
BRANCH  16  17
ATOM     17  C   UNL A   1      41.209  20.649  26.108  1.00  0.00     0.063 A 
ATOM     18  C   UNL A   1      43.780  19.703  25.481  1.00  0.00     0.082 A 
ATOM     19  C   UNL A   1      43.516  21.071  25.435  1.00  0.00     0.024 A 
ATOM     20  C   UNL A   1      42.771  18.801  25.820  1.00  0.00     0.024 A 
ATOM     21  C   UNL A   1      42.237  21.533  25.755  1.00  0.00     0.030 A 
ATOM     22  C   UNL A   1      41.489  19.277  26.123  1.00  0.00     0.030 A 
BRANCH  18  23
ATOM     23  S   UNL A   1      45.400  19.137  25.060  1.00  0.00     0.238 S 
ATOM     24  O   UNL A   1      45.543  17.778  25.518  1.00  0.00    -0.207 OA
ATOM     25  O   UNL A   1      46.352  20.178  25.380  1.00  0.00    -0.207 OA
BRANCH  23  26
ATOM     26  N   UNL A   1      45.390  19.062  23.380  1.00  0.00    -0.225 NA
ATOM     27  H   UNL A   1      45.758  18.160  23.077  1.00  0.00     0.137 HD
ATOM     28  H   UNL A   1      45.970  19.810  23.002  1.00  0.00     0.137 HD
ENDBRANCH  23  26
ENDBRANCH  18  23
ENDBRANCH  16  17
ENDBRANCH  10  15
BRANCH  14  29
ATOM     29  O   UNL A   1      34.141  23.928  26.495  1.00  0.00    -0.507 OA
ATOM     30  H   UNL A   1      34.105  24.852  26.654  1.00  0.00     0.293 HD
ENDBRANCH  14  29
ENDBRANCH   7   9
ENDBRANCH   6   7
ENDBRANCH   5   6
ENDBRANCH   4   5
ENDBRANCH   3   4
ENDBRANCH   2   3
ENDBRANCH   1   2
BRANCH   1  31
ATOM     31  O   UNL A   1      32.432  26.612  23.381  1.00  0.00    -0.377 OA
BRANCH  31  32
ATOM     32  C   UNL A   1      31.990  27.702  22.577  1.00  0.00     0.188 C 
BRANCH  32  33
ATOM     33  C   UNL A   1      30.807  28.609  22.994  1.00  0.00     0.188 C 
BRANCH  33  34
ATOM     34  O   UNL A   1      30.675  28.823  24.390  1.00  0.00    -0.376 OA
BRANCH  34  35
ATOM     35  C   UNL A   1      31.402  29.900  24.954  1.00  0.00     0.202 C 
BRANCH  35  36
ATOM     36  C   UNL A   1      32.143  29.569  26.255  1.00  0.00     0.261 C 
BRANCH  36  37
ATOM     37  O   UNL A   1      33.497  30.042  26.327  1.00  0.00    -0.460 OA
BRANCH  37  38
ATOM     38  C   UNL A   1      33.746  31.038  27.203  1.00  0.00     0.338 C 
ATOM     39  O   UNL A   1      32.964  31.879  27.609  1.00  0.00    -0.246 OA
BRANCH  38  40
ATOM     40  C   UNL A   1      35.103  30.837  27.747  1.00  0.00     0.060 A 
ATOM     41  C   UNL A   1      35.539  29.532  28.005  1.00  0.00     0.016 A 
ATOM     42  C   UNL A   1      35.928  31.931  28.015  1.00  0.00     0.016 A 
ATOM     43  C   UNL A   1      36.786  29.320  28.590  1.00  0.00     0.010 A 
ATOM     44  C   UNL A   1      37.170  31.720  28.618  1.00  0.00     0.010 A 
ATOM     45  C   UNL A   1      37.580  30.416  28.952  1.00  0.00    -0.014 A 
BRANCH  45  46
ATOM     46  C   UNL A   1      38.709  30.206  29.890  1.00  0.00     0.031 A 
ATOM     47  C   UNL A   1      39.908  29.444  29.392  1.00  0.00     0.074 A 
ATOM     48  C   UNL A   1      38.700  30.722  31.131  1.00  0.00     0.049 A 
ATOM     49  N   UNL A   1      41.022  29.145  30.007  1.00  0.00    -0.248 NA
ATOM     50  C   UNL A   1      39.837  28.954  28.005  1.00  0.00     0.031 C 
ATOM     51  C   UNL A   1      37.614  31.507  31.712  1.00  0.00     0.029 A 
ATOM     52  N   UNL A   1      39.645  30.660  32.124  1.00  0.00    -0.354 N 
ATOM     53  C   UNL A   1      41.781  28.433  29.087  1.00  0.00     0.074 A 
ATOM     54  C   UNL A   1      40.986  28.307  27.885  1.00  0.00     0.031 C 
ATOM     55  C   UNL A   1      37.953  31.852  32.968  1.00  0.00     0.029 A 
ATOM     56  C   UNL A   1      39.267  31.291  33.282  1.00  0.00     0.049 A 
ATOM     57  H   UNL A   1      40.511  30.206  32.015  1.00  0.00     0.167 HD
ATOM     58  C   UNL A   1      43.033  27.940  29.224  1.00  0.00     0.037 A 
ATOM     59  C   UNL A   1      39.909  31.390  34.463  1.00  0.00     0.037 A 
ATOM     60  C   UNL A   1      43.821  28.061  30.422  1.00  0.00     0.049 A 
ATOM     61  C   UNL A   1      41.278  30.774  34.612  1.00  0.00     0.074 A 
ATOM     62  C   UNL A   1      45.105  27.604  30.662  1.00  0.00     0.029 A 
ATOM     63  N   UNL A   1      43.391  28.680  31.587  1.00  0.00    -0.354 N 
ATOM     64  N   UNL A   1      42.002  30.129  33.729  1.00  0.00    -0.248 NA
ATOM     65  C   UNL A   1      41.923  30.910  35.927  1.00  0.00     0.031 C 
ATOM     66  C   UNL A   1      45.431  27.897  31.990  1.00  0.00     0.029 A 
ATOM     67  C   UNL A   1      44.377  28.595  32.557  1.00  0.00     0.049 A 
ATOM     68  H   UNL A   1      42.516  29.115  31.707  1.00  0.00     0.167 HD
ATOM     69  C   UNL A   1      43.198  29.818  34.366  1.00  0.00     0.074 A 
ATOM     70  C   UNL A   1      43.107  30.358  35.706  1.00  0.00     0.031 C 
ATOM     71  C   UNL A   1      44.276  29.149  33.884  1.00  0.00     0.037 A 
BRANCH  58  72
ATOM     72  C   UNL A   1      43.615  27.199  28.055  1.00  0.00     0.064 A 
ATOM     73  C   UNL A   1      44.246  27.868  26.994  1.00  0.00     0.173 A 
ATOM     74  C   UNL A   1      43.556  25.798  28.003  1.00  0.00     0.173 A 
ATOM     75  F   UNL A   1      44.314  29.209  26.985  1.00  0.00    -0.203 F 
ATOM     76  C   UNL A   1      44.770  27.163  25.913  1.00  0.00     0.198 A 
ATOM     77  C   UNL A   1      44.111  25.096  26.936  1.00  0.00     0.198 A 
ATOM     78  F   UNL A   1      42.965  25.109  28.991  1.00  0.00    -0.203 F 
ATOM     79  F   UNL A   1      45.319  27.827  24.886  1.00  0.00    -0.200 F 
ATOM     80  C   UNL A   1      44.708  25.778  25.888  1.00  0.00     0.200 A 
ATOM     81  F   UNL A   1      44.061  23.756  26.921  1.00  0.00    -0.200 F 
ATOM     82  F   UNL A   1      45.218  25.102  24.850  1.00  0.00    -0.200 F 
ENDBRANCH  58  72
BRANCH  59  83
ATOM     83  C   UNL A   1      39.270  32.101  35.603  1.00  0.00     0.064 A 
ATOM     84  C   UNL A   1      39.521  33.459  35.843  1.00  0.00     0.173 A 
ATOM     85  C   UNL A   1      38.424  31.428  36.496  1.00  0.00     0.173 A 
ATOM     86  F   UNL A   1      40.345  34.142  35.034  1.00  0.00    -0.203 F 
ATOM     87  C   UNL A   1      38.969  34.110  36.945  1.00  0.00     0.198 A 
ATOM     88  C   UNL A   1      37.846  32.088  37.580  1.00  0.00     0.198 A 
ATOM     89  F   UNL A   1      38.154  30.127  36.315  1.00  0.00    -0.203 F 
ATOM     90  F   UNL A   1      39.271  35.395  37.182  1.00  0.00    -0.200 F 
ATOM     91  C   UNL A   1      38.128  33.426  37.809  1.00  0.00     0.200 A 
ATOM     92  F   UNL A   1      37.026  31.425  38.406  1.00  0.00    -0.200 F 
ATOM     93  F   UNL A   1      37.599  34.052  38.869  1.00  0.00    -0.200 F 
ENDBRANCH  59  83
BRANCH  71  94
ATOM     94  C   UNL A   1      45.466  29.009  34.794  1.00  0.00     0.064 A 
ATOM     95  C   UNL A   1      45.600  27.933  35.682  1.00  0.00     0.173 A 
ATOM     96  C   UNL A   1      46.500  29.958  34.755  1.00  0.00     0.173 A 
ATOM     97  F   UNL A   1      44.637  27.003  35.767  1.00  0.00    -0.203 F 
ATOM     98  C   UNL A   1      46.704  27.833  36.526  1.00  0.00     0.198 A 
ATOM     99  C   UNL A   1      47.619  29.836  35.572  1.00  0.00     0.198 A 
ATOM    100  F   UNL A   1      46.429  31.003  33.915  1.00  0.00    -0.203 F 
ATOM    101  F   UNL A   1      46.780  26.830  37.412  1.00  0.00    -0.200 F 
ATOM    102  C   UNL A   1      47.715  28.780  36.466  1.00  0.00     0.200 A 
ATOM    103  F   UNL A   1      48.604  30.743  35.500  1.00  0.00    -0.200 F 
ATOM    104  F   UNL A   1      48.777  28.682  37.277  1.00  0.00    -0.200 F 
ENDBRANCH  71  94
ENDBRANCH  45  46
ENDBRANCH  38  40
ENDBRANCH  37  38
ENDBRANCH  36  37
ENDBRANCH  35  36
ENDBRANCH  34  35
ENDBRANCH  33  34
ENDBRANCH  32  33
ENDBRANCH  31  32
ENDBRANCH   1  31
TORSDOF 25
ENDMDL
MODEL 3
REMARK VINA RESULT:      -9.6      3.527      6.332
REMARK SMILES NS(=O)(=O)c1ccc(/N=C/c2ccc(O)c(C(=O)OCCOCCOCCOCCOC(=O)c3ccc(-c4c5nc(c(-c6c(F)c(F)c(F)c(F)c6F)c6ccc([nH]6)c(-c6c(F)c(F)c(F)c(F)c6F)c6nc(c(-c7c(F)c(F)c(F)c(F)c7F)c7ccc4[nH]7)C=C6)C=C5)cc3)c2)cc1
REMARK SMILES IDX 24 1 23 2 22 3 21 4 20 5 19 6 17 7 18 8 16 9 11 10 12 11
REMARK SMILES IDX 97 12 13 13 14 14 10 15 9 16 8 17 5 18 6 19 99 20 7 21 98 22
REMARK SMILES IDX 2 23 3 24 4 25 1 26 15 29 25 31 26 32 27 33 28 34 29 35
REMARK SMILES IDX 30 36 31 37 32 38 33 39 34 40 35 41 96 42 36 43 95 44 37 45
REMARK SMILES IDX 38 46 39 47 89 48 40 49 94 50 88 51 90 52 41 53 93 54 87 55
REMARK SMILES IDX 86 56 42 58 74 59 54 60 73 61 55 62 58 63 72 64 91 65 56 66
REMARK SMILES IDX 57 67 71 69 92 70 59 71 43 72 44 73 52 74 45 75 46 76 50 77
REMARK SMILES IDX 53 78 47 79 48 80 51 81 49 82 75 83 76 84 84 85 77 86 78 87
REMARK SMILES IDX 82 88 85 89 79 90 80 91 83 92 81 93 60 94 61 95 69 96 62 97
REMARK SMILES IDX 63 98 67 99 70 100 64 101 65 102 68 103 66 104
REMARK H PARENT 1 27 1 28 15 30 90 57 58 68
REMARK Flexibility Score: inf
ROOT
ATOM      1  C   UNL A   1      31.423  25.020  22.758  1.00  0.00     0.188 C 
ENDROOT
BRANCH   1   2
ATOM      2  C   UNL A   1      32.267  23.732  22.795  1.00  0.00     0.188 C 
BRANCH   2   3
ATOM      3  O   UNL A   1      32.252  23.081  24.056  1.00  0.00    -0.376 OA
BRANCH   3   4
ATOM      4  C   UNL A   1      32.071  21.677  24.075  1.00  0.00     0.202 C 
BRANCH   4   5
ATOM      5  C   UNL A   1      33.329  20.808  23.945  1.00  0.00     0.261 C 
BRANCH   5   6
ATOM      6  O   UNL A   1      33.829  20.225  25.158  1.00  0.00    -0.460 OA
BRANCH   6   7
ATOM      7  C   UNL A   1      33.935  21.018  26.244  1.00  0.00     0.342 C 
ATOM      8  O   UNL A   1      33.344  20.900  27.305  1.00  0.00    -0.246 OA
BRANCH   7   9
ATOM      9  C   UNL A   1      35.106  21.905  26.062  1.00  0.00     0.102 A 
ATOM     10  C   UNL A   1      37.484  22.219  25.745  1.00  0.00    -0.006 A 
ATOM     11  C   UNL A   1      37.344  23.588  25.996  1.00  0.00     0.013 A 
ATOM     12  C   UNL A   1      36.372  21.371  25.792  1.00  0.00     0.029 A 
ATOM     13  C   UNL A   1      36.081  24.118  26.266  1.00  0.00     0.048 A 
ATOM     14  C   UNL A   1      34.964  23.283  26.282  1.00  0.00     0.130 A 
BRANCH  10  15
ATOM     15  C   UNL A   1      38.820  21.688  25.407  1.00  0.00     0.119 C 
ATOM     16  N   UNL A   1      39.751  21.610  26.300  1.00  0.00    -0.256 NA
BRANCH  16  17
ATOM     17  C   UNL A   1      41.006  21.050  26.014  1.00  0.00     0.063 A 
ATOM     18  C   UNL A   1      43.430  19.725  25.498  1.00  0.00     0.082 A 
ATOM     19  C   UNL A   1      42.280  18.983  25.766  1.00  0.00     0.024 A 
ATOM     20  C   UNL A   1      43.387  21.120  25.501  1.00  0.00     0.024 A 
ATOM     21  C   UNL A   1      41.078  19.650  26.015  1.00  0.00     0.030 A 
ATOM     22  C   UNL A   1      42.178  21.775  25.768  1.00  0.00     0.030 A 
BRANCH  18  23
ATOM     23  S   UNL A   1      44.943  18.863  25.198  1.00  0.00     0.238 S 
ATOM     24  O   UNL A   1      45.141  18.770  23.774  1.00  0.00    -0.207 OA
ATOM     25  O   UNL A   1      45.006  17.716  26.078  1.00  0.00    -0.207 OA
BRANCH  23  26
ATOM     26  N   UNL A   1      46.134  19.908  25.764  1.00  0.00    -0.225 NA
ATOM     27  H   UNL A   1      47.004  19.739  25.258  1.00  0.00     0.137 HD
ATOM     28  H   UNL A   1      46.283  19.746  26.760  1.00  0.00     0.137 HD
ENDBRANCH  23  26
ENDBRANCH  18  23
ENDBRANCH  16  17
ENDBRANCH  10  15
BRANCH  14  29
ATOM     29  O   UNL A   1      33.765  23.876  26.573  1.00  0.00    -0.507 OA
ATOM     30  H   UNL A   1      33.258  24.267  25.887  1.00  0.00     0.293 HD
ENDBRANCH  14  29
ENDBRANCH   7   9
ENDBRANCH   6   7
ENDBRANCH   5   6
ENDBRANCH   4   5
ENDBRANCH   3   4
ENDBRANCH   2   3
ENDBRANCH   1   2
BRANCH   1  31
ATOM     31  O   UNL A   1      32.031  26.227  23.193  1.00  0.00    -0.377 OA
BRANCH  31  32
ATOM     32  C   UNL A   1      31.785  27.437  22.481  1.00  0.00     0.188 C 
BRANCH  32  33
ATOM     33  C   UNL A   1      31.072  28.648  23.132  1.00  0.00     0.188 C 
BRANCH  33  34
ATOM     34  O   UNL A   1      31.053  28.644  24.551  1.00  0.00    -0.376 OA
BRANCH  34  35
ATOM     35  C   UNL A   1      31.885  29.580  25.213  1.00  0.00     0.202 C 
BRANCH  35  36
ATOM     36  C   UNL A   1      32.840  28.975  26.250  1.00  0.00     0.261 C 
BRANCH  36  37
ATOM     37  O   UNL A   1      34.067  29.694  26.445  1.00  0.00    -0.460 OA
BRANCH  37  38
ATOM     38  C   UNL A   1      33.999  30.817  27.193  1.00  0.00     0.338 C 
ATOM     39  O   UNL A   1      33.083  31.615  27.246  1.00  0.00    -0.246 OA
BRANCH  38  40
ATOM     40  C   UNL A   1      35.166  30.831  28.097  1.00  0.00     0.060 A 
ATOM     41  C   UNL A   1      36.036  31.927  28.057  1.00  0.00     0.016 A 
ATOM     42  C   UNL A   1      35.405  29.761  28.962  1.00  0.00     0.016 A 
ATOM     43  C   UNL A   1      37.185  31.929  28.846  1.00  0.00     0.010 A 
ATOM     44  C   UNL A   1      36.566  29.755  29.738  1.00  0.00     0.010 A 
ATOM     45  C   UNL A   1      37.484  30.817  29.644  1.00  0.00    -0.014 A 
BRANCH  45  46
ATOM     46  C   UNL A   1      38.858  30.664  30.178  1.00  0.00     0.031 A 
ATOM     47  C   UNL A   1      39.184  31.332  31.487  1.00  0.00     0.074 A 
ATOM     48  C   UNL A   1      39.778  29.911  29.553  1.00  0.00     0.049 A 
ATOM     49  N   UNL A   1      40.300  31.335  32.169  1.00  0.00    -0.248 NA
ATOM     50  C   UNL A   1      38.096  32.102  32.114  1.00  0.00     0.031 C 
ATOM     51  C   UNL A   1      39.570  29.188  28.301  1.00  0.00     0.029 A 
ATOM     52  N   UNL A   1      41.077  29.631  29.896  1.00  0.00    -0.354 N 
ATOM     53  C   UNL A   1      40.050  32.104  33.298  1.00  0.00     0.074 A 
ATOM     54  C   UNL A   1      38.691  32.587  33.192  1.00  0.00     0.031 C 
ATOM     55  C   UNL A   1      40.708  28.547  27.976  1.00  0.00     0.029 A 
ATOM     56  C   UNL A   1      41.727  28.836  28.985  1.00  0.00     0.049 A 
ATOM     57  H   UNL A   1      41.502  29.968  30.717  1.00  0.00     0.167 HD
ATOM     58  C   UNL A   1      40.873  32.372  34.338  1.00  0.00     0.037 A 
ATOM     59  C   UNL A   1      43.004  28.405  28.969  1.00  0.00     0.037 A 
ATOM     60  C   UNL A   1      42.226  31.895  34.440  1.00  0.00     0.049 A 
ATOM     61  C   UNL A   1      43.922  28.774  30.107  1.00  0.00     0.074 A 
ATOM     62  C   UNL A   1      43.142  32.104  35.456  1.00  0.00     0.029 A 
ATOM     63  N   UNL A   1      42.861  31.119  33.481  1.00  0.00    -0.354 N 
ATOM     64  N   UNL A   1      43.671  29.475  31.187  1.00  0.00    -0.248 NA
ATOM     65  C   UNL A   1      45.304  28.279  30.027  1.00  0.00     0.031 C 
ATOM     66  C   UNL A   1      44.349  31.500  35.086  1.00  0.00     0.029 A 
ATOM     67  C   UNL A   1      44.165  30.859  33.872  1.00  0.00     0.049 A 
ATOM     68  H   UNL A   1      42.446  30.799  32.646  1.00  0.00     0.167 HD
ATOM     69  C   UNL A   1      44.846  29.473  31.929  1.00  0.00     0.074 A 
ATOM     70  C   UNL A   1      45.806  28.688  31.183  1.00  0.00     0.031 C 
ATOM     71  C   UNL A   1      45.106  30.065  33.123  1.00  0.00     0.037 A 
BRANCH  58  72
ATOM     72  C   UNL A   1      40.337  33.247  35.435  1.00  0.00     0.064 A 
ATOM     73  C   UNL A   1      40.517  34.639  35.427  1.00  0.00     0.173 A 
ATOM     74  C   UNL A   1      39.619  32.686  36.502  1.00  0.00     0.173 A 
ATOM     75  F   UNL A   1      41.212  35.225  34.439  1.00  0.00    -0.203 F 
ATOM     76  C   UNL A   1      40.022  35.432  36.459  1.00  0.00     0.198 A 
ATOM     77  C   UNL A   1      39.098  33.486  37.515  1.00  0.00     0.198 A 
ATOM     78  F   UNL A   1      39.418  31.360  36.559  1.00  0.00    -0.203 F 
ATOM     79  F   UNL A   1      40.253  36.752  36.458  1.00  0.00    -0.200 F 
ATOM     80  C   UNL A   1      39.307  34.856  37.498  1.00  0.00     0.200 A 
ATOM     81  F   UNL A   1      38.396  32.928  38.512  1.00  0.00    -0.200 F 
ATOM     82  F   UNL A   1      38.827  35.621  38.488  1.00  0.00    -0.200 F 
ENDBRANCH  58  72
BRANCH  59  83
ATOM     83  C   UNL A   1      43.496  27.575  27.837  1.00  0.00     0.064 A 
ATOM     84  C   UNL A   1      43.395  26.177  27.865  1.00  0.00     0.173 A 
ATOM     85  C   UNL A   1      44.111  28.160  26.721  1.00  0.00     0.173 A 
ATOM     86  F   UNL A   1      42.839  25.566  28.923  1.00  0.00    -0.203 F 
ATOM     87  C   UNL A   1      43.909  25.395  26.832  1.00  0.00     0.198 A 
ATOM     88  C   UNL A   1      44.597  27.379  25.672  1.00  0.00     0.198 A 
ATOM     89  F   UNL A   1      44.237  29.492  26.645  1.00  0.00    -0.203 F 
ATOM     90  F   UNL A   1      43.849  24.058  26.911  1.00  0.00    -0.200 F 
ATOM     91  C   UNL A   1      44.504  25.997  25.734  1.00  0.00     0.200 A 
ATOM     92  F   UNL A   1      45.161  27.966  24.608  1.00  0.00    -0.200 F 
ATOM     93  F   UNL A   1      45.000  25.246  24.742  1.00  0.00    -0.200 F 
ENDBRANCH  59  83
BRANCH  71  94
ATOM     94  C   UNL A   1      46.467  29.841  33.722  1.00  0.00     0.064 A 
ATOM     95  C   UNL A   1      47.547  30.696  33.454  1.00  0.00     0.173 A 
ATOM     96  C   UNL A   1      46.685  28.767  34.599  1.00  0.00     0.173 A 
ATOM     97  F   UNL A   1      47.397  31.731  32.615  1.00  0.00    -0.203 F 
ATOM     98  C   UNL A   1      48.802  30.459  34.009  1.00  0.00     0.198 A 
ATOM     99  C   UNL A   1      47.931  28.556  35.182  1.00  0.00     0.198 A 
ATOM    100  F   UNL A   1      45.684  27.925  34.901  1.00  0.00    -0.203 F 
ATOM    101  F   UNL A   1      49.835  31.252  33.688  1.00  0.00    -0.200 F 
ATOM    102  C   UNL A   1      48.992  29.394  34.877  1.00  0.00     0.200 A 
ATOM    103  F   UNL A   1      48.107  27.537  36.035  1.00  0.00    -0.200 F 
ATOM    104  F   UNL A   1      50.200  29.170  35.412  1.00  0.00    -0.200 F 
ENDBRANCH  71  94
ENDBRANCH  45  46
ENDBRANCH  38  40
ENDBRANCH  37  38
ENDBRANCH  36  37
ENDBRANCH  35  36
ENDBRANCH  34  35
ENDBRANCH  33  34
ENDBRANCH  32  33
ENDBRANCH  31  32
ENDBRANCH   1  31
TORSDOF 25
ENDMDL
