MODEL 1
REMARK VINA RESULT:     -10.1      0.000      0.000
REMARK SMILES COC(=O)c1ccc(Cl)c(-c2ccc(C(=O)OCCOCCOCCOCCOC(=O)c3ccc(-c4c5nc(c(-c6c(F)c(F)c(F)c(F)c6F)c6ccc([nH]6)c(-c6c(F)c(F)c(F)c(F)c6F)c6nc(c(-c7c(F)c(F)c(F)c(F)c7F)c7ccc4[nH]7)C=C6)C=C5)cc3)c(F)c2)c1
REMARK SMILES IDX 22 1 21 2 20 3 19 4 18 5 17 6 15 7 16 8 14 9 11 10 12 11
REMARK SMILES IDX 97 12 13 13 95 14 96 15 10 16 5 17 6 18 98 19 7 20 8 21 9 22
REMARK SMILES IDX 3 23 4 24 2 25 1 26 23 27 24 28 25 29 26 30 27 31 28 32
REMARK SMILES IDX 29 33 30 34 31 35 32 36 33 37 94 38 34 39 93 40 35 41 36 42
REMARK SMILES IDX 37 43 87 44 38 45 92 46 86 47 88 48 39 49 91 50 85 51 84 52
REMARK SMILES IDX 40 54 72 55 52 56 71 57 53 58 56 59 70 60 89 61 54 62 55 63
REMARK SMILES IDX 69 65 90 66 57 67 41 68 42 69 50 70 43 71 44 72 48 73 51 74
REMARK SMILES IDX 45 75 46 76 49 77 47 78 73 79 74 80 82 81 75 82 76 83 80 84
REMARK SMILES IDX 83 85 77 86 78 87 81 88 79 89 58 90 59 91 67 92 60 93 61 94
REMARK SMILES IDX 65 95 68 96 62 97 63 98 66 99 64 100
REMARK H PARENT 88 53 56 64
REMARK Flexibility Score: inf
ROOT
ATOM      1  C   UNL A   1      34.178  31.745  27.588  1.00  0.00     0.188 C 
ENDROOT
BRANCH   1   2
ATOM      2  C   UNL A   1      33.343  30.474  27.316  1.00  0.00     0.188 C 
BRANCH   2   3
ATOM      3  O   UNL A   1      31.960  30.721  27.121  1.00  0.00    -0.376 OA
BRANCH   3   4
ATOM      4  C   UNL A   1      31.424  30.652  25.814  1.00  0.00     0.202 C 
BRANCH   4   5
ATOM      5  C   UNL A   1      31.860  29.500  24.897  1.00  0.00     0.261 C 
BRANCH   5   6
ATOM      6  O   UNL A   1      31.161  28.267  25.085  1.00  0.00    -0.460 OA
BRANCH   6   7
ATOM      7  C   UNL A   1      30.815  27.586  23.974  1.00  0.00     0.341 C 
ATOM      8  O   UNL A   1      30.323  28.050  22.960  1.00  0.00    -0.246 OA
BRANCH   7   9
ATOM      9  C   UNL A   1      31.341  26.213  24.080  1.00  0.00     0.095 A 
ATOM     10  C   UNL A   1      32.377  23.617  24.383  1.00  0.00    -0.014 A 
ATOM     11  C   UNL A   1      31.571  24.183  25.383  1.00  0.00     0.010 A 
ATOM     12  C   UNL A   1      32.581  24.341  23.194  1.00  0.00     0.049 A 
ATOM     13  C   UNL A   1      31.062  25.476  25.238  1.00  0.00     0.019 A 
ATOM     14  C   UNL A   1      32.073  25.630  23.051  1.00  0.00     0.138 A 
ATOM     15  F   UNL A   1      32.354  26.304  21.927  1.00  0.00    -0.206 F 
BRANCH  10  16
ATOM     16  C   UNL A   1      33.166  22.406  24.651  1.00  0.00     0.001 A 
ATOM     17  C   UNL A   1      33.384  20.004  24.208  1.00  0.00     0.060 A 
ATOM     18  C   UNL A   1      34.563  19.961  24.952  1.00  0.00     0.017 A 
ATOM     19  C   UNL A   1      32.706  21.215  24.056  1.00  0.00     0.026 A 
ATOM     20  C   UNL A   1      35.048  21.134  25.542  1.00  0.00     0.022 A 
ATOM     21  C   UNL A   1      34.354  22.347  25.399  1.00  0.00     0.048 A 
ATOM     22  Cl  UNL A   1      35.010  23.742  26.182  1.00  0.00    -0.084 Cl
BRANCH  17  23
ATOM     23  C   UNL A   1      32.799  18.819  23.544  1.00  0.00     0.337 C 
ATOM     24  O   UNL A   1      32.093  18.891  22.552  1.00  0.00    -0.246 OA
BRANCH  23  25
ATOM     25  O   UNL A   1      33.072  17.704  24.262  1.00  0.00    -0.465 OA
ATOM     26  C   UNL A   1      33.880  16.765  23.551  1.00  0.00     0.282 C 
ENDBRANCH  23  25
ENDBRANCH  17  23
ENDBRANCH  10  16
ENDBRANCH   7   9
ENDBRANCH   6   7
ENDBRANCH   5   6
ENDBRANCH   4   5
ENDBRANCH   3   4
ENDBRANCH   2   3
ENDBRANCH   1   2
BRANCH   1  27
ATOM     27  O   UNL A   1      33.525  32.970  27.899  1.00  0.00    -0.377 OA
BRANCH  27  28
ATOM     28  C   UNL A   1      33.813  33.639  29.124  1.00  0.00     0.188 C 
BRANCH  28  29
ATOM     29  C   UNL A   1      35.110  33.338  29.915  1.00  0.00     0.188 C 
BRANCH  29  30
ATOM     30  O   UNL A   1      34.931  32.503  31.045  1.00  0.00    -0.376 OA
BRANCH  30  31
ATOM     31  C   UNL A   1      34.384  33.084  32.215  1.00  0.00     0.202 C 
BRANCH  31  32
ATOM     32  C   UNL A   1      35.257  33.079  33.477  1.00  0.00     0.261 C 
BRANCH  32  33
ATOM     33  O   UNL A   1      36.677  33.115  33.268  1.00  0.00    -0.460 OA
BRANCH  33  34
ATOM     34  C   UNL A   1      37.424  32.192  33.905  1.00  0.00     0.338 C 
ATOM     35  O   UNL A   1      37.290  31.788  35.049  1.00  0.00    -0.246 OA
BRANCH  34  36
ATOM     36  C   UNL A   1      38.345  31.605  32.911  1.00  0.00     0.060 A 
ATOM     37  C   UNL A   1      39.342  30.718  33.337  1.00  0.00     0.016 A 
ATOM     38  C   UNL A   1      38.207  31.922  31.558  1.00  0.00     0.016 A 
ATOM     39  C   UNL A   1      40.228  30.169  32.410  1.00  0.00     0.010 A 
ATOM     40  C   UNL A   1      39.108  31.391  30.634  1.00  0.00     0.010 A 
ATOM     41  C   UNL A   1      40.142  30.539  31.061  1.00  0.00    -0.014 A 
BRANCH  41  42
ATOM     42  C   UNL A   1      41.244  30.200  30.129  1.00  0.00     0.031 A 
ATOM     43  C   UNL A   1      41.233  28.849  29.474  1.00  0.00     0.074 A 
ATOM     44  C   UNL A   1      42.227  31.076  29.856  1.00  0.00     0.049 A 
ATOM     45  N   UNL A   1      42.112  28.303  28.672  1.00  0.00    -0.248 NA
ATOM     46  C   UNL A   1      40.072  27.994  29.768  1.00  0.00     0.031 C 
ATOM     47  C   UNL A   1      42.318  32.432  30.388  1.00  0.00     0.029 A 
ATOM     48  N   UNL A   1      43.339  30.945  29.063  1.00  0.00    -0.354 N 
ATOM     49  C   UNL A   1      41.609  27.045  28.370  1.00  0.00     0.074 A 
ATOM     50  C   UNL A   1      40.373  26.890  29.104  1.00  0.00     0.031 C 
ATOM     51  C   UNL A   1      43.431  33.011  29.906  1.00  0.00     0.029 A 
ATOM     52  C   UNL A   1      44.148  32.053  29.064  1.00  0.00     0.049 A 
ATOM     53  H   UNL A   1      43.537  30.133  28.541  1.00  0.00     0.167 HD
ATOM     54  C   UNL A   1      42.127  26.109  27.540  1.00  0.00     0.037 A 
ATOM     55  C   UNL A   1      45.340  32.261  28.469  1.00  0.00     0.037 A 
ATOM     56  C   UNL A   1      43.362  26.266  26.819  1.00  0.00     0.049 A 
ATOM     57  C   UNL A   1      45.950  31.169  27.628  1.00  0.00     0.074 A 
ATOM     58  C   UNL A   1      43.970  25.378  25.950  1.00  0.00     0.029 A 
ATOM     59  N   UNL A   1      44.184  27.382  26.891  1.00  0.00    -0.354 N 
ATOM     60  N   UNL A   1      45.470  29.984  27.338  1.00  0.00    -0.248 NA
ATOM     61  C   UNL A   1      47.266  31.443  27.034  1.00  0.00     0.031 C 
ATOM     62  C   UNL A   1      45.191  25.928  25.549  1.00  0.00     0.029 A 
ATOM     63  C   UNL A   1      45.310  27.192  26.107  1.00  0.00     0.049 A 
ATOM     64  H   UNL A   1      43.994  28.190  27.421  1.00  0.00     0.167 HD
ATOM     65  C   UNL A   1      46.409  29.381  26.509  1.00  0.00     0.074 A 
ATOM     66  C   UNL A   1      47.485  30.336  26.337  1.00  0.00     0.031 C 
ATOM     67  C   UNL A   1      46.376  28.150  25.940  1.00  0.00     0.037 A 
BRANCH  54  68
ATOM     68  C   UNL A   1      41.369  24.822  27.389  1.00  0.00     0.064 A 
ATOM     69  C   UNL A   1      41.851  23.640  27.974  1.00  0.00     0.173 A 
ATOM     70  C   UNL A   1      40.184  24.745  26.642  1.00  0.00     0.173 A 
ATOM     71  F   UNL A   1      42.981  23.655  28.697  1.00  0.00    -0.203 F 
ATOM     72  C   UNL A   1      41.178  22.432  27.811  1.00  0.00     0.198 A 
ATOM     73  C   UNL A   1      39.494  23.542  26.511  1.00  0.00     0.198 A 
ATOM     74  F   UNL A   1      39.670  25.848  26.074  1.00  0.00    -0.203 F 
ATOM     75  F   UNL A   1      41.674  21.313  28.356  1.00  0.00    -0.200 F 
ATOM     76  C   UNL A   1      39.996  22.386  27.087  1.00  0.00     0.200 A 
ATOM     77  F   UNL A   1      38.336  23.505  25.838  1.00  0.00    -0.200 F 
ATOM     78  F   UNL A   1      39.338  21.226  26.951  1.00  0.00    -0.200 F 
ENDBRANCH  54  68
BRANCH  55  79
ATOM     79  C   UNL A   1      46.016  33.573  28.640  1.00  0.00     0.064 A 
ATOM     80  C   UNL A   1      45.774  34.639  27.762  1.00  0.00     0.173 A 
ATOM     81  C   UNL A   1      46.961  33.766  29.656  1.00  0.00     0.173 A 
ATOM     82  F   UNL A   1      44.874  34.507  26.776  1.00  0.00    -0.203 F 
ATOM     83  C   UNL A   1      46.479  35.836  27.870  1.00  0.00     0.198 A 
ATOM     84  C   UNL A   1      47.648  34.972  29.780  1.00  0.00     0.198 A 
ATOM     85  F   UNL A   1      47.207  32.785  30.537  1.00  0.00    -0.203 F 
ATOM     86  F   UNL A   1      46.261  36.823  26.991  1.00  0.00    -0.200 F 
ATOM     87  C   UNL A   1      47.416  36.002  28.880  1.00  0.00     0.200 A 
ATOM     88  F   UNL A   1      48.535  35.137  30.771  1.00  0.00    -0.200 F 
ATOM     89  F   UNL A   1      48.095  37.152  28.984  1.00  0.00    -0.200 F 
ENDBRANCH  55  79
BRANCH  67  90
ATOM     90  C   UNL A   1      47.521  27.752  25.051  1.00  0.00     0.064 A 
ATOM     91  C   UNL A   1      47.426  27.915  23.658  1.00  0.00     0.173 A 
ATOM     92  C   UNL A   1      48.664  27.120  25.559  1.00  0.00     0.173 A 
ATOM     93  F   UNL A   1      46.348  28.504  23.119  1.00  0.00    -0.203 F 
ATOM     94  C   UNL A   1      48.421  27.440  22.810  1.00  0.00     0.198 A 
ATOM     95  C   UNL A   1      49.674  26.674  24.708  1.00  0.00     0.198 A 
ATOM     96  F   UNL A   1      48.810  26.948  26.882  1.00  0.00    -0.203 F 
ATOM     97  F   UNL A   1      48.284  27.564  21.482  1.00  0.00    -0.200 F 
ATOM     98  C   UNL A   1      49.546  26.822  23.335  1.00  0.00     0.200 A 
ATOM     99  F   UNL A   1      50.772  26.099  25.218  1.00  0.00    -0.200 F 
ATOM    100  F   UNL A   1      50.506  26.369  22.518  1.00  0.00    -0.200 F 
ENDBRANCH  67  90
ENDBRANCH  41  42
ENDBRANCH  34  36
ENDBRANCH  33  34
ENDBRANCH  32  33
ENDBRANCH  31  32
ENDBRANCH  30  31
ENDBRANCH  29  30
ENDBRANCH  28  29
ENDBRANCH  27  28
ENDBRANCH   1  27
TORSDOF 23
ENDMDL
MODEL 2
REMARK VINA RESULT:      -9.6      1.045      7.083
REMARK SMILES COC(=O)c1ccc(Cl)c(-c2ccc(C(=O)OCCOCCOCCOCCOC(=O)c3ccc(-c4c5nc(c(-c6c(F)c(F)c(F)c(F)c6F)c6ccc([nH]6)c(-c6c(F)c(F)c(F)c(F)c6F)c6nc(c(-c7c(F)c(F)c(F)c(F)c7F)c7ccc4[nH]7)C=C6)C=C5)cc3)c(F)c2)c1
REMARK SMILES IDX 22 1 21 2 20 3 19 4 18 5 17 6 15 7 16 8 14 9 11 10 12 11
REMARK SMILES IDX 97 12 13 13 95 14 96 15 10 16 5 17 6 18 98 19 7 20 8 21 9 22
REMARK SMILES IDX 3 23 4 24 2 25 1 26 23 27 24 28 25 29 26 30 27 31 28 32
REMARK SMILES IDX 29 33 30 34 31 35 32 36 33 37 94 38 34 39 93 40 35 41 36 42
REMARK SMILES IDX 37 43 87 44 38 45 92 46 86 47 88 48 39 49 91 50 85 51 84 52
REMARK SMILES IDX 40 54 72 55 52 56 71 57 53 58 56 59 70 60 89 61 54 62 55 63
REMARK SMILES IDX 69 65 90 66 57 67 41 68 42 69 50 70 43 71 44 72 48 73 51 74
REMARK SMILES IDX 45 75 46 76 49 77 47 78 73 79 74 80 82 81 75 82 76 83 80 84
REMARK SMILES IDX 83 85 77 86 78 87 81 88 79 89 58 90 59 91 67 92 60 93 61 94
REMARK SMILES IDX 65 95 68 96 62 97 63 98 66 99 64 100
REMARK H PARENT 88 53 56 64
REMARK Flexibility Score: inf
ROOT
ATOM      1  C   UNL A   1      34.337  31.836  27.989  1.00  0.00     0.188 C 
ENDROOT
BRANCH   1   2
ATOM      2  C   UNL A   1      33.389  30.849  27.272  1.00  0.00     0.188 C 
BRANCH   2   3
ATOM      3  O   UNL A   1      32.135  31.406  26.915  1.00  0.00    -0.376 OA
BRANCH   3   4
ATOM      4  C   UNL A   1      31.347  30.762  25.933  1.00  0.00     0.202 C 
BRANCH   4   5
ATOM      5  C   UNL A   1      31.914  29.521  25.230  1.00  0.00     0.261 C 
BRANCH   5   6
ATOM      6  O   UNL A   1      30.957  28.716  24.537  1.00  0.00    -0.460 OA
BRANCH   6   7
ATOM      7  C   UNL A   1      31.369  28.119  23.401  1.00  0.00     0.341 C 
ATOM      8  O   UNL A   1      31.678  28.671  22.359  1.00  0.00    -0.246 OA
BRANCH   7   9
ATOM      9  C   UNL A   1      31.620  26.693  23.681  1.00  0.00     0.095 A 
ATOM     10  C   UNL A   1      32.063  23.991  24.317  1.00  0.00    -0.014 A 
ATOM     11  C   UNL A   1      30.863  24.620  24.682  1.00  0.00     0.010 A 
ATOM     12  C   UNL A   1      32.997  24.714  23.553  1.00  0.00     0.049 A 
ATOM     13  C   UNL A   1      30.644  25.966  24.375  1.00  0.00     0.019 A 
ATOM     14  C   UNL A   1      32.777  26.056  23.246  1.00  0.00     0.138 A 
ATOM     15  F   UNL A   1      33.729  26.720  22.576  1.00  0.00    -0.206 F 
BRANCH  10  16
ATOM     16  C   UNL A   1      32.436  22.692  24.898  1.00  0.00     0.001 A 
ATOM     17  C   UNL A   1      32.798  20.310  24.442  1.00  0.00     0.060 A 
ATOM     18  C   UNL A   1      33.199  20.106  25.761  1.00  0.00     0.017 A 
ATOM     19  C   UNL A   1      32.433  21.591  24.020  1.00  0.00     0.026 A 
ATOM     20  C   UNL A   1      33.224  21.188  26.649  1.00  0.00     0.022 A 
ATOM     21  C   UNL A   1      32.840  22.471  26.225  1.00  0.00     0.048 A 
ATOM     22  Cl  UNL A   1      32.876  23.745  27.393  1.00  0.00    -0.084 Cl
BRANCH  17  23
ATOM     23  C   UNL A   1      32.746  19.231  23.432  1.00  0.00     0.337 C 
ATOM     24  O   UNL A   1      32.154  19.339  22.370  1.00  0.00    -0.246 OA
BRANCH  23  25
ATOM     25  O   UNL A   1      33.340  18.116  23.916  1.00  0.00    -0.465 OA
ATOM     26  C   UNL A   1      33.726  17.197  22.892  1.00  0.00     0.282 C 
ENDBRANCH  23  25
ENDBRANCH  17  23
ENDBRANCH  10  16
ENDBRANCH   7   9
ENDBRANCH   6   7
ENDBRANCH   5   6
ENDBRANCH   4   5
ENDBRANCH   3   4
ENDBRANCH   2   3
ENDBRANCH   1   2
BRANCH   1  27
ATOM     27  O   UNL A   1      34.315  33.216  27.648  1.00  0.00    -0.377 OA
BRANCH  27  28
ATOM     28  C   UNL A   1      34.614  34.198  28.636  1.00  0.00     0.188 C 
BRANCH  28  29
ATOM     29  C   UNL A   1      33.586  34.572  29.731  1.00  0.00     0.188 C 
BRANCH  29  30
ATOM     30  O   UNL A   1      34.094  35.408  30.755  1.00  0.00    -0.376 OA
BRANCH  30  31
ATOM     31  C   UNL A   1      33.657  35.168  32.081  1.00  0.00     0.202 C 
BRANCH  31  32
ATOM     32  C   UNL A   1      34.595  34.369  32.997  1.00  0.00     0.261 C 
BRANCH  32  33
ATOM     33  O   UNL A   1      35.769  33.819  32.381  1.00  0.00    -0.460 OA
BRANCH  33  34
ATOM     34  C   UNL A   1      35.729  32.524  32.010  1.00  0.00     0.338 C 
ATOM     35  O   UNL A   1      34.759  31.783  32.001  1.00  0.00    -0.246 OA
BRANCH  34  36
ATOM     36  C   UNL A   1      37.046  32.188  31.433  1.00  0.00     0.060 A 
ATOM     37  C   UNL A   1      37.249  32.330  30.054  1.00  0.00     0.016 A 
ATOM     38  C   UNL A   1      38.081  31.751  32.261  1.00  0.00     0.016 A 
ATOM     39  C   UNL A   1      38.484  32.001  29.494  1.00  0.00     0.010 A 
ATOM     40  C   UNL A   1      39.309  31.401  31.698  1.00  0.00     0.010 A 
ATOM     41  C   UNL A   1      39.505  31.493  30.309  1.00  0.00    -0.014 A 
BRANCH  41  42
ATOM     42  C   UNL A   1      40.701  30.870  29.694  1.00  0.00     0.031 A 
ATOM     43  C   UNL A   1      41.924  31.720  29.497  1.00  0.00     0.074 A 
ATOM     44  C   UNL A   1      40.711  29.576  29.331  1.00  0.00     0.049 A 
ATOM     45  N   UNL A   1      43.065  31.420  28.932  1.00  0.00    -0.248 NA
ATOM     46  C   UNL A   1      41.845  33.099  30.004  1.00  0.00     0.031 C 
ATOM     47  C   UNL A   1      39.606  28.640  29.519  1.00  0.00     0.029 A 
ATOM     48  N   UNL A   1      41.690  28.831  28.723  1.00  0.00    -0.354 N 
ATOM     49  C   UNL A   1      43.836  32.572  29.015  1.00  0.00     0.074 A 
ATOM     50  C   UNL A   1      43.022  33.587  29.646  1.00  0.00     0.031 C 
ATOM     51  C   UNL A   1      39.969  27.441  29.033  1.00  0.00     0.029 A 
ATOM     52  C   UNL A   1      41.315  27.536  28.466  1.00  0.00     0.049 A 
ATOM     53  H   UNL A   1      42.578  29.191  28.493  1.00  0.00     0.167 HD
ATOM     54  C   UNL A   1      45.116  32.759  28.615  1.00  0.00     0.037 A 
ATOM     55  C   UNL A   1      41.977  26.550  27.829  1.00  0.00     0.037 A 
ATOM     56  C   UNL A   1      45.918  31.748  27.979  1.00  0.00     0.049 A 
ATOM     57  C   UNL A   1      43.365  26.807  27.301  1.00  0.00     0.074 A 
ATOM     58  C   UNL A   1      47.226  31.837  27.540  1.00  0.00     0.029 A 
ATOM     59  N   UNL A   1      45.482  30.463  27.684  1.00  0.00    -0.354 N 
ATOM     60  N   UNL A   1      44.093  27.893  27.387  1.00  0.00    -0.248 NA
ATOM     61  C   UNL A   1      44.020  25.702  26.586  1.00  0.00     0.031 C 
ATOM     62  C   UNL A   1      47.560  30.630  26.920  1.00  0.00     0.029 A 
ATOM     63  C   UNL A   1      46.487  29.760  27.038  1.00  0.00     0.049 A 
ATOM     64  H   UNL A   1      44.592  30.104  27.902  1.00  0.00     0.167 HD
ATOM     65  C   UNL A   1      45.300  27.597  26.764  1.00  0.00     0.074 A 
ATOM     66  C   UNL A   1      45.207  26.225  26.309  1.00  0.00     0.031 C 
ATOM     67  C   UNL A   1      46.386  28.393  26.591  1.00  0.00     0.037 A 
BRANCH  54  68
ATOM     68  C   UNL A   1      45.717  34.118  28.830  1.00  0.00     0.064 A 
ATOM     69  C   UNL A   1      46.289  34.455  30.066  1.00  0.00     0.173 A 
ATOM     70  C   UNL A   1      45.701  35.100  27.827  1.00  0.00     0.173 A 
ATOM     71  F   UNL A   1      46.328  33.556  31.061  1.00  0.00    -0.203 F 
ATOM     72  C   UNL A   1      46.816  35.724  30.291  1.00  0.00     0.198 A 
ATOM     73  C   UNL A   1      46.262  36.357  28.044  1.00  0.00     0.198 A 
ATOM     74  F   UNL A   1      45.180  34.826  26.621  1.00  0.00    -0.203 F 
ATOM     75  F   UNL A   1      47.331  36.030  31.491  1.00  0.00    -0.200 F 
ATOM     76  C   UNL A   1      46.810  36.670  29.278  1.00  0.00     0.200 A 
ATOM     77  F   UNL A   1      46.283  37.259  27.054  1.00  0.00    -0.200 F 
ATOM     78  F   UNL A   1      47.338  37.884  29.490  1.00  0.00    -0.200 F 
ENDBRANCH  54  68
BRANCH  55  79
ATOM     79  C   UNL A   1      41.328  25.221  27.681  1.00  0.00     0.064 A 
ATOM     80  C   UNL A   1      41.804  24.095  28.369  1.00  0.00     0.173 A 
ATOM     81  C   UNL A   1      40.251  25.042  26.803  1.00  0.00     0.173 A 
ATOM     82  F   UNL A   1      42.829  24.215  29.226  1.00  0.00    -0.203 F 
ATOM     83  C   UNL A   1      41.251  22.834  28.156  1.00  0.00     0.198 A 
ATOM     84  C   UNL A   1      39.682  23.785  26.610  1.00  0.00     0.198 A 
ATOM     85  F   UNL A   1      39.743  26.094  26.143  1.00  0.00    -0.203 F 
ATOM     86  F   UNL A   1      41.753  21.767  28.793  1.00  0.00    -0.200 F 
ATOM     87  C   UNL A   1      40.190  22.680  27.276  1.00  0.00     0.200 A 
ATOM     88  F   UNL A   1      38.641  23.644  25.777  1.00  0.00    -0.200 F 
ATOM     89  F   UNL A   1      39.658  21.467  27.070  1.00  0.00    -0.200 F 
ENDBRANCH  55  79
BRANCH  67  90
ATOM     90  C   UNL A   1      47.586  27.808  25.900  1.00  0.00     0.064 A 
ATOM     91  C   UNL A   1      47.631  27.738  24.497  1.00  0.00     0.173 A 
ATOM     92  C   UNL A   1      48.640  27.227  26.619  1.00  0.00     0.173 A 
ATOM     93  F   UNL A   1      46.643  28.268  23.762  1.00  0.00    -0.203 F 
ATOM     94  C   UNL A   1      48.674  27.088  23.844  1.00  0.00     0.198 A 
ATOM     95  C   UNL A   1      49.700  26.606  25.959  1.00  0.00     0.198 A 
ATOM     96  F   UNL A   1      48.652  27.275  27.959  1.00  0.00    -0.203 F 
ATOM     97  F   UNL A   1      48.670  26.993  22.507  1.00  0.00    -0.200 F 
ATOM     98  C   UNL A   1      49.710  26.526  24.575  1.00  0.00     0.200 A 
ATOM     99  F   UNL A   1      50.712  26.084  26.666  1.00  0.00    -0.200 F 
ATOM    100  F   UNL A   1      50.716  25.905  23.945  1.00  0.00    -0.200 F 
ENDBRANCH  67  90
ENDBRANCH  41  42
ENDBRANCH  34  36
ENDBRANCH  33  34
ENDBRANCH  32  33
ENDBRANCH  31  32
ENDBRANCH  30  31
ENDBRANCH  29  30
ENDBRANCH  28  29
ENDBRANCH  27  28
ENDBRANCH   1  27
TORSDOF 23
ENDMDL
MODEL 3
REMARK VINA RESULT:      -9.6      4.899      7.778
REMARK SMILES COC(=O)c1ccc(Cl)c(-c2ccc(C(=O)OCCOCCOCCOCCOC(=O)c3ccc(-c4c5nc(c(-c6c(F)c(F)c(F)c(F)c6F)c6ccc([nH]6)c(-c6c(F)c(F)c(F)c(F)c6F)c6nc(c(-c7c(F)c(F)c(F)c(F)c7F)c7ccc4[nH]7)C=C6)C=C5)cc3)c(F)c2)c1
REMARK SMILES IDX 22 1 21 2 20 3 19 4 18 5 17 6 15 7 16 8 14 9 11 10 12 11
REMARK SMILES IDX 97 12 13 13 95 14 96 15 10 16 5 17 6 18 98 19 7 20 8 21 9 22
REMARK SMILES IDX 3 23 4 24 2 25 1 26 23 27 24 28 25 29 26 30 27 31 28 32
REMARK SMILES IDX 29 33 30 34 31 35 32 36 33 37 94 38 34 39 93 40 35 41 36 42
REMARK SMILES IDX 37 43 87 44 38 45 92 46 86 47 88 48 39 49 91 50 85 51 84 52
REMARK SMILES IDX 40 54 72 55 52 56 71 57 53 58 56 59 70 60 89 61 54 62 55 63
REMARK SMILES IDX 69 65 90 66 57 67 41 68 42 69 50 70 43 71 44 72 48 73 51 74
REMARK SMILES IDX 45 75 46 76 49 77 47 78 73 79 74 80 82 81 75 82 76 83 80 84
REMARK SMILES IDX 83 85 77 86 78 87 81 88 79 89 58 90 59 91 67 92 60 93 61 94
REMARK SMILES IDX 65 95 68 96 62 97 63 98 66 99 64 100
REMARK H PARENT 88 53 56 64
REMARK Flexibility Score: inf
ROOT
ATOM      1  C   UNL A   1      34.238  31.158  27.790  1.00  0.00     0.188 C 
ENDROOT
BRANCH   1   2
ATOM      2  C   UNL A   1      33.798  29.839  27.117  1.00  0.00     0.188 C 
BRANCH   2   3
ATOM      3  O   UNL A   1      33.266  30.003  25.814  1.00  0.00    -0.376 OA
BRANCH   3   4
ATOM      4  C   UNL A   1      31.870  30.167  25.653  1.00  0.00     0.202 C 
BRANCH   4   5
ATOM      5  C   UNL A   1      31.050  28.997  25.091  1.00  0.00     0.261 C 
BRANCH   5   6
ATOM      6  O   UNL A   1      31.746  27.753  24.985  1.00  0.00    -0.460 OA
BRANCH   6   7
ATOM      7  C   UNL A   1      31.668  26.917  26.040  1.00  0.00     0.341 C 
ATOM      8  O   UNL A   1      31.012  27.084  27.054  1.00  0.00    -0.246 OA
BRANCH   7   9
ATOM      9  C   UNL A   1      32.319  25.644  25.681  1.00  0.00     0.095 A 
ATOM     10  C   UNL A   1      33.515  23.171  25.085  1.00  0.00    -0.014 A 
ATOM     11  C   UNL A   1      32.156  23.240  25.425  1.00  0.00     0.010 A 
ATOM     12  C   UNL A   1      34.241  24.370  24.965  1.00  0.00     0.049 A 
ATOM     13  C   UNL A   1      31.561  24.467  25.730  1.00  0.00     0.019 A 
ATOM     14  C   UNL A   1      33.647  25.593  25.268  1.00  0.00     0.138 A 
ATOM     15  F   UNL A   1      34.400  26.700  25.205  1.00  0.00    -0.206 F 
BRANCH  10  16
ATOM     16  C   UNL A   1      34.221  21.880  25.071  1.00  0.00     0.001 A 
ATOM     17  C   UNL A   1      33.964  19.445  24.945  1.00  0.00     0.060 A 
ATOM     18  C   UNL A   1      35.349  19.287  24.945  1.00  0.00     0.017 A 
ATOM     19  C   UNL A   1      33.415  20.728  24.997  1.00  0.00     0.026 A 
ATOM     20  C   UNL A   1      36.171  20.418  25.004  1.00  0.00     0.022 A 
ATOM     21  C   UNL A   1      35.615  21.705  25.072  1.00  0.00     0.048 A 
ATOM     22  Cl  UNL A   1      36.703  23.045  25.167  1.00  0.00    -0.084 Cl
BRANCH  17  23
ATOM     23  C   UNL A   1      33.016  18.311  24.880  1.00  0.00     0.337 C 
ATOM     24  O   UNL A   1      33.127  17.309  25.566  1.00  0.00    -0.246 OA
BRANCH  23  25
ATOM     25  O   UNL A   1      32.115  18.519  23.892  1.00  0.00    -0.465 OA
ATOM     26  C   UNL A   1      32.538  18.000  22.630  1.00  0.00     0.282 C 
ENDBRANCH  23  25
ENDBRANCH  17  23
ENDBRANCH  10  16
ENDBRANCH   7   9
ENDBRANCH   6   7
ENDBRANCH   5   6
ENDBRANCH   4   5
ENDBRANCH   3   4
ENDBRANCH   2   3
ENDBRANCH   1   2
BRANCH   1  27
ATOM     27  O   UNL A   1      33.911  32.405  27.189  1.00  0.00    -0.377 OA
BRANCH  27  28
ATOM     28  C   UNL A   1      33.660  33.545  28.006  1.00  0.00     0.188 C 
BRANCH  28  29
ATOM     29  C   UNL A   1      34.791  34.202  28.834  1.00  0.00     0.188 C 
BRANCH  29  30
ATOM     30  O   UNL A   1      34.761  35.617  28.854  1.00  0.00    -0.376 OA
BRANCH  30  31
ATOM     31  C   UNL A   1      33.497  36.252  28.779  1.00  0.00     0.202 C 
BRANCH  31  32
ATOM     32  C   UNL A   1      32.527  36.029  29.948  1.00  0.00     0.261 C 
BRANCH  32  33
ATOM     33  O   UNL A   1      32.991  36.434  31.244  1.00  0.00    -0.460 OA
BRANCH  33  34
ATOM     34  C   UNL A   1      32.801  35.579  32.269  1.00  0.00     0.338 C 
ATOM     35  O   UNL A   1      31.759  35.349  32.862  1.00  0.00    -0.246 OA
BRANCH  34  36
ATOM     36  C   UNL A   1      34.052  34.815  32.446  1.00  0.00     0.060 A 
ATOM     37  C   UNL A   1      33.998  33.519  32.976  1.00  0.00     0.016 A 
ATOM     38  C   UNL A   1      35.273  35.378  32.070  1.00  0.00     0.016 A 
ATOM     39  C   UNL A   1      35.174  32.794  33.163  1.00  0.00     0.010 A 
ATOM     40  C   UNL A   1      36.452  34.660  32.278  1.00  0.00     0.010 A 
ATOM     41  C   UNL A   1      36.410  33.379  32.856  1.00  0.00    -0.014 A 
BRANCH  41  42
ATOM     42  C   UNL A   1      37.666  32.743  33.320  1.00  0.00     0.031 A 
ATOM     43  C   UNL A   1      38.287  31.681  32.458  1.00  0.00     0.074 A 
ATOM     44  C   UNL A   1      38.254  33.107  34.472  1.00  0.00     0.049 A 
ATOM     45  N   UNL A   1      39.345  30.943  32.675  1.00  0.00    -0.248 NA
ATOM     46  C   UNL A   1      37.617  31.412  31.175  1.00  0.00     0.031 C 
ATOM     47  C   UNL A   1      37.776  34.158  35.366  1.00  0.00     0.029 A 
ATOM     48  N   UNL A   1      39.382  32.624  35.086  1.00  0.00    -0.354 N 
ATOM     49  C   UNL A   1      39.465  30.125  31.560  1.00  0.00     0.074 A 
ATOM     50  C   UNL A   1      38.352  30.425  30.688  1.00  0.00     0.031 C 
ATOM     51  C   UNL A   1      38.607  34.241  36.419  1.00  0.00     0.029 A 
ATOM     52  C   UNL A   1      39.651  33.223  36.291  1.00  0.00     0.049 A 
ATOM     53  H   UNL A   1      39.945  31.914  34.699  1.00  0.00     0.167 HD
ATOM     54  C   UNL A   1      40.428  29.215  31.283  1.00  0.00     0.037 A 
ATOM     55  C   UNL A   1      40.618  32.964  37.194  1.00  0.00     0.037 A 
ATOM     56  C   UNL A   1      41.529  28.914  32.160  1.00  0.00     0.049 A 
ATOM     57  C   UNL A   1      41.625  31.878  36.914  1.00  0.00     0.074 A 
ATOM     58  C   UNL A   1      42.560  28.012  31.969  1.00  0.00     0.029 A 
ATOM     59  N   UNL A   1      41.736  29.503  33.401  1.00  0.00    -0.354 N 
ATOM     60  N   UNL A   1      41.740  31.111  35.857  1.00  0.00    -0.248 NA
ATOM     61  C   UNL A   1      42.633  31.620  37.952  1.00  0.00     0.031 C 
ATOM     62  C   UNL A   1      43.352  28.006  33.120  1.00  0.00     0.029 A 
ATOM     63  C   UNL A   1      42.860  28.959  33.999  1.00  0.00     0.049 A 
ATOM     64  H   UNL A   1      41.168  30.203  33.795  1.00  0.00     0.167 HD
ATOM     65  C   UNL A   1      42.845  30.301  36.088  1.00  0.00     0.074 A 
ATOM     66  C   UNL A   1      43.370  30.675  37.385  1.00  0.00     0.031 C 
ATOM     67  C   UNL A   1      43.377  29.339  35.292  1.00  0.00     0.037 A 
BRANCH  54  68
ATOM     68  C   UNL A   1      40.318  28.462  29.989  1.00  0.00     0.064 A 
ATOM     69  C   UNL A   1      39.596  27.260  29.924  1.00  0.00     0.173 A 
ATOM     70  C   UNL A   1      40.951  28.908  28.818  1.00  0.00     0.173 A 
ATOM     71  F   UNL A   1      38.973  26.786  31.014  1.00  0.00    -0.203 F 
ATOM     72  C   UNL A   1      39.516  26.533  28.741  1.00  0.00     0.198 A 
ATOM     73  C   UNL A   1      40.840  28.196  27.627  1.00  0.00     0.198 A 
ATOM     74  F   UNL A   1      41.642  30.059  28.820  1.00  0.00    -0.203 F 
ATOM     75  F   UNL A   1      38.844  25.374  28.713  1.00  0.00    -0.200 F 
ATOM     76  C   UNL A   1      40.131  27.005  27.591  1.00  0.00     0.200 A 
ATOM     77  F   UNL A   1      41.408  28.670  26.509  1.00  0.00    -0.200 F 
ATOM     78  F   UNL A   1      40.035  26.315  26.446  1.00  0.00    -0.200 F 
ENDBRANCH  54  68
BRANCH  55  79
ATOM     79  C   UNL A   1      40.681  33.772  38.439  1.00  0.00     0.064 A 
ATOM     80  C   UNL A   1      41.546  34.870  38.555  1.00  0.00     0.173 A 
ATOM     81  C   UNL A   1      39.914  33.426  39.559  1.00  0.00     0.173 A 
ATOM     82  F   UNL A   1      42.297  35.246  37.509  1.00  0.00    -0.203 F 
ATOM     83  C   UNL A   1      41.669  35.567  39.754  1.00  0.00     0.198 A 
ATOM     84  C   UNL A   1      40.018  34.140  40.752  1.00  0.00     0.198 A 
ATOM     85  F   UNL A   1      39.052  32.401  39.490  1.00  0.00    -0.203 F 
ATOM     86  F   UNL A   1      42.536  36.585  39.851  1.00  0.00    -0.200 F 
ATOM     87  C   UNL A   1      40.905  35.202  40.853  1.00  0.00     0.200 A 
ATOM     88  F   UNL A   1      39.261  33.798  41.803  1.00  0.00    -0.200 F 
ATOM     89  F   UNL A   1      41.023  35.871  42.007  1.00  0.00    -0.200 F 
ENDBRANCH  55  79
BRANCH  67  90
ATOM     90  C   UNL A   1      44.608  28.624  35.775  1.00  0.00     0.064 A 
ATOM     91  C   UNL A   1      44.491  27.476  36.577  1.00  0.00     0.173 A 
ATOM     92  C   UNL A   1      45.894  29.125  35.533  1.00  0.00     0.173 A 
ATOM     93  F   UNL A   1      43.282  26.961  36.848  1.00  0.00    -0.203 F 
ATOM     94  C   UNL A   1      45.613  26.873  37.136  1.00  0.00     0.198 A 
ATOM     95  C   UNL A   1      47.019  28.500  36.069  1.00  0.00     0.198 A 
ATOM     96  F   UNL A   1      46.063  30.212  34.765  1.00  0.00    -0.203 F 
ATOM     97  F   UNL A   1      45.472  25.808  37.937  1.00  0.00    -0.200 F 
ATOM     98  C   UNL A   1      46.877  27.383  36.879  1.00  0.00     0.200 A 
ATOM     99  F   UNL A   1      48.241  28.979  35.800  1.00  0.00    -0.200 F 
ATOM    100  F   UNL A   1      47.958  26.800  37.414  1.00  0.00    -0.200 F 
ENDBRANCH  67  90
ENDBRANCH  41  42
ENDBRANCH  34  36
ENDBRANCH  33  34
ENDBRANCH  32  33
ENDBRANCH  31  32
ENDBRANCH  30  31
ENDBRANCH  29  30
ENDBRANCH  28  29
ENDBRANCH  27  28
ENDBRANCH   1  27
TORSDOF 23
ENDMDL
