MODEL 1
REMARK VINA RESULT:     -11.7      0.000      0.000
REMARK SMILES Cc1cc(S(F)(F)(F)(F)F)cc2c1O[C@H](C(F)(F)F)C(C(=O)OCCOCCOCCOCCOC(=O)c1ccc(-c3c4nc(c(-c5c(F)c(F)c(F)c(F)c5F)c5ccc([nH]5)c(-c5c(F)c(F)c(F)c(F)c5F)c5nc(c(-c6c(F)c(F)c(F)c(F)c6F)c6ccc3[nH]6)C=C5)C=C4)cc1)=C2
REMARK SMILES IDX 30 1 29 2 28 3 27 4 26 5 25 6 24 7 23 8 21 9 22 10 20 11
REMARK SMILES IDX 1 12 2 13 3 14 13 15 4 16 12 17 14 18 11 19 101 20 15 21
REMARK SMILES IDX 5 22 6 23 7 24 8 25 9 26 10 27 16 28 17 29 18 30 19 31 31 32
REMARK SMILES IDX 32 33 33 34 34 35 35 36 36 37 37 38 38 39 39 40 100 41 40 42
REMARK SMILES IDX 99 43 41 44 42 45 43 46 93 47 44 48 98 49 92 50 94 51 45 52
REMARK SMILES IDX 97 53 91 54 90 55 46 57 78 58 58 59 77 60 59 61 62 62 76 63
REMARK SMILES IDX 95 64 60 65 61 66 75 68 96 69 63 70 47 71 48 72 56 73 49 74
REMARK SMILES IDX 50 75 54 76 57 77 51 78 52 79 55 80 53 81 79 82 80 83 88 84
REMARK SMILES IDX 81 85 82 86 86 87 89 88 83 89 84 90 87 91 85 92 64 93 65 94
REMARK SMILES IDX 73 95 66 96 67 97 71 98 74 99 68 100 69 101 72 102 70 103
REMARK H PARENT 94 56 62 67
REMARK Flexibility Score: inf
ROOT
ATOM      1  C   UNL A   1      32.882  36.560  30.643  1.00  0.00     0.188 C 
ENDROOT
BRANCH   1   2
ATOM      2  O   UNL A   1      32.537  35.238  30.261  1.00  0.00    -0.377 OA
BRANCH   2   3
ATOM      3  C   UNL A   1      33.240  34.888  29.077  1.00  0.00     0.188 C 
BRANCH   3   4
ATOM      4  C   UNL A   1      34.457  34.053  29.440  1.00  0.00     0.188 C 
BRANCH   4   5
ATOM      5  O   UNL A   1      34.089  32.684  29.510  1.00  0.00    -0.376 OA
BRANCH   5   6
ATOM      6  C   UNL A   1      34.670  31.980  28.422  1.00  0.00     0.202 C 
BRANCH   6   7
ATOM      7  C   UNL A   1      33.570  31.426  27.532  1.00  0.00     0.261 C 
BRANCH   7   8
ATOM      8  O   UNL A   1      33.390  30.045  27.805  1.00  0.00    -0.460 OA
BRANCH   8   9
ATOM      9  C   UNL A   1      34.088  29.073  27.041  1.00  0.00     0.338 C 
ATOM     10  O   UNL A   1      35.355  29.124  26.953  1.00  0.00    -0.246 OA
BRANCH   9  11
ATOM     11  C   UNL A   1      33.319  27.973  26.327  1.00  0.00     0.087 C 
ATOM     12  C   UNL A   1      29.786  25.239  23.790  1.00  0.00     0.048 C 
ATOM     13  C   UNL A   1      31.170  24.969  24.359  1.00  0.00    -0.007 A 
ATOM     14  C   UNL A   1      31.742  23.723  24.236  1.00  0.00     0.031 A 
ATOM     15  C   UNL A   1      31.872  25.983  25.011  1.00  0.00     0.130 A 
ATOM     16  C   UNL A   1      33.003  23.466  24.757  1.00  0.00     0.108 A 
ATOM     17  C   UNL A   1      33.156  25.719  25.536  1.00  0.00     0.019 A 
ATOM     18  O   UNL A   1      31.316  27.332  25.176  1.00  0.00    -0.475 OA
ATOM     19  C   UNL A   1      33.711  24.446  25.395  1.00  0.00     0.036 A 
ATOM     20  C   UNL A   1      33.870  26.800  26.217  1.00  0.00     0.027 C 
ATOM     21  C   UNL A   1      32.053  28.262  25.819  1.00  0.00     0.316 C 
BRANCH  16  22
ATOM     22  S   UNL A   1      33.718  21.811  24.590  1.00  0.00     0.310 S 
ATOM     23  F   UNL A   1      32.272  21.233  24.891  1.00  0.00    -0.094 F 
ATOM     24  F   UNL A   1      33.995  21.736  26.140  1.00  0.00    -0.094 F 
ATOM     25  F   UNL A   1      34.200  20.345  24.405  1.00  0.00    -0.094 F 
ATOM     26  F   UNL A   1      33.304  21.860  23.067  1.00  0.00    -0.094 F 
ATOM     27  F   UNL A   1      33.121  23.263  24.783  1.00  0.00    -0.094 F 
ENDBRANCH  16  22
BRANCH  21  28
ATOM     28  C   UNL A   1      32.368  29.250  24.709  1.00  0.00     0.430 C 
ATOM     29  F   UNL A   1      33.675  29.241  24.464  1.00  0.00    -0.167 F 
ATOM     30  F   UNL A   1      31.708  28.904  23.607  1.00  0.00    -0.167 F 
ATOM     31  F   UNL A   1      31.995  30.471  25.082  1.00  0.00    -0.167 F 
ENDBRANCH  21  28
ENDBRANCH   9  11
ENDBRANCH   8   9
ENDBRANCH   7   8
ENDBRANCH   6   7
ENDBRANCH   5   6
ENDBRANCH   4   5
ENDBRANCH   3   4
ENDBRANCH   2   3
ENDBRANCH   1   2
BRANCH   1  32
ATOM     32  C   UNL A   1      33.511  36.539  32.027  1.00  0.00     0.188 C 
BRANCH  32  33
ATOM     33  O   UNL A   1      33.258  35.284  32.643  1.00  0.00    -0.376 OA
BRANCH  33  34
ATOM     34  C   UNL A   1      34.487  34.696  33.042  1.00  0.00     0.202 C 
BRANCH  34  35
ATOM     35  C   UNL A   1      34.264  33.228  33.368  1.00  0.00     0.261 C 
BRANCH  35  36
ATOM     36  O   UNL A   1      35.210  32.438  32.661  1.00  0.00    -0.460 OA
BRANCH  36  37
ATOM     37  C   UNL A   1      36.434  32.073  33.280  1.00  0.00     0.338 C 
ATOM     38  O   UNL A   1      36.609  32.292  34.520  1.00  0.00    -0.246 OA
BRANCH  37  39
ATOM     39  C   UNL A   1      37.536  31.421  32.460  1.00  0.00     0.060 A 
ATOM     40  C   UNL A   1      38.779  31.053  32.963  1.00  0.00     0.016 A 
ATOM     41  C   UNL A   1      37.328  31.316  31.165  1.00  0.00     0.016 A 
ATOM     42  C   UNL A   1      39.531  30.147  32.182  1.00  0.00     0.010 A 
ATOM     43  C   UNL A   1      38.337  30.854  30.314  1.00  0.00     0.010 A 
ATOM     44  C   UNL A   1      39.417  30.279  30.800  1.00  0.00    -0.014 A 
BRANCH  44  45
ATOM     45  C   UNL A   1      40.512  29.772  29.876  1.00  0.00     0.031 A 
ATOM     46  C   UNL A   1      40.514  28.455  29.410  1.00  0.00     0.074 A 
ATOM     47  C   UNL A   1      41.552  30.664  29.679  1.00  0.00     0.049 A 
ATOM     48  N   UNL A   1      41.460  27.848  28.692  1.00  0.00    -0.248 NA
ATOM     49  C   UNL A   1      39.426  27.495  29.648  1.00  0.00     0.031 C 
ATOM     50  C   UNL A   1      41.553  31.995  30.138  1.00  0.00     0.029 A 
ATOM     51  N   UNL A   1      42.744  30.442  29.024  1.00  0.00    -0.354 N 
ATOM     52  C   UNL A   1      41.097  26.592  28.419  1.00  0.00     0.074 A 
ATOM     53  C   UNL A   1      39.786  26.346  29.035  1.00  0.00     0.031 C 
ATOM     54  C   UNL A   1      42.733  32.563  29.776  1.00  0.00     0.029 A 
ATOM     55  C   UNL A   1      43.489  31.598  29.084  1.00  0.00     0.049 A 
ATOM     56  H   UNL A   1      43.015  29.601  28.589  1.00  0.00     0.167 HD
ATOM     57  C   UNL A   1      41.807  25.645  27.679  1.00  0.00     0.037 A 
ATOM     58  C   UNL A   1      44.757  31.817  28.572  1.00  0.00     0.037 A 
ATOM     59  C   UNL A   1      43.057  25.878  27.130  1.00  0.00     0.049 A 
ATOM     60  C   UNL A   1      45.493  30.851  27.882  1.00  0.00     0.074 A 
ATOM     61  C   UNL A   1      43.782  24.937  26.375  1.00  0.00     0.029 A 
ATOM     62  N   UNL A   1      43.812  27.027  27.210  1.00  0.00    -0.354 N 
ATOM     63  N   UNL A   1      45.113  29.609  27.576  1.00  0.00    -0.248 NA
ATOM     64  C   UNL A   1      46.851  31.062  27.364  1.00  0.00     0.031 C 
ATOM     65  C   UNL A   1      44.963  25.507  26.013  1.00  0.00     0.029 A 
ATOM     66  C   UNL A   1      44.994  26.813  26.537  1.00  0.00     0.049 A 
ATOM     67  H   UNL A   1      43.553  27.858  27.670  1.00  0.00     0.167 HD
ATOM     68  C   UNL A   1      46.077  28.989  26.893  1.00  0.00     0.074 A 
ATOM     69  C   UNL A   1      47.212  29.912  26.753  1.00  0.00     0.031 C 
ATOM     70  C   UNL A   1      46.055  27.692  26.377  1.00  0.00     0.037 A 
BRANCH  57  71
ATOM     71  C   UNL A   1      41.172  24.280  27.464  1.00  0.00     0.064 A 
ATOM     72  C   UNL A   1      40.114  24.114  26.593  1.00  0.00     0.173 A 
ATOM     73  C   UNL A   1      41.692  23.173  28.117  1.00  0.00     0.173 A 
ATOM     74  F   UNL A   1      39.607  25.170  25.962  1.00  0.00    -0.203 F 
ATOM     75  C   UNL A   1      39.596  22.914  26.378  1.00  0.00     0.198 A 
ATOM     76  C   UNL A   1      41.130  21.930  27.863  1.00  0.00     0.198 A 
ATOM     77  F   UNL A   1      42.708  23.299  28.965  1.00  0.00    -0.203 F 
ATOM     78  F   UNL A   1      38.574  22.790  25.537  1.00  0.00    -0.200 F 
ATOM     79  C   UNL A   1      40.073  21.837  26.980  1.00  0.00     0.200 A 
ATOM     80  F   UNL A   1      41.604  20.842  28.463  1.00  0.00    -0.200 F 
ATOM     81  F   UNL A   1      39.528  20.650  26.730  1.00  0.00    -0.200 F 
ENDBRANCH  57  71
BRANCH  58  82
ATOM     82  C   UNL A   1      45.385  33.187  28.773  1.00  0.00     0.064 A 
ATOM     83  C   UNL A   1      45.102  34.234  27.919  1.00  0.00     0.173 A 
ATOM     84  C   UNL A   1      46.292  33.381  29.804  1.00  0.00     0.173 A 
ATOM     85  F   UNL A   1      44.233  34.058  26.927  1.00  0.00    -0.203 F 
ATOM     86  C   UNL A   1      45.686  35.412  28.076  1.00  0.00     0.198 A 
ATOM     87  C   UNL A   1      46.881  34.629  29.943  1.00  0.00     0.198 A 
ATOM     88  F   UNL A   1      46.592  32.392  30.641  1.00  0.00    -0.203 F 
ATOM     89  F   UNL A   1      45.396  36.398  27.232  1.00  0.00    -0.200 F 
ATOM     90  C   UNL A   1      46.551  35.632  29.052  1.00  0.00     0.200 A 
ATOM     91  F   UNL A   1      47.752  34.859  30.921  1.00  0.00    -0.200 F 
ATOM     92  F   UNL A   1      47.109  36.833  29.176  1.00  0.00    -0.200 F 
ENDBRANCH  58  82
BRANCH  70  93
ATOM     93  C   UNL A   1      47.266  27.215  25.593  1.00  0.00     0.064 A 
ATOM     94  C   UNL A   1      48.357  26.598  26.173  1.00  0.00     0.173 A 
ATOM     95  C   UNL A   1      47.326  27.579  24.256  1.00  0.00     0.173 A 
ATOM     96  F   UNL A   1      48.308  26.244  27.454  1.00  0.00    -0.203 F 
ATOM     97  C   UNL A   1      49.451  26.355  25.468  1.00  0.00     0.198 A 
ATOM     98  C   UNL A   1      48.486  27.305  23.545  1.00  0.00     0.198 A 
ATOM     99  F   UNL A   1      46.295  28.179  23.668  1.00  0.00    -0.203 F 
ATOM    100  F   UNL A   1      50.486  25.766  26.059  1.00  0.00    -0.200 F 
ATOM    101  C   UNL A   1      49.539  26.685  24.190  1.00  0.00     0.200 A 
ATOM    102  F   UNL A   1      48.583  27.633  22.260  1.00  0.00    -0.200 F 
ATOM    103  F   UNL A   1      50.655  26.417  23.519  1.00  0.00    -0.200 F 
ENDBRANCH  70  93
ENDBRANCH  44  45
ENDBRANCH  37  39
ENDBRANCH  36  37
ENDBRANCH  35  36
ENDBRANCH  34  35
ENDBRANCH  33  34
ENDBRANCH  32  33
ENDBRANCH   1  32
TORSDOF 22
ENDMDL
MODEL 2
REMARK VINA RESULT:     -11.7      1.742      3.096
REMARK SMILES Cc1cc(S(F)(F)(F)(F)F)cc2c1O[C@H](C(F)(F)F)C(C(=O)OCCOCCOCCOCCOC(=O)c1ccc(-c3c4nc(c(-c5c(F)c(F)c(F)c(F)c5F)c5ccc([nH]5)c(-c5c(F)c(F)c(F)c(F)c5F)c5nc(c(-c6c(F)c(F)c(F)c(F)c6F)c6ccc3[nH]6)C=C5)C=C4)cc1)=C2
REMARK SMILES IDX 30 1 29 2 28 3 27 4 26 5 25 6 24 7 23 8 21 9 22 10 20 11
REMARK SMILES IDX 1 12 2 13 3 14 13 15 4 16 12 17 14 18 11 19 101 20 15 21
REMARK SMILES IDX 5 22 6 23 7 24 8 25 9 26 10 27 16 28 17 29 18 30 19 31 31 32
REMARK SMILES IDX 32 33 33 34 34 35 35 36 36 37 37 38 38 39 39 40 100 41 40 42
REMARK SMILES IDX 99 43 41 44 42 45 43 46 93 47 44 48 98 49 92 50 94 51 45 52
REMARK SMILES IDX 97 53 91 54 90 55 46 57 78 58 58 59 77 60 59 61 62 62 76 63
REMARK SMILES IDX 95 64 60 65 61 66 75 68 96 69 63 70 47 71 48 72 56 73 49 74
REMARK SMILES IDX 50 75 54 76 57 77 51 78 52 79 55 80 53 81 79 82 80 83 88 84
REMARK SMILES IDX 81 85 82 86 86 87 89 88 83 89 84 90 87 91 85 92 64 93 65 94
REMARK SMILES IDX 73 95 66 96 67 97 71 98 74 99 68 100 69 101 72 102 70 103
REMARK H PARENT 94 56 62 67
REMARK Flexibility Score: inf
ROOT
ATOM      1  C   UNL A   1      32.904  36.578  30.706  1.00  0.00     0.188 C 
ENDROOT
BRANCH   1   2
ATOM      2  O   UNL A   1      32.673  35.230  30.326  1.00  0.00    -0.377 OA
BRANCH   2   3
ATOM      3  C   UNL A   1      33.364  34.954  29.116  1.00  0.00     0.188 C 
BRANCH   3   4
ATOM      4  C   UNL A   1      34.708  34.319  29.434  1.00  0.00     0.188 C 
BRANCH   4   5
ATOM      5  O   UNL A   1      34.544  32.918  29.591  1.00  0.00    -0.376 OA
BRANCH   5   6
ATOM      6  C   UNL A   1      35.070  32.249  28.455  1.00  0.00     0.202 C 
BRANCH   6   7
ATOM      7  C   UNL A   1      33.932  31.625  27.663  1.00  0.00     0.261 C 
BRANCH   7   8
ATOM      8  O   UNL A   1      33.921  30.222  27.874  1.00  0.00    -0.460 OA
BRANCH   8   9
ATOM      9  C   UNL A   1      34.373  29.345  26.852  1.00  0.00     0.338 C 
ATOM     10  O   UNL A   1      35.568  28.914  26.868  1.00  0.00    -0.246 OA
BRANCH   9  11
ATOM     11  C   UNL A   1      33.427  28.926  25.739  1.00  0.00     0.087 C 
ATOM     12  C   UNL A   1      31.075  26.442  21.905  1.00  0.00     0.048 C 
ATOM     13  C   UNL A   1      30.847  27.740  22.664  1.00  0.00    -0.007 A 
ATOM     14  C   UNL A   1      29.781  28.552  22.348  1.00  0.00     0.031 A 
ATOM     15  C   UNL A   1      31.718  28.119  23.686  1.00  0.00     0.130 A 
ATOM     16  C   UNL A   1      29.568  29.742  23.032  1.00  0.00     0.108 A 
ATOM     17  C   UNL A   1      31.495  29.326  24.383  1.00  0.00     0.019 A 
ATOM     18  O   UNL A   1      32.873  27.297  24.069  1.00  0.00    -0.475 OA
ATOM     19  C   UNL A   1      30.405  30.129  24.041  1.00  0.00     0.036 A 
ATOM     20  C   UNL A   1      32.424  29.701  25.450  1.00  0.00     0.027 C 
ATOM     21  C   UNL A   1      33.672  27.728  25.068  1.00  0.00     0.316 C 
BRANCH  16  22
ATOM     22  S   UNL A   1      28.165  30.792  22.581  1.00  0.00     0.310 S 
ATOM     23  F   UNL A   1      28.024  29.917  21.265  1.00  0.00    -0.094 F 
ATOM     24  F   UNL A   1      29.105  31.754  21.757  1.00  0.00    -0.094 F 
ATOM     25  F   UNL A   1      26.908  31.580  22.118  1.00  0.00    -0.094 F 
ATOM     26  F   UNL A   1      27.232  29.738  23.296  1.00  0.00    -0.094 F 
ATOM     27  F   UNL A   1      29.425  29.917  22.965  1.00  0.00    -0.094 F 
ENDBRANCH  16  22
BRANCH  21  28
ATOM     28  C   UNL A   1      33.420  26.693  26.152  1.00  0.00     0.430 C 
ATOM     29  F   UNL A   1      34.552  26.049  26.422  1.00  0.00    -0.167 F 
ATOM     30  F   UNL A   1      32.983  27.301  27.252  1.00  0.00    -0.167 F 
ATOM     31  F   UNL A   1      32.504  25.825  25.733  1.00  0.00    -0.167 F 
ENDBRANCH  21  28
ENDBRANCH   9  11
ENDBRANCH   8   9
ENDBRANCH   7   8
ENDBRANCH   6   7
ENDBRANCH   5   6
ENDBRANCH   4   5
ENDBRANCH   3   4
ENDBRANCH   2   3
ENDBRANCH   1   2
BRANCH   1  32
ATOM     32  C   UNL A   1      33.552  36.612  32.081  1.00  0.00     0.188 C 
BRANCH  32  33
ATOM     33  O   UNL A   1      33.325  35.375  32.742  1.00  0.00    -0.376 OA
BRANCH  33  34
ATOM     34  C   UNL A   1      34.568  34.806  33.122  1.00  0.00     0.202 C 
BRANCH  34  35
ATOM     35  C   UNL A   1      34.364  33.350  33.506  1.00  0.00     0.261 C 
BRANCH  35  36
ATOM     36  O   UNL A   1      35.268  32.535  32.774  1.00  0.00    -0.460 OA
BRANCH  36  37
ATOM     37  C   UNL A   1      36.486  32.114  33.368  1.00  0.00     0.338 C 
ATOM     38  O   UNL A   1      36.680  32.289  34.612  1.00  0.00    -0.246 OA
BRANCH  37  39
ATOM     39  C   UNL A   1      37.560  31.456  32.517  1.00  0.00     0.060 A 
ATOM     40  C   UNL A   1      38.781  30.999  33.003  1.00  0.00     0.016 A 
ATOM     41  C   UNL A   1      37.356  31.434  31.217  1.00  0.00     0.016 A 
ATOM     42  C   UNL A   1      39.492  30.102  32.175  1.00  0.00     0.010 A 
ATOM     43  C   UNL A   1      38.346  30.971  30.345  1.00  0.00     0.010 A 
ATOM     44  C   UNL A   1      39.393  30.317  30.802  1.00  0.00    -0.014 A 
BRANCH  44  45
ATOM     45  C   UNL A   1      40.468  29.809  29.855  1.00  0.00     0.031 A 
ATOM     46  C   UNL A   1      40.448  28.497  29.374  1.00  0.00     0.074 A 
ATOM     47  C   UNL A   1      41.514  30.692  29.651  1.00  0.00     0.049 A 
ATOM     48  N   UNL A   1      41.377  27.889  28.634  1.00  0.00    -0.248 NA
ATOM     49  C   UNL A   1      39.354  27.547  29.618  1.00  0.00     0.031 C 
ATOM     50  C   UNL A   1      41.538  32.017  30.125  1.00  0.00     0.029 A 
ATOM     51  N   UNL A   1      42.693  30.465  28.976  1.00  0.00    -0.354 N 
ATOM     52  C   UNL A   1      40.996  26.640  28.353  1.00  0.00     0.074 A 
ATOM     53  C   UNL A   1      39.692  26.401  28.987  1.00  0.00     0.031 C 
ATOM     54  C   UNL A   1      42.717  32.578  29.751  1.00  0.00     0.029 A 
ATOM     55  C   UNL A   1      43.452  31.612  29.036  1.00  0.00     0.049 A 
ATOM     56  H   UNL A   1      42.949  29.627  28.527  1.00  0.00     0.167 HD
ATOM     57  C   UNL A   1      41.683  25.694  27.591  1.00  0.00     0.037 A 
ATOM     58  C   UNL A   1      44.714  31.824  28.507  1.00  0.00     0.037 A 
ATOM     59  C   UNL A   1      42.927  25.921  27.025  1.00  0.00     0.049 A 
ATOM     60  C   UNL A   1      45.428  30.858  27.794  1.00  0.00     0.074 A 
ATOM     61  C   UNL A   1      43.630  24.981  26.248  1.00  0.00     0.029 A 
ATOM     62  N   UNL A   1      43.696  27.060  27.106  1.00  0.00    -0.354 N 
ATOM     63  N   UNL A   1      45.030  29.624  27.480  1.00  0.00    -0.248 NA
ATOM     64  C   UNL A   1      46.780  31.061  27.257  1.00  0.00     0.031 C 
ATOM     65  C   UNL A   1      44.812  25.542  25.874  1.00  0.00     0.029 A 
ATOM     66  C   UNL A   1      44.865  26.841  26.411  1.00  0.00     0.049 A 
ATOM     67  H   UNL A   1      43.453  27.889  27.579  1.00  0.00     0.167 HD
ATOM     68  C   UNL A   1      45.976  29.001  26.775  1.00  0.00     0.074 A 
ATOM     69  C   UNL A   1      47.119  29.914  26.627  1.00  0.00     0.031 C 
ATOM     70  C   UNL A   1      45.932  27.711  26.245  1.00  0.00     0.037 A 
BRANCH  57  71
ATOM     71  C   UNL A   1      41.030  24.339  27.370  1.00  0.00     0.064 A 
ATOM     72  C   UNL A   1      39.981  24.186  26.487  1.00  0.00     0.173 A 
ATOM     73  C   UNL A   1      41.526  23.225  28.031  1.00  0.00     0.173 A 
ATOM     74  F   UNL A   1      39.498  25.249  25.849  1.00  0.00    -0.203 F 
ATOM     75  C   UNL A   1      39.448  22.995  26.268  1.00  0.00     0.198 A 
ATOM     76  C   UNL A   1      40.948  21.990  27.773  1.00  0.00     0.198 A 
ATOM     77  F   UNL A   1      42.533  23.337  28.892  1.00  0.00    -0.203 F 
ATOM     78  F   UNL A   1      38.434  22.884  25.415  1.00  0.00    -0.200 F 
ATOM     79  C   UNL A   1      39.901  21.911  26.877  1.00  0.00     0.200 A 
ATOM     80  F   UNL A   1      41.398  20.896  28.381  1.00  0.00    -0.200 F 
ATOM     81  F   UNL A   1      39.341  20.732  26.623  1.00  0.00    -0.200 F 
ENDBRANCH  57  71
BRANCH  58  82
ATOM     82  C   UNL A   1      45.359  33.185  28.714  1.00  0.00     0.064 A 
ATOM     83  C   UNL A   1      45.091  34.239  27.862  1.00  0.00     0.173 A 
ATOM     84  C   UNL A   1      46.268  33.363  29.746  1.00  0.00     0.173 A 
ATOM     85  F   UNL A   1      44.221  34.077  26.869  1.00  0.00    -0.203 F 
ATOM     86  C   UNL A   1      45.691  35.408  28.025  1.00  0.00     0.198 A 
ATOM     87  C   UNL A   1      46.873  34.603  29.890  1.00  0.00     0.198 A 
ATOM     88  F   UNL A   1      46.553  32.368  30.580  1.00  0.00    -0.203 F 
ATOM     89  F   UNL A   1      45.415  36.401  27.183  1.00  0.00    -0.200 F 
ATOM     90  C   UNL A   1      46.557  35.613  29.002  1.00  0.00     0.200 A 
ATOM     91  F   UNL A   1      47.746  34.818  30.870  1.00  0.00    -0.200 F 
ATOM     92  F   UNL A   1      47.131  36.806  29.131  1.00  0.00    -0.200 F 
ENDBRANCH  58  82
BRANCH  70  93
ATOM     93  C   UNL A   1      47.126  27.230  25.436  1.00  0.00     0.064 A 
ATOM     94  C   UNL A   1      48.219  26.595  25.992  1.00  0.00     0.173 A 
ATOM     95  C   UNL A   1      47.169  27.608  24.103  1.00  0.00     0.173 A 
ATOM     96  F   UNL A   1      48.186  26.228  27.270  1.00  0.00    -0.203 F 
ATOM     97  C   UNL A   1      49.299  26.349  25.266  1.00  0.00     0.198 A 
ATOM     98  C   UNL A   1      48.314  27.330  23.370  1.00  0.00     0.198 A 
ATOM     99  F   UNL A   1      46.134  28.226  23.538  1.00  0.00    -0.203 F 
ATOM    100  F   UNL A   1      50.337  25.743  25.835  1.00  0.00    -0.200 F 
ATOM    101  C   UNL A   1      49.370  26.693  23.991  1.00  0.00     0.200 A 
ATOM    102  F   UNL A   1      48.393  27.672  22.087  1.00  0.00    -0.200 F 
ATOM    103  F   UNL A   1      50.473  26.420  23.299  1.00  0.00    -0.200 F 
ENDBRANCH  70  93
ENDBRANCH  44  45
ENDBRANCH  37  39
ENDBRANCH  36  37
ENDBRANCH  35  36
ENDBRANCH  34  35
ENDBRANCH  33  34
ENDBRANCH  32  33
ENDBRANCH   1  32
TORSDOF 22
ENDMDL
MODEL 3
REMARK VINA RESULT:     -11.3      5.336     11.135
REMARK SMILES Cc1cc(S(F)(F)(F)(F)F)cc2c1O[C@H](C(F)(F)F)C(C(=O)OCCOCCOCCOCCOC(=O)c1ccc(-c3c4nc(c(-c5c(F)c(F)c(F)c(F)c5F)c5ccc([nH]5)c(-c5c(F)c(F)c(F)c(F)c5F)c5nc(c(-c6c(F)c(F)c(F)c(F)c6F)c6ccc3[nH]6)C=C5)C=C4)cc1)=C2
REMARK SMILES IDX 30 1 29 2 28 3 27 4 26 5 25 6 24 7 23 8 21 9 22 10 20 11
REMARK SMILES IDX 1 12 2 13 3 14 13 15 4 16 12 17 14 18 11 19 101 20 15 21
REMARK SMILES IDX 5 22 6 23 7 24 8 25 9 26 10 27 16 28 17 29 18 30 19 31 31 32
REMARK SMILES IDX 32 33 33 34 34 35 35 36 36 37 37 38 38 39 39 40 100 41 40 42
REMARK SMILES IDX 99 43 41 44 42 45 43 46 93 47 44 48 98 49 92 50 94 51 45 52
REMARK SMILES IDX 97 53 91 54 90 55 46 57 78 58 58 59 77 60 59 61 62 62 76 63
REMARK SMILES IDX 95 64 60 65 61 66 75 68 96 69 63 70 47 71 48 72 56 73 49 74
REMARK SMILES IDX 50 75 54 76 57 77 51 78 52 79 55 80 53 81 79 82 80 83 88 84
REMARK SMILES IDX 81 85 82 86 86 87 89 88 83 89 84 90 87 91 85 92 64 93 65 94
REMARK SMILES IDX 73 95 66 96 67 97 71 98 74 99 68 100 69 101 72 102 70 103
REMARK H PARENT 94 56 62 67
REMARK Flexibility Score: inf
ROOT
ATOM      1  C   UNL A   1      43.566  19.237  25.994  1.00  0.00     0.188 C 
ENDROOT
BRANCH   1   2
ATOM      2  O   UNL A   1      42.288  19.331  25.386  1.00  0.00    -0.377 OA
BRANCH   2   3
ATOM      3  C   UNL A   1      41.301  19.542  26.385  1.00  0.00     0.188 C 
BRANCH   3   4
ATOM      4  C   UNL A   1      40.110  20.265  25.777  1.00  0.00     0.188 C 
BRANCH   4   5
ATOM      5  O   UNL A   1      39.248  19.321  25.160  1.00  0.00    -0.376 OA
BRANCH   5   6
ATOM      6  C   UNL A   1      37.944  19.873  25.048  1.00  0.00     0.202 C 
BRANCH   6   7
ATOM      7  C   UNL A   1      38.003  21.368  25.316  1.00  0.00     0.261 C 
BRANCH   7   8
ATOM      8  O   UNL A   1      36.795  21.974  24.883  1.00  0.00    -0.460 OA
BRANCH   8   9
ATOM      9  C   UNL A   1      36.322  23.153  25.520  1.00  0.00     0.338 C 
ATOM     10  O   UNL A   1      37.005  23.688  26.450  1.00  0.00    -0.246 OA
BRANCH   9  11
ATOM     11  C   UNL A   1      35.001  23.770  25.093  1.00  0.00     0.087 C 
ATOM     12  C   UNL A   1      30.284  24.585  23.229  1.00  0.00     0.048 C 
ATOM     13  C   UNL A   1      31.352  25.434  23.898  1.00  0.00    -0.007 A 
ATOM     14  C   UNL A   1      31.135  26.775  24.122  1.00  0.00     0.031 A 
ATOM     15  C   UNL A   1      32.562  24.862  24.290  1.00  0.00     0.130 A 
ATOM     16  C   UNL A   1      32.107  27.560  24.729  1.00  0.00     0.108 A 
ATOM     17  C   UNL A   1      33.546  25.662  24.910  1.00  0.00     0.019 A 
ATOM     18  O   UNL A   1      32.855  23.439  24.077  1.00  0.00    -0.475 OA
ATOM     19  C   UNL A   1      33.297  27.019  25.126  1.00  0.00     0.036 A 
ATOM     20  C   UNL A   1      34.807  25.037  25.311  1.00  0.00     0.027 C 
ATOM     21  C   UNL A   1      34.048  22.955  24.483  1.00  0.00     0.316 C 
BRANCH  16  22
ATOM     22  S   UNL A   1      31.793  29.323  24.994  1.00  0.00     0.310 S 
ATOM     23  F   UNL A   1      31.411  28.957  26.490  1.00  0.00    -0.094 F 
ATOM     24  F   UNL A   1      30.269  29.142  24.634  1.00  0.00    -0.094 F 
ATOM     25  F   UNL A   1      31.557  30.815  25.363  1.00  0.00    -0.094 F 
ATOM     26  F   UNL A   1      33.290  29.447  25.483  1.00  0.00    -0.094 F 
ATOM     27  F   UNL A   1      32.022  27.781  24.731  1.00  0.00    -0.094 F 
ENDBRANCH  16  22
BRANCH  21  28
ATOM     28  C   UNL A   1      33.651  22.020  25.612  1.00  0.00     0.430 C 
ATOM     29  F   UNL A   1      32.328  21.894  25.640  1.00  0.00    -0.167 F 
ATOM     30  F   UNL A   1      34.206  20.827  25.417  1.00  0.00    -0.167 F 
ATOM     31  F   UNL A   1      34.073  22.520  26.771  1.00  0.00    -0.167 F 
ENDBRANCH  21  28
ENDBRANCH   9  11
ENDBRANCH   8   9
ENDBRANCH   7   8
ENDBRANCH   6   7
ENDBRANCH   5   6
ENDBRANCH   4   5
ENDBRANCH   3   4
ENDBRANCH   2   3
ENDBRANCH   1   2
BRANCH   1  32
ATOM     32  C   UNL A   1      44.642  19.256  24.920  1.00  0.00     0.188 C 
BRANCH  32  33
ATOM     33  O   UNL A   1      45.769  19.980  25.392  1.00  0.00    -0.376 OA
BRANCH  33  34
ATOM     34  C   UNL A   1      45.679  21.330  24.963  1.00  0.00     0.202 C 
BRANCH  34  35
ATOM     35  C   UNL A   1      45.651  22.247  26.174  1.00  0.00     0.261 C 
BRANCH  35  36
ATOM     36  O   UNL A   1      45.585  23.599  25.743  1.00  0.00    -0.460 OA
BRANCH  36  37
ATOM     37  C   UNL A   1      44.329  24.189  25.445  1.00  0.00     0.338 C 
ATOM     38  O   UNL A   1      43.760  23.943  24.335  1.00  0.00    -0.246 OA
BRANCH  37  39
ATOM     39  C   UNL A   1      43.666  25.115  26.451  1.00  0.00     0.060 A 
ATOM     40  C   UNL A   1      44.137  26.380  26.787  1.00  0.00     0.016 A 
ATOM     41  C   UNL A   1      42.650  24.626  27.128  1.00  0.00     0.016 A 
ATOM     42  C   UNL A   1      43.226  27.238  27.444  1.00  0.00     0.010 A 
ATOM     43  C   UNL A   1      42.064  25.356  28.167  1.00  0.00     0.010 A 
ATOM     44  C   UNL A   1      42.336  26.633  28.329  1.00  0.00    -0.014 A 
BRANCH  44  45
ATOM     45  C   UNL A   1      41.695  27.430  29.455  1.00  0.00     0.031 A 
ATOM     46  C   UNL A   1      40.587  28.248  29.223  1.00  0.00     0.074 A 
ATOM     47  C   UNL A   1      42.391  27.389  30.650  1.00  0.00     0.049 A 
ATOM     48  N   UNL A   1      39.998  29.080  30.083  1.00  0.00    -0.248 NA
ATOM     49  C   UNL A   1      39.869  28.318  27.943  1.00  0.00     0.031 C 
ATOM     50  C   UNL A   1      43.504  26.561  30.894  1.00  0.00     0.029 A 
ATOM     51  N   UNL A   1      42.149  28.117  31.795  1.00  0.00    -0.354 N 
ATOM     52  C   UNL A   1      38.954  29.678  29.503  1.00  0.00     0.074 A 
ATOM     53  C   UNL A   1      38.860  29.200  28.116  1.00  0.00     0.031 C 
ATOM     54  C   UNL A   1      43.933  26.794  32.162  1.00  0.00     0.029 A 
ATOM     55  C   UNL A   1      43.096  27.772  32.733  1.00  0.00     0.049 A 
ATOM     56  H   UNL A   1      41.424  28.771  31.920  1.00  0.00     0.167 HD
ATOM     57  C   UNL A   1      38.077  30.599  30.077  1.00  0.00     0.037 A 
ATOM     58  C   UNL A   1      43.240  28.271  34.017  1.00  0.00     0.037 A 
ATOM     59  C   UNL A   1      38.195  31.067  31.376  1.00  0.00     0.049 A 
ATOM     60  C   UNL A   1      42.397  29.237  34.572  1.00  0.00     0.074 A 
ATOM     61  C   UNL A   1      37.315  31.989  31.972  1.00  0.00     0.029 A 
ATOM     62  N   UNL A   1      39.157  30.739  32.306  1.00  0.00    -0.354 N 
ATOM     63  N   UNL A   1      41.331  29.804  34.005  1.00  0.00    -0.248 NA
ATOM     64  C   UNL A   1      42.560  29.797  35.920  1.00  0.00     0.031 C 
ATOM     65  C   UNL A   1      37.746  32.224  33.241  1.00  0.00     0.029 A 
ATOM     66  C   UNL A   1      38.902  31.450  33.457  1.00  0.00     0.049 A 
ATOM     67  H   UNL A   1      39.899  30.106  32.171  1.00  0.00     0.167 HD
ATOM     68  C   UNL A   1      40.766  30.667  34.851  1.00  0.00     0.074 A 
ATOM     69  C   UNL A   1      41.553  30.681  36.093  1.00  0.00     0.031 C 
ATOM     70  C   UNL A   1      39.624  31.442  34.641  1.00  0.00     0.037 A 
BRANCH  57  71
ATOM     71  C   UNL A   1      36.927  31.120  29.229  1.00  0.00     0.064 A 
ATOM     72  C   UNL A   1      35.824  30.336  28.962  1.00  0.00     0.173 A 
ATOM     73  C   UNL A   1      36.964  32.422  28.752  1.00  0.00     0.173 A 
ATOM     74  F   UNL A   1      35.779  29.086  29.415  1.00  0.00    -0.203 F 
ATOM     75  C   UNL A   1      34.808  30.813  28.261  1.00  0.00     0.198 A 
ATOM     76  C   UNL A   1      35.880  32.892  28.025  1.00  0.00     0.198 A 
ATOM     77  F   UNL A   1      38.015  33.203  28.986  1.00  0.00    -0.203 F 
ATOM     78  F   UNL A   1      33.762  30.029  28.017  1.00  0.00    -0.200 F 
ATOM     79  C   UNL A   1      34.808  32.052  27.796  1.00  0.00     0.200 A 
ATOM     80  F   UNL A   1      35.872  34.136  27.556  1.00  0.00    -0.200 F 
ATOM     81  F   UNL A   1      33.764  32.493  27.101  1.00  0.00    -0.200 F 
ENDBRANCH  57  71
BRANCH  58  82
ATOM     82  C   UNL A   1      44.380  27.737  34.870  1.00  0.00     0.064 A 
ATOM     83  C   UNL A   1      45.614  28.356  34.880  1.00  0.00     0.173 A 
ATOM     84  C   UNL A   1      44.194  26.583  35.617  1.00  0.00     0.173 A 
ATOM     85  F   UNL A   1      45.801  29.463  34.168  1.00  0.00    -0.203 F 
ATOM     86  C   UNL A   1      46.613  27.859  35.593  1.00  0.00     0.198 A 
ATOM     87  C   UNL A   1      45.261  26.094  36.356  1.00  0.00     0.198 A 
ATOM     88  F   UNL A   1      43.020  25.959  35.624  1.00  0.00    -0.203 F 
ATOM     89  F   UNL A   1      47.791  28.476  35.577  1.00  0.00    -0.200 F 
ATOM     90  C   UNL A   1      46.468  26.764  36.321  1.00  0.00     0.200 A 
ATOM     91  F   UNL A   1      45.125  24.993  37.090  1.00  0.00    -0.200 F 
ATOM     92  F   UNL A   1      47.497  26.304  37.026  1.00  0.00    -0.200 F 
ENDBRANCH  58  82
BRANCH  70  93
ATOM     93  C   UNL A   1      39.144  32.330  35.777  1.00  0.00     0.064 A 
ATOM     94  C   UNL A   1      39.622  33.605  36.004  1.00  0.00     0.173 A 
ATOM     95  C   UNL A   1      38.307  31.744  36.715  1.00  0.00     0.173 A 
ATOM     96  F   UNL A   1      40.424  34.176  35.110  1.00  0.00    -0.203 F 
ATOM     97  C   UNL A   1      39.290  34.266  37.103  1.00  0.00     0.198 A 
ATOM     98  C   UNL A   1      37.975  32.467  37.851  1.00  0.00     0.198 A 
ATOM     99  F   UNL A   1      37.833  30.514  36.529  1.00  0.00    -0.203 F 
ATOM    100  F   UNL A   1      39.773  35.490  37.293  1.00  0.00    -0.200 F 
ATOM    101  C   UNL A   1      38.490  33.738  38.014  1.00  0.00     0.200 A 
ATOM    102  F   UNL A   1      37.171  31.943  38.773  1.00  0.00    -0.200 F 
ATOM    103  F   UNL A   1      38.178  34.441  39.099  1.00  0.00    -0.200 F 
ENDBRANCH  70  93
ENDBRANCH  44  45
ENDBRANCH  37  39
ENDBRANCH  36  37
ENDBRANCH  35  36
ENDBRANCH  34  35
ENDBRANCH  33  34
ENDBRANCH  32  33
ENDBRANCH   1  32
TORSDOF 22
ENDMDL
