MODEL 1
REMARK VINA RESULT:      -8.6      0.000      0.000
REMARK SMILES CC1(C)Cc2c(-c3ccccc3)c(-c3ccc(Cl)cc3)c(CC(=O)OCCOCCOCCOCCOC(=O)c3ccc(-c4c5nc(c(-c6c(F)c(F)c(F)c(F)c6F)c6ccc([nH]6)c(-c6c(F)c(F)c(F)c(F)c6F)c6nc(c(-c7c(F)c(F)c(F)c(F)c7F)c7ccc4[nH]7)C=C6)C=C5)cc3)n2C1
REMARK SMILES IDX 31 1 30 2 29 3 28 4 27 5 26 6 25 7 23 8 24 9 22 10 21 11
REMARK SMILES IDX 1 12 2 13 3 14 4 15 104 16 5 17 103 18 6 19 13 20 7 21 8 22
REMARK SMILES IDX 12 23 9 24 11 25 10 26 14 27 15 28 20 29 16 30 19 31 17 32
REMARK SMILES IDX 18 33 32 34 33 35 34 36 35 37 36 38 37 39 38 40 39 41 40 42
REMARK SMILES IDX 41 43 102 44 42 45 101 46 43 47 44 48 45 49 95 50 46 51
REMARK SMILES IDX 100 52 94 53 96 54 47 55 99 56 93 57 92 58 48 60 80 61 60 62
REMARK SMILES IDX 79 63 61 64 64 65 78 66 97 67 62 68 63 69 77 71 98 72 65 73
REMARK SMILES IDX 49 74 50 75 58 76 51 77 52 78 56 79 59 80 53 81 54 82 57 83
REMARK SMILES IDX 55 84 81 85 82 86 90 87 83 88 84 89 88 90 91 91 85 92 86 93
REMARK SMILES IDX 89 94 87 95 66 96 67 97 75 98 68 99 69 100 73 101 76 102
REMARK SMILES IDX 70 103 71 104 74 105 72 106
REMARK H PARENT 96 59 64 70
REMARK Flexibility Score: inf
ROOT
ATOM      1  O   UNL A   1      35.200  35.712  32.878  1.00  0.00    -0.377 OA
ENDROOT
BRANCH   1   2
ATOM      2  C   UNL A   1      35.059  34.716  33.867  1.00  0.00     0.188 C 
BRANCH   2   3
ATOM      3  C   UNL A   1      34.521  33.372  33.361  1.00  0.00     0.188 C 
BRANCH   3   4
ATOM      4  O   UNL A   1      35.445  32.377  32.944  1.00  0.00    -0.376 OA
BRANCH   4   5
ATOM      5  C   UNL A   1      36.820  32.586  33.233  1.00  0.00     0.202 C 
BRANCH   5   6
ATOM      6  C   UNL A   1      37.431  31.800  34.412  1.00  0.00     0.261 C 
BRANCH   6   7
ATOM      7  O   UNL A   1      38.518  32.465  35.118  1.00  0.00    -0.463 OA
BRANCH   7   8
ATOM      8  C   UNL A   1      38.211  33.588  35.814  1.00  0.00     0.311 C 
ATOM      9  O   UNL A   1      37.226  33.649  36.552  1.00  0.00    -0.252 OA
BRANCH   8  10
ATOM     10  C   UNL A   1      39.151  34.798  35.725  1.00  0.00     0.177 C 
BRANCH  10  11
ATOM     11  C   UNL A   1      40.644  34.733  36.014  1.00  0.00     0.037 A 
ATOM     12  C   UNL A   1      41.429  33.750  40.764  1.00  0.00     0.013 C 
ATOM     13  C   UNL A   1      41.635  34.753  39.622  1.00  0.00    -0.012 C 
ATOM     14  C   UNL A   1      41.814  36.162  40.205  1.00  0.00     0.013 C 
ATOM     15  C   UNL A   1      42.894  34.366  38.792  1.00  0.00     0.063 C 
ATOM     16  C   UNL A   1      40.439  34.725  38.617  1.00  0.00     0.129 C 
ATOM     17  C   UNL A   1      42.419  34.476  37.400  1.00  0.00     0.027 A 
ATOM     18  N   UNL A   1      41.086  34.700  37.310  1.00  0.00    -0.346 N 
ATOM     19  C   UNL A   1      42.938  34.403  36.143  1.00  0.00     0.011 A 
ATOM     20  C   UNL A   1      41.805  34.485  35.220  1.00  0.00     0.011 A 
BRANCH  19  21
ATOM     21  C   UNL A   1      44.377  34.312  35.947  1.00  0.00    -0.016 A 
ATOM     22  C   UNL A   1      45.209  35.437  35.998  1.00  0.00     0.009 A 
ATOM     23  C   UNL A   1      44.940  33.061  35.689  1.00  0.00     0.009 A 
ATOM     24  C   UNL A   1      46.591  35.296  35.818  1.00  0.00     0.001 A 
ATOM     25  C   UNL A   1      46.317  32.922  35.512  1.00  0.00     0.001 A 
ATOM     26  C   UNL A   1      47.144  34.040  35.573  1.00  0.00     0.000 A 
ENDBRANCH  19  21
BRANCH  20  27
ATOM     27  C   UNL A   1      41.907  34.370  33.740  1.00  0.00    -0.016 A 
ATOM     28  C   UNL A   1      42.923  35.057  33.045  1.00  0.00     0.010 A 
ATOM     29  C   UNL A   1      40.964  33.709  32.951  1.00  0.00     0.010 A 
ATOM     30  C   UNL A   1      42.906  35.219  31.654  1.00  0.00     0.021 A 
ATOM     31  C   UNL A   1      40.935  33.858  31.553  1.00  0.00     0.021 A 
ATOM     32  C   UNL A   1      41.887  34.644  30.913  1.00  0.00     0.041 A 
ATOM     33  Cl  UNL A   1      41.776  34.946  29.226  1.00  0.00    -0.084 Cl
ENDBRANCH  20  27
ENDBRANCH  10  11
ENDBRANCH   8  10
ENDBRANCH   7   8
ENDBRANCH   6   7
ENDBRANCH   5   6
ENDBRANCH   4   5
ENDBRANCH   3   4
ENDBRANCH   2   3
ENDBRANCH   1   2
BRANCH   1  34
ATOM     34  C   UNL A   1      34.078  36.537  32.655  1.00  0.00     0.188 C 
BRANCH  34  35
ATOM     35  C   UNL A   1      33.098  36.055  31.586  1.00  0.00     0.188 C 
BRANCH  35  36
ATOM     36  O   UNL A   1      33.579  35.839  30.253  1.00  0.00    -0.376 OA
BRANCH  36  37
ATOM     37  C   UNL A   1      33.985  34.547  29.809  1.00  0.00     0.202 C 
BRANCH  37  38
ATOM     38  C   UNL A   1      34.788  34.508  28.524  1.00  0.00     0.261 C 
BRANCH  38  39
ATOM     39  O   UNL A   1      35.991  33.815  28.820  1.00  0.00    -0.460 OA
BRANCH  39  40
ATOM     40  C   UNL A   1      36.007  32.504  28.489  1.00  0.00     0.338 C 
ATOM     41  O   UNL A   1      35.407  31.945  27.605  1.00  0.00    -0.246 OA
BRANCH  40  42
ATOM     42  C   UNL A   1      36.799  31.865  29.549  1.00  0.00     0.060 A 
ATOM     43  C   UNL A   1      38.059  32.415  29.692  1.00  0.00     0.016 A 
ATOM     44  C   UNL A   1      36.503  30.539  29.912  1.00  0.00     0.016 A 
ATOM     45  C   UNL A   1      39.093  31.524  29.815  1.00  0.00     0.010 A 
ATOM     46  C   UNL A   1      37.535  29.646  30.023  1.00  0.00     0.010 A 
ATOM     47  C   UNL A   1      38.811  30.147  29.848  1.00  0.00    -0.014 A 
BRANCH  47  48
ATOM     48  C   UNL A   1      39.940  29.264  29.813  1.00  0.00     0.031 A 
ATOM     49  C   UNL A   1      40.511  29.059  31.147  1.00  0.00     0.074 A 
ATOM     50  C   UNL A   1      40.463  28.733  28.700  1.00  0.00     0.049 A 
ATOM     51  N   UNL A   1      41.572  29.618  31.618  1.00  0.00    -0.248 NA
ATOM     52  C   UNL A   1      39.709  28.313  32.122  1.00  0.00     0.031 C 
ATOM     53  C   UNL A   1      39.896  28.587  27.362  1.00  0.00     0.029 A 
ATOM     54  N   UNL A   1      41.676  28.135  28.599  1.00  0.00    -0.354 N 
ATOM     55  C   UNL A   1      41.660  29.184  32.927  1.00  0.00     0.074 A 
ATOM     56  C   UNL A   1      40.419  28.515  33.231  1.00  0.00     0.031 C 
ATOM     57  C   UNL A   1      40.687  27.752  26.646  1.00  0.00     0.029 A 
ATOM     58  C   UNL A   1      41.870  27.426  27.433  1.00  0.00     0.049 A 
ATOM     59  H   UNL A   1      42.362  28.202  29.303  1.00  0.00     0.167 HD
ATOM     60  C   UNL A   1      42.838  29.225  33.596  1.00  0.00     0.037 A 
ATOM     61  C   UNL A   1      42.893  26.564  27.221  1.00  0.00     0.037 A 
ATOM     62  C   UNL A   1      43.786  30.107  32.966  1.00  0.00     0.049 A 
ATOM     63  C   UNL A   1      43.988  26.919  28.171  1.00  0.00     0.074 A 
ATOM     64  C   UNL A   1      43.797  31.461  32.683  1.00  0.00     0.029 A 
ATOM     65  N   UNL A   1      44.766  29.556  32.174  1.00  0.00    -0.354 N 
ATOM     66  N   UNL A   1      44.708  28.004  28.085  1.00  0.00    -0.248 NA
ATOM     67  C   UNL A   1      43.998  26.276  29.480  1.00  0.00     0.031 C 
ATOM     68  C   UNL A   1      44.443  31.575  31.416  1.00  0.00     0.029 A 
ATOM     69  C   UNL A   1      44.811  30.290  31.015  1.00  0.00     0.049 A 
ATOM     70  H   UNL A   1      45.330  28.780  32.397  1.00  0.00     0.167 HD
ATOM     71  C   UNL A   1      44.908  28.408  29.398  1.00  0.00     0.074 A 
ATOM     72  C   UNL A   1      44.534  27.257  30.212  1.00  0.00     0.031 C 
ATOM     73  C   UNL A   1      45.088  29.723  29.716  1.00  0.00     0.037 A 
BRANCH  60  74
ATOM     74  C   UNL A   1      43.217  28.204  34.620  1.00  0.00     0.064 A 
ATOM     75  C   UNL A   1      43.568  28.620  35.913  1.00  0.00     0.173 A 
ATOM     76  C   UNL A   1      43.504  26.859  34.299  1.00  0.00     0.173 A 
ATOM     77  F   UNL A   1      43.370  29.889  36.299  1.00  0.00    -0.203 F 
ATOM     78  C   UNL A   1      44.208  27.759  36.806  1.00  0.00     0.198 A 
ATOM     79  C   UNL A   1      44.085  25.986  35.211  1.00  0.00     0.198 A 
ATOM     80  F   UNL A   1      43.341  26.371  33.062  1.00  0.00    -0.203 F 
ATOM     81  F   UNL A   1      44.634  28.225  37.987  1.00  0.00    -0.200 F 
ATOM     82  C   UNL A   1      44.465  26.444  36.454  1.00  0.00     0.200 A 
ATOM     83  F   UNL A   1      44.344  24.724  34.843  1.00  0.00    -0.200 F 
ATOM     84  F   UNL A   1      45.124  25.632  37.291  1.00  0.00    -0.200 F 
ENDBRANCH  60  74
BRANCH  61  85
ATOM     85  C   UNL A   1      42.843  25.264  26.514  1.00  0.00     0.064 A 
ATOM     86  C   UNL A   1      43.692  25.009  25.425  1.00  0.00     0.173 A 
ATOM     87  C   UNL A   1      42.168  24.152  27.055  1.00  0.00     0.173 A 
ATOM     88  F   UNL A   1      44.405  26.004  24.877  1.00  0.00    -0.203 F 
ATOM     89  C   UNL A   1      43.880  23.715  24.930  1.00  0.00     0.198 A 
ATOM     90  C   UNL A   1      42.347  22.863  26.552  1.00  0.00     0.198 A 
ATOM     91  F   UNL A   1      41.396  24.270  28.144  1.00  0.00    -0.203 F 
ATOM     92  F   UNL A   1      44.754  23.500  23.936  1.00  0.00    -0.200 F 
ATOM     93  C   UNL A   1      43.216  22.642  25.501  1.00  0.00     0.200 A 
ATOM     94  F   UNL A   1      41.722  21.831  27.137  1.00  0.00    -0.200 F 
ATOM     95  F   UNL A   1      43.443  21.395  25.068  1.00  0.00    -0.200 F 
ENDBRANCH  61  85
BRANCH  73  96
ATOM     96  C   UNL A   1      45.342  30.684  28.589  1.00  0.00     0.064 A 
ATOM     97  C   UNL A   1      44.329  31.215  27.772  1.00  0.00     0.173 A 
ATOM     98  C   UNL A   1      46.642  31.176  28.406  1.00  0.00     0.173 A 
ATOM     99  F   UNL A   1      43.045  30.884  27.961  1.00  0.00    -0.203 F 
ATOM    100  C   UNL A   1      44.619  32.148  26.777  1.00  0.00     0.198 A 
ATOM    101  C   UNL A   1      46.921  32.137  27.438  1.00  0.00     0.198 A 
ATOM    102  F   UNL A   1      47.640  30.752  29.199  1.00  0.00    -0.203 F 
ATOM    103  F   UNL A   1      43.638  32.620  25.993  1.00  0.00    -0.200 F 
ATOM    104  C   UNL A   1      45.913  32.611  26.613  1.00  0.00     0.200 A 
ATOM    105  F   UNL A   1      48.166  32.621  27.319  1.00  0.00    -0.200 F 
ATOM    106  F   UNL A   1      46.187  33.532  25.680  1.00  0.00    -0.200 F 
ENDBRANCH  73  96
ENDBRANCH  47  48
ENDBRANCH  40  42
ENDBRANCH  39  40
ENDBRANCH  38  39
ENDBRANCH  37  38
ENDBRANCH  36  37
ENDBRANCH  35  36
ENDBRANCH  34  35
ENDBRANCH   1  34
TORSDOF 23
ENDMDL
MODEL 2
REMARK VINA RESULT:      -8.3      1.499      2.416
REMARK SMILES CC1(C)Cc2c(-c3ccccc3)c(-c3ccc(Cl)cc3)c(CC(=O)OCCOCCOCCOCCOC(=O)c3ccc(-c4c5nc(c(-c6c(F)c(F)c(F)c(F)c6F)c6ccc([nH]6)c(-c6c(F)c(F)c(F)c(F)c6F)c6nc(c(-c7c(F)c(F)c(F)c(F)c7F)c7ccc4[nH]7)C=C6)C=C5)cc3)n2C1
REMARK SMILES IDX 31 1 30 2 29 3 28 4 27 5 26 6 25 7 23 8 24 9 22 10 21 11
REMARK SMILES IDX 1 12 2 13 3 14 4 15 104 16 5 17 103 18 6 19 13 20 7 21 8 22
REMARK SMILES IDX 12 23 9 24 11 25 10 26 14 27 15 28 20 29 16 30 19 31 17 32
REMARK SMILES IDX 18 33 32 34 33 35 34 36 35 37 36 38 37 39 38 40 39 41 40 42
REMARK SMILES IDX 41 43 102 44 42 45 101 46 43 47 44 48 45 49 95 50 46 51
REMARK SMILES IDX 100 52 94 53 96 54 47 55 99 56 93 57 92 58 48 60 80 61 60 62
REMARK SMILES IDX 79 63 61 64 64 65 78 66 97 67 62 68 63 69 77 71 98 72 65 73
REMARK SMILES IDX 49 74 50 75 58 76 51 77 52 78 56 79 59 80 53 81 54 82 57 83
REMARK SMILES IDX 55 84 81 85 82 86 90 87 83 88 84 89 88 90 91 91 85 92 86 93
REMARK SMILES IDX 89 94 87 95 66 96 67 97 75 98 68 99 69 100 73 101 76 102
REMARK SMILES IDX 70 103 71 104 74 105 72 106
REMARK H PARENT 96 59 64 70
REMARK Flexibility Score: inf
ROOT
ATOM      1  O   UNL A   1      35.283  35.614  33.181  1.00  0.00    -0.377 OA
ENDROOT
BRANCH   1   2
ATOM      2  C   UNL A   1      34.668  34.576  33.911  1.00  0.00     0.188 C 
BRANCH   2   3
ATOM      3  C   UNL A   1      35.590  33.402  34.268  1.00  0.00     0.188 C 
BRANCH   3   4
ATOM      4  O   UNL A   1      36.991  33.626  34.331  1.00  0.00    -0.376 OA
BRANCH   4   5
ATOM      5  C   UNL A   1      37.524  34.154  35.537  1.00  0.00     0.202 C 
BRANCH   5   6
ATOM      6  C   UNL A   1      38.290  33.187  36.465  1.00  0.00     0.261 C 
BRANCH   6   7
ATOM      7  O   UNL A   1      38.555  33.680  37.810  1.00  0.00    -0.463 OA
BRANCH   7   8
ATOM      8  C   UNL A   1      39.826  34.056  38.095  1.00  0.00     0.311 C 
ATOM      9  O   UNL A   1      40.262  35.167  37.787  1.00  0.00    -0.252 OA
BRANCH   8  10
ATOM     10  C   UNL A   1      40.730  33.091  38.874  1.00  0.00     0.177 C 
BRANCH  10  11
ATOM     11  C   UNL A   1      42.089  32.619  38.379  1.00  0.00     0.037 A 
ATOM     12  C   UNL A   1      44.429  30.130  41.910  1.00  0.00     0.013 C 
ATOM     13  C   UNL A   1      44.454  31.354  40.989  1.00  0.00    -0.012 C 
ATOM     14  C   UNL A   1      45.320  32.454  41.622  1.00  0.00     0.013 C 
ATOM     15  C   UNL A   1      45.038  30.965  39.599  1.00  0.00     0.063 C 
ATOM     16  C   UNL A   1      43.012  31.888  40.709  1.00  0.00     0.129 C 
ATOM     17  C   UNL A   1      44.086  31.583  38.656  1.00  0.00     0.027 A 
ATOM     18  N   UNL A   1      42.998  32.109  39.268  1.00  0.00    -0.346 N 
ATOM     19  C   UNL A   1      43.969  31.773  37.312  1.00  0.00     0.011 A 
ATOM     20  C   UNL A   1      42.651  32.370  37.090  1.00  0.00     0.011 A 
BRANCH  19  21
ATOM     21  C   UNL A   1      45.070  31.432  36.424  1.00  0.00    -0.016 A 
ATOM     22  C   UNL A   1      45.757  32.400  35.681  1.00  0.00     0.009 A 
ATOM     23  C   UNL A   1      45.443  30.093  36.304  1.00  0.00     0.009 A 
ATOM     24  C   UNL A   1      46.820  32.025  34.851  1.00  0.00     0.001 A 
ATOM     25  C   UNL A   1      46.504  29.720  35.477  1.00  0.00     0.001 A 
ATOM     26  C   UNL A   1      47.191  30.685  34.747  1.00  0.00     0.000 A 
ENDBRANCH  19  21
BRANCH  20  27
ATOM     27  C   UNL A   1      42.075  32.678  35.753  1.00  0.00    -0.016 A 
ATOM     28  C   UNL A   1      42.249  33.956  35.185  1.00  0.00     0.010 A 
ATOM     29  C   UNL A   1      41.241  31.804  35.053  1.00  0.00     0.010 A 
ATOM     30  C   UNL A   1      41.508  34.396  34.081  1.00  0.00     0.021 A 
ATOM     31  C   UNL A   1      40.492  32.229  33.941  1.00  0.00     0.021 A 
ATOM     32  C   UNL A   1      40.602  33.537  33.482  1.00  0.00     0.041 A 
ATOM     33  Cl  UNL A   1      39.589  34.104  32.216  1.00  0.00    -0.084 Cl
ENDBRANCH  20  27
ENDBRANCH  10  11
ENDBRANCH   8  10
ENDBRANCH   7   8
ENDBRANCH   6   7
ENDBRANCH   5   6
ENDBRANCH   4   5
ENDBRANCH   3   4
ENDBRANCH   2   3
ENDBRANCH   1   2
BRANCH   1  34
ATOM     34  C   UNL A   1      34.419  36.494  32.495  1.00  0.00     0.188 C 
BRANCH  34  35
ATOM     35  C   UNL A   1      33.305  35.835  31.682  1.00  0.00     0.188 C 
BRANCH  35  36
ATOM     36  O   UNL A   1      33.547  35.517  30.306  1.00  0.00    -0.376 OA
BRANCH  36  37
ATOM     37  C   UNL A   1      34.313  34.375  29.930  1.00  0.00     0.202 C 
BRANCH  37  38
ATOM     38  C   UNL A   1      35.044  34.473  28.607  1.00  0.00     0.261 C 
BRANCH  38  39
ATOM     39  O   UNL A   1      36.245  33.731  28.753  1.00  0.00    -0.460 OA
BRANCH  39  40
ATOM     40  C   UNL A   1      36.181  32.434  28.375  1.00  0.00     0.338 C 
ATOM     41  O   UNL A   1      35.554  31.945  27.468  1.00  0.00    -0.246 OA
BRANCH  40  42
ATOM     42  C   UNL A   1      36.923  31.708  29.415  1.00  0.00     0.060 A 
ATOM     43  C   UNL A   1      38.168  32.250  29.673  1.00  0.00     0.016 A 
ATOM     44  C   UNL A   1      36.622  30.353  29.645  1.00  0.00     0.016 A 
ATOM     45  C   UNL A   1      39.203  31.358  29.772  1.00  0.00     0.010 A 
ATOM     46  C   UNL A   1      37.656  29.460  29.731  1.00  0.00     0.010 A 
ATOM     47  C   UNL A   1      38.934  29.982  29.669  1.00  0.00    -0.014 A 
BRANCH  47  48
ATOM     48  C   UNL A   1      40.072  29.111  29.617  1.00  0.00     0.031 A 
ATOM     49  C   UNL A   1      40.585  28.807  30.955  1.00  0.00     0.074 A 
ATOM     50  C   UNL A   1      40.650  28.673  28.490  1.00  0.00     0.049 A 
ATOM     51  N   UNL A   1      41.619  29.335  31.515  1.00  0.00    -0.248 NA
ATOM     52  C   UNL A   1      39.749  27.983  31.832  1.00  0.00     0.031 C 
ATOM     53  C   UNL A   1      40.144  28.628  27.121  1.00  0.00     0.029 A 
ATOM     54  N   UNL A   1      41.872  28.092  28.398  1.00  0.00    -0.354 N 
ATOM     55  C   UNL A   1      41.653  28.801  32.789  1.00  0.00     0.074 A 
ATOM     56  C   UNL A   1      40.407  28.102  32.984  1.00  0.00     0.031 C 
ATOM     57  C   UNL A   1      40.975  27.856  26.379  1.00  0.00     0.029 A 
ATOM     58  C   UNL A   1      42.124  27.478  27.190  1.00  0.00     0.049 A 
ATOM     59  H   UNL A   1      42.525  28.109  29.135  1.00  0.00     0.167 HD
ATOM     60  C   UNL A   1      42.800  28.798  33.511  1.00  0.00     0.037 A 
ATOM     61  C   UNL A   1      43.165  26.641  26.958  1.00  0.00     0.037 A 
ATOM     62  C   UNL A   1      43.765  29.732  32.995  1.00  0.00     0.049 A 
ATOM     63  C   UNL A   1      44.213  26.929  27.981  1.00  0.00     0.074 A 
ATOM     64  C   UNL A   1      43.776  31.104  32.818  1.00  0.00     0.029 A 
ATOM     65  N   UNL A   1      44.785  29.251  32.208  1.00  0.00    -0.354 N 
ATOM     66  N   UNL A   1      44.924  28.022  28.012  1.00  0.00    -0.248 NA
ATOM     67  C   UNL A   1      44.171  26.186  29.236  1.00  0.00     0.031 C 
ATOM     68  C   UNL A   1      44.476  31.321  31.595  1.00  0.00     0.029 A 
ATOM     69  C   UNL A   1      44.874  30.073  31.113  1.00  0.00     0.049 A 
ATOM     70  H   UNL A   1      45.347  28.464  32.396  1.00  0.00     0.167 HD
ATOM     71  C   UNL A   1      45.062  28.323  29.361  1.00  0.00     0.074 A 
ATOM     72  C   UNL A   1      44.664  27.110  30.065  1.00  0.00     0.031 C 
ATOM     73  C   UNL A   1      45.215  29.611  29.787  1.00  0.00     0.037 A 
BRANCH  60  74
ATOM     74  C   UNL A   1      43.143  27.702  34.469  1.00  0.00     0.064 A 
ATOM     75  C   UNL A   1      43.546  26.452  33.974  1.00  0.00     0.173 A 
ATOM     76  C   UNL A   1      42.832  27.755  35.846  1.00  0.00     0.173 A 
ATOM     77  F   UNL A   1      43.826  26.293  32.672  1.00  0.00    -0.203 F 
ATOM     78  C   UNL A   1      43.587  25.324  34.793  1.00  0.00     0.198 A 
ATOM     79  C   UNL A   1      42.933  26.643  36.673  1.00  0.00     0.198 A 
ATOM     80  F   UNL A   1      42.310  28.849  36.417  1.00  0.00    -0.203 F 
ATOM     81  F   UNL A   1      43.863  24.126  34.260  1.00  0.00    -0.200 F 
ATOM     82  C   UNL A   1      43.281  25.420  36.141  1.00  0.00     0.200 A 
ATOM     83  F   UNL A   1      42.613  26.754  37.969  1.00  0.00    -0.200 F 
ATOM     84  F   UNL A   1      43.271  24.329  36.916  1.00  0.00    -0.200 F 
ENDBRANCH  60  74
BRANCH  61  85
ATOM     85  C   UNL A   1      43.159  25.400  26.151  1.00  0.00     0.064 A 
ATOM     86  C   UNL A   1      44.192  25.137  25.237  1.00  0.00     0.173 A 
ATOM     87  C   UNL A   1      42.301  24.324  26.453  1.00  0.00     0.173 A 
ATOM     88  F   UNL A   1      45.079  26.093  24.927  1.00  0.00    -0.203 F 
ATOM     89  C   UNL A   1      44.375  23.865  24.685  1.00  0.00     0.198 A 
ATOM     90  C   UNL A   1      42.477  23.059  25.892  1.00  0.00     0.198 A 
ATOM     91  F   UNL A   1      41.333  24.444  27.371  1.00  0.00    -0.203 F 
ATOM     92  F   UNL A   1      45.415  23.634  23.872  1.00  0.00    -0.200 F 
ATOM     93  C   UNL A   1      43.525  22.825  25.022  1.00  0.00     0.200 A 
ATOM     94  F   UNL A   1      41.666  22.055  26.253  1.00  0.00    -0.200 F 
ATOM     95  F   UNL A   1      43.737  21.592  24.542  1.00  0.00    -0.200 F 
ENDBRANCH  61  85
BRANCH  73  96
ATOM     96  C   UNL A   1      45.508  30.659  28.751  1.00  0.00     0.064 A 
ATOM     97  C   UNL A   1      46.806  31.018  28.348  1.00  0.00     0.173 A 
ATOM     98  C   UNL A   1      44.435  31.235  28.056  1.00  0.00     0.173 A 
ATOM     99  F   UNL A   1      47.883  30.426  28.882  1.00  0.00    -0.203 F 
ATOM    100  C   UNL A   1      47.015  31.958  27.340  1.00  0.00     0.198 A 
ATOM    101  C   UNL A   1      44.648  32.143  27.023  1.00  0.00     0.198 A 
ATOM    102  F   UNL A   1      43.174  30.884  28.355  1.00  0.00    -0.203 F 
ATOM    103  F   UNL A   1      48.264  32.303  26.991  1.00  0.00    -0.200 F 
ATOM    104  C   UNL A   1      45.936  32.517  26.676  1.00  0.00     0.200 A 
ATOM    105  F   UNL A   1      43.602  32.641  26.348  1.00  0.00    -0.200 F 
ATOM    106  F   UNL A   1      46.137  33.395  25.684  1.00  0.00    -0.200 F 
ENDBRANCH  73  96
ENDBRANCH  47  48
ENDBRANCH  40  42
ENDBRANCH  39  40
ENDBRANCH  38  39
ENDBRANCH  37  38
ENDBRANCH  36  37
ENDBRANCH  35  36
ENDBRANCH  34  35
ENDBRANCH   1  34
TORSDOF 23
ENDMDL
MODEL 3
REMARK VINA RESULT:      -8.1      5.160     11.512
REMARK SMILES CC1(C)Cc2c(-c3ccccc3)c(-c3ccc(Cl)cc3)c(CC(=O)OCCOCCOCCOCCOC(=O)c3ccc(-c4c5nc(c(-c6c(F)c(F)c(F)c(F)c6F)c6ccc([nH]6)c(-c6c(F)c(F)c(F)c(F)c6F)c6nc(c(-c7c(F)c(F)c(F)c(F)c7F)c7ccc4[nH]7)C=C6)C=C5)cc3)n2C1
REMARK SMILES IDX 31 1 30 2 29 3 28 4 27 5 26 6 25 7 23 8 24 9 22 10 21 11
REMARK SMILES IDX 1 12 2 13 3 14 4 15 104 16 5 17 103 18 6 19 13 20 7 21 8 22
REMARK SMILES IDX 12 23 9 24 11 25 10 26 14 27 15 28 20 29 16 30 19 31 17 32
REMARK SMILES IDX 18 33 32 34 33 35 34 36 35 37 36 38 37 39 38 40 39 41 40 42
REMARK SMILES IDX 41 43 102 44 42 45 101 46 43 47 44 48 45 49 95 50 46 51
REMARK SMILES IDX 100 52 94 53 96 54 47 55 99 56 93 57 92 58 48 60 80 61 60 62
REMARK SMILES IDX 79 63 61 64 64 65 78 66 97 67 62 68 63 69 77 71 98 72 65 73
REMARK SMILES IDX 49 74 50 75 58 76 51 77 52 78 56 79 59 80 53 81 54 82 57 83
REMARK SMILES IDX 55 84 81 85 82 86 90 87 83 88 84 89 88 90 91 91 85 92 86 93
REMARK SMILES IDX 89 94 87 95 66 96 67 97 75 98 68 99 69 100 73 101 76 102
REMARK SMILES IDX 70 103 71 104 74 105 72 106
REMARK H PARENT 96 59 64 70
REMARK Flexibility Score: inf
ROOT
ATOM      1  O   UNL A   1      51.567  33.014  26.504  1.00  0.00    -0.377 OA
ENDROOT
BRANCH   1   2
ATOM      2  C   UNL A   1      51.196  31.808  25.873  1.00  0.00     0.188 C 
BRANCH   2   3
ATOM      3  C   UNL A   1      51.892  30.553  26.416  1.00  0.00     0.188 C 
BRANCH   3   4
ATOM      4  O   UNL A   1      51.100  29.428  26.766  1.00  0.00    -0.376 OA
BRANCH   4   5
ATOM      5  C   UNL A   1      50.894  28.428  25.779  1.00  0.00     0.202 C 
BRANCH   5   6
ATOM      6  C   UNL A   1      49.458  27.896  25.589  1.00  0.00     0.261 C 
BRANCH   6   7
ATOM      7  O   UNL A   1      48.831  28.212  24.312  1.00  0.00    -0.463 OA
BRANCH   7   8
ATOM      8  C   UNL A   1      47.896  27.346  23.849  1.00  0.00     0.311 C 
ATOM      9  O   UNL A   1      48.194  26.387  23.134  1.00  0.00    -0.252 OA
BRANCH   8  10
ATOM     10  C   UNL A   1      46.434  27.531  24.275  1.00  0.00     0.177 C 
BRANCH  10  11
ATOM     11  C   UNL A   1      45.854  26.981  25.570  1.00  0.00     0.037 A 
ATOM     12  C   UNL A   1      44.281  30.647  28.438  1.00  0.00     0.013 C 
ATOM     13  C   UNL A   1      45.249  29.466  28.301  1.00  0.00    -0.012 C 
ATOM     14  C   UNL A   1      46.466  29.693  29.209  1.00  0.00     0.013 C 
ATOM     15  C   UNL A   1      44.535  28.142  28.705  1.00  0.00     0.063 C 
ATOM     16  C   UNL A   1      45.702  29.268  26.819  1.00  0.00     0.129 C 
ATOM     17  C   UNL A   1      44.910  27.219  27.617  1.00  0.00     0.027 A 
ATOM     18  N   UNL A   1      45.570  27.832  26.605  1.00  0.00    -0.346 N 
ATOM     19  C   UNL A   1      44.772  25.898  27.315  1.00  0.00     0.011 A 
ATOM     20  C   UNL A   1      45.301  25.724  25.962  1.00  0.00     0.011 A 
BRANCH  19  21
ATOM     21  C   UNL A   1      44.225  24.973  28.297  1.00  0.00    -0.016 A 
ATOM     22  C   UNL A   1      43.241  24.034  27.969  1.00  0.00     0.009 A 
ATOM     23  C   UNL A   1      44.694  25.037  29.610  1.00  0.00     0.009 A 
ATOM     24  C   UNL A   1      42.756  23.155  28.946  1.00  0.00     0.001 A 
ATOM     25  C   UNL A   1      44.212  24.160  30.582  1.00  0.00     0.001 A 
ATOM     26  C   UNL A   1      43.240  23.220  30.252  1.00  0.00     0.000 A 
ENDBRANCH  19  21
BRANCH  20  27
ATOM     27  C   UNL A   1      45.280  24.444  25.202  1.00  0.00    -0.016 A 
ATOM     28  C   UNL A   1      44.055  23.896  24.771  1.00  0.00     0.010 A 
ATOM     29  C   UNL A   1      46.413  23.658  24.985  1.00  0.00     0.010 A 
ATOM     30  C   UNL A   1      43.940  22.579  24.309  1.00  0.00     0.021 A 
ATOM     31  C   UNL A   1      46.315  22.334  24.519  1.00  0.00     0.021 A 
ATOM     32  C   UNL A   1      45.073  21.788  24.217  1.00  0.00     0.041 A 
ATOM     33  Cl  UNL A   1      44.931  20.133  23.784  1.00  0.00    -0.084 Cl
ENDBRANCH  20  27
ENDBRANCH  10  11
ENDBRANCH   8  10
ENDBRANCH   7   8
ENDBRANCH   6   7
ENDBRANCH   5   6
ENDBRANCH   4   5
ENDBRANCH   3   4
ENDBRANCH   2   3
ENDBRANCH   1   2
BRANCH   1  34
ATOM     34  C   UNL A   1      50.539  33.961  26.700  1.00  0.00     0.188 C 
BRANCH  34  35
ATOM     35  C   UNL A   1      50.001  34.631  25.437  1.00  0.00     0.188 C 
BRANCH  35  36
ATOM     36  O   UNL A   1      48.605  34.512  25.131  1.00  0.00    -0.376 OA
BRANCH  36  37
ATOM     37  C   UNL A   1      47.643  35.401  25.690  1.00  0.00     0.202 C 
BRANCH  37  38
ATOM     38  C   UNL A   1      46.227  34.870  25.787  1.00  0.00     0.261 C 
BRANCH  38  39
ATOM     39  O   UNL A   1      45.855  34.959  27.155  1.00  0.00    -0.460 OA
BRANCH  39  40
ATOM     40  C   UNL A   1      44.829  35.797  27.428  1.00  0.00     0.338 C 
ATOM     41  O   UNL A   1      44.357  36.661  26.732  1.00  0.00    -0.246 OA
BRANCH  40  42
ATOM     42  C   UNL A   1      44.505  35.535  28.838  1.00  0.00     0.060 A 
ATOM     43  C   UNL A   1      44.469  34.188  29.147  1.00  0.00     0.016 A 
ATOM     44  C   UNL A   1      43.775  36.499  29.557  1.00  0.00     0.016 A 
ATOM     45  C   UNL A   1      43.404  33.773  29.902  1.00  0.00     0.010 A 
ATOM     46  C   UNL A   1      42.704  36.086  30.302  1.00  0.00     0.010 A 
ATOM     47  C   UNL A   1      42.473  34.724  30.355  1.00  0.00    -0.014 A 
BRANCH  47  48
ATOM     48  C   UNL A   1      41.299  34.211  30.999  1.00  0.00     0.031 A 
ATOM     49  C   UNL A   1      41.561  33.840  32.392  1.00  0.00     0.074 A 
ATOM     50  C   UNL A   1      40.116  34.024  30.399  1.00  0.00     0.049 A 
ATOM     51  N   UNL A   1      41.745  32.647  32.843  1.00  0.00    -0.248 NA
ATOM     52  C   UNL A   1      41.848  34.921  33.340  1.00  0.00     0.031 C 
ATOM     53  C   UNL A   1      39.589  34.572  29.152  1.00  0.00     0.029 A 
ATOM     54  N   UNL A   1      39.084  33.291  30.887  1.00  0.00    -0.354 N 
ATOM     55  C   UNL A   1      42.037  32.808  34.184  1.00  0.00     0.074 A 
ATOM     56  C   UNL A   1      42.239  34.220  34.403  1.00  0.00     0.031 C 
ATOM     57  C   UNL A   1      38.259  34.316  29.096  1.00  0.00     0.029 A 
ATOM     58  C   UNL A   1      37.887  33.478  30.229  1.00  0.00     0.049 A 
ATOM     59  H   UNL A   1      39.184  32.676  31.649  1.00  0.00     0.167 HD
ATOM     60  C   UNL A   1      41.882  31.784  35.058  1.00  0.00     0.037 A 
ATOM     61  C   UNL A   1      36.687  33.043  30.682  1.00  0.00     0.037 A 
ATOM     62  C   UNL A   1      41.806  30.511  34.390  1.00  0.00     0.049 A 
ATOM     63  C   UNL A   1      36.944  31.931  31.644  1.00  0.00     0.074 A 
ATOM     64  C   UNL A   1      42.668  29.801  33.573  1.00  0.00     0.029 A 
ATOM     65  N   UNL A   1      40.567  29.947  34.198  1.00  0.00    -0.354 N 
ATOM     66  N   UNL A   1      37.391  30.755  31.300  1.00  0.00    -0.248 NA
ATOM     67  C   UNL A   1      37.115  32.267  33.053  1.00  0.00     0.031 C 
ATOM     68  C   UNL A   1      41.834  29.177  32.599  1.00  0.00     0.029 A 
ATOM     69  C   UNL A   1      40.514  29.519  32.895  1.00  0.00     0.049 A 
ATOM     70  H   UNL A   1      39.852  29.865  34.870  1.00  0.00     0.167 HD
ATOM     71  C   UNL A   1      38.261  30.389  32.319  1.00  0.00     0.074 A 
ATOM     72  C   UNL A   1      37.975  31.310  33.414  1.00  0.00     0.031 C 
ATOM     73  C   UNL A   1      39.319  29.560  32.084  1.00  0.00     0.037 A 
BRANCH  60  74
ATOM     74  C   UNL A   1      41.467  31.996  36.479  1.00  0.00     0.064 A 
ATOM     75  C   UNL A   1      40.218  32.576  36.754  1.00  0.00     0.173 A 
ATOM     76  C   UNL A   1      42.361  31.896  37.568  1.00  0.00     0.173 A 
ATOM     77  F   UNL A   1      39.316  32.749  35.777  1.00  0.00    -0.203 F 
ATOM     78  C   UNL A   1      39.908  33.066  38.023  1.00  0.00     0.198 A 
ATOM     79  C   UNL A   1      42.025  32.329  38.845  1.00  0.00     0.198 A 
ATOM     80  F   UNL A   1      43.627  31.485  37.415  1.00  0.00    -0.203 F 
ATOM     81  F   UNL A   1      38.755  33.718  38.219  1.00  0.00    -0.200 F 
ATOM     82  C   UNL A   1      40.811  32.941  39.067  1.00  0.00     0.200 A 
ATOM     83  F   UNL A   1      42.921  32.217  39.836  1.00  0.00    -0.200 F 
ATOM     84  F   UNL A   1      40.534  33.456  40.271  1.00  0.00    -0.200 F 
ENDBRANCH  60  74
BRANCH  61  85
ATOM     85  C   UNL A   1      35.388  33.748  30.608  1.00  0.00     0.064 A 
ATOM     86  C   UNL A   1      35.022  34.679  31.593  1.00  0.00     0.173 A 
ATOM     87  C   UNL A   1      34.605  33.737  29.436  1.00  0.00     0.173 A 
ATOM     88  F   UNL A   1      35.740  34.787  32.720  1.00  0.00    -0.203 F 
ATOM     89  C   UNL A   1      33.958  35.567  31.403  1.00  0.00     0.198 A 
ATOM     90  C   UNL A   1      33.536  34.614  29.253  1.00  0.00     0.198 A 
ATOM     91  F   UNL A   1      34.915  32.944  28.401  1.00  0.00    -0.203 F 
ATOM     92  F   UNL A   1      33.684  36.490  32.336  1.00  0.00    -0.200 F 
ATOM     93  C   UNL A   1      33.224  35.541  30.229  1.00  0.00     0.200 A 
ATOM     94  F   UNL A   1      32.855  34.599  28.098  1.00  0.00    -0.200 F 
ATOM     95  F   UNL A   1      32.245  36.432  30.021  1.00  0.00    -0.200 F 
ENDBRANCH  61  85
BRANCH  73  96
ATOM     96  C   UNL A   1      39.360  28.836  30.768  1.00  0.00     0.064 A 
ATOM     97  C   UNL A   1      39.897  29.385  29.590  1.00  0.00     0.173 A 
ATOM     98  C   UNL A   1      38.949  27.497  30.725  1.00  0.00     0.173 A 
ATOM     99  F   UNL A   1      40.417  30.619  29.579  1.00  0.00    -0.203 F 
ATOM    100  C   UNL A   1      39.958  28.644  28.411  1.00  0.00     0.198 A 
ATOM    101  C   UNL A   1      39.049  26.747  29.556  1.00  0.00     0.198 A 
ATOM    102  F   UNL A   1      38.486  26.899  31.835  1.00  0.00    -0.203 F 
ATOM    103  F   UNL A   1      40.450  29.200  27.293  1.00  0.00    -0.200 F 
ATOM    104  C   UNL A   1      39.538  27.325  28.396  1.00  0.00     0.200 A 
ATOM    105  F   UNL A   1      38.690  25.455  29.561  1.00  0.00    -0.200 F 
ATOM    106  F   UNL A   1      39.628  26.602  27.272  1.00  0.00    -0.200 F 
ENDBRANCH  73  96
ENDBRANCH  47  48
ENDBRANCH  40  42
ENDBRANCH  39  40
ENDBRANCH  38  39
ENDBRANCH  37  38
ENDBRANCH  36  37
ENDBRANCH  35  36
ENDBRANCH  34  35
ENDBRANCH   1  34
TORSDOF 23
ENDMDL
