MODEL 1
REMARK VINA RESULT:      -9.9      0.000      0.000
REMARK SMILES Cc1cc(C)c(C(N)=O)c(N[C@H]2C=C[C@H](C(=O)OCCOCCOCCOCCOC(=O)c3ccc(-c4c5nc(c(-c6c(F)c(F)c(F)c(F)c6F)c6ccc([nH]6)c(-c6c(F)c(F)c(F)c(F)c6F)c6nc(c(-c7c(F)c(F)c(F)c(F)c7F)c7ccc4[nH]7)C=C6)C=C5)cc3)C2)n1
REMARK SMILES IDX 23 1 22 2 21 3 20 4 19 5 18 6 16 7 17 8 15 9 12 10 13 11
REMARK SMILES IDX 96 12 14 13 11 14 10 16 1 17 2 18 3 19 97 20 4 21 5 22 6 23
REMARK SMILES IDX 7 24 8 25 9 26 24 29 25 30 26 31 27 32 28 33 29 34 30 35
REMARK SMILES IDX 31 36 32 37 33 38 34 39 95 40 35 41 94 42 36 43 37 44 38 45
REMARK SMILES IDX 88 46 39 47 93 48 87 49 89 50 40 51 92 52 86 53 85 54 41 56
REMARK SMILES IDX 73 57 53 58 72 59 54 60 57 61 71 62 90 63 55 64 56 65 70 67
REMARK SMILES IDX 91 68 58 69 42 70 43 71 51 72 44 73 45 74 49 75 52 76 46 77
REMARK SMILES IDX 47 78 50 79 48 80 74 81 75 82 83 83 76 84 77 85 81 86 84 87
REMARK SMILES IDX 78 88 79 89 82 90 80 91 59 92 60 93 68 94 61 95 62 96 66 97
REMARK SMILES IDX 69 98 63 99 64 100 67 101 65 102
REMARK H PARENT 11 15 8 27 8 28 89 55 57 66
REMARK Flexibility Score: inf
ROOT
ATOM      1  C   UNL A   1      32.560  33.040  27.427  1.00  0.00     0.188 C 
ENDROOT
BRANCH   1   2
ATOM      2  C   UNL A   1      31.374  32.374  26.702  1.00  0.00     0.188 C 
BRANCH   2   3
ATOM      3  O   UNL A   1      31.595  31.033  26.316  1.00  0.00    -0.376 OA
BRANCH   3   4
ATOM      4  C   UNL A   1      30.958  30.461  25.187  1.00  0.00     0.202 C 
BRANCH   4   5
ATOM      5  C   UNL A   1      31.577  29.443  24.206  1.00  0.00     0.261 C 
BRANCH   5   6
ATOM      6  O   UNL A   1      30.876  28.223  23.996  1.00  0.00    -0.463 OA
BRANCH   6   7
ATOM      7  C   UNL A   1      31.392  27.099  24.549  1.00  0.00     0.312 C 
ATOM      8  O   UNL A   1      30.736  26.176  25.013  1.00  0.00    -0.252 OA
BRANCH   7   9
ATOM      9  C   UNL A   1      32.903  27.101  24.368  1.00  0.00     0.124 C 
ATOM     10  C   UNL A   1      33.740  24.831  24.282  1.00  0.00     0.104 C 
ATOM     11  C   UNL A   1      34.094  25.486  25.576  1.00  0.00    -0.006 C 
ATOM     12  C   UNL A   1      33.303  25.988  23.388  1.00  0.00     0.048 C 
ATOM     13  C   UNL A   1      33.619  26.735  25.630  1.00  0.00    -0.014 C 
BRANCH  10  14
ATOM     14  N   UNL A   1      34.802  24.035  23.707  1.00  0.00    -0.363 N 
ATOM     15  H   UNL A   1      35.294  24.409  22.940  1.00  0.00     0.162 HD
BRANCH  14  16
ATOM     16  C   UNL A   1      35.173  22.775  24.164  1.00  0.00     0.139 A 
ATOM     17  C   UNL A   1      38.346  21.303  25.320  1.00  0.00     0.067 C 
ATOM     18  C   UNL A   1      36.892  21.418  24.979  1.00  0.00     0.040 A 
ATOM     19  C   UNL A   1      36.047  20.328  25.073  1.00  0.00     0.028 A 
ATOM     20  N   UNL A   1      36.457  22.620  24.562  1.00  0.00    -0.236 NA
ATOM     21  C   UNL A   1      34.699  20.463  24.709  1.00  0.00    -0.033 A 
ATOM     22  C   UNL A   1      33.839  19.241  24.871  1.00  0.00     0.045 C 
ATOM     23  C   UNL A   1      34.253  21.708  24.212  1.00  0.00     0.084 A 
BRANCH  23  24
ATOM     24  C   UNL A   1      32.854  21.880  23.702  1.00  0.00     0.252 C 
ATOM     25  N   UNL A   1      31.844  21.977  24.622  1.00  0.00    -0.365 N 
ATOM     26  O   UNL A   1      32.589  21.962  22.509  1.00  0.00    -0.269 OA
ATOM     27  H   UNL A   1      32.046  21.912  25.583  1.00  0.00     0.159 HD
ATOM     28  H   UNL A   1      30.916  22.111  24.321  1.00  0.00     0.159 HD
ENDBRANCH  23  24
ENDBRANCH  14  16
ENDBRANCH  10  14
ENDBRANCH   7   9
ENDBRANCH   6   7
ENDBRANCH   5   6
ENDBRANCH   4   5
ENDBRANCH   3   4
ENDBRANCH   2   3
ENDBRANCH   1   2
BRANCH   1  29
ATOM     29  O   UNL A   1      32.269  34.336  27.920  1.00  0.00    -0.377 OA
BRANCH  29  30
ATOM     30  C   UNL A   1      33.321  35.070  28.544  1.00  0.00     0.188 C 
BRANCH  30  31
ATOM     31  C   UNL A   1      33.422  35.225  30.083  1.00  0.00     0.188 C 
BRANCH  31  32
ATOM     32  O   UNL A   1      33.741  34.031  30.782  1.00  0.00    -0.376 OA
BRANCH  32  33
ATOM     33  C   UNL A   1      35.100  33.756  31.072  1.00  0.00     0.202 C 
BRANCH  33  34
ATOM     34  C   UNL A   1      35.650  32.416  30.568  1.00  0.00     0.261 C 
BRANCH  34  35
ATOM     35  O   UNL A   1      35.651  32.239  29.143  1.00  0.00    -0.460 OA
BRANCH  35  36
ATOM     36  C   UNL A   1      35.383  31.003  28.675  1.00  0.00     0.338 C 
ATOM     37  O   UNL A   1      34.344  30.614  28.166  1.00  0.00    -0.246 OA
BRANCH  36  38
ATOM     38  C   UNL A   1      36.636  30.224  28.707  1.00  0.00     0.060 A 
ATOM     39  C   UNL A   1      36.921  29.437  29.832  1.00  0.00     0.016 A 
ATOM     40  C   UNL A   1      37.528  30.277  27.634  1.00  0.00     0.016 A 
ATOM     41  C   UNL A   1      38.127  28.744  29.910  1.00  0.00     0.010 A 
ATOM     42  C   UNL A   1      38.746  29.599  27.722  1.00  0.00     0.010 A 
ATOM     43  C   UNL A   1      39.069  28.869  28.880  1.00  0.00    -0.014 A 
BRANCH  43  44
ATOM     44  C   UNL A   1      40.471  28.451  29.117  1.00  0.00     0.031 A 
ATOM     45  C   UNL A   1      41.362  29.383  29.891  1.00  0.00     0.074 A 
ATOM     46  C   UNL A   1      40.941  27.269  28.682  1.00  0.00     0.049 A 
ATOM     47  N   UNL A   1      42.635  29.281  30.176  1.00  0.00    -0.248 NA
ATOM     48  C   UNL A   1      40.727  30.606  30.412  1.00  0.00     0.031 C 
ATOM     49  C   UNL A   1      40.165  26.260  27.966  1.00  0.00     0.029 A 
ATOM     50  N   UNL A   1      42.199  26.726  28.776  1.00  0.00    -0.354 N 
ATOM     51  C   UNL A   1      42.952  30.426  30.895  1.00  0.00     0.074 A 
ATOM     52  C   UNL A   1      41.751  31.227  30.974  1.00  0.00     0.031 C 
ATOM     53  C   UNL A   1      40.968  25.223  27.671  1.00  0.00     0.029 A 
ATOM     54  C   UNL A   1      42.322  25.513  28.146  1.00  0.00     0.049 A 
ATOM     55  H   UNL A   1      42.941  27.165  29.250  1.00  0.00     0.167 HD
ATOM     56  C   UNL A   1      44.137  30.774  31.450  1.00  0.00     0.037 A 
ATOM     57  C   UNL A   1      43.411  24.742  27.955  1.00  0.00     0.037 A 
ATOM     58  C   UNL A   1      45.329  29.974  31.367  1.00  0.00     0.049 A 
ATOM     59  C   UNL A   1      44.740  25.190  28.512  1.00  0.00     0.074 A 
ATOM     60  C   UNL A   1      46.578  30.230  31.904  1.00  0.00     0.029 A 
ATOM     61  N   UNL A   1      45.423  28.764  30.695  1.00  0.00    -0.354 N 
ATOM     62  N   UNL A   1      45.031  26.262  29.209  1.00  0.00    -0.248 NA
ATOM     63  C   UNL A   1      45.894  24.315  28.258  1.00  0.00     0.031 C 
ATOM     64  C   UNL A   1      47.444  29.207  31.503  1.00  0.00     0.029 A 
ATOM     65  C   UNL A   1      46.716  28.275  30.780  1.00  0.00     0.049 A 
ATOM     66  H   UNL A   1      44.679  28.319  30.227  1.00  0.00     0.167 HD
ATOM     67  C   UNL A   1      46.386  26.171  29.510  1.00  0.00     0.074 A 
ATOM     68  C   UNL A   1      46.857  24.932  28.927  1.00  0.00     0.031 C 
ATOM     69  C   UNL A   1      47.167  27.031  30.208  1.00  0.00     0.037 A 
BRANCH  56  70
ATOM     70  C   UNL A   1      44.209  32.094  32.163  1.00  0.00     0.064 A 
ATOM     71  C   UNL A   1      44.627  33.266  31.514  1.00  0.00     0.173 A 
ATOM     72  C   UNL A   1      43.831  32.191  33.511  1.00  0.00     0.173 A 
ATOM     73  F   UNL A   1      45.016  33.226  30.230  1.00  0.00    -0.203 F 
ATOM     74  C   UNL A   1      44.692  34.479  32.195  1.00  0.00     0.198 A 
ATOM     75  C   UNL A   1      43.863  33.412  34.179  1.00  0.00     0.198 A 
ATOM     76  F   UNL A   1      43.422  31.102  34.179  1.00  0.00    -0.203 F 
ATOM     77  F   UNL A   1      45.148  35.574  31.571  1.00  0.00    -0.200 F 
ATOM     78  C   UNL A   1      44.303  34.551  33.525  1.00  0.00     0.200 A 
ATOM     79  F   UNL A   1      43.473  33.483  35.459  1.00  0.00    -0.200 F 
ATOM     80  F   UNL A   1      44.358  35.721  34.178  1.00  0.00    -0.200 F 
ENDBRANCH  56  70
BRANCH  57  81
ATOM     81  C   UNL A   1      43.302  23.471  27.190  1.00  0.00     0.064 A 
ATOM     82  C   UNL A   1      42.707  22.333  27.754  1.00  0.00     0.173 A 
ATOM     83  C   UNL A   1      43.818  23.356  25.890  1.00  0.00     0.173 A 
ATOM     84  F   UNL A   1      42.221  22.382  29.004  1.00  0.00    -0.203 F 
ATOM     85  C   UNL A   1      42.656  21.125  27.060  1.00  0.00     0.198 A 
ATOM     86  C   UNL A   1      43.738  22.158  25.184  1.00  0.00     0.198 A 
ATOM     87  F   UNL A   1      44.401  24.412  25.304  1.00  0.00    -0.203 F 
ATOM     88  F   UNL A   1      42.134  20.040  27.647  1.00  0.00    -0.200 F 
ATOM     89  C   UNL A   1      43.166  21.040  25.773  1.00  0.00     0.200 A 
ATOM     90  F   UNL A   1      44.220  22.084  23.936  1.00  0.00    -0.200 F 
ATOM     91  F   UNL A   1      43.116  19.880  25.106  1.00  0.00    -0.200 F 
ENDBRANCH  57  81
BRANCH  69  92
ATOM     92  C   UNL A   1      48.601  26.641  30.438  1.00  0.00     0.064 A 
ATOM     93  C   UNL A   1      48.999  25.889  31.554  1.00  0.00     0.173 A 
ATOM     94  C   UNL A   1      49.585  26.986  29.497  1.00  0.00     0.173 A 
ATOM     95  F   UNL A   1      48.102  25.541  32.488  1.00  0.00    -0.203 F 
ATOM     96  C   UNL A   1      50.331  25.527  31.735  1.00  0.00     0.198 A 
ATOM     97  C   UNL A   1      50.910  26.590  29.662  1.00  0.00     0.198 A 
ATOM     98  F   UNL A   1      49.259  27.695  28.405  1.00  0.00    -0.203 F 
ATOM     99  F   UNL A   1      50.697  24.857  32.836  1.00  0.00    -0.200 F 
ATOM    100  C   UNL A   1      51.283  25.869  30.785  1.00  0.00     0.200 A 
ATOM    101  F   UNL A   1      51.823  26.904  28.734  1.00  0.00    -0.200 F 
ATOM    102  F   UNL A   1      52.563  25.510  30.957  1.00  0.00    -0.200 F 
ENDBRANCH  69  92
ENDBRANCH  43  44
ENDBRANCH  36  38
ENDBRANCH  35  36
ENDBRANCH  34  35
ENDBRANCH  33  34
ENDBRANCH  32  33
ENDBRANCH  31  32
ENDBRANCH  30  31
ENDBRANCH  29  30
ENDBRANCH   1  29
TORSDOF 23
ENDMDL
MODEL 2
REMARK VINA RESULT:      -9.8      1.098      2.284
REMARK SMILES Cc1cc(C)c(C(N)=O)c(N[C@H]2C=C[C@H](C(=O)OCCOCCOCCOCCOC(=O)c3ccc(-c4c5nc(c(-c6c(F)c(F)c(F)c(F)c6F)c6ccc([nH]6)c(-c6c(F)c(F)c(F)c(F)c6F)c6nc(c(-c7c(F)c(F)c(F)c(F)c7F)c7ccc4[nH]7)C=C6)C=C5)cc3)C2)n1
REMARK SMILES IDX 23 1 22 2 21 3 20 4 19 5 18 6 16 7 17 8 15 9 12 10 13 11
REMARK SMILES IDX 96 12 14 13 11 14 10 16 1 17 2 18 3 19 97 20 4 21 5 22 6 23
REMARK SMILES IDX 7 24 8 25 9 26 24 29 25 30 26 31 27 32 28 33 29 34 30 35
REMARK SMILES IDX 31 36 32 37 33 38 34 39 95 40 35 41 94 42 36 43 37 44 38 45
REMARK SMILES IDX 88 46 39 47 93 48 87 49 89 50 40 51 92 52 86 53 85 54 41 56
REMARK SMILES IDX 73 57 53 58 72 59 54 60 57 61 71 62 90 63 55 64 56 65 70 67
REMARK SMILES IDX 91 68 58 69 42 70 43 71 51 72 44 73 45 74 49 75 52 76 46 77
REMARK SMILES IDX 47 78 50 79 48 80 74 81 75 82 83 83 76 84 77 85 81 86 84 87
REMARK SMILES IDX 78 88 79 89 82 90 80 91 59 92 60 93 68 94 61 95 62 96 66 97
REMARK SMILES IDX 69 98 63 99 64 100 67 101 65 102
REMARK H PARENT 11 15 8 27 8 28 89 55 57 66
REMARK Flexibility Score: inf
ROOT
ATOM      1  C   UNL A   1      31.581  29.508  25.960  1.00  0.00     0.188 C 
ENDROOT
BRANCH   1   2
ATOM      2  C   UNL A   1      31.066  29.882  24.556  1.00  0.00     0.188 C 
BRANCH   2   3
ATOM      3  O   UNL A   1      31.794  29.312  23.488  1.00  0.00    -0.376 OA
BRANCH   3   4
ATOM      4  C   UNL A   1      32.400  28.034  23.588  1.00  0.00     0.202 C 
BRANCH   4   5
ATOM      5  C   UNL A   1      32.228  26.860  22.602  1.00  0.00     0.261 C 
BRANCH   5   6
ATOM      6  O   UNL A   1      31.113  25.997  22.797  1.00  0.00    -0.463 OA
BRANCH   6   7
ATOM      7  C   UNL A   1      30.934  25.471  24.033  1.00  0.00     0.312 C 
ATOM      8  O   UNL A   1      29.852  25.321  24.585  1.00  0.00    -0.252 OA
BRANCH   7   9
ATOM      9  C   UNL A   1      32.269  24.967  24.561  1.00  0.00     0.124 C 
ATOM     10  C   UNL A   1      31.933  23.033  25.977  1.00  0.00     0.104 C 
ATOM     11  C   UNL A   1      32.295  24.235  26.785  1.00  0.00    -0.006 C 
ATOM     12  C   UNL A   1      32.278  23.431  24.546  1.00  0.00     0.048 C 
ATOM     13  C   UNL A   1      32.466  25.308  26.004  1.00  0.00    -0.014 C 
BRANCH  10  14
ATOM     14  N   UNL A   1      32.581  21.812  26.402  1.00  0.00    -0.363 N 
ATOM     15  H   UNL A   1      32.116  21.251  27.065  1.00  0.00     0.162 HD
BRANCH  14  16
ATOM     16  C   UNL A   1      33.818  21.378  25.938  1.00  0.00     0.139 A 
ATOM     17  C   UNL A   1      37.087  23.006  25.459  1.00  0.00     0.067 C 
ATOM     18  C   UNL A   1      36.042  21.933  25.486  1.00  0.00     0.040 A 
ATOM     19  C   UNL A   1      36.315  20.658  25.027  1.00  0.00     0.028 A 
ATOM     20  N   UNL A   1      34.830  22.276  25.957  1.00  0.00    -0.236 NA
ATOM     21  C   UNL A   1      35.300  19.689  25.031  1.00  0.00    -0.033 A 
ATOM     22  C   UNL A   1      35.685  18.319  24.548  1.00  0.00     0.045 C 
ATOM     23  C   UNL A   1      34.009  20.062  25.468  1.00  0.00     0.084 A 
BRANCH  23  24
ATOM     24  C   UNL A   1      32.860  19.104  25.390  1.00  0.00     0.252 C 
ATOM     25  N   UNL A   1      32.694  18.216  26.420  1.00  0.00    -0.365 N 
ATOM     26  O   UNL A   1      32.059  19.103  24.462  1.00  0.00    -0.269 OA
ATOM     27  H   UNL A   1      33.331  18.207  27.169  1.00  0.00     0.159 HD
ATOM     28  H   UNL A   1      31.937  17.586  26.409  1.00  0.00     0.159 HD
ENDBRANCH  23  24
ENDBRANCH  14  16
ENDBRANCH  10  14
ENDBRANCH   7   9
ENDBRANCH   6   7
ENDBRANCH   5   6
ENDBRANCH   4   5
ENDBRANCH   3   4
ENDBRANCH   2   3
ENDBRANCH   1   2
BRANCH   1  29
ATOM     29  O   UNL A   1      31.470  30.558  26.904  1.00  0.00    -0.377 OA
BRANCH  29  30
ATOM     30  C   UNL A   1      31.117  31.856  26.429  1.00  0.00     0.188 C 
BRANCH  30  31
ATOM     31  C   UNL A   1      32.056  33.078  26.588  1.00  0.00     0.188 C 
BRANCH  31  32
ATOM     32  O   UNL A   1      32.299  33.472  27.930  1.00  0.00    -0.376 OA
BRANCH  32  33
ATOM     33  C   UNL A   1      33.551  34.050  28.252  1.00  0.00     0.202 C 
BRANCH  33  34
ATOM     34  C   UNL A   1      34.469  33.230  29.170  1.00  0.00     0.261 C 
BRANCH  34  35
ATOM     35  O   UNL A   1      35.420  32.384  28.506  1.00  0.00    -0.460 OA
BRANCH  35  36
ATOM     36  C   UNL A   1      35.106  31.078  28.390  1.00  0.00     0.338 C 
ATOM     37  O   UNL A   1      34.026  30.600  28.082  1.00  0.00    -0.246 OA
BRANCH  36  38
ATOM     38  C   UNL A   1      36.354  30.300  28.518  1.00  0.00     0.060 A 
ATOM     39  C   UNL A   1      36.618  29.628  29.719  1.00  0.00     0.016 A 
ATOM     40  C   UNL A   1      37.260  30.239  27.457  1.00  0.00     0.016 A 
ATOM     41  C   UNL A   1      37.819  28.940  29.884  1.00  0.00     0.010 A 
ATOM     42  C   UNL A   1      38.472  29.567  27.630  1.00  0.00     0.010 A 
ATOM     43  C   UNL A   1      38.775  28.955  28.859  1.00  0.00    -0.014 A 
BRANCH  43  44
ATOM     44  C   UNL A   1      40.171  28.556  29.156  1.00  0.00     0.031 A 
ATOM     45  C   UNL A   1      41.021  29.507  29.953  1.00  0.00     0.074 A 
ATOM     46  C   UNL A   1      40.670  27.374  28.756  1.00  0.00     0.049 A 
ATOM     47  N   UNL A   1      42.283  29.423  30.288  1.00  0.00    -0.248 NA
ATOM     48  C   UNL A   1      40.353  30.730  30.432  1.00  0.00     0.031 C 
ATOM     49  C   UNL A   1      39.933  26.348  28.023  1.00  0.00     0.029 A 
ATOM     50  N   UNL A   1      41.929  26.846  28.906  1.00  0.00    -0.354 N 
ATOM     51  C   UNL A   1      42.559  30.580  31.005  1.00  0.00     0.074 A 
ATOM     52  C   UNL A   1      41.348  31.369  31.026  1.00  0.00     0.031 C 
ATOM     53  C   UNL A   1      40.758  25.316  27.773  1.00  0.00     0.029 A 
ATOM     54  C   UNL A   1      42.089  25.626  28.297  1.00  0.00     0.049 A 
ATOM     55  H   UNL A   1      42.648  27.299  29.402  1.00  0.00     0.167 HD
ATOM     56  C   UNL A   1      43.718  30.949  31.600  1.00  0.00     0.037 A 
ATOM     57  C   UNL A   1      43.193  24.865  28.159  1.00  0.00     0.037 A 
ATOM     58  C   UNL A   1      44.921  30.160  31.575  1.00  0.00     0.049 A 
ATOM     59  C   UNL A   1      44.494  25.335  28.761  1.00  0.00     0.074 A 
ATOM     60  C   UNL A   1      46.145  30.436  32.157  1.00  0.00     0.029 A 
ATOM     61  N   UNL A   1      45.053  28.943  30.923  1.00  0.00    -0.354 N 
ATOM     62  N   UNL A   1      44.747  26.419  29.455  1.00  0.00    -0.248 NA
ATOM     63  C   UNL A   1      45.667  24.470  28.565  1.00  0.00     0.031 C 
ATOM     64  C   UNL A   1      47.036  29.419  31.803  1.00  0.00     0.029 A 
ATOM     65  C   UNL A   1      46.348  28.470  31.065  1.00  0.00     0.049 A 
ATOM     66  H   UNL A   1      44.334  28.484  30.432  1.00  0.00     0.167 HD
ATOM     67  C   UNL A   1      46.089  26.346  29.810  1.00  0.00     0.074 A 
ATOM     68  C   UNL A   1      46.596  25.106  29.263  1.00  0.00     0.031 C 
ATOM     69  C   UNL A   1      46.833  27.224  30.527  1.00  0.00     0.037 A 
BRANCH  56  70
ATOM     70  C   UNL A   1      43.748  32.278  32.298  1.00  0.00     0.064 A 
ATOM     71  C   UNL A   1      43.440  32.407  33.661  1.00  0.00     0.173 A 
ATOM     72  C   UNL A   1      44.112  33.437  31.596  1.00  0.00     0.173 A 
ATOM     73  F   UNL A   1      43.069  31.333  34.376  1.00  0.00    -0.203 F 
ATOM     74  C   UNL A   1      43.468  33.651  34.288  1.00  0.00     0.198 A 
ATOM     75  C   UNL A   1      44.173  34.673  32.234  1.00  0.00     0.198 A 
ATOM     76  F   UNL A   1      44.417  33.371  30.292  1.00  0.00    -0.203 F 
ATOM     77  F   UNL A   1      43.117  33.759  35.576  1.00  0.00    -0.200 F 
ATOM     78  C   UNL A   1      43.842  34.780  33.575  1.00  0.00     0.200 A 
ATOM     79  F   UNL A   1      44.549  35.761  31.548  1.00  0.00    -0.200 F 
ATOM     80  F   UNL A   1      43.877  35.976  34.181  1.00  0.00    -0.200 F 
ENDBRANCH  56  70
BRANCH  57  81
ATOM     81  C   UNL A   1      43.127  23.584  27.407  1.00  0.00     0.064 A 
ATOM     82  C   UNL A   1      43.583  23.495  26.083  1.00  0.00     0.173 A 
ATOM     83  C   UNL A   1      42.578  22.427  27.982  1.00  0.00     0.173 A 
ATOM     84  F   UNL A   1      44.091  24.577  25.477  1.00  0.00    -0.203 F 
ATOM     85  C   UNL A   1      43.468  22.309  25.358  1.00  0.00     0.198 A 
ATOM     86  C   UNL A   1      42.494  21.235  27.268  1.00  0.00     0.198 A 
ATOM     87  F   UNL A   1      42.123  22.457  29.244  1.00  0.00    -0.203 F 
ATOM     88  F   UNL A   1      43.858  22.271  24.077  1.00  0.00    -0.200 F 
ATOM     89  C   UNL A   1      42.930  21.178  25.953  1.00  0.00     0.200 A 
ATOM     90  F   UNL A   1      41.985  20.141  27.852  1.00  0.00    -0.200 F 
ATOM     91  F   UNL A   1      42.820  20.040  25.256  1.00  0.00    -0.200 F 
ENDBRANCH  57  81
BRANCH  69  92
ATOM     92  C   UNL A   1      48.261  26.852  30.818  1.00  0.00     0.064 A 
ATOM     93  C   UNL A   1      48.618  26.082  31.935  1.00  0.00     0.173 A 
ATOM     94  C   UNL A   1      49.283  27.235  29.934  1.00  0.00     0.173 A 
ATOM     95  F   UNL A   1      47.683  25.697  32.816  1.00  0.00    -0.203 F 
ATOM     96  C   UNL A   1      49.946  25.737  32.173  1.00  0.00     0.198 A 
ATOM     97  C   UNL A   1      50.605  26.857  30.155  1.00  0.00     0.198 A 
ATOM     98  F   UNL A   1      48.998  27.963  28.844  1.00  0.00    -0.203 F 
ATOM     99  F   UNL A   1      50.270  25.048  33.275  1.00  0.00    -0.200 F 
ATOM    100  C   UNL A   1      50.937  26.117  31.278  1.00  0.00     0.200 A 
ATOM    101  F   UNL A   1      51.556  27.208  29.279  1.00  0.00    -0.200 F 
ATOM    102  F   UNL A   1      52.213  25.775  31.505  1.00  0.00    -0.200 F 
ENDBRANCH  69  92
ENDBRANCH  43  44
ENDBRANCH  36  38
ENDBRANCH  35  36
ENDBRANCH  34  35
ENDBRANCH  33  34
ENDBRANCH  32  33
ENDBRANCH  31  32
ENDBRANCH  30  31
ENDBRANCH  29  30
ENDBRANCH   1  29
TORSDOF 23
ENDMDL
MODEL 3
REMARK VINA RESULT:      -9.5      1.502      3.450
REMARK SMILES Cc1cc(C)c(C(N)=O)c(N[C@H]2C=C[C@H](C(=O)OCCOCCOCCOCCOC(=O)c3ccc(-c4c5nc(c(-c6c(F)c(F)c(F)c(F)c6F)c6ccc([nH]6)c(-c6c(F)c(F)c(F)c(F)c6F)c6nc(c(-c7c(F)c(F)c(F)c(F)c7F)c7ccc4[nH]7)C=C6)C=C5)cc3)C2)n1
REMARK SMILES IDX 23 1 22 2 21 3 20 4 19 5 18 6 16 7 17 8 15 9 12 10 13 11
REMARK SMILES IDX 96 12 14 13 11 14 10 16 1 17 2 18 3 19 97 20 4 21 5 22 6 23
REMARK SMILES IDX 7 24 8 25 9 26 24 29 25 30 26 31 27 32 28 33 29 34 30 35
REMARK SMILES IDX 31 36 32 37 33 38 34 39 95 40 35 41 94 42 36 43 37 44 38 45
REMARK SMILES IDX 88 46 39 47 93 48 87 49 89 50 40 51 92 52 86 53 85 54 41 56
REMARK SMILES IDX 73 57 53 58 72 59 54 60 57 61 71 62 90 63 55 64 56 65 70 67
REMARK SMILES IDX 91 68 58 69 42 70 43 71 51 72 44 73 45 74 49 75 52 76 46 77
REMARK SMILES IDX 47 78 50 79 48 80 74 81 75 82 83 83 76 84 77 85 81 86 84 87
REMARK SMILES IDX 78 88 79 89 82 90 80 91 59 92 60 93 68 94 61 95 62 96 66 97
REMARK SMILES IDX 69 98 63 99 64 100 67 101 65 102
REMARK H PARENT 11 15 8 27 8 28 89 55 57 66
REMARK Flexibility Score: inf
ROOT
ATOM      1  C   UNL A   1      31.133  25.264  25.291  1.00  0.00     0.188 C 
ENDROOT
BRANCH   1   2
ATOM      2  C   UNL A   1      31.685  24.549  24.042  1.00  0.00     0.188 C 
BRANCH   2   3
ATOM      3  O   UNL A   1      32.475  25.361  23.197  1.00  0.00    -0.376 OA
BRANCH   3   4
ATOM      4  C   UNL A   1      33.848  25.094  22.967  1.00  0.00     0.202 C 
BRANCH   4   5
ATOM      5  C   UNL A   1      34.557  23.736  23.140  1.00  0.00     0.261 C 
BRANCH   5   6
ATOM      6  O   UNL A   1      35.572  23.646  24.133  1.00  0.00    -0.463 OA
BRANCH   6   7
ATOM      7  C   UNL A   1      35.241  23.989  25.402  1.00  0.00     0.312 C 
ATOM      8  O   UNL A   1      34.710  25.040  25.733  1.00  0.00    -0.252 OA
BRANCH   7   9
ATOM      9  C   UNL A   1      35.501  22.804  26.323  1.00  0.00     0.124 C 
ATOM     10  C   UNL A   1      33.612  21.290  26.291  1.00  0.00     0.104 C 
ATOM     11  C   UNL A   1      33.673  22.047  27.576  1.00  0.00    -0.006 C 
ATOM     12  C   UNL A   1      34.983  21.519  25.661  1.00  0.00     0.048 C 
ATOM     13  C   UNL A   1      34.708  22.895  27.589  1.00  0.00    -0.014 C 
BRANCH  10  14
ATOM     14  N   UNL A   1      33.278  19.891  26.439  1.00  0.00    -0.363 N 
ATOM     15  H   UNL A   1      32.999  19.576  27.329  1.00  0.00     0.162 HD
BRANCH  14  16
ATOM     16  C   UNL A   1      33.325  18.960  25.406  1.00  0.00     0.139 A 
ATOM     17  C   UNL A   1      34.919  15.664  25.001  1.00  0.00     0.067 C 
ATOM     18  C   UNL A   1      34.101  16.878  24.684  1.00  0.00     0.040 A 
ATOM     19  C   UNL A   1      33.513  17.039  23.443  1.00  0.00     0.028 A 
ATOM     20  N   UNL A   1      33.985  17.804  25.651  1.00  0.00    -0.236 NA
ATOM     21  C   UNL A   1      32.786  18.207  23.168  1.00  0.00    -0.033 A 
ATOM     22  C   UNL A   1      32.150  18.292  21.809  1.00  0.00     0.045 C 
ATOM     23  C   UNL A   1      32.713  19.210  24.161  1.00  0.00     0.084 A 
BRANCH  23  24
ATOM     24  C   UNL A   1      32.048  20.523  23.885  1.00  0.00     0.252 C 
ATOM     25  N   UNL A   1      32.261  21.107  22.664  1.00  0.00    -0.365 N 
ATOM     26  O   UNL A   1      31.310  21.075  24.693  1.00  0.00    -0.269 OA
ATOM     27  H   UNL A   1      32.852  20.673  22.008  1.00  0.00     0.159 HD
ATOM     28  H   UNL A   1      31.822  21.961  22.444  1.00  0.00     0.159 HD
ENDBRANCH  23  24
ENDBRANCH  14  16
ENDBRANCH  10  14
ENDBRANCH   7   9
ENDBRANCH   6   7
ENDBRANCH   5   6
ENDBRANCH   4   5
ENDBRANCH   3   4
ENDBRANCH   2   3
ENDBRANCH   1   2
BRANCH   1  29
ATOM     29  O   UNL A   1      30.588  26.543  25.018  1.00  0.00    -0.377 OA
BRANCH  29  30
ATOM     30  C   UNL A   1      31.341  27.692  25.404  1.00  0.00     0.188 C 
BRANCH  30  31
ATOM     31  C   UNL A   1      31.549  28.899  24.456  1.00  0.00     0.188 C 
BRANCH  31  32
ATOM     32  O   UNL A   1      31.976  30.093  25.095  1.00  0.00    -0.376 OA
BRANCH  32  33
ATOM     33  C   UNL A   1      31.776  30.225  26.491  1.00  0.00     0.202 C 
BRANCH  33  34
ATOM     34  C   UNL A   1      32.798  31.081  27.251  1.00  0.00     0.261 C 
BRANCH  34  35
ATOM     35  O   UNL A   1      34.000  30.406  27.654  1.00  0.00    -0.460 OA
BRANCH  35  36
ATOM     36  C   UNL A   1      34.841  31.077  28.465  1.00  0.00     0.338 C 
ATOM     37  O   UNL A   1      34.591  32.068  29.133  1.00  0.00    -0.246 OA
BRANCH  36  38
ATOM     38  C   UNL A   1      36.091  30.298  28.567  1.00  0.00     0.060 A 
ATOM     39  C   UNL A   1      36.393  29.651  29.773  1.00  0.00     0.016 A 
ATOM     40  C   UNL A   1      36.961  30.214  27.478  1.00  0.00     0.016 A 
ATOM     41  C   UNL A   1      37.597  28.963  29.912  1.00  0.00     0.010 A 
ATOM     42  C   UNL A   1      38.176  29.541  27.625  1.00  0.00     0.010 A 
ATOM     43  C   UNL A   1      38.519  28.955  28.856  1.00  0.00    -0.014 A 
BRANCH  43  44
ATOM     44  C   UNL A   1      39.923  28.557  29.115  1.00  0.00     0.031 A 
ATOM     45  C   UNL A   1      40.800  29.521  29.867  1.00  0.00     0.074 A 
ATOM     46  C   UNL A   1      40.407  27.367  28.719  1.00  0.00     0.049 A 
ATOM     47  N   UNL A   1      42.072  29.439  30.163  1.00  0.00    -0.248 NA
ATOM     48  C   UNL A   1      40.150  30.753  30.346  1.00  0.00     0.031 C 
ATOM     49  C   UNL A   1      39.645  26.330  28.029  1.00  0.00     0.029 A 
ATOM     50  N   UNL A   1      41.669  26.839  28.838  1.00  0.00    -0.354 N 
ATOM     51  C   UNL A   1      42.373  30.609  30.849  1.00  0.00     0.074 A 
ATOM     52  C   UNL A   1      41.164  31.400  30.896  1.00  0.00     0.031 C 
ATOM     53  C   UNL A   1      40.460  25.292  27.771  1.00  0.00     0.029 A 
ATOM     54  C   UNL A   1      41.808  25.609  28.246  1.00  0.00     0.049 A 
ATOM     55  H   UNL A   1      42.404  27.300  29.303  1.00  0.00     0.167 HD
ATOM     56  C   UNL A   1      43.551  30.985  31.400  1.00  0.00     0.037 A 
ATOM     57  C   UNL A   1      42.905  24.843  28.085  1.00  0.00     0.037 A 
ATOM     58  C   UNL A   1      44.751  30.194  31.350  1.00  0.00     0.049 A 
ATOM     59  C   UNL A   1      44.226  25.320  28.637  1.00  0.00     0.074 A 
ATOM     60  C   UNL A   1      45.994  30.477  31.887  1.00  0.00     0.029 A 
ATOM     61  N   UNL A   1      44.861  28.965  30.715  1.00  0.00    -0.354 N 
ATOM     62  N   UNL A   1      44.503  26.416  29.303  1.00  0.00    -0.248 NA
ATOM     63  C   UNL A   1      45.390  24.450  28.418  1.00  0.00     0.031 C 
ATOM     64  C   UNL A   1      46.871  29.452  31.523  1.00  0.00     0.029 A 
ATOM     65  C   UNL A   1      46.158  28.491  30.824  1.00  0.00     0.049 A 
ATOM     66  H   UNL A   1      44.124  28.499  30.256  1.00  0.00     0.167 HD
ATOM     67  C   UNL A   1      45.856  26.346  29.615  1.00  0.00     0.074 A 
ATOM     68  C   UNL A   1      46.343  25.096  29.074  1.00  0.00     0.031 C 
ATOM     69  C   UNL A   1      46.624  27.235  30.292  1.00  0.00     0.037 A 
BRANCH  56  70
ATOM     70  C   UNL A   1      43.605  32.326  32.074  1.00  0.00     0.064 A 
ATOM     71  C   UNL A   1      43.858  33.506  31.357  1.00  0.00     0.173 A 
ATOM     72  C   UNL A   1      43.379  32.434  33.454  1.00  0.00     0.173 A 
ATOM     73  F   UNL A   1      44.098  33.458  30.037  1.00  0.00    -0.203 F 
ATOM     74  C   UNL A   1      43.909  34.739  32.002  1.00  0.00     0.198 A 
ATOM     75  C   UNL A   1      43.397  33.673  34.090  1.00  0.00     0.198 A 
ATOM     76  F   UNL A   1      43.133  31.338  34.187  1.00  0.00    -0.203 F 
ATOM     77  F   UNL A   1      44.207  35.846  31.307  1.00  0.00    -0.200 F 
ATOM     78  C   UNL A   1      43.672  34.822  33.366  1.00  0.00     0.200 A 
ATOM     79  F   UNL A   1      43.152  33.752  35.405  1.00  0.00    -0.200 F 
ATOM     80  F   UNL A   1      43.714  36.010  33.985  1.00  0.00    -0.200 F 
ENDBRANCH  56  70
BRANCH  57  81
ATOM     81  C   UNL A   1      42.813  23.549  27.358  1.00  0.00     0.064 A 
ATOM     82  C   UNL A   1      42.312  22.398  27.985  1.00  0.00     0.173 A 
ATOM     83  C   UNL A   1      43.254  23.425  26.032  1.00  0.00     0.173 A 
ATOM     84  F   UNL A   1      41.902  22.456  29.261  1.00  0.00    -0.203 F 
ATOM     85  C   UNL A   1      42.279  21.172  27.323  1.00  0.00     0.198 A 
ATOM     86  C   UNL A   1      43.190  22.206  25.360  1.00  0.00     0.198 A 
ATOM     87  F   UNL A   1      43.746  24.492  25.385  1.00  0.00    -0.203 F 
ATOM     88  F   UNL A   1      41.850  20.078  27.967  1.00  0.00    -0.200 F 
ATOM     89  C   UNL A   1      42.712  21.078  26.009  1.00  0.00     0.200 A 
ATOM     90  F   UNL A   1      43.598  22.123  24.086  1.00  0.00    -0.200 F 
ATOM     91  F   UNL A   1      42.680  19.899  25.374  1.00  0.00    -0.200 F 
ENDBRANCH  57  81
BRANCH  69  92
ATOM     92  C   UNL A   1      48.060  26.865  30.543  1.00  0.00     0.064 A 
ATOM     93  C   UNL A   1      49.101  27.319  29.719  1.00  0.00     0.173 A 
ATOM     94  C   UNL A   1      48.402  26.082  31.657  1.00  0.00     0.173 A 
ATOM     95  F   UNL A   1      48.830  28.063  28.636  1.00  0.00    -0.203 F 
ATOM     96  C   UNL A   1      50.425  26.976  29.983  1.00  0.00     0.198 A 
ATOM     97  C   UNL A   1      49.730  25.771  31.939  1.00  0.00     0.198 A 
ATOM     98  F   UNL A   1      47.448  25.630  32.485  1.00  0.00    -0.203 F 
ATOM     99  F   UNL A   1      51.397  27.375  29.151  1.00  0.00    -0.200 F 
ATOM    100  C   UNL A   1      50.739  26.211  31.097  1.00  0.00     0.200 A 
ATOM    101  F   UNL A   1      50.032  25.050  33.026  1.00  0.00    -0.200 F 
ATOM    102  F   UNL A   1      52.014  25.890  31.353  1.00  0.00    -0.200 F 
ENDBRANCH  69  92
ENDBRANCH  43  44
ENDBRANCH  36  38
ENDBRANCH  35  36
ENDBRANCH  34  35
ENDBRANCH  33  34
ENDBRANCH  32  33
ENDBRANCH  31  32
ENDBRANCH  30  31
ENDBRANCH  29  30
ENDBRANCH   1  29
TORSDOF 23
ENDMDL
