MODEL 1
REMARK VINA RESULT:     -10.6      0.000      0.000
REMARK SMILES CC(C)(C)c1ccc(C[N@@H+]2CCO[C@H](CC(=O)OCCOCCOCCOCCOC(=O)c3ccc(-c4c5nc(c(-c6c(F)c(F)c(F)c(F)c6F)c6ccc([nH]6)c(-c6c(F)c(F)c(F)c(F)c6F)c6nc(c(-c7c(F)c(F)c(F)c(F)c7F)c7ccc4[nH]7)C=C6)C=C5)cc3)C2)cc1
REMARK SMILES IDX 23 1 22 2 21 3 20 4 19 5 18 6 16 7 17 8 15 9 14 10 10 11
REMARK SMILES IDX 11 12 96 13 12 15 13 16 9 17 8 18 5 19 6 20 98 21 7 22 97 23
REMARK SMILES IDX 2 24 1 25 3 26 4 27 24 28 25 29 26 30 27 31 28 32 29 33
REMARK SMILES IDX 30 34 31 35 32 36 33 37 34 38 95 39 35 40 94 41 36 42 37 43
REMARK SMILES IDX 38 44 88 45 39 46 93 47 87 48 89 49 40 50 92 51 86 52 85 53
REMARK SMILES IDX 41 55 73 56 53 57 72 58 54 59 57 60 71 61 90 62 55 63 56 64
REMARK SMILES IDX 70 66 91 67 58 68 42 69 43 70 51 71 44 72 45 73 49 74 52 75
REMARK SMILES IDX 46 76 47 77 50 78 48 79 74 80 75 81 83 82 76 83 77 84 81 85
REMARK SMILES IDX 84 86 78 87 79 88 82 89 80 90 59 91 60 92 68 93 61 94 62 95
REMARK SMILES IDX 66 96 69 97 63 98 64 99 67 100 65 101
REMARK H PARENT 10 14 89 54 57 65
REMARK Flexibility Score: inf
ROOT
ATOM      1  C   UNL A   1      33.679  31.224  27.570  1.00  0.00     0.188 C 
ENDROOT
BRANCH   1   2
ATOM      2  C   UNL A   1      32.354  30.882  26.861  1.00  0.00     0.188 C 
BRANCH   2   3
ATOM      3  O   UNL A   1      32.485  30.103  25.684  1.00  0.00    -0.376 OA
BRANCH   3   4
ATOM      4  C   UNL A   1      33.404  29.043  25.545  1.00  0.00     0.202 C 
BRANCH   4   5
ATOM      5  C   UNL A   1      33.230  27.621  26.163  1.00  0.00     0.261 C 
BRANCH   5   6
ATOM      6  O   UNL A   1      33.888  26.459  25.646  1.00  0.00    -0.463 OA
BRANCH   6   7
ATOM      7  C   UNL A   1      33.301  25.295  25.932  1.00  0.00     0.308 C 
ATOM      8  O   UNL A   1      32.369  25.163  26.716  1.00  0.00    -0.252 OA
BRANCH   7   9
ATOM      9  C   UNL A   1      33.929  24.069  25.418  1.00  0.00     0.160 C 
BRANCH   9  10
ATOM     10  C   UNL A   1      34.411  23.703  24.045  1.00  0.00     0.184 C 
ATOM     11  N   UNL A   1      32.056  23.999  23.138  1.00  0.00    -0.327 N 
ATOM     12  C   UNL A   1      31.986  22.546  22.997  1.00  0.00     0.291 C 
ATOM     13  C   UNL A   1      33.454  24.460  23.065  1.00  0.00     0.295 C 
ATOM     14  H   UNL A   1      31.609  24.406  22.316  1.00  0.00     0.348 HD
ATOM     15  C   UNL A   1      33.032  21.746  23.806  1.00  0.00     0.222 C 
ATOM     16  O   UNL A   1      34.358  22.296  23.756  1.00  0.00    -0.366 OA
BRANCH  11  17
ATOM     17  C   UNL A   1      31.043  24.715  23.948  1.00  0.00     0.299 C 
BRANCH  17  18
ATOM     18  C   UNL A   1      30.371  26.006  23.460  1.00  0.00     0.006 A 
ATOM     19  C   UNL A   1      29.255  28.638  22.959  1.00  0.00    -0.043 A 
ATOM     20  C   UNL A   1      28.479  27.575  23.460  1.00  0.00     0.005 A 
ATOM     21  C   UNL A   1      30.566  28.300  22.574  1.00  0.00     0.005 A 
ATOM     22  C   UNL A   1      29.015  26.283  23.680  1.00  0.00     0.010 A 
ATOM     23  C   UNL A   1      31.114  27.018  22.823  1.00  0.00     0.010 A 
BRANCH  19  24
ATOM     24  C   UNL A   1      28.747  30.107  22.910  1.00  0.00    -0.013 C 
ATOM     25  C   UNL A   1      28.811  30.715  21.484  1.00  0.00     0.016 C 
ATOM     26  C   UNL A   1      29.524  31.022  23.862  1.00  0.00     0.016 C 
ATOM     27  C   UNL A   1      27.279  30.239  23.363  1.00  0.00     0.016 C 
ENDBRANCH  19  24
ENDBRANCH  17  18
ENDBRANCH  11  17
ENDBRANCH   9  10
ENDBRANCH   7   9
ENDBRANCH   6   7
ENDBRANCH   5   6
ENDBRANCH   4   5
ENDBRANCH   3   4
ENDBRANCH   2   3
ENDBRANCH   1   2
BRANCH   1  28
ATOM     28  O   UNL A   1      34.203  32.542  27.429  1.00  0.00    -0.377 OA
BRANCH  28  29
ATOM     29  C   UNL A   1      33.895  33.516  28.427  1.00  0.00     0.188 C 
BRANCH  29  30
ATOM     30  C   UNL A   1      34.417  33.275  29.856  1.00  0.00     0.188 C 
BRANCH  30  31
ATOM     31  O   UNL A   1      34.919  34.447  30.456  1.00  0.00    -0.376 OA
BRANCH  31  32
ATOM     32  C   UNL A   1      34.702  34.598  31.846  1.00  0.00     0.202 C 
BRANCH  32  33
ATOM     33  C   UNL A   1      34.309  33.383  32.713  1.00  0.00     0.261 C 
BRANCH  33  34
ATOM     34  O   UNL A   1      35.334  32.484  33.198  1.00  0.00    -0.460 OA
BRANCH  34  35
ATOM     35  C   UNL A   1      36.643  32.806  33.096  1.00  0.00     0.338 C 
ATOM     36  O   UNL A   1      37.229  33.667  33.711  1.00  0.00    -0.246 OA
BRANCH  35  37
ATOM     37  C   UNL A   1      37.322  31.758  32.268  1.00  0.00     0.060 A 
ATOM     38  C   UNL A   1      38.194  30.850  32.894  1.00  0.00     0.016 A 
ATOM     39  C   UNL A   1      37.140  31.696  30.885  1.00  0.00     0.016 A 
ATOM     40  C   UNL A   1      38.957  29.956  32.138  1.00  0.00     0.010 A 
ATOM     41  C   UNL A   1      37.933  30.825  30.120  1.00  0.00     0.010 A 
ATOM     42  C   UNL A   1      38.901  30.009  30.741  1.00  0.00    -0.014 A 
BRANCH  42  43
ATOM     43  C   UNL A   1      40.080  29.527  29.968  1.00  0.00     0.031 A 
ATOM     44  C   UNL A   1      41.213  30.506  29.765  1.00  0.00     0.074 A 
ATOM     45  C   UNL A   1      40.204  28.263  29.526  1.00  0.00     0.049 A 
ATOM     46  N   UNL A   1      42.340  30.366  29.113  1.00  0.00    -0.248 NA
ATOM     47  C   UNL A   1      41.046  31.830  30.388  1.00  0.00     0.031 C 
ATOM     48  C   UNL A   1      39.224  27.198  29.714  1.00  0.00     0.029 A 
ATOM     49  N   UNL A   1      41.220  27.667  28.817  1.00  0.00    -0.354 N 
ATOM     50  C   UNL A   1      42.999  31.584  29.238  1.00  0.00     0.074 A 
ATOM     51  C   UNL A   1      42.137  32.462  29.993  1.00  0.00     0.031 C 
ATOM     52  C   UNL A   1      39.682  26.077  29.124  1.00  0.00     0.029 A 
ATOM     53  C   UNL A   1      40.971  26.357  28.489  1.00  0.00     0.049 A 
ATOM     54  H   UNL A   1      42.049  28.136  28.569  1.00  0.00     0.167 HD
ATOM     55  C   UNL A   1      44.221  31.940  28.777  1.00  0.00     0.037 A 
ATOM     56  C   UNL A   1      41.693  25.495  27.744  1.00  0.00     0.037 A 
ATOM     57  C   UNL A   1      45.086  31.069  28.030  1.00  0.00     0.049 A 
ATOM     58  C   UNL A   1      43.017  25.940  27.167  1.00  0.00     0.074 A 
ATOM     59  C   UNL A   1      46.343  31.332  27.517  1.00  0.00     0.029 A 
ATOM     60  N   UNL A   1      44.776  29.762  27.686  1.00  0.00    -0.354 N 
ATOM     61  N   UNL A   1      43.636  27.089  27.292  1.00  0.00    -0.248 NA
ATOM     62  C   UNL A   1      43.749  24.959  26.350  1.00  0.00     0.031 C 
ATOM     63  C   UNL A   1      46.768  30.205  26.808  1.00  0.00     0.029 A 
ATOM     64  C   UNL A   1      45.810  29.213  26.945  1.00  0.00     0.049 A 
ATOM     65  H   UNL A   1      43.946  29.294  27.931  1.00  0.00     0.167 HD
ATOM     66  C   UNL A   1      44.841  26.956  26.610  1.00  0.00     0.074 A 
ATOM     67  C   UNL A   1      44.872  25.609  26.081  1.00  0.00     0.031 C 
ATOM     68  C   UNL A   1      45.836  27.863  26.442  1.00  0.00     0.037 A 
BRANCH  55  69
ATOM     69  C   UNL A   1      44.675  33.350  29.036  1.00  0.00     0.064 A 
ATOM     70  C   UNL A   1      44.379  34.400  28.152  1.00  0.00     0.173 A 
ATOM     71  C   UNL A   1      45.405  33.656  30.194  1.00  0.00     0.173 A 
ATOM     72  F   UNL A   1      43.701  34.160  27.020  1.00  0.00    -0.203 F 
ATOM     73  C   UNL A   1      44.823  35.695  28.404  1.00  0.00     0.198 A 
ATOM     74  C   UNL A   1      45.816  34.959  30.461  1.00  0.00     0.198 A 
ATOM     75  F   UNL A   1      45.715  32.692  31.073  1.00  0.00    -0.203 F 
ATOM     76  F   UNL A   1      44.579  36.671  27.517  1.00  0.00    -0.200 F 
ATOM     77  C   UNL A   1      45.534  35.975  29.561  1.00  0.00     0.200 A 
ATOM     78  F   UNL A   1      46.489  35.229  31.587  1.00  0.00    -0.200 F 
ATOM     79  F   UNL A   1      45.954  37.224  29.807  1.00  0.00    -0.200 F 
ENDBRANCH  55  69
BRANCH  56  80
ATOM     80  C   UNL A   1      41.184  24.120  27.480  1.00  0.00     0.064 A 
ATOM     81  C   UNL A   1      41.801  22.993  28.042  1.00  0.00     0.173 A 
ATOM     82  C   UNL A   1      40.094  23.902  26.624  1.00  0.00     0.173 A 
ATOM     83  F   UNL A   1      42.866  23.144  28.844  1.00  0.00    -0.203 F 
ATOM     84  C   UNL A   1      41.365  21.704  27.740  1.00  0.00     0.198 A 
ATOM     85  C   UNL A   1      39.637  22.614  26.349  1.00  0.00     0.198 A 
ATOM     86  F   UNL A   1      39.470  24.941  26.052  1.00  0.00    -0.203 F 
ATOM     87  F   UNL A   1      42.011  20.644  28.245  1.00  0.00    -0.200 F 
ATOM     88  C   UNL A   1      40.280  21.516  26.898  1.00  0.00     0.200 A 
ATOM     89  F   UNL A   1      38.580  22.438  25.544  1.00  0.00    -0.200 F 
ATOM     90  F   UNL A   1      39.860  20.276  26.609  1.00  0.00    -0.200 F 
ENDBRANCH  56  80
BRANCH  68  91
ATOM     91  C   UNL A   1      47.074  27.415  25.714  1.00  0.00     0.064 A 
ATOM     92  C   UNL A   1      47.257  27.641  24.342  1.00  0.00     0.173 A 
ATOM     93  C   UNL A   1      48.112  26.781  26.416  1.00  0.00     0.173 A 
ATOM     94  F   UNL A   1      46.295  28.235  23.620  1.00  0.00    -0.203 F 
ATOM     95  C   UNL A   1      48.415  27.215  23.694  1.00  0.00     0.198 A 
ATOM     96  C   UNL A   1      49.284  26.392  25.773  1.00  0.00     0.198 A 
ATOM     97  F   UNL A   1      47.997  26.552  27.733  1.00  0.00    -0.203 F 
ATOM     98  F   UNL A   1      48.541  27.387  22.371  1.00  0.00    -0.200 F 
ATOM     99  C   UNL A   1      49.430  26.598  24.411  1.00  0.00     0.200 A 
ATOM    100  F   UNL A   1      50.271  25.816  26.473  1.00  0.00    -0.200 F 
ATOM    101  F   UNL A   1      50.545  26.195  23.787  1.00  0.00    -0.200 F 
ENDBRANCH  68  91
ENDBRANCH  42  43
ENDBRANCH  35  37
ENDBRANCH  34  35
ENDBRANCH  33  34
ENDBRANCH  32  33
ENDBRANCH  31  32
ENDBRANCH  30  31
ENDBRANCH  29  30
ENDBRANCH  28  29
ENDBRANCH   1  28
TORSDOF 24
ENDMDL
MODEL 2
REMARK VINA RESULT:     -10.4      4.880      7.396
REMARK SMILES CC(C)(C)c1ccc(C[N@@H+]2CCO[C@H](CC(=O)OCCOCCOCCOCCOC(=O)c3ccc(-c4c5nc(c(-c6c(F)c(F)c(F)c(F)c6F)c6ccc([nH]6)c(-c6c(F)c(F)c(F)c(F)c6F)c6nc(c(-c7c(F)c(F)c(F)c(F)c7F)c7ccc4[nH]7)C=C6)C=C5)cc3)C2)cc1
REMARK SMILES IDX 23 1 22 2 21 3 20 4 19 5 18 6 16 7 17 8 15 9 14 10 10 11
REMARK SMILES IDX 11 12 96 13 12 15 13 16 9 17 8 18 5 19 6 20 98 21 7 22 97 23
REMARK SMILES IDX 2 24 1 25 3 26 4 27 24 28 25 29 26 30 27 31 28 32 29 33
REMARK SMILES IDX 30 34 31 35 32 36 33 37 34 38 95 39 35 40 94 41 36 42 37 43
REMARK SMILES IDX 38 44 88 45 39 46 93 47 87 48 89 49 40 50 92 51 86 52 85 53
REMARK SMILES IDX 41 55 73 56 53 57 72 58 54 59 57 60 71 61 90 62 55 63 56 64
REMARK SMILES IDX 70 66 91 67 58 68 42 69 43 70 51 71 44 72 45 73 49 74 52 75
REMARK SMILES IDX 46 76 47 77 50 78 48 79 74 80 75 81 83 82 76 83 77 84 81 85
REMARK SMILES IDX 84 86 78 87 79 88 82 89 80 90 59 91 60 92 68 93 61 94 62 95
REMARK SMILES IDX 66 96 69 97 63 98 64 99 67 100 65 101
REMARK H PARENT 10 14 89 54 57 65
REMARK Flexibility Score: inf
ROOT
ATOM      1  C   UNL A   1      34.108  30.451  27.191  1.00  0.00     0.188 C 
ENDROOT
BRANCH   1   2
ATOM      2  C   UNL A   1      32.744  29.733  27.236  1.00  0.00     0.188 C 
BRANCH   2   3
ATOM      3  O   UNL A   1      32.810  28.318  27.252  1.00  0.00    -0.376 OA
BRANCH   3   4
ATOM      4  C   UNL A   1      33.630  27.562  26.391  1.00  0.00     0.202 C 
BRANCH   4   5
ATOM      5  C   UNL A   1      33.288  26.139  25.850  1.00  0.00     0.261 C 
BRANCH   5   6
ATOM      6  O   UNL A   1      34.096  24.987  26.117  1.00  0.00    -0.463 OA
BRANCH   6   7
ATOM      7  C   UNL A   1      34.649  24.415  25.045  1.00  0.00     0.308 C 
ATOM      8  O   UNL A   1      35.669  23.737  25.071  1.00  0.00    -0.252 OA
BRANCH   7   9
ATOM      9  C   UNL A   1      34.109  24.773  23.726  1.00  0.00     0.160 C 
BRANCH   9  10
ATOM     10  C   UNL A   1      33.633  23.921  22.586  1.00  0.00     0.184 C 
ATOM     11  N   UNL A   1      31.259  24.750  22.956  1.00  0.00    -0.327 N 
ATOM     12  C   UNL A   1      30.935  23.424  23.476  1.00  0.00     0.291 C 
ATOM     13  C   UNL A   1      32.388  24.674  22.010  1.00  0.00     0.295 C 
ATOM     14  H   UNL A   1      30.470  25.055  22.387  1.00  0.00     0.348 HD
ATOM     15  C   UNL A   1      32.145  22.557  23.894  1.00  0.00     0.222 C 
ATOM     16  O   UNL A   1      33.240  22.592  22.965  1.00  0.00    -0.366 OA
BRANCH  11  17
ATOM     17  C   UNL A   1      31.025  25.952  23.791  1.00  0.00     0.299 C 
BRANCH  17  18
ATOM     18  C   UNL A   1      30.279  27.183  23.258  1.00  0.00     0.006 A 
ATOM     19  C   UNL A   1      28.977  29.712  22.682  1.00  0.00    -0.043 A 
ATOM     20  C   UNL A   1      28.263  28.583  23.126  1.00  0.00     0.005 A 
ATOM     21  C   UNL A   1      30.336  29.491  22.388  1.00  0.00     0.005 A 
ATOM     22  C   UNL A   1      28.892  27.340  23.382  1.00  0.00     0.010 A 
ATOM     23  C   UNL A   1      30.974  28.259  22.675  1.00  0.00     0.010 A 
BRANCH  19  24
ATOM     24  C   UNL A   1      28.348  31.132  22.598  1.00  0.00    -0.013 C 
ATOM     25  C   UNL A   1      27.284  31.380  23.700  1.00  0.00     0.016 C 
ATOM     26  C   UNL A   1      27.704  31.401  21.233  1.00  0.00     0.016 C 
ATOM     27  C   UNL A   1      29.395  32.252  22.756  1.00  0.00     0.016 C 
ENDBRANCH  19  24
ENDBRANCH  17  18
ENDBRANCH  11  17
ENDBRANCH   9  10
ENDBRANCH   7   9
ENDBRANCH   6   7
ENDBRANCH   5   6
ENDBRANCH   4   5
ENDBRANCH   3   4
ENDBRANCH   2   3
ENDBRANCH   1   2
BRANCH   1  28
ATOM     28  O   UNL A   1      34.492  31.249  28.307  1.00  0.00    -0.377 OA
BRANCH  28  29
ATOM     29  C   UNL A   1      35.394  32.337  28.099  1.00  0.00     0.188 C 
BRANCH  29  30
ATOM     30  C   UNL A   1      35.570  33.356  29.240  1.00  0.00     0.188 C 
BRANCH  30  31
ATOM     31  O   UNL A   1      35.531  34.690  28.787  1.00  0.00    -0.376 OA
BRANCH  31  32
ATOM     32  C   UNL A   1      34.346  35.111  28.139  1.00  0.00     0.202 C 
BRANCH  32  33
ATOM     33  C   UNL A   1      33.097  35.494  28.961  1.00  0.00     0.261 C 
BRANCH  33  34
ATOM     34  O   UNL A   1      32.858  34.864  30.241  1.00  0.00    -0.460 OA
BRANCH  34  35
ATOM     35  C   UNL A   1      32.900  35.582  31.386  1.00  0.00     0.338 C 
ATOM     36  O   UNL A   1      32.124  36.442  31.732  1.00  0.00    -0.246 OA
BRANCH  35  37
ATOM     37  C   UNL A   1      33.934  34.975  32.284  1.00  0.00     0.060 A 
ATOM     38  C   UNL A   1      35.132  35.672  32.519  1.00  0.00     0.016 A 
ATOM     39  C   UNL A   1      33.749  33.714  32.855  1.00  0.00     0.016 A 
ATOM     40  C   UNL A   1      36.178  35.077  33.229  1.00  0.00     0.010 A 
ATOM     41  C   UNL A   1      34.812  33.099  33.536  1.00  0.00     0.010 A 
ATOM     42  C   UNL A   1      36.056  33.750  33.655  1.00  0.00    -0.014 A 
BRANCH  42  43
ATOM     43  C   UNL A   1      37.301  32.955  33.851  1.00  0.00     0.031 A 
ATOM     44  C   UNL A   1      38.079  33.200  35.122  1.00  0.00     0.074 A 
ATOM     45  C   UNL A   1      37.703  31.995  32.998  1.00  0.00     0.049 A 
ATOM     46  N   UNL A   1      39.204  32.673  35.536  1.00  0.00    -0.248 NA
ATOM     47  C   UNL A   1      37.501  34.182  36.057  1.00  0.00     0.031 C 
ATOM     48  C   UNL A   1      37.012  31.603  31.774  1.00  0.00     0.029 A 
ATOM     49  N   UNL A   1      38.806  31.175  33.042  1.00  0.00    -0.354 N 
ATOM     50  C   UNL A   1      39.469  33.271  36.764  1.00  0.00     0.074 A 
ATOM     51  C   UNL A   1      38.413  34.224  37.013  1.00  0.00     0.031 C 
ATOM     52  C   UNL A   1      37.714  30.624  31.174  1.00  0.00     0.029 A 
ATOM     53  C   UNL A   1      38.920  30.344  31.955  1.00  0.00     0.049 A 
ATOM     54  H   UNL A   1      39.453  31.184  33.783  1.00  0.00     0.167 HD
ATOM     55  C   UNL A   1      40.493  33.040  37.618  1.00  0.00     0.037 A 
ATOM     56  C   UNL A   1      39.898  29.476  31.623  1.00  0.00     0.037 A 
ATOM     57  C   UNL A   1      41.544  32.090  37.378  1.00  0.00     0.049 A 
ATOM     58  C   UNL A   1      41.077  29.295  32.552  1.00  0.00     0.074 A 
ATOM     59  C   UNL A   1      42.628  31.781  38.179  1.00  0.00     0.029 A 
ATOM     60  N   UNL A   1      41.642  31.297  36.244  1.00  0.00    -0.354 N 
ATOM     61  N   UNL A   1      41.319  29.859  33.710  1.00  0.00    -0.248 NA
ATOM     62  C   UNL A   1      42.118  28.346  32.125  1.00  0.00     0.031 C 
ATOM     63  C   UNL A   1      43.416  30.846  37.502  1.00  0.00     0.029 A 
ATOM     64  C   UNL A   1      42.783  30.515  36.314  1.00  0.00     0.049 A 
ATOM     65  H   UNL A   1      40.997  31.291  35.501  1.00  0.00     0.167 HD
ATOM     66  C   UNL A   1      42.510  29.304  34.169  1.00  0.00     0.074 A 
ATOM     67  C   UNL A   1      42.937  28.351  33.167  1.00  0.00     0.031 C 
ATOM     68  C   UNL A   1      43.186  29.556  35.318  1.00  0.00     0.037 A 
BRANCH  55  69
ATOM     69  C   UNL A   1      40.545  33.863  38.875  1.00  0.00     0.064 A 
ATOM     70  C   UNL A   1      41.288  35.052  38.955  1.00  0.00     0.173 A 
ATOM     71  C   UNL A   1      39.827  33.462  40.012  1.00  0.00     0.173 A 
ATOM     72  F   UNL A   1      42.009  35.471  37.904  1.00  0.00    -0.203 F 
ATOM     73  C   UNL A   1      41.335  35.790  40.135  1.00  0.00     0.198 A 
ATOM     74  C   UNL A   1      39.848  34.222  41.179  1.00  0.00     0.198 A 
ATOM     75  F   UNL A   1      39.101  32.336  39.991  1.00  0.00    -0.203 F 
ATOM     76  F   UNL A   1      42.098  36.890  40.207  1.00  0.00    -0.200 F 
ATOM     77  C   UNL A   1      40.609  35.379  41.243  1.00  0.00     0.200 A 
ATOM     78  F   UNL A   1      39.133  33.831  42.242  1.00  0.00    -0.200 F 
ATOM     79  F   UNL A   1      40.647  36.095  42.376  1.00  0.00    -0.200 F 
ENDBRANCH  55  69
BRANCH  56  80
ATOM     80  C   UNL A   1      39.823  28.712  30.347  1.00  0.00     0.064 A 
ATOM     81  C   UNL A   1      39.277  27.421  30.300  1.00  0.00     0.173 A 
ATOM     82  C   UNL A   1      40.338  29.241  29.153  1.00  0.00     0.173 A 
ATOM     83  F   UNL A   1      38.800  26.856  31.419  1.00  0.00    -0.203 F 
ATOM     84  C   UNL A   1      39.271  26.681  29.118  1.00  0.00     0.198 A 
ATOM     85  C   UNL A   1      40.299  28.514  27.964  1.00  0.00     0.198 A 
ATOM     86  F   UNL A   1      40.878  30.467  29.140  1.00  0.00    -0.203 F 
ATOM     87  F   UNL A   1      38.796  25.428  29.117  1.00  0.00    -0.200 F 
ATOM     88  C   UNL A   1      39.776  27.230  27.951  1.00  0.00     0.200 A 
ATOM     89  F   UNL A   1      40.779  29.054  26.835  1.00  0.00    -0.200 F 
ATOM     90  F   UNL A   1      39.768  26.519  26.814  1.00  0.00    -0.200 F 
ENDBRANCH  56  80
BRANCH  68  91
ATOM     91  C   UNL A   1      44.421  28.743  35.593  1.00  0.00     0.064 A 
ATOM     92  C   UNL A   1      45.697  29.164  35.189  1.00  0.00     0.173 A 
ATOM     93  C   UNL A   1      44.327  27.538  36.309  1.00  0.00     0.173 A 
ATOM     94  F   UNL A   1      45.846  30.302  34.495  1.00  0.00    -0.203 F 
ATOM     95  C   UNL A   1      46.825  28.391  35.459  1.00  0.00     0.198 A 
ATOM     96  C   UNL A   1      45.460  26.789  36.610  1.00  0.00     0.198 A 
ATOM     97  F   UNL A   1      43.134  27.095  36.733  1.00  0.00    -0.203 F 
ATOM     98  F   UNL A   1      48.025  28.783  35.009  1.00  0.00    -0.200 F 
ATOM     99  C   UNL A   1      46.707  27.209  36.174  1.00  0.00     0.200 A 
ATOM    100  F   UNL A   1      45.345  25.658  37.321  1.00  0.00    -0.200 F 
ATOM    101  F   UNL A   1      47.794  26.471  36.438  1.00  0.00    -0.200 F 
ENDBRANCH  68  91
ENDBRANCH  42  43
ENDBRANCH  35  37
ENDBRANCH  34  35
ENDBRANCH  33  34
ENDBRANCH  32  33
ENDBRANCH  31  32
ENDBRANCH  30  31
ENDBRANCH  29  30
ENDBRANCH  28  29
ENDBRANCH   1  28
TORSDOF 24
ENDMDL
MODEL 3
REMARK VINA RESULT:     -10.0      4.595     10.073
REMARK SMILES CC(C)(C)c1ccc(C[N@@H+]2CCO[C@H](CC(=O)OCCOCCOCCOCCOC(=O)c3ccc(-c4c5nc(c(-c6c(F)c(F)c(F)c(F)c6F)c6ccc([nH]6)c(-c6c(F)c(F)c(F)c(F)c6F)c6nc(c(-c7c(F)c(F)c(F)c(F)c7F)c7ccc4[nH]7)C=C6)C=C5)cc3)C2)cc1
REMARK SMILES IDX 23 1 22 2 21 3 20 4 19 5 18 6 16 7 17 8 15 9 14 10 10 11
REMARK SMILES IDX 11 12 96 13 12 15 13 16 9 17 8 18 5 19 6 20 98 21 7 22 97 23
REMARK SMILES IDX 2 24 1 25 3 26 4 27 24 28 25 29 26 30 27 31 28 32 29 33
REMARK SMILES IDX 30 34 31 35 32 36 33 37 34 38 95 39 35 40 94 41 36 42 37 43
REMARK SMILES IDX 38 44 88 45 39 46 93 47 87 48 89 49 40 50 92 51 86 52 85 53
REMARK SMILES IDX 41 55 73 56 53 57 72 58 54 59 57 60 71 61 90 62 55 63 56 64
REMARK SMILES IDX 70 66 91 67 58 68 42 69 43 70 51 71 44 72 45 73 49 74 52 75
REMARK SMILES IDX 46 76 47 77 50 78 48 79 74 80 75 81 83 82 76 83 77 84 81 85
REMARK SMILES IDX 84 86 78 87 79 88 82 89 80 90 59 91 60 92 68 93 61 94 62 95
REMARK SMILES IDX 66 96 69 97 63 98 64 99 67 100 65 101
REMARK H PARENT 10 14 89 54 57 65
REMARK Flexibility Score: inf
ROOT
ATOM      1  C   UNL A   1      30.766  29.184  23.022  1.00  0.00     0.188 C 
ENDROOT
BRANCH   1   2
ATOM      2  C   UNL A   1      30.227  27.847  22.474  1.00  0.00     0.188 C 
BRANCH   2   3
ATOM      3  O   UNL A   1      29.654  26.988  23.444  1.00  0.00    -0.376 OA
BRANCH   3   4
ATOM      4  C   UNL A   1      30.265  25.801  23.899  1.00  0.00     0.202 C 
BRANCH   4   5
ATOM      5  C   UNL A   1      31.256  24.929  23.067  1.00  0.00     0.261 C 
BRANCH   5   6
ATOM      6  O   UNL A   1      32.668  24.914  23.300  1.00  0.00    -0.463 OA
BRANCH   6   7
ATOM      7  C   UNL A   1      33.299  23.801  22.920  1.00  0.00     0.308 C 
ATOM      8  O   UNL A   1      33.653  23.563  21.772  1.00  0.00    -0.252 OA
BRANCH   7   9
ATOM      9  C   UNL A   1      33.411  22.712  23.902  1.00  0.00     0.160 C 
BRANCH   9  10
ATOM     10  C   UNL A   1      32.971  22.618  25.333  1.00  0.00     0.184 C 
ATOM     11  N   UNL A   1      34.648  20.751  25.729  1.00  0.00    -0.327 N 
ATOM     12  C   UNL A   1      33.519  19.826  25.804  1.00  0.00     0.291 C 
ATOM     13  C   UNL A   1      34.230  22.112  26.111  1.00  0.00     0.295 C 
ATOM     14  H   UNL A   1      35.315  20.476  26.450  1.00  0.00     0.348 HD
ATOM     15  C   UNL A   1      32.190  20.346  25.210  1.00  0.00     0.222 C 
ATOM     16  O   UNL A   1      31.884  21.706  25.559  1.00  0.00    -0.366 OA
BRANCH  11  17
ATOM     17  C   UNL A   1      35.732  20.518  24.745  1.00  0.00     0.299 C 
BRANCH  17  18
ATOM     18  C   UNL A   1      37.208  20.770  25.082  1.00  0.00     0.006 A 
ATOM     19  C   UNL A   1      39.877  21.107  26.171  1.00  0.00    -0.043 A 
ATOM     20  C   UNL A   1      38.986  22.187  26.015  1.00  0.00     0.005 A 
ATOM     21  C   UNL A   1      39.446  19.885  25.624  1.00  0.00     0.005 A 
ATOM     22  C   UNL A   1      37.693  22.030  25.459  1.00  0.00     0.010 A 
ATOM     23  C   UNL A   1      38.141  19.717  25.098  1.00  0.00     0.010 A 
BRANCH  19  24
ATOM     24  C   UNL A   1      41.209  21.218  26.966  1.00  0.00    -0.013 C 
ATOM     25  C   UNL A   1      41.686  19.852  27.526  1.00  0.00     0.016 C 
ATOM     26  C   UNL A   1      41.109  22.210  28.130  1.00  0.00     0.016 C 
ATOM     27  C   UNL A   1      42.368  21.753  26.104  1.00  0.00     0.016 C 
ENDBRANCH  19  24
ENDBRANCH  17  18
ENDBRANCH  11  17
ENDBRANCH   9  10
ENDBRANCH   7   9
ENDBRANCH   6   7
ENDBRANCH   5   6
ENDBRANCH   4   5
ENDBRANCH   3   4
ENDBRANCH   2   3
ENDBRANCH   1   2
BRANCH   1  28
ATOM     28  O   UNL A   1      32.106  29.229  23.504  1.00  0.00    -0.377 OA
BRANCH  28  29
ATOM     29  C   UNL A   1      32.372  28.799  24.840  1.00  0.00     0.188 C 
BRANCH  29  30
ATOM     30  C   UNL A   1      33.839  28.765  25.307  1.00  0.00     0.188 C 
BRANCH  30  31
ATOM     31  O   UNL A   1      33.970  28.960  26.697  1.00  0.00    -0.376 OA
BRANCH  31  32
ATOM     32  C   UNL A   1      33.075  29.875  27.302  1.00  0.00     0.202 C 
BRANCH  32  33
ATOM     33  C   UNL A   1      33.196  31.388  27.025  1.00  0.00     0.261 C 
BRANCH  33  34
ATOM     34  O   UNL A   1      33.265  32.318  28.131  1.00  0.00    -0.460 OA
BRANCH  34  35
ATOM     35  C   UNL A   1      34.046  33.420  28.063  1.00  0.00     0.338 C 
ATOM     36  O   UNL A   1      33.890  34.376  27.338  1.00  0.00    -0.246 OA
BRANCH  35  37
ATOM     37  C   UNL A   1      35.013  33.383  29.206  1.00  0.00     0.060 A 
ATOM     38  C   UNL A   1      36.303  33.914  29.029  1.00  0.00     0.016 A 
ATOM     39  C   UNL A   1      34.672  32.795  30.426  1.00  0.00     0.016 A 
ATOM     40  C   UNL A   1      37.278  33.767  30.020  1.00  0.00     0.010 A 
ATOM     41  C   UNL A   1      35.660  32.613  31.407  1.00  0.00     0.010 A 
ATOM     42  C   UNL A   1      36.986  33.029  31.172  1.00  0.00    -0.014 A 
BRANCH  42  43
ATOM     43  C   UNL A   1      38.113  32.381  31.899  1.00  0.00     0.031 A 
ATOM     44  C   UNL A   1      38.777  31.203  31.226  1.00  0.00     0.074 A 
ATOM     45  C   UNL A   1      38.600  32.844  33.064  1.00  0.00     0.049 A 
ATOM     46  N   UNL A   1      39.755  30.438  31.641  1.00  0.00    -0.248 NA
ATOM     47  C   UNL A   1      38.258  30.839  29.896  1.00  0.00     0.031 C 
ATOM     48  C   UNL A   1      38.107  34.012  33.787  1.00  0.00     0.029 A 
ATOM     49  N   UNL A   1      39.629  32.373  33.846  1.00  0.00    -0.354 N 
ATOM     50  C   UNL A   1      39.952  29.501  30.631  1.00  0.00     0.074 A 
ATOM     51  C   UNL A   1      38.973  29.767  29.603  1.00  0.00     0.031 C 
ATOM     52  C   UNL A   1      38.826  34.161  34.916  1.00  0.00     0.029 A 
ATOM     53  C   UNL A   1      39.809  33.080  35.009  1.00  0.00     0.049 A 
ATOM     54  H   UNL A   1      40.186  31.601  33.593  1.00  0.00     0.167 HD
ATOM     55  C   UNL A   1      40.875  28.513  30.556  1.00  0.00     0.037 A 
ATOM     56  C   UNL A   1      40.654  32.861  36.038  1.00  0.00     0.037 A 
ATOM     57  C   UNL A   1      41.855  28.247  31.573  1.00  0.00     0.049 A 
ATOM     58  C   UNL A   1      41.620  31.701  35.971  1.00  0.00     0.074 A 
ATOM     59  C   UNL A   1      42.833  27.271  31.595  1.00  0.00     0.029 A 
ATOM     60  N   UNL A   1      41.975  28.963  32.755  1.00  0.00    -0.354 N 
ATOM     61  N   UNL A   1      41.804  30.823  35.015  1.00  0.00    -0.248 NA
ATOM     62  C   UNL A   1      42.504  31.506  37.132  1.00  0.00     0.031 C 
ATOM     63  C   UNL A   1      43.506  27.355  32.817  1.00  0.00     0.029 A 
ATOM     64  C   UNL A   1      42.998  28.434  33.524  1.00  0.00     0.049 A 
ATOM     65  H   UNL A   1      41.417  29.733  33.009  1.00  0.00     0.167 HD
ATOM     66  C   UNL A   1      42.847  30.005  35.436  1.00  0.00     0.074 A 
ATOM     67  C   UNL A   1      43.264  30.497  36.732  1.00  0.00     0.031 C 
ATOM     68  C   UNL A   1      43.414  28.946  34.804  1.00  0.00     0.037 A 
BRANCH  55  69
ATOM     69  C   UNL A   1      40.837  27.621  29.347  1.00  0.00     0.064 A 
ATOM     70  C   UNL A   1      41.757  27.753  28.295  1.00  0.00     0.173 A 
ATOM     71  C   UNL A   1      39.872  26.607  29.248  1.00  0.00     0.173 A 
ATOM     72  F   UNL A   1      42.688  28.719  28.329  1.00  0.00    -0.203 F 
ATOM     73  C   UNL A   1      41.693  26.925  27.178  1.00  0.00     0.198 A 
ATOM     74  C   UNL A   1      39.834  25.757  28.146  1.00  0.00     0.198 A 
ATOM     75  F   UNL A   1      38.969  26.435  30.224  1.00  0.00    -0.203 F 
ATOM     76  F   UNL A   1      42.545  27.109  26.159  1.00  0.00    -0.200 F 
ATOM     77  C   UNL A   1      40.737  25.923  27.108  1.00  0.00     0.200 A 
ATOM     78  F   UNL A   1      38.919  24.781  28.088  1.00  0.00    -0.200 F 
ATOM     79  F   UNL A   1      40.681  25.121  26.035  1.00  0.00    -0.200 F 
ENDBRANCH  55  69
BRANCH  56  80
ATOM     80  C   UNL A   1      40.627  33.749  37.234  1.00  0.00     0.064 A 
ATOM     81  C   UNL A   1      39.747  33.509  38.299  1.00  0.00     0.173 A 
ATOM     82  C   UNL A   1      41.450  34.881  37.316  1.00  0.00     0.173 A 
ATOM     83  F   UNL A   1      38.916  32.457  38.257  1.00  0.00    -0.203 F 
ATOM     84  C   UNL A   1      39.675  34.380  39.387  1.00  0.00     0.198 A 
ATOM     85  C   UNL A   1      41.402  35.732  38.420  1.00  0.00     0.198 A 
ATOM     86  F   UNL A   1      42.306  35.164  36.324  1.00  0.00    -0.203 F 
ATOM     87  F   UNL A   1      38.783  34.158  40.362  1.00  0.00    -0.200 F 
ATOM     88  C   UNL A   1      40.506  35.486  39.448  1.00  0.00     0.200 A 
ATOM     89  F   UNL A   1      42.216  36.795  38.480  1.00  0.00    -0.200 F 
ATOM     90  F   UNL A   1      40.438  36.322  40.494  1.00  0.00    -0.200 F 
ENDBRANCH  56  80
BRANCH  68  91
ATOM     91  C   UNL A   1      44.592  28.286  35.468  1.00  0.00     0.064 A 
ATOM     92  C   UNL A   1      44.439  27.241  36.391  1.00  0.00     0.173 A 
ATOM     93  C   UNL A   1      45.899  28.686  35.143  1.00  0.00     0.173 A 
ATOM     94  F   UNL A   1      43.215  26.824  36.746  1.00  0.00    -0.203 F 
ATOM     95  C   UNL A   1      45.549  26.647  36.990  1.00  0.00     0.198 A 
ATOM     96  C   UNL A   1      47.005  28.064  35.715  1.00  0.00     0.198 A 
ATOM     97  F   UNL A   1      46.104  29.671  34.256  1.00  0.00    -0.203 F 
ATOM     98  F   UNL A   1      45.376  25.692  37.915  1.00  0.00    -0.200 F 
ATOM     99  C   UNL A   1      46.829  27.054  36.647  1.00  0.00     0.200 A 
ATOM    100  F   UNL A   1      48.241  28.444  35.364  1.00  0.00    -0.200 F 
ATOM    101  F   UNL A   1      47.895  26.477  37.220  1.00  0.00    -0.200 F 
ENDBRANCH  68  91
ENDBRANCH  42  43
ENDBRANCH  35  37
ENDBRANCH  34  35
ENDBRANCH  33  34
ENDBRANCH  32  33
ENDBRANCH  31  32
ENDBRANCH  30  31
ENDBRANCH  29  30
ENDBRANCH  28  29
ENDBRANCH   1  28
TORSDOF 24
ENDMDL
