MODEL 1
REMARK VINA RESULT:      -9.4      0.000      0.000
REMARK SMILES C[C@H](Sc1ccccn1)C(=O)N[C@H](C(=O)OCCOCCOCCOCCOC(=O)c1ccc(-c2c3nc(c(-c4c(F)c(F)c(F)c(F)c4F)c4ccc([nH]4)c(-c4c(F)c(F)c(F)c(F)c4F)c4nc(c(-c5c(F)c(F)c(F)c(F)c5F)c5ccc2[nH]5)C=C4)C=C3)cc1)c1ccc(F)cc1
REMARK SMILES IDX 21 1 20 2 19 3 18 4 17 5 16 6 14 7 15 8 13 9 12 10 10 11
REMARK SMILES IDX 11 12 2 14 1 15 3 16 4 17 5 18 9 19 6 20 8 21 7 22 94 23
REMARK SMILES IDX 95 24 100 25 96 26 99 27 97 28 98 29 22 30 23 31 24 32 25 33
REMARK SMILES IDX 26 34 27 35 28 36 29 37 30 38 31 39 32 40 93 41 33 42 92 43
REMARK SMILES IDX 34 44 35 45 36 46 86 47 37 48 91 49 85 50 87 51 38 52 90 53
REMARK SMILES IDX 84 54 83 55 39 57 71 58 51 59 70 60 52 61 55 62 69 63 88 64
REMARK SMILES IDX 53 65 54 66 68 68 89 69 56 70 40 71 41 72 49 73 42 74 43 75
REMARK SMILES IDX 47 76 50 77 44 78 45 79 48 80 46 81 72 82 73 83 81 84 74 85
REMARK SMILES IDX 75 86 79 87 82 88 76 89 77 90 80 91 78 92 57 93 58 94 66 95
REMARK SMILES IDX 59 96 60 97 64 98 67 99 61 100 62 101 65 102 63 103
REMARK H PARENT 12 13 87 56 55 67
REMARK Flexibility Score: inf
ROOT
ATOM      1  C   UNL A   1      35.216  29.083  27.258  1.00  0.00     0.188 C 
ENDROOT
BRANCH   1   2
ATOM      2  C   UNL A   1      33.916  28.642  26.616  1.00  0.00     0.188 C 
BRANCH   2   3
ATOM      3  O   UNL A   1      32.781  28.584  27.469  1.00  0.00    -0.376 OA
BRANCH   3   4
ATOM      4  C   UNL A   1      31.516  28.411  26.847  1.00  0.00     0.202 C 
BRANCH   4   5
ATOM      5  C   UNL A   1      31.603  27.288  25.793  1.00  0.00     0.261 C 
BRANCH   5   6
ATOM      6  O   UNL A   1      30.348  26.576  25.567  1.00  0.00    -0.461 OA
BRANCH   6   7
ATOM      7  C   UNL A   1      29.851  26.659  24.293  1.00  0.00     0.333 C 
ATOM      8  O   UNL A   1      28.834  26.063  23.943  1.00  0.00    -0.249 OA
BRANCH   7   9
ATOM      9  C   UNL A   1      30.638  27.641  23.299  1.00  0.00     0.223 C 
BRANCH   9  10
ATOM     10  N   UNL A   1      31.264  27.103  22.075  1.00  0.00    -0.338 N 
ATOM     11  C   UNL A   1      31.959  25.988  21.705  1.00  0.00     0.234 C 
ATOM     12  O   UNL A   1      32.033  25.884  20.464  1.00  0.00    -0.274 OA
ATOM     13  H   UNL A   1      31.151  27.721  21.317  1.00  0.00     0.164 HD
BRANCH  11  14
ATOM     14  C   UNL A   1      32.674  24.872  22.542  1.00  0.00     0.139 C 
ATOM     15  C   UNL A   1      32.042  23.509  22.846  1.00  0.00     0.030 C 
BRANCH  14  16
ATOM     16  S   UNL A   1      34.015  25.391  23.644  1.00  0.00    -0.093 SA
BRANCH  16  17
ATOM     17  C   UNL A   1      34.961  23.979  24.147  1.00  0.00     0.097 A 
ATOM     18  C   UNL A   1      35.183  23.574  25.451  1.00  0.00     0.035 A 
ATOM     19  N   UNL A   1      35.672  23.446  23.131  1.00  0.00    -0.250 NA
ATOM     20  C   UNL A   1      36.295  22.788  25.751  1.00  0.00     0.004 A 
ATOM     21  C   UNL A   1      36.699  22.622  23.428  1.00  0.00     0.112 A 
ATOM     22  C   UNL A   1      37.087  22.319  24.717  1.00  0.00     0.020 A 
ENDBRANCH  16  17
ENDBRANCH  14  16
ENDBRANCH  11  14
ENDBRANCH   9  10
BRANCH   9  23
ATOM     23  C   UNL A   1      29.729  28.861  23.103  1.00  0.00    -0.014 A 
ATOM     24  C   UNL A   1      28.478  28.827  22.474  1.00  0.00     0.009 A 
ATOM     25  C   UNL A   1      30.088  30.037  23.810  1.00  0.00     0.009 A 
ATOM     26  C   UNL A   1      27.589  29.902  22.624  1.00  0.00     0.039 A 
ATOM     27  C   UNL A   1      29.188  31.083  23.992  1.00  0.00     0.039 A 
ATOM     28  C   UNL A   1      27.937  31.000  23.407  1.00  0.00     0.123 A 
ATOM     29  F   UNL A   1      27.047  31.975  23.624  1.00  0.00    -0.207 F 
ENDBRANCH   9  23
ENDBRANCH   7   9
ENDBRANCH   6   7
ENDBRANCH   5   6
ENDBRANCH   4   5
ENDBRANCH   3   4
ENDBRANCH   2   3
ENDBRANCH   1   2
BRANCH   1  30
ATOM     30  O   UNL A   1      35.410  30.466  27.226  1.00  0.00    -0.377 OA
BRANCH  30  31
ATOM     31  C   UNL A   1      36.204  31.090  28.220  1.00  0.00     0.188 C 
BRANCH  31  32
ATOM     32  C   UNL A   1      35.156  31.551  29.217  1.00  0.00     0.188 C 
BRANCH  32  33
ATOM     33  O   UNL A   1      34.987  32.969  29.310  1.00  0.00    -0.376 OA
BRANCH  33  34
ATOM     34  C   UNL A   1      34.813  33.539  30.606  1.00  0.00     0.202 C 
BRANCH  34  35
ATOM     35  C   UNL A   1      36.055  33.392  31.476  1.00  0.00     0.261 C 
BRANCH  35  36
ATOM     36  O   UNL A   1      36.991  34.423  31.140  1.00  0.00    -0.460 OA
BRANCH  36  37
ATOM     37  C   UNL A   1      38.018  34.574  32.012  1.00  0.00     0.338 C 
ATOM     38  O   UNL A   1      37.983  34.552  33.221  1.00  0.00    -0.246 OA
BRANCH  37  39
ATOM     39  C   UNL A   1      39.270  34.550  31.228  1.00  0.00     0.060 A 
ATOM     40  C   UNL A   1      40.476  34.395  31.928  1.00  0.00     0.016 A 
ATOM     41  C   UNL A   1      39.258  34.647  29.835  1.00  0.00     0.016 A 
ATOM     42  C   UNL A   1      41.678  34.339  31.238  1.00  0.00     0.010 A 
ATOM     43  C   UNL A   1      40.465  34.636  29.146  1.00  0.00     0.010 A 
ATOM     44  C   UNL A   1      41.673  34.510  29.852  1.00  0.00    -0.014 A 
BRANCH  44  45
ATOM     45  C   UNL A   1      42.938  34.802  29.162  1.00  0.00     0.031 A 
ATOM     46  C   UNL A   1      43.838  33.644  28.854  1.00  0.00     0.074 A 
ATOM     47  C   UNL A   1      43.264  36.062  28.839  1.00  0.00     0.049 A 
ATOM     48  N   UNL A   1      45.050  33.641  28.372  1.00  0.00    -0.248 NA
ATOM     49  C   UNL A   1      43.294  32.303  29.135  1.00  0.00     0.031 C 
ATOM     50  C   UNL A   1      42.416  37.234  29.051  1.00  0.00     0.029 A 
ATOM     51  N   UNL A   1      44.410  36.564  28.284  1.00  0.00    -0.354 N 
ATOM     52  C   UNL A   1      45.417  32.304  28.304  1.00  0.00     0.074 A 
ATOM     53  C   UNL A   1      44.312  31.524  28.810  1.00  0.00     0.031 C 
ATOM     54  C   UNL A   1      43.089  38.330  28.659  1.00  0.00     0.029 A 
ATOM     55  C   UNL A   1      44.424  37.933  28.216  1.00  0.00     0.049 A 
ATOM     56  H   UNL A   1      45.149  35.997  27.965  1.00  0.00     0.167 HD
ATOM     57  C   UNL A   1      46.581  31.784  27.856  1.00  0.00     0.037 A 
ATOM     58  C   UNL A   1      45.430  38.762  27.877  1.00  0.00     0.037 A 
ATOM     59  C   UNL A   1      47.671  32.588  27.374  1.00  0.00     0.049 A 
ATOM     60  C   UNL A   1      46.754  38.160  27.480  1.00  0.00     0.074 A 
ATOM     61  C   UNL A   1      48.893  32.178  26.878  1.00  0.00     0.029 A 
ATOM     62  N   UNL A   1      47.668  33.976  27.349  1.00  0.00    -0.354 N 
ATOM     63  N   UNL A   1      47.095  36.896  27.383  1.00  0.00    -0.248 NA
ATOM     64  C   UNL A   1      47.836  39.098  27.154  1.00  0.00     0.031 C 
ATOM     65  C   UNL A   1      49.655  33.320  26.613  1.00  0.00     0.029 A 
ATOM     66  C   UNL A   1      48.886  34.442  26.885  1.00  0.00     0.049 A 
ATOM     67  H   UNL A   1      46.912  34.545  27.620  1.00  0.00     0.167 HD
ATOM     68  C   UNL A   1      48.420  36.886  26.969  1.00  0.00     0.074 A 
ATOM     69  C   UNL A   1      48.814  38.271  26.811  1.00  0.00     0.031 C 
ATOM     70  C   UNL A   1      49.243  35.831  26.744  1.00  0.00     0.037 A 
BRANCH  57  71
ATOM     71  C   UNL A   1      46.746  30.294  27.913  1.00  0.00     0.064 A 
ATOM     72  C   UNL A   1      47.154  29.638  29.085  1.00  0.00     0.173 A 
ATOM     73  C   UNL A   1      46.474  29.509  26.783  1.00  0.00     0.173 A 
ATOM     74  F   UNL A   1      47.449  30.344  30.188  1.00  0.00    -0.203 F 
ATOM     75  C   UNL A   1      47.303  28.254  29.116  1.00  0.00     0.198 A 
ATOM     76  C   UNL A   1      46.594  28.123  26.827  1.00  0.00     0.198 A 
ATOM     77  F   UNL A   1      46.088  30.087  25.636  1.00  0.00    -0.203 F 
ATOM     78  F   UNL A   1      47.740  27.653  30.232  1.00  0.00    -0.200 F 
ATOM     79  C   UNL A   1      47.014  27.496  27.990  1.00  0.00     0.200 A 
ATOM     80  F   UNL A   1      46.305  27.393  25.741  1.00  0.00    -0.200 F 
ATOM     81  F   UNL A   1      47.149  26.164  28.024  1.00  0.00    -0.200 F 
ENDBRANCH  57  71
BRANCH  58  82
ATOM     82  C   UNL A   1      45.236  40.234  27.939  1.00  0.00     0.064 A 
ATOM     83  C   UNL A   1      44.721  40.942  26.846  1.00  0.00     0.173 A 
ATOM     84  C   UNL A   1      45.570  40.966  29.090  1.00  0.00     0.173 A 
ATOM     85  F   UNL A   1      44.404  40.292  25.717  1.00  0.00    -0.203 F 
ATOM     86  C   UNL A   1      44.568  42.327  26.892  1.00  0.00     0.198 A 
ATOM     87  C   UNL A   1      45.386  42.346  29.146  1.00  0.00     0.198 A 
ATOM     88  F   UNL A   1      46.064  40.339  30.167  1.00  0.00    -0.203 F 
ATOM     89  F   UNL A   1      44.118  42.983  25.814  1.00  0.00    -0.200 F 
ATOM     90  C   UNL A   1      44.894  43.027  28.044  1.00  0.00     0.200 A 
ATOM     91  F   UNL A   1      45.684  43.014  30.269  1.00  0.00    -0.200 F 
ATOM     92  F   UNL A   1      44.741  44.357  28.088  1.00  0.00    -0.200 F 
ENDBRANCH  58  82
BRANCH  70  93
ATOM     93  C   UNL A   1      50.641  36.135  26.292  1.00  0.00     0.064 A 
ATOM     94  C   UNL A   1      51.705  36.213  27.204  1.00  0.00     0.173 A 
ATOM     95  C   UNL A   1      50.931  36.287  24.928  1.00  0.00     0.173 A 
ATOM     96  F   UNL A   1      51.475  36.090  28.520  1.00  0.00    -0.203 F 
ATOM     97  C   UNL A   1      53.004  36.451  26.767  1.00  0.00     0.198 A 
ATOM     98  C   UNL A   1      52.237  36.488  24.492  1.00  0.00     0.198 A 
ATOM     99  F   UNL A   1      49.950  36.211  24.015  1.00  0.00    -0.203 F 
ATOM    100  F   UNL A   1      53.998  36.566  27.658  1.00  0.00    -0.200 F 
ATOM    101  C   UNL A   1      53.270  36.577  25.411  1.00  0.00     0.200 A 
ATOM    102  F   UNL A   1      52.495  36.590  23.181  1.00  0.00    -0.200 F 
ATOM    103  F   UNL A   1      54.525  36.789  24.992  1.00  0.00    -0.200 F 
ENDBRANCH  70  93
ENDBRANCH  44  45
ENDBRANCH  37  39
ENDBRANCH  36  37
ENDBRANCH  35  36
ENDBRANCH  34  35
ENDBRANCH  33  34
ENDBRANCH  32  33
ENDBRANCH  31  32
ENDBRANCH  30  31
ENDBRANCH   1  30
TORSDOF 25
ENDMDL
MODEL 2
REMARK VINA RESULT:      -9.2      8.088     11.621
REMARK SMILES C[C@H](Sc1ccccn1)C(=O)N[C@H](C(=O)OCCOCCOCCOCCOC(=O)c1ccc(-c2c3nc(c(-c4c(F)c(F)c(F)c(F)c4F)c4ccc([nH]4)c(-c4c(F)c(F)c(F)c(F)c4F)c4nc(c(-c5c(F)c(F)c(F)c(F)c5F)c5ccc2[nH]5)C=C4)C=C3)cc1)c1ccc(F)cc1
REMARK SMILES IDX 21 1 20 2 19 3 18 4 17 5 16 6 14 7 15 8 13 9 12 10 10 11
REMARK SMILES IDX 11 12 2 14 1 15 3 16 4 17 5 18 9 19 6 20 8 21 7 22 94 23
REMARK SMILES IDX 95 24 100 25 96 26 99 27 97 28 98 29 22 30 23 31 24 32 25 33
REMARK SMILES IDX 26 34 27 35 28 36 29 37 30 38 31 39 32 40 93 41 33 42 92 43
REMARK SMILES IDX 34 44 35 45 36 46 86 47 37 48 91 49 85 50 87 51 38 52 90 53
REMARK SMILES IDX 84 54 83 55 39 57 71 58 51 59 70 60 52 61 55 62 69 63 88 64
REMARK SMILES IDX 53 65 54 66 68 68 89 69 56 70 40 71 41 72 49 73 42 74 43 75
REMARK SMILES IDX 47 76 50 77 44 78 45 79 48 80 46 81 72 82 73 83 81 84 74 85
REMARK SMILES IDX 75 86 79 87 82 88 76 89 77 90 80 91 78 92 57 93 58 94 66 95
REMARK SMILES IDX 59 96 60 97 64 98 67 99 61 100 62 101 65 102 63 103
REMARK H PARENT 12 13 87 56 55 67
REMARK Flexibility Score: inf
ROOT
ATOM      1  C   UNL A   1      35.185  29.246  27.654  1.00  0.00     0.188 C 
ENDROOT
BRANCH   1   2
ATOM      2  C   UNL A   1      34.016  29.371  26.697  1.00  0.00     0.188 C 
BRANCH   2   3
ATOM      3  O   UNL A   1      32.802  29.863  27.247  1.00  0.00    -0.376 OA
BRANCH   3   4
ATOM      4  C   UNL A   1      31.693  28.975  27.258  1.00  0.00     0.202 C 
BRANCH   4   5
ATOM      5  C   UNL A   1      32.026  27.716  26.432  1.00  0.00     0.261 C 
BRANCH   5   6
ATOM      6  O   UNL A   1      30.864  27.062  25.837  1.00  0.00    -0.461 OA
BRANCH   6   7
ATOM      7  C   UNL A   1      30.621  27.381  24.527  1.00  0.00     0.333 C 
ATOM      8  O   UNL A   1      29.853  26.729  23.822  1.00  0.00    -0.249 OA
BRANCH   7   9
ATOM      9  C   UNL A   1      31.347  28.703  23.984  1.00  0.00     0.223 C 
BRANCH   9  10
ATOM     10  N   UNL A   1      32.545  28.588  23.130  1.00  0.00    -0.338 N 
ATOM     11  C   UNL A   1      33.273  27.594  22.544  1.00  0.00     0.234 C 
ATOM     12  O   UNL A   1      34.054  28.043  21.680  1.00  0.00    -0.274 OA
ATOM     13  H   UNL A   1      32.924  29.474  22.928  1.00  0.00     0.164 HD
BRANCH  11  14
ATOM     14  C   UNL A   1      33.313  26.044  22.780  1.00  0.00     0.139 C 
ATOM     15  C   UNL A   1      32.374  25.058  22.075  1.00  0.00     0.030 C 
BRANCH  14  16
ATOM     16  S   UNL A   1      34.078  25.457  24.314  1.00  0.00    -0.093 SA
BRANCH  16  17
ATOM     17  C   UNL A   1      33.551  23.800  24.653  1.00  0.00     0.097 A 
ATOM     18  C   UNL A   1      34.103  22.648  24.122  1.00  0.00     0.035 A 
ATOM     19  N   UNL A   1      32.372  23.758  25.310  1.00  0.00    -0.250 NA
ATOM     20  C   UNL A   1      33.339  21.482  24.058  1.00  0.00     0.004 A 
ATOM     21  C   UNL A   1      31.676  22.602  25.309  1.00  0.00     0.112 A 
ATOM     22  C   UNL A   1      32.086  21.464  24.645  1.00  0.00     0.020 A 
ENDBRANCH  16  17
ENDBRANCH  14  16
ENDBRANCH  11  14
ENDBRANCH   9  10
BRANCH   9  23
ATOM     23  C   UNL A   1      30.230  29.609  23.450  1.00  0.00    -0.014 A 
ATOM     24  C   UNL A   1      29.625  30.639  24.183  1.00  0.00     0.009 A 
ATOM     25  C   UNL A   1      29.969  29.539  22.058  1.00  0.00     0.009 A 
ATOM     26  C   UNL A   1      28.857  31.610  23.522  1.00  0.00     0.039 A 
ATOM     27  C   UNL A   1      29.242  30.527  21.401  1.00  0.00     0.039 A 
ATOM     28  C   UNL A   1      28.702  31.565  22.139  1.00  0.00     0.123 A 
ATOM     29  F   UNL A   1      28.050  32.548  21.507  1.00  0.00    -0.207 F 
ENDBRANCH   9  23
ENDBRANCH   7   9
ENDBRANCH   6   7
ENDBRANCH   5   6
ENDBRANCH   4   5
ENDBRANCH   3   4
ENDBRANCH   2   3
ENDBRANCH   1   2
BRANCH   1  30
ATOM     30  O   UNL A   1      36.271  30.057  27.313  1.00  0.00    -0.377 OA
BRANCH  30  31
ATOM     31  C   UNL A   1      37.475  29.972  28.055  1.00  0.00     0.188 C 
BRANCH  31  32
ATOM     32  C   UNL A   1      37.507  31.316  28.759  1.00  0.00     0.188 C 
BRANCH  32  33
ATOM     33  O   UNL A   1      36.691  32.332  28.167  1.00  0.00    -0.376 OA
BRANCH  33  34
ATOM     34  C   UNL A   1      36.843  33.670  28.637  1.00  0.00     0.202 C 
BRANCH  34  35
ATOM     35  C   UNL A   1      35.627  34.153  29.416  1.00  0.00     0.261 C 
BRANCH  35  36
ATOM     36  O   UNL A   1      35.931  34.151  30.816  1.00  0.00    -0.460 OA
BRANCH  36  37
ATOM     37  C   UNL A   1      35.506  33.057  31.495  1.00  0.00     0.338 C 
ATOM     38  O   UNL A   1      34.447  32.481  31.400  1.00  0.00    -0.246 OA
BRANCH  37  39
ATOM     39  C   UNL A   1      36.665  32.524  32.241  1.00  0.00     0.060 A 
ATOM     40  C   UNL A   1      36.436  31.464  33.132  1.00  0.00     0.016 A 
ATOM     41  C   UNL A   1      37.951  33.032  32.048  1.00  0.00     0.016 A 
ATOM     42  C   UNL A   1      37.494  30.909  33.838  1.00  0.00     0.010 A 
ATOM     43  C   UNL A   1      39.004  32.507  32.786  1.00  0.00     0.010 A 
ATOM     44  C   UNL A   1      38.768  31.466  33.700  1.00  0.00    -0.014 A 
BRANCH  44  45
ATOM     45  C   UNL A   1      39.806  31.127  34.684  1.00  0.00     0.031 A 
ATOM     46  C   UNL A   1      40.066  32.118  35.778  1.00  0.00     0.074 A 
ATOM     47  C   UNL A   1      40.492  29.980  34.585  1.00  0.00     0.049 A 
ATOM     48  N   UNL A   1      41.000  32.121  36.689  1.00  0.00    -0.248 NA
ATOM     49  C   UNL A   1      39.145  33.267  35.850  1.00  0.00     0.031 C 
ATOM     50  C   UNL A   1      40.258  28.940  33.586  1.00  0.00     0.029 A 
ATOM     51  N   UNL A   1      41.544  29.512  35.326  1.00  0.00    -0.354 N 
ATOM     52  C   UNL A   1      40.787  33.274  37.433  1.00  0.00     0.074 A 
ATOM     53  C   UNL A   1      39.651  33.957  36.859  1.00  0.00     0.031 C 
ATOM     54  C   UNL A   1      41.167  27.964  33.756  1.00  0.00     0.029 A 
ATOM     55  C   UNL A   1      42.068  28.340  34.844  1.00  0.00     0.049 A 
ATOM     56  H   UNL A   1      41.888  29.971  36.126  1.00  0.00     0.167 HD
ATOM     57  C   UNL A   1      41.488  33.716  38.500  1.00  0.00     0.037 A 
ATOM     58  C   UNL A   1      43.181  27.683  35.219  1.00  0.00     0.037 A 
ATOM     59  C   UNL A   1      42.627  33.023  39.037  1.00  0.00     0.049 A 
ATOM     60  C   UNL A   1      44.006  28.252  36.346  1.00  0.00     0.074 A 
ATOM     61  C   UNL A   1      43.408  33.360  40.125  1.00  0.00     0.029 A 
ATOM     62  N   UNL A   1      43.155  31.854  38.506  1.00  0.00    -0.354 N 
ATOM     63  N   UNL A   1      43.790  29.323  37.073  1.00  0.00    -0.248 NA
ATOM     64  C   UNL A   1      45.232  27.526  36.701  1.00  0.00     0.031 C 
ATOM     65  C   UNL A   1      44.449  32.430  40.212  1.00  0.00     0.029 A 
ATOM     66  C   UNL A   1      44.281  31.478  39.217  1.00  0.00     0.049 A 
ATOM     67  H   UNL A   1      42.783  31.365  37.736  1.00  0.00     0.167 HD
ATOM     68  C   UNL A   1      44.839  29.391  37.979  1.00  0.00     0.074 A 
ATOM     69  C   UNL A   1      45.679  28.238  37.726  1.00  0.00     0.031 C 
ATOM     70  C   UNL A   1      45.094  30.323  38.933  1.00  0.00     0.037 A 
BRANCH  57  71
ATOM     71  C   UNL A   1      41.073  35.019  39.115  1.00  0.00     0.064 A 
ATOM     72  C   UNL A   1      41.736  36.221  38.824  1.00  0.00     0.173 A 
ATOM     73  C   UNL A   1      39.982  35.068  39.996  1.00  0.00     0.173 A 
ATOM     74  F   UNL A   1      42.800  36.226  38.006  1.00  0.00    -0.203 F 
ATOM     75  C   UNL A   1      41.335  37.420  39.408  1.00  0.00     0.198 A 
ATOM     76  C   UNL A   1      39.565  36.274  40.554  1.00  0.00     0.198 A 
ATOM     77  F   UNL A   1      39.318  33.947  40.313  1.00  0.00    -0.203 F 
ATOM     78  F   UNL A   1      42.013  38.548  39.154  1.00  0.00    -0.200 F 
ATOM     79  C   UNL A   1      40.244  37.447  40.265  1.00  0.00     0.200 A 
ATOM     80  F   UNL A   1      38.504  36.298  41.373  1.00  0.00    -0.200 F 
ATOM     81  F   UNL A   1      39.854  38.603  40.819  1.00  0.00    -0.200 F 
ENDBRANCH  57  71
BRANCH  58  82
ATOM     82  C   UNL A   1      43.597  26.450  34.502  1.00  0.00     0.064 A 
ATOM     83  C   UNL A   1      43.126  25.191  34.895  1.00  0.00     0.173 A 
ATOM     84  C   UNL A   1      44.482  26.503  33.413  1.00  0.00     0.173 A 
ATOM     85  F   UNL A   1      42.294  25.085  35.940  1.00  0.00    -0.203 F 
ATOM     86  C   UNL A   1      43.540  24.031  34.242  1.00  0.00     0.198 A 
ATOM     87  C   UNL A   1      44.869  25.346  32.740  1.00  0.00     0.198 A 
ATOM     88  F   UNL A   1      44.962  27.683  32.992  1.00  0.00    -0.203 F 
ATOM     89  F   UNL A   1      43.110  22.836  34.670  1.00  0.00    -0.200 F 
ATOM     90  C   UNL A   1      44.406  24.109  33.161  1.00  0.00     0.200 A 
ATOM     91  F   UNL A   1      45.691  25.431  31.685  1.00  0.00    -0.200 F 
ATOM     92  F   UNL A   1      44.798  22.994  32.531  1.00  0.00    -0.200 F 
ENDBRANCH  58  82
BRANCH  70  93
ATOM     93  C   UNL A   1      46.319  30.124  39.776  1.00  0.00     0.064 A 
ATOM     94  C   UNL A   1      47.538  30.738  39.452  1.00  0.00     0.173 A 
ATOM     95  C   UNL A   1      46.257  29.366  40.954  1.00  0.00     0.173 A 
ATOM     96  F   UNL A   1      47.652  31.461  38.327  1.00  0.00    -0.203 F 
ATOM     97  C   UNL A   1      48.655  30.583  40.268  1.00  0.00     0.198 A 
ATOM     98  C   UNL A   1      47.365  29.242  41.786  1.00  0.00     0.198 A 
ATOM     99  F   UNL A   1      45.111  28.766  41.313  1.00  0.00    -0.203 F 
ATOM    100  F   UNL A   1      49.821  31.141  39.916  1.00  0.00    -0.200 F 
ATOM    101  C   UNL A   1      48.564  29.845  41.438  1.00  0.00     0.200 A 
ATOM    102  F   UNL A   1      47.271  28.545  42.926  1.00  0.00    -0.200 F 
ATOM    103  F   UNL A   1      49.637  29.711  42.231  1.00  0.00    -0.200 F 
ENDBRANCH  70  93
ENDBRANCH  44  45
ENDBRANCH  37  39
ENDBRANCH  36  37
ENDBRANCH  35  36
ENDBRANCH  34  35
ENDBRANCH  33  34
ENDBRANCH  32  33
ENDBRANCH  31  32
ENDBRANCH  30  31
ENDBRANCH   1  30
TORSDOF 25
ENDMDL
MODEL 3
REMARK VINA RESULT:      -9.1      8.132     11.802
REMARK SMILES C[C@H](Sc1ccccn1)C(=O)N[C@H](C(=O)OCCOCCOCCOCCOC(=O)c1ccc(-c2c3nc(c(-c4c(F)c(F)c(F)c(F)c4F)c4ccc([nH]4)c(-c4c(F)c(F)c(F)c(F)c4F)c4nc(c(-c5c(F)c(F)c(F)c(F)c5F)c5ccc2[nH]5)C=C4)C=C3)cc1)c1ccc(F)cc1
REMARK SMILES IDX 21 1 20 2 19 3 18 4 17 5 16 6 14 7 15 8 13 9 12 10 10 11
REMARK SMILES IDX 11 12 2 14 1 15 3 16 4 17 5 18 9 19 6 20 8 21 7 22 94 23
REMARK SMILES IDX 95 24 100 25 96 26 99 27 97 28 98 29 22 30 23 31 24 32 25 33
REMARK SMILES IDX 26 34 27 35 28 36 29 37 30 38 31 39 32 40 93 41 33 42 92 43
REMARK SMILES IDX 34 44 35 45 36 46 86 47 37 48 91 49 85 50 87 51 38 52 90 53
REMARK SMILES IDX 84 54 83 55 39 57 71 58 51 59 70 60 52 61 55 62 69 63 88 64
REMARK SMILES IDX 53 65 54 66 68 68 89 69 56 70 40 71 41 72 49 73 42 74 43 75
REMARK SMILES IDX 47 76 50 77 44 78 45 79 48 80 46 81 72 82 73 83 81 84 74 85
REMARK SMILES IDX 75 86 79 87 82 88 76 89 77 90 80 91 78 92 57 93 58 94 66 95
REMARK SMILES IDX 59 96 60 97 64 98 67 99 61 100 62 101 65 102 63 103
REMARK H PARENT 12 13 87 56 55 67
REMARK Flexibility Score: inf
ROOT
ATOM      1  C   UNL A   1      35.289  29.316  27.657  1.00  0.00     0.188 C 
ENDROOT
BRANCH   1   2
ATOM      2  C   UNL A   1      34.163  29.438  26.650  1.00  0.00     0.188 C 
BRANCH   2   3
ATOM      3  O   UNL A   1      32.870  29.694  27.179  1.00  0.00    -0.376 OA
BRANCH   3   4
ATOM      4  C   UNL A   1      31.762  29.190  26.447  1.00  0.00     0.202 C 
BRANCH   4   5
ATOM      5  C   UNL A   1      32.146  27.855  25.777  1.00  0.00     0.261 C 
BRANCH   5   6
ATOM      6  O   UNL A   1      31.037  26.917  25.624  1.00  0.00    -0.461 OA
BRANCH   6   7
ATOM      7  C   UNL A   1      30.822  26.470  24.347  1.00  0.00     0.333 C 
ATOM      8  O   UNL A   1      30.234  25.416  24.109  1.00  0.00    -0.249 OA
BRANCH   7   9
ATOM      9  C   UNL A   1      31.324  27.440  23.173  1.00  0.00     0.223 C 
BRANCH   9  10
ATOM     10  N   UNL A   1      32.146  26.900  22.072  1.00  0.00    -0.338 N 
ATOM     11  C   UNL A   1      32.834  25.755  21.797  1.00  0.00     0.234 C 
ATOM     12  O   UNL A   1      33.144  25.684  20.590  1.00  0.00    -0.274 OA
ATOM     13  H   UNL A   1      32.218  27.547  21.334  1.00  0.00     0.164 HD
BRANCH  11  14
ATOM     14  C   UNL A   1      33.307  24.570  22.708  1.00  0.00     0.139 C 
ATOM     15  C   UNL A   1      32.667  23.178  22.682  1.00  0.00     0.030 C 
BRANCH  14  16
ATOM     16  S   UNL A   1      34.232  24.994  24.207  1.00  0.00    -0.093 SA
BRANCH  16  17
ATOM     17  C   UNL A   1      35.329  23.667  24.632  1.00  0.00     0.097 A 
ATOM     18  C   UNL A   1      36.453  23.286  23.923  1.00  0.00     0.035 A 
ATOM     19  N   UNL A   1      34.830  22.879  25.607  1.00  0.00    -0.250 NA
ATOM     20  C   UNL A   1      36.941  21.985  24.049  1.00  0.00     0.004 A 
ATOM     21  C   UNL A   1      35.361  21.649  25.775  1.00  0.00     0.112 A 
ATOM     22  C   UNL A   1      36.366  21.138  24.980  1.00  0.00     0.020 A 
ENDBRANCH  16  17
ENDBRANCH  14  16
ENDBRANCH  11  14
ENDBRANCH   9  10
BRANCH   9  23
ATOM     23  C   UNL A   1      30.099  28.262  22.752  1.00  0.00    -0.014 A 
ATOM     24  C   UNL A   1      28.791  28.020  23.191  1.00  0.00     0.009 A 
ATOM     25  C   UNL A   1      30.356  29.473  22.060  1.00  0.00     0.009 A 
ATOM     26  C   UNL A   1      27.801  29.000  23.017  1.00  0.00     0.039 A 
ATOM     27  C   UNL A   1      29.384  30.459  21.927  1.00  0.00     0.039 A 
ATOM     28  C   UNL A   1      28.114  30.218  22.421  1.00  0.00     0.123 A 
ATOM     29  F   UNL A   1      27.189  31.183  22.346  1.00  0.00    -0.207 F 
ENDBRANCH   9  23
ENDBRANCH   7   9
ENDBRANCH   6   7
ENDBRANCH   5   6
ENDBRANCH   4   5
ENDBRANCH   3   4
ENDBRANCH   2   3
ENDBRANCH   1   2
BRANCH   1  30
ATOM     30  O   UNL A   1      36.445  30.008  27.284  1.00  0.00    -0.377 OA
BRANCH  30  31
ATOM     31  C   UNL A   1      37.293  30.551  28.280  1.00  0.00     0.188 C 
BRANCH  31  32
ATOM     32  C   UNL A   1      36.910  29.734  29.501  1.00  0.00     0.188 C 
BRANCH  32  33
ATOM     33  O   UNL A   1      36.446  30.495  30.621  1.00  0.00    -0.376 OA
BRANCH  33  34
ATOM     34  C   UNL A   1      35.603  31.617  30.365  1.00  0.00     0.202 C 
BRANCH  34  35
ATOM     35  C   UNL A   1      35.180  32.329  31.643  1.00  0.00     0.261 C 
BRANCH  35  36
ATOM     36  O   UNL A   1      35.626  33.690  31.595  1.00  0.00    -0.460 OA
BRANCH  36  37
ATOM     37  C   UNL A   1      35.297  34.441  32.674  1.00  0.00     0.338 C 
ATOM     38  O   UNL A   1      34.259  35.022  32.895  1.00  0.00    -0.246 OA
BRANCH  37  39
ATOM     39  C   UNL A   1      36.361  34.255  33.683  1.00  0.00     0.060 A 
ATOM     40  C   UNL A   1      37.675  34.577  33.312  1.00  0.00     0.016 A 
ATOM     41  C   UNL A   1      36.071  33.803  34.972  1.00  0.00     0.016 A 
ATOM     42  C   UNL A   1      38.708  34.446  34.230  1.00  0.00     0.010 A 
ATOM     43  C   UNL A   1      37.109  33.629  35.878  1.00  0.00     0.010 A 
ATOM     44  C   UNL A   1      38.428  33.924  35.495  1.00  0.00    -0.014 A 
BRANCH  44  45
ATOM     45  C   UNL A   1      39.539  33.456  36.337  1.00  0.00     0.031 A 
ATOM     46  C   UNL A   1      40.008  34.370  37.429  1.00  0.00     0.074 A 
ATOM     47  C   UNL A   1      40.106  32.262  36.116  1.00  0.00     0.049 A 
ATOM     48  N   UNL A   1      41.037  34.254  38.222  1.00  0.00    -0.248 NA
ATOM     49  C   UNL A   1      39.205  35.586  37.651  1.00  0.00     0.031 C 
ATOM     50  C   UNL A   1      39.669  31.292  35.114  1.00  0.00     0.029 A 
ATOM     51  N   UNL A   1      41.191  31.675  36.710  1.00  0.00    -0.354 N 
ATOM     52  C   UNL A   1      41.013  35.385  39.027  1.00  0.00     0.074 A 
ATOM     53  C   UNL A   1      39.882  36.185  38.617  1.00  0.00     0.031 C 
ATOM     54  C   UNL A   1      40.503  30.238  35.140  1.00  0.00     0.029 A 
ATOM     55  C   UNL A   1      41.552  30.488  36.127  1.00  0.00     0.049 A 
ATOM     56  H   UNL A   1      41.664  32.066  37.480  1.00  0.00     0.167 HD
ATOM     57  C   UNL A   1      41.867  35.717  40.020  1.00  0.00     0.037 A 
ATOM     58  C   UNL A   1      42.639  29.724  36.344  1.00  0.00     0.037 A 
ATOM     59  C   UNL A   1      42.995  34.908  40.393  1.00  0.00     0.049 A 
ATOM     60  C   UNL A   1      43.634  30.170  37.386  1.00  0.00     0.074 A 
ATOM     61  C   UNL A   1      43.922  35.129  41.393  1.00  0.00     0.029 A 
ATOM     62  N   UNL A   1      43.355  33.726  39.760  1.00  0.00    -0.354 N 
ATOM     63  N   UNL A   1      43.597  31.221  38.171  1.00  0.00    -0.248 NA
ATOM     64  C   UNL A   1      44.825  29.330  37.567  1.00  0.00     0.031 C 
ATOM     65  C   UNL A   1      44.881  34.113  41.322  1.00  0.00     0.029 A 
ATOM     66  C   UNL A   1      44.517  33.226  40.320  1.00  0.00     0.049 A 
ATOM     67  H   UNL A   1      42.856  33.305  39.023  1.00  0.00     0.167 HD
ATOM     68  C   UNL A   1      44.745  31.160  38.949  1.00  0.00     0.074 A 
ATOM     69  C   UNL A   1      45.447  29.954  38.557  1.00  0.00     0.031 C 
ATOM     70  C   UNL A   1      45.188  32.022  39.899  1.00  0.00     0.037 A 
BRANCH  57  71
ATOM     71  C   UNL A   1      41.640  37.020  40.727  1.00  0.00     0.064 A 
ATOM     72  C   UNL A   1      42.138  38.233  40.224  1.00  0.00     0.173 A 
ATOM     73  C   UNL A   1      40.898  37.058  41.916  1.00  0.00     0.173 A 
ATOM     74  F   UNL A   1      42.873  38.249  39.103  1.00  0.00    -0.203 F 
ATOM     75  C   UNL A   1      41.917  39.431  40.899  1.00  0.00     0.198 A 
ATOM     76  C   UNL A   1      40.653  38.263  42.570  1.00  0.00     0.198 A 
ATOM     77  F   UNL A   1      40.406  35.927  42.443  1.00  0.00    -0.203 F 
ATOM     78  F   UNL A   1      42.443  40.570  40.427  1.00  0.00    -0.200 F 
ATOM     79  C   UNL A   1      41.167  39.447  42.066  1.00  0.00     0.200 A 
ATOM     80  F   UNL A   1      39.920  38.276  43.693  1.00  0.00    -0.200 F 
ATOM     81  F   UNL A   1      40.948  40.602  42.708  1.00  0.00    -0.200 F 
ENDBRANCH  57  71
BRANCH  58  82
ATOM     82  C   UNL A   1      42.861  28.496  35.538  1.00  0.00     0.064 A 
ATOM     83  C   UNL A   1      42.252  27.283  35.885  1.00  0.00     0.173 A 
ATOM     84  C   UNL A   1      43.695  28.505  34.408  1.00  0.00     0.173 A 
ATOM     85  F   UNL A   1      41.461  27.217  36.965  1.00  0.00    -0.203 F 
ATOM     86  C   UNL A   1      42.483  26.124  35.147  1.00  0.00     0.198 A 
ATOM     87  C   UNL A   1      43.899  27.352  33.652  1.00  0.00     0.198 A 
ATOM     88  F   UNL A   1      44.301  29.640  34.028  1.00  0.00    -0.203 F 
ATOM     89  F   UNL A   1      41.925  24.968  35.530  1.00  0.00    -0.200 F 
ATOM     90  C   UNL A   1      43.302  26.160  34.028  1.00  0.00     0.200 A 
ATOM     91  F   UNL A   1      44.675  27.400  32.561  1.00  0.00    -0.200 F 
ATOM     92  F   UNL A   1      43.519  25.046  33.317  1.00  0.00    -0.200 F 
ENDBRANCH  58  82
BRANCH  70  93
ATOM     93  C   UNL A   1      46.480  31.684  40.584  1.00  0.00     0.064 A 
ATOM     94  C   UNL A   1      47.703  32.205  40.138  1.00  0.00     0.173 A 
ATOM     95  C   UNL A   1      46.487  30.884  41.737  1.00  0.00     0.173 A 
ATOM     96  F   UNL A   1      47.751  32.962  39.031  1.00  0.00    -0.203 F 
ATOM     97  C   UNL A   1      48.889  31.920  40.809  1.00  0.00     0.198 A 
ATOM     98  C   UNL A   1      47.668  30.632  42.426  1.00  0.00     0.198 A 
ATOM     99  F   UNL A   1      45.341  30.370  42.210  1.00  0.00    -0.203 F 
ATOM    100  F   UNL A   1      50.052  32.391  40.339  1.00  0.00    -0.200 F 
ATOM    101  C   UNL A   1      48.868  31.144  41.958  1.00  0.00     0.200 A 
ATOM    102  F   UNL A   1      47.644  29.898  43.547  1.00  0.00    -0.200 F 
ATOM    103  F   UNL A   1      50.009  30.886  42.613  1.00  0.00    -0.200 F 
ENDBRANCH  70  93
ENDBRANCH  44  45
ENDBRANCH  37  39
ENDBRANCH  36  37
ENDBRANCH  35  36
ENDBRANCH  34  35
ENDBRANCH  33  34
ENDBRANCH  32  33
ENDBRANCH  31  32
ENDBRANCH  30  31
ENDBRANCH   1  30
TORSDOF 25
ENDMDL
