MODEL 1
REMARK VINA RESULT:     -10.1      0.000      0.000
REMARK SMILES Cc1c(CC(=O)OCCOCCOCCOCCOC(=O)c2ccc(-c3c4nc(c(-c5c(F)c(F)c(F)c(F)c5F)c5ccc([nH]5)c(-c5c(F)c(F)c(F)c(F)c5F)c5nc(c(-c6c(F)c(F)c(F)c(F)c6F)c6ccc3[nH]6)C=C5)C=C4)cc2)cc(-c2ccc(S(C)(=O)=O)cc2)n1-c1ccccc1
REMARK SMILES IDX 12 1 11 2 10 3 9 4 8 5 7 6 5 7 6 8 4 9 3 10 1 11 2 12 97 13
REMARK SMILES IDX 85 14 86 15 98 16 99 17 103 18 100 19 102 20 101 21 87 22
REMARK SMILES IDX 88 23 96 24 89 25 95 26 90 27 91 28 92 29 93 30 94 31 13 32
REMARK SMILES IDX 14 33 15 34 16 35 17 36 18 37 19 38 20 39 21 40 22 41 23 42
REMARK SMILES IDX 84 43 24 44 83 45 25 46 26 47 27 48 77 49 28 50 82 51 76 52
REMARK SMILES IDX 78 53 29 54 81 55 75 56 74 57 30 59 62 60 42 61 61 62 43 63
REMARK SMILES IDX 46 64 60 65 79 66 44 67 45 68 59 70 80 71 47 72 31 73 32 74
REMARK SMILES IDX 40 75 33 76 34 77 38 78 41 79 35 80 36 81 39 82 37 83 63 84
REMARK SMILES IDX 64 85 72 86 65 87 66 88 70 89 73 90 67 91 68 92 71 93 69 94
REMARK SMILES IDX 48 95 49 96 57 97 50 98 51 99 55 100 58 101 52 102 53 103
REMARK SMILES IDX 56 104 54 105
REMARK H PARENT 78 58 46 69
REMARK Flexibility Score: inf
ROOT
ATOM      1  C   UNL A   1      32.538  32.138  27.401  1.00  0.00     0.188 C 
ENDROOT
BRANCH   1   2
ATOM      2  C   UNL A   1      33.694  31.128  27.526  1.00  0.00     0.188 C 
BRANCH   2   3
ATOM      3  O   UNL A   1      33.698  29.999  26.669  1.00  0.00    -0.376 OA
BRANCH   3   4
ATOM      4  C   UNL A   1      32.434  29.449  26.306  1.00  0.00     0.202 C 
BRANCH   4   5
ATOM      5  C   UNL A   1      31.942  29.562  24.841  1.00  0.00     0.261 C 
BRANCH   5   6
ATOM      6  O   UNL A   1      30.639  28.980  24.549  1.00  0.00    -0.463 OA
BRANCH   6   7
ATOM      7  C   UNL A   1      30.548  28.206  23.443  1.00  0.00     0.310 C 
ATOM      8  O   UNL A   1      30.821  28.622  22.315  1.00  0.00    -0.252 OA
BRANCH   7   9
ATOM      9  C   UNL A   1      30.188  26.739  23.628  1.00  0.00     0.160 C 
BRANCH   9  10
ATOM     10  C   UNL A   1      31.195  25.639  23.904  1.00  0.00    -0.015 A 
ATOM     11  C   UNL A   1      33.503  26.777  23.328  1.00  0.00     0.065 C 
ATOM     12  C   UNL A   1      32.588  25.667  23.737  1.00  0.00     0.024 A 
ATOM     13  N   UNL A   1      33.086  24.391  23.980  1.00  0.00    -0.314 N 
ATOM     14  C   UNL A   1      30.864  24.264  24.118  1.00  0.00     0.033 A 
ATOM     15  C   UNL A   1      32.025  23.511  24.099  1.00  0.00     0.053 A 
BRANCH  13  16
ATOM     16  C   UNL A   1      34.449  24.024  24.129  1.00  0.00     0.046 A 
ATOM     17  C   UNL A   1      35.147  23.386  23.103  1.00  0.00     0.026 A 
ATOM     18  C   UNL A   1      35.020  24.140  25.393  1.00  0.00     0.026 A 
ATOM     19  C   UNL A   1      36.446  22.916  23.343  1.00  0.00     0.002 A 
ATOM     20  C   UNL A   1      36.321  23.684  25.610  1.00  0.00     0.002 A 
ATOM     21  C   UNL A   1      37.039  23.079  24.591  1.00  0.00     0.000 A 
ENDBRANCH  13  16
BRANCH  15  22
ATOM     22  C   UNL A   1      32.208  22.061  24.102  1.00  0.00    -0.001 A 
ATOM     23  C   UNL A   1      32.601  21.390  25.267  1.00  0.00     0.011 A 
ATOM     24  C   UNL A   1      32.082  21.349  22.902  1.00  0.00     0.011 A 
ATOM     25  C   UNL A   1      32.879  20.023  25.234  1.00  0.00     0.021 A 
ATOM     26  C   UNL A   1      32.354  19.980  22.861  1.00  0.00     0.021 A 
ATOM     27  C   UNL A   1      32.757  19.326  24.029  1.00  0.00     0.067 A 
BRANCH  27  28
ATOM     28  S   UNL A   1      33.054  17.576  24.002  1.00  0.00     0.175 S 
ATOM     29  C   UNL A   1      34.744  17.404  24.507  1.00  0.00     0.163 C 
ATOM     30  O   UNL A   1      32.211  16.996  25.044  1.00  0.00    -0.224 OA
ATOM     31  O   UNL A   1      32.956  17.127  22.634  1.00  0.00    -0.224 OA
ENDBRANCH  27  28
ENDBRANCH  15  22
ENDBRANCH   9  10
ENDBRANCH   7   9
ENDBRANCH   6   7
ENDBRANCH   5   6
ENDBRANCH   4   5
ENDBRANCH   3   4
ENDBRANCH   2   3
ENDBRANCH   1   2
BRANCH   1  32
ATOM     32  O   UNL A   1      32.900  33.501  27.480  1.00  0.00    -0.377 OA
BRANCH  32  33
ATOM     33  C   UNL A   1      33.422  34.077  28.665  1.00  0.00     0.188 C 
BRANCH  33  34
ATOM     34  C   UNL A   1      34.809  34.720  28.631  1.00  0.00     0.188 C 
BRANCH  34  35
ATOM     35  O   UNL A   1      35.914  33.857  28.908  1.00  0.00    -0.376 OA
BRANCH  35  36
ATOM     36  C   UNL A   1      35.745  32.927  29.984  1.00  0.00     0.202 C 
BRANCH  36  37
ATOM     37  C   UNL A   1      36.855  32.985  31.068  1.00  0.00     0.261 C 
BRANCH  37  38
ATOM     38  O   UNL A   1      37.609  34.261  31.162  1.00  0.00    -0.460 OA
BRANCH  38  39
ATOM     39  C   UNL A   1      38.879  34.280  31.678  1.00  0.00     0.338 C 
ATOM     40  O   UNL A   1      39.102  34.271  32.881  1.00  0.00    -0.246 OA
BRANCH  39  41
ATOM     41  C   UNL A   1      40.038  34.277  30.641  1.00  0.00     0.060 A 
ATOM     42  C   UNL A   1      41.095  33.386  30.791  1.00  0.00     0.016 A 
ATOM     43  C   UNL A   1      40.284  35.281  29.676  1.00  0.00     0.016 A 
ATOM     44  C   UNL A   1      42.303  33.477  29.985  1.00  0.00     0.010 A 
ATOM     45  C   UNL A   1      41.559  35.418  28.910  1.00  0.00     0.010 A 
ATOM     46  C   UNL A   1      42.643  34.519  29.031  1.00  0.00    -0.014 A 
BRANCH  46  47
ATOM     47  C   UNL A   1      44.286  34.777  28.721  1.00  0.00     0.031 A 
ATOM     48  C   UNL A   1      44.721  35.259  30.065  1.00  0.00     0.074 A 
ATOM     49  C   UNL A   1      45.317  34.864  27.747  1.00  0.00     0.049 A 
ATOM     50  N   UNL A   1      44.112  36.297  30.575  1.00  0.00    -0.248 NA
ATOM     51  C   UNL A   1      45.456  34.446  31.033  1.00  0.00     0.031 C 
ATOM     52  C   UNL A   1      45.205  34.746  26.277  1.00  0.00     0.029 A 
ATOM     53  N   UNL A   1      46.759  35.095  27.819  1.00  0.00    -0.354 N 
ATOM     54  C   UNL A   1      44.613  36.456  31.840  1.00  0.00     0.074 A 
ATOM     55  C   UNL A   1      45.242  35.174  32.138  1.00  0.00     0.031 C 
ATOM     56  C   UNL A   1      46.423  34.742  25.645  1.00  0.00     0.029 A 
ATOM     57  C   UNL A   1      47.535  34.920  26.584  1.00  0.00     0.049 A 
ATOM     58  H   UNL A   1      47.193  35.357  28.663  1.00  0.00     0.167 HD
ATOM     59  C   UNL A   1      45.085  37.713  32.089  1.00  0.00     0.037 A 
ATOM     60  C   UNL A   1      48.917  34.999  26.297  1.00  0.00     0.037 A 
ATOM     61  C   UNL A   1      46.505  37.786  31.892  1.00  0.00     0.049 A 
ATOM     62  C   UNL A   1      49.469  35.914  27.298  1.00  0.00     0.074 A 
ATOM     63  C   UNL A   1      47.535  36.945  32.264  1.00  0.00     0.029 A 
ATOM     64  N   UNL A   1      46.965  38.533  30.830  1.00  0.00    -0.354 N 
ATOM     65  N   UNL A   1      49.337  37.199  27.178  1.00  0.00    -0.248 NA
ATOM     66  C   UNL A   1      50.303  35.462  28.405  1.00  0.00     0.031 C 
ATOM     67  C   UNL A   1      48.324  36.830  31.104  1.00  0.00     0.029 A 
ATOM     68  C   UNL A   1      48.052  37.905  30.271  1.00  0.00     0.049 A 
ATOM     69  H   UNL A   1      46.575  39.383  30.522  1.00  0.00     0.167 HD
ATOM     70  C   UNL A   1      49.546  37.628  28.445  1.00  0.00     0.074 A 
ATOM     71  C   UNL A   1      50.390  36.621  29.063  1.00  0.00     0.031 C 
ATOM     72  C   UNL A   1      48.514  38.324  28.976  1.00  0.00     0.037 A 
BRANCH  59  73
ATOM     73  C   UNL A   1      44.109  38.789  31.694  1.00  0.00     0.064 A 
ATOM     74  C   UNL A   1      44.037  39.168  30.351  1.00  0.00     0.173 A 
ATOM     75  C   UNL A   1      43.380  39.562  32.625  1.00  0.00     0.173 A 
ATOM     76  F   UNL A   1      44.659  38.438  29.413  1.00  0.00    -0.203 F 
ATOM     77  C   UNL A   1      43.328  40.307  29.965  1.00  0.00     0.198 A 
ATOM     78  C   UNL A   1      42.737  40.735  32.248  1.00  0.00     0.198 A 
ATOM     79  F   UNL A   1      43.287  39.182  33.911  1.00  0.00    -0.203 F 
ATOM     80  F   UNL A   1      43.252  40.636  28.669  1.00  0.00    -0.200 F 
ATOM     81  C   UNL A   1      42.715  41.110  30.917  1.00  0.00     0.200 A 
ATOM     82  F   UNL A   1      42.146  41.502  33.176  1.00  0.00    -0.200 F 
ATOM     83  F   UNL A   1      42.085  42.234  30.550  1.00  0.00    -0.200 F 
ENDBRANCH  59  73
BRANCH  60  84
ATOM     84  C   UNL A   1      50.095  34.718  25.258  1.00  0.00     0.064 A 
ATOM     85  C   UNL A   1      50.675  35.777  24.451  1.00  0.00     0.173 A 
ATOM     86  C   UNL A   1      50.938  33.600  25.345  1.00  0.00     0.173 A 
ATOM     87  F   UNL A   1      50.014  36.915  24.201  1.00  0.00    -0.203 F 
ATOM     88  C   UNL A   1      51.983  35.759  23.917  1.00  0.00     0.198 A 
ATOM     89  C   UNL A   1      52.246  33.572  24.772  1.00  0.00     0.198 A 
ATOM     90  F   UNL A   1      50.555  32.534  26.059  1.00  0.00    -0.203 F 
ATOM     91  F   UNL A   1      52.477  36.844  23.295  1.00  0.00    -0.200 F 
ATOM     92  C   UNL A   1      52.780  34.660  24.097  1.00  0.00     0.200 A 
ATOM     93  F   UNL A   1      53.028  32.493  24.942  1.00  0.00    -0.200 F 
ATOM     94  F   UNL A   1      54.049  34.659  23.656  1.00  0.00    -0.200 F 
ENDBRANCH  60  84
BRANCH  72  95
ATOM     95  C   UNL A   1      47.874  39.375  28.090  1.00  0.00     0.064 A 
ATOM     96  C   UNL A   1      46.824  39.189  27.157  1.00  0.00     0.173 A 
ATOM     97  C   UNL A   1      48.445  40.655  28.123  1.00  0.00     0.173 A 
ATOM     98  F   UNL A   1      46.113  38.054  27.096  1.00  0.00    -0.203 F 
ATOM     99  C   UNL A   1      46.451  40.196  26.259  1.00  0.00     0.198 A 
ATOM    100  C   UNL A   1      48.032  41.672  27.267  1.00  0.00     0.198 A 
ATOM    101  F   UNL A   1      49.412  40.930  29.012  1.00  0.00    -0.203 F 
ATOM    102  F   UNL A   1      45.498  39.962  25.343  1.00  0.00    -0.200 F 
ATOM    103  C   UNL A   1      47.055  41.436  26.317  1.00  0.00     0.200 A 
ATOM    104  F   UNL A   1      48.588  42.888  27.370  1.00  0.00    -0.200 F 
ATOM    105  F   UNL A   1      46.686  42.410  25.472  1.00  0.00    -0.200 F 
ENDBRANCH  72  95
ENDBRANCH  46  47
ENDBRANCH  39  41
ENDBRANCH  38  39
ENDBRANCH  37  38
ENDBRANCH  36  37
ENDBRANCH  35  36
ENDBRANCH  34  35
ENDBRANCH  33  34
ENDBRANCH  32  33
ENDBRANCH   1  32
TORSDOF 24
ENDMDL
MODEL 2
REMARK VINA RESULT:      -9.9      5.389      8.270
REMARK SMILES Cc1c(CC(=O)OCCOCCOCCOCCOC(=O)c2ccc(-c3c4nc(c(-c5c(F)c(F)c(F)c(F)c5F)c5ccc([nH]5)c(-c5c(F)c(F)c(F)c(F)c5F)c5nc(c(-c6c(F)c(F)c(F)c(F)c6F)c6ccc3[nH]6)C=C5)C=C4)cc2)cc(-c2ccc(S(C)(=O)=O)cc2)n1-c1ccccc1
REMARK SMILES IDX 12 1 11 2 10 3 9 4 8 5 7 6 5 7 6 8 4 9 3 10 1 11 2 12 97 13
REMARK SMILES IDX 85 14 86 15 98 16 99 17 103 18 100 19 102 20 101 21 87 22
REMARK SMILES IDX 88 23 96 24 89 25 95 26 90 27 91 28 92 29 93 30 94 31 13 32
REMARK SMILES IDX 14 33 15 34 16 35 17 36 18 37 19 38 20 39 21 40 22 41 23 42
REMARK SMILES IDX 84 43 24 44 83 45 25 46 26 47 27 48 77 49 28 50 82 51 76 52
REMARK SMILES IDX 78 53 29 54 81 55 75 56 74 57 30 59 62 60 42 61 61 62 43 63
REMARK SMILES IDX 46 64 60 65 79 66 44 67 45 68 59 70 80 71 47 72 31 73 32 74
REMARK SMILES IDX 40 75 33 76 34 77 38 78 41 79 35 80 36 81 39 82 37 83 63 84
REMARK SMILES IDX 64 85 72 86 65 87 66 88 70 89 73 90 67 91 68 92 71 93 69 94
REMARK SMILES IDX 48 95 49 96 57 97 50 98 51 99 55 100 58 101 52 102 53 103
REMARK SMILES IDX 56 104 54 105
REMARK H PARENT 78 58 46 69
REMARK Flexibility Score: inf
ROOT
ATOM      1  C   UNL A   1      34.683  30.801  27.770  1.00  0.00     0.188 C 
ENDROOT
BRANCH   1   2
ATOM      2  C   UNL A   1      33.901  29.807  26.893  1.00  0.00     0.188 C 
BRANCH   2   3
ATOM      3  O   UNL A   1      33.147  30.316  25.805  1.00  0.00    -0.376 OA
BRANCH   3   4
ATOM      4  C   UNL A   1      31.749  30.039  25.793  1.00  0.00     0.202 C 
BRANCH   4   5
ATOM      5  C   UNL A   1      31.236  28.716  25.171  1.00  0.00     0.261 C 
BRANCH   5   6
ATOM      6  O   UNL A   1      30.675  28.806  23.829  1.00  0.00    -0.463 OA
BRANCH   6   7
ATOM      7  C   UNL A   1      30.443  27.640  23.183  1.00  0.00     0.310 C 
ATOM      8  O   UNL A   1      30.508  27.533  21.957  1.00  0.00    -0.252 OA
BRANCH   7   9
ATOM      9  C   UNL A   1      30.189  26.397  24.026  1.00  0.00     0.160 C 
BRANCH   9  10
ATOM     10  C   UNL A   1      31.215  25.308  24.273  1.00  0.00    -0.015 A 
ATOM     11  C   UNL A   1      33.505  26.503  23.741  1.00  0.00     0.065 C 
ATOM     12  C   UNL A   1      32.608  25.365  24.113  1.00  0.00     0.024 A 
ATOM     13  N   UNL A   1      33.128  24.092  24.319  1.00  0.00    -0.314 N 
ATOM     14  C   UNL A   1      30.908  23.921  24.444  1.00  0.00     0.033 A 
ATOM     15  C   UNL A   1      32.083  23.190  24.407  1.00  0.00     0.053 A 
BRANCH  13  16
ATOM     16  C   UNL A   1      34.497  23.745  24.462  1.00  0.00     0.046 A 
ATOM     17  C   UNL A   1      35.190  23.989  25.650  1.00  0.00     0.026 A 
ATOM     18  C   UNL A   1      35.186  23.334  23.326  1.00  0.00     0.026 A 
ATOM     19  C   UNL A   1      36.572  23.762  25.699  1.00  0.00     0.002 A 
ATOM     20  C   UNL A   1      36.559  23.093  23.397  1.00  0.00     0.002 A 
ATOM     21  C   UNL A   1      37.254  23.298  24.578  1.00  0.00     0.000 A 
ENDBRANCH  13  16
BRANCH  15  22
ATOM     22  C   UNL A   1      32.292  21.744  24.368  1.00  0.00    -0.001 A 
ATOM     23  C   UNL A   1      32.748  21.054  25.498  1.00  0.00     0.011 A 
ATOM     24  C   UNL A   1      32.125  21.057  23.157  1.00  0.00     0.011 A 
ATOM     25  C   UNL A   1      33.049  19.693  25.420  1.00  0.00     0.021 A 
ATOM     26  C   UNL A   1      32.420  19.695  23.073  1.00  0.00     0.021 A 
ATOM     27  C   UNL A   1      32.886  19.023  24.206  1.00  0.00     0.067 A 
BRANCH  27  28
ATOM     28  S   UNL A   1      33.213  17.279  24.124  1.00  0.00     0.175 S 
ATOM     29  C   UNL A   1      34.885  17.113  24.688  1.00  0.00     0.163 C 
ATOM     30  O   UNL A   1      32.340  16.647  25.109  1.00  0.00    -0.224 OA
ATOM     31  O   UNL A   1      33.176  16.882  22.737  1.00  0.00    -0.224 OA
ENDBRANCH  27  28
ENDBRANCH  15  22
ENDBRANCH   9  10
ENDBRANCH   7   9
ENDBRANCH   6   7
ENDBRANCH   5   6
ENDBRANCH   4   5
ENDBRANCH   3   4
ENDBRANCH   2   3
ENDBRANCH   1   2
BRANCH   1  32
ATOM     32  O   UNL A   1      34.024  32.015  28.063  1.00  0.00    -0.377 OA
BRANCH  32  33
ATOM     33  C   UNL A   1      34.617  33.024  28.863  1.00  0.00     0.188 C 
BRANCH  33  34
ATOM     34  C   UNL A   1      35.077  32.676  30.279  1.00  0.00     0.188 C 
BRANCH  34  35
ATOM     35  O   UNL A   1      36.434  32.247  30.416  1.00  0.00    -0.376 OA
BRANCH  35  36
ATOM     36  C   UNL A   1      36.672  31.153  31.310  1.00  0.00     0.202 C 
BRANCH  36  37
ATOM     37  C   UNL A   1      36.606  29.751  30.647  1.00  0.00     0.261 C 
BRANCH  37  38
ATOM     38  O   UNL A   1      37.691  28.805  31.012  1.00  0.00    -0.460 OA
BRANCH  38  39
ATOM     39  C   UNL A   1      38.097  28.685  32.316  1.00  0.00     0.338 C 
ATOM     40  O   UNL A   1      37.328  28.393  33.222  1.00  0.00    -0.246 OA
BRANCH  39  41
ATOM     41  C   UNL A   1      39.613  28.903  32.582  1.00  0.00     0.060 A 
ATOM     42  C   UNL A   1      40.128  30.195  32.618  1.00  0.00     0.016 A 
ATOM     43  C   UNL A   1      40.612  27.903  32.535  1.00  0.00     0.016 A 
ATOM     44  C   UNL A   1      41.560  30.456  32.648  1.00  0.00     0.010 A 
ATOM     45  C   UNL A   1      42.079  28.180  32.484  1.00  0.00     0.010 A 
ATOM     46  C   UNL A   1      42.630  29.480  32.532  1.00  0.00    -0.014 A 
BRANCH  46  47
ATOM     47  C   UNL A   1      44.119  30.033  31.951  1.00  0.00     0.031 A 
ATOM     48  C   UNL A   1      43.701  30.499  30.596  1.00  0.00     0.074 A 
ATOM     49  C   UNL A   1      45.526  30.096  32.143  1.00  0.00     0.049 A 
ATOM     50  N   UNL A   1      43.112  29.643  29.804  1.00  0.00    -0.248 NA
ATOM     51  C   UNL A   1      43.507  31.902  30.232  1.00  0.00     0.031 C 
ATOM     52  C   UNL A   1      46.336  29.483  33.218  1.00  0.00     0.029 A 
ATOM     53  N   UNL A   1      46.620  30.728  31.405  1.00  0.00    -0.354 N 
ATOM     54  C   UNL A   1      42.733  30.344  28.690  1.00  0.00     0.074 A 
ATOM     55  C   UNL A   1      42.789  31.740  29.111  1.00  0.00     0.031 C 
ATOM     56  C   UNL A   1      47.654  29.860  33.178  1.00  0.00     0.029 A 
ATOM     57  C   UNL A   1      47.947  30.730  32.036  1.00  0.00     0.049 A 
ATOM     58  H   UNL A   1      46.472  31.135  30.522  1.00  0.00     0.167 HD
ATOM     59  C   UNL A   1      43.168  29.791  27.520  1.00  0.00     0.037 A 
ATOM     60  C   UNL A   1      49.191  31.285  31.654  1.00  0.00     0.037 A 
ATOM     61  C   UNL A   1      44.384  30.409  27.071  1.00  0.00     0.049 A 
ATOM     62  C   UNL A   1      49.155  31.349  30.192  1.00  0.00     0.074 A 
ATOM     63  C   UNL A   1      44.780  31.729  27.002  1.00  0.00     0.029 A 
ATOM     64  N   UNL A   1      45.532  29.649  27.094  1.00  0.00    -0.354 N 
ATOM     65  N   UNL A   1      49.366  30.294  29.468  1.00  0.00    -0.248 NA
ATOM     66  C   UNL A   1      49.015  32.602  29.461  1.00  0.00     0.031 C 
ATOM     67  C   UNL A   1      46.082  31.729  27.538  1.00  0.00     0.029 A 
ATOM     68  C   UNL A   1      46.592  30.441  27.469  1.00  0.00     0.049 A 
ATOM     69  H   UNL A   1      45.585  28.690  26.877  1.00  0.00     0.167 HD
ATOM     70  C   UNL A   1      48.814  30.643  28.283  1.00  0.00     0.074 A 
ATOM     71  C   UNL A   1      48.885  32.093  28.233  1.00  0.00     0.031 C 
ATOM     72  C   UNL A   1      47.827  29.820  27.861  1.00  0.00     0.037 A 
BRANCH  59  73
ATOM     73  C   UNL A   1      42.871  28.318  27.427  1.00  0.00     0.064 A 
ATOM     74  C   UNL A   1      41.825  27.895  26.603  1.00  0.00     0.173 A 
ATOM     75  C   UNL A   1      43.477  27.346  28.255  1.00  0.00     0.173 A 
ATOM     76  F   UNL A   1      41.250  28.759  25.752  1.00  0.00    -0.203 F 
ATOM     77  C   UNL A   1      41.358  26.582  26.655  1.00  0.00     0.198 A 
ATOM     78  C   UNL A   1      42.961  26.059  28.358  1.00  0.00     0.198 A 
ATOM     79  F   UNL A   1      44.575  27.640  28.971  1.00  0.00    -0.203 F 
ATOM     80  F   UNL A   1      40.370  26.193  25.838  1.00  0.00    -0.200 F 
ATOM     81  C   UNL A   1      41.898  25.679  27.560  1.00  0.00     0.200 A 
ATOM     82  F   UNL A   1      43.494  25.194  29.234  1.00  0.00    -0.200 F 
ATOM     83  F   UNL A   1      41.408  24.435  27.648  1.00  0.00    -0.200 F 
ENDBRANCH  59  73
BRANCH  60  84
ATOM     84  C   UNL A   1      50.682  31.664  32.077  1.00  0.00     0.064 A 
ATOM     85  C   UNL A   1      51.015  32.963  32.634  1.00  0.00     0.173 A 
ATOM     86  C   UNL A   1      51.661  30.701  32.366  1.00  0.00     0.173 A 
ATOM     87  F   UNL A   1      50.236  34.035  32.435  1.00  0.00    -0.203 F 
ATOM     88  C   UNL A   1      52.119  33.221  33.476  1.00  0.00     0.198 A 
ATOM     89  C   UNL A   1      52.796  30.974  33.189  1.00  0.00     0.198 A 
ATOM     90  F   UNL A   1      51.504  29.445  31.930  1.00  0.00    -0.203 F 
ATOM     91  F   UNL A   1      52.269  34.428  34.049  1.00  0.00    -0.200 F 
ATOM     92  C   UNL A   1      53.002  32.216  33.773  1.00  0.00     0.200 A 
ATOM     93  F   UNL A   1      53.666  29.993  33.476  1.00  0.00    -0.200 F 
ATOM     94  F   UNL A   1      54.015  32.429  34.630  1.00  0.00    -0.200 F 
ENDBRANCH  60  84
BRANCH  72  95
ATOM     95  C   UNL A   1      48.087  28.330  27.979  1.00  0.00     0.064 A 
ATOM     96  C   UNL A   1      47.973  27.528  29.142  1.00  0.00     0.173 A 
ATOM     97  C   UNL A   1      48.588  27.689  26.838  1.00  0.00     0.173 A 
ATOM     98  F   UNL A   1      47.405  27.978  30.270  1.00  0.00    -0.203 F 
ATOM     99  C   UNL A   1      48.426  26.204  29.169  1.00  0.00     0.198 A 
ATOM    100  C   UNL A   1      48.984  26.354  26.853  1.00  0.00     0.198 A 
ATOM    101  F   UNL A   1      48.681  28.363  25.681  1.00  0.00    -0.203 F 
ATOM    102  F   UNL A   1      48.366  25.495  30.306  1.00  0.00    -0.200 F 
ATOM    103  C   UNL A   1      48.930  25.619  28.023  1.00  0.00     0.200 A 
ATOM    104  F   UNL A   1      49.420  25.782  25.722  1.00  0.00    -0.200 F 
ATOM    105  F   UNL A   1      49.347  24.345  28.040  1.00  0.00    -0.200 F 
ENDBRANCH  72  95
ENDBRANCH  46  47
ENDBRANCH  39  41
ENDBRANCH  38  39
ENDBRANCH  37  38
ENDBRANCH  36  37
ENDBRANCH  35  36
ENDBRANCH  34  35
ENDBRANCH  33  34
ENDBRANCH  32  33
ENDBRANCH   1  32
TORSDOF 24
ENDMDL
MODEL 3
REMARK VINA RESULT:      -9.7      6.575      9.086
REMARK SMILES Cc1c(CC(=O)OCCOCCOCCOCCOC(=O)c2ccc(-c3c4nc(c(-c5c(F)c(F)c(F)c(F)c5F)c5ccc([nH]5)c(-c5c(F)c(F)c(F)c(F)c5F)c5nc(c(-c6c(F)c(F)c(F)c(F)c6F)c6ccc3[nH]6)C=C5)C=C4)cc2)cc(-c2ccc(S(C)(=O)=O)cc2)n1-c1ccccc1
REMARK SMILES IDX 12 1 11 2 10 3 9 4 8 5 7 6 5 7 6 8 4 9 3 10 1 11 2 12 97 13
REMARK SMILES IDX 85 14 86 15 98 16 99 17 103 18 100 19 102 20 101 21 87 22
REMARK SMILES IDX 88 23 96 24 89 25 95 26 90 27 91 28 92 29 93 30 94 31 13 32
REMARK SMILES IDX 14 33 15 34 16 35 17 36 18 37 19 38 20 39 21 40 22 41 23 42
REMARK SMILES IDX 84 43 24 44 83 45 25 46 26 47 27 48 77 49 28 50 82 51 76 52
REMARK SMILES IDX 78 53 29 54 81 55 75 56 74 57 30 59 62 60 42 61 61 62 43 63
REMARK SMILES IDX 46 64 60 65 79 66 44 67 45 68 59 70 80 71 47 72 31 73 32 74
REMARK SMILES IDX 40 75 33 76 34 77 38 78 41 79 35 80 36 81 39 82 37 83 63 84
REMARK SMILES IDX 64 85 72 86 65 87 66 88 70 89 73 90 67 91 68 92 71 93 69 94
REMARK SMILES IDX 48 95 49 96 57 97 50 98 51 99 55 100 58 101 52 102 53 103
REMARK SMILES IDX 56 104 54 105
REMARK H PARENT 78 58 46 69
REMARK Flexibility Score: inf
ROOT
ATOM      1  C   UNL A   1      33.679  31.428  27.602  1.00  0.00     0.188 C 
ENDROOT
BRANCH   1   2
ATOM      2  C   UNL A   1      33.944  29.969  27.191  1.00  0.00     0.188 C 
BRANCH   2   3
ATOM      3  O   UNL A   1      33.487  29.531  25.922  1.00  0.00    -0.376 OA
BRANCH   3   4
ATOM      4  C   UNL A   1      32.152  29.872  25.557  1.00  0.00     0.202 C 
BRANCH   4   5
ATOM      5  C   UNL A   1      31.557  29.325  24.235  1.00  0.00     0.261 C 
BRANCH   5   6
ATOM      6  O   UNL A   1      30.316  28.570  24.347  1.00  0.00    -0.463 OA
BRANCH   6   7
ATOM      7  C   UNL A   1      30.319  27.311  23.851  1.00  0.00     0.310 C 
ATOM      8  O   UNL A   1      30.405  27.070  22.646  1.00  0.00    -0.252 OA
BRANCH   7   9
ATOM      9  C   UNL A   1      30.314  26.155  24.842  1.00  0.00     0.160 C 
BRANCH   9  10
ATOM     10  C   UNL A   1      31.393  25.092  24.922  1.00  0.00    -0.015 A 
ATOM     11  C   UNL A   1      33.593  26.421  24.332  1.00  0.00     0.065 C 
ATOM     12  C   UNL A   1      32.768  25.220  24.668  1.00  0.00     0.024 A 
ATOM     13  N   UNL A   1      33.345  23.957  24.726  1.00  0.00    -0.314 N 
ATOM     14  C   UNL A   1      31.149  23.684  24.994  1.00  0.00     0.033 A 
ATOM     15  C   UNL A   1      32.343  23.008  24.811  1.00  0.00     0.053 A 
BRANCH  13  16
ATOM     16  C   UNL A   1      34.733  23.656  24.741  1.00  0.00     0.046 A 
ATOM     17  C   UNL A   1      35.517  23.891  25.872  1.00  0.00     0.026 A 
ATOM     18  C   UNL A   1      35.335  23.302  23.537  1.00  0.00     0.026 A 
ATOM     19  C   UNL A   1      36.905  23.712  25.796  1.00  0.00     0.002 A 
ATOM     20  C   UNL A   1      36.716  23.109  23.484  1.00  0.00     0.002 A 
ATOM     21  C   UNL A   1      37.503  23.306  24.607  1.00  0.00     0.000 A 
ENDBRANCH  13  16
BRANCH  15  22
ATOM     22  C   UNL A   1      32.598  21.580  24.632  1.00  0.00    -0.001 A 
ATOM     23  C   UNL A   1      32.325  20.950  23.412  1.00  0.00     0.011 A 
ATOM     24  C   UNL A   1      33.029  20.816  25.725  1.00  0.00     0.011 A 
ATOM     25  C   UNL A   1      32.468  19.567  23.284  1.00  0.00     0.021 A 
ATOM     26  C   UNL A   1      33.179  19.433  25.605  1.00  0.00     0.021 A 
ATOM     27  C   UNL A   1      32.891  18.817  24.384  1.00  0.00     0.067 A 
BRANCH  27  28
ATOM     28  S   UNL A   1      33.129  17.066  24.203  1.00  0.00     0.175 S 
ATOM     29  C   UNL A   1      34.783  16.781  24.770  1.00  0.00     0.163 C 
ATOM     30  O   UNL A   1      32.213  16.425  25.142  1.00  0.00    -0.224 OA
ATOM     31  O   UNL A   1      33.087  16.753  22.795  1.00  0.00    -0.224 OA
ENDBRANCH  27  28
ENDBRANCH  15  22
ENDBRANCH   9  10
ENDBRANCH   7   9
ENDBRANCH   6   7
ENDBRANCH   5   6
ENDBRANCH   4   5
ENDBRANCH   3   4
ENDBRANCH   2   3
ENDBRANCH   1   2
BRANCH   1  32
ATOM     32  O   UNL A   1      34.732  32.076  28.285  1.00  0.00    -0.377 OA
BRANCH  32  33
ATOM     33  C   UNL A   1      34.699  32.303  29.684  1.00  0.00     0.188 C 
BRANCH  33  34
ATOM     34  C   UNL A   1      35.990  32.690  30.406  1.00  0.00     0.188 C 
BRANCH  34  35
ATOM     35  O   UNL A   1      37.203  32.179  29.850  1.00  0.00    -0.376 OA
BRANCH  35  36
ATOM     36  C   UNL A   1      37.173  30.824  29.384  1.00  0.00     0.202 C 
BRANCH  36  37
ATOM     37  C   UNL A   1      37.408  29.757  30.486  1.00  0.00     0.261 C 
BRANCH  37  38
ATOM     38  O   UNL A   1      37.853  30.270  31.807  1.00  0.00    -0.460 OA
BRANCH  38  39
ATOM     39  C   UNL A   1      38.266  29.402  32.785  1.00  0.00     0.338 C 
ATOM     40  O   UNL A   1      37.482  28.819  33.523  1.00  0.00    -0.246 OA
BRANCH  39  41
ATOM     41  C   UNL A   1      39.799  29.165  32.886  1.00  0.00     0.060 A 
ATOM     42  C   UNL A   1      40.675  30.229  32.703  1.00  0.00     0.016 A 
ATOM     43  C   UNL A   1      40.441  27.904  32.886  1.00  0.00     0.016 A 
ATOM     44  C   UNL A   1      42.112  30.035  32.574  1.00  0.00     0.010 A 
ATOM     45  C   UNL A   1      41.906  27.706  32.670  1.00  0.00     0.010 A 
ATOM     46  C   UNL A   1      42.820  28.769  32.496  1.00  0.00    -0.014 A 
BRANCH  46  47
ATOM     47  C   UNL A   1      44.322  28.771  31.718  1.00  0.00     0.031 A 
ATOM     48  C   UNL A   1      43.972  29.559  30.501  1.00  0.00     0.074 A 
ATOM     49  C   UNL A   1      45.642  28.245  31.671  1.00  0.00     0.049 A 
ATOM     50  N   UNL A   1      42.991  29.133  29.750  1.00  0.00    -0.248 NA
ATOM     51  C   UNL A   1      44.330  30.963  30.298  1.00  0.00     0.031 C 
ATOM     52  C   UNL A   1      46.251  27.211  32.534  1.00  0.00     0.029 A 
ATOM     53  N   UNL A   1      46.800  28.498  30.814  1.00  0.00    -0.354 N 
ATOM     54  C   UNL A   1      42.802  30.083  28.782  1.00  0.00     0.074 A 
ATOM     55  C   UNL A   1      43.479  31.265  29.307  1.00  0.00     0.031 C 
ATOM     56  C   UNL A   1      47.592  27.039  32.301  1.00  0.00     0.029 A 
ATOM     57  C   UNL A   1      48.076  27.884  31.205  1.00  0.00     0.049 A 
ATOM     58  H   UNL A   1      46.727  29.057  30.007  1.00  0.00     0.167 HD
ATOM     59  C   UNL A   1      42.825  29.585  27.512  1.00  0.00     0.037 A 
ATOM     60  C   UNL A   1      49.382  27.954  30.666  1.00  0.00     0.037 A 
ATOM     61  C   UNL A   1      44.123  29.733  26.916  1.00  0.00     0.049 A 
ATOM     62  C   UNL A   1      49.199  28.244  29.243  1.00  0.00     0.074 A 
ATOM     63  C   UNL A   1      45.016  30.786  26.895  1.00  0.00     0.029 A 
ATOM     64  N   UNL A   1      44.851  28.589  26.677  1.00  0.00    -0.354 N 
ATOM     65  N   UNL A   1      48.867  27.311  28.405  1.00  0.00    -0.248 NA
ATOM     66  C   UNL A   1      49.500  29.544  28.658  1.00  0.00     0.031 C 
ATOM     67  C   UNL A   1      46.257  30.193  27.198  1.00  0.00     0.029 A 
ATOM     68  C   UNL A   1      46.178  28.834  26.931  1.00  0.00     0.049 A 
ATOM     69  H   UNL A   1      44.477  27.730  26.371  1.00  0.00     0.167 HD
ATOM     70  C   UNL A   1      48.368  28.022  27.366  1.00  0.00     0.074 A 
ATOM     71  C   UNL A   1      49.023  29.317  27.431  1.00  0.00     0.031 C 
ATOM     72  C   UNL A   1      47.086  27.726  27.050  1.00  0.00     0.037 A 
BRANCH  59  73
ATOM     73  C   UNL A   1      41.939  28.379  27.344  1.00  0.00     0.064 A 
ATOM     74  C   UNL A   1      40.612  28.457  27.775  1.00  0.00     0.173 A 
ATOM     75  C   UNL A   1      42.413  27.114  26.932  1.00  0.00     0.173 A 
ATOM     76  F   UNL A   1      40.088  29.642  28.122  1.00  0.00    -0.203 F 
ATOM     77  C   UNL A   1      39.818  27.313  27.859  1.00  0.00     0.198 A 
ATOM     78  C   UNL A   1      41.643  25.966  27.086  1.00  0.00     0.198 A 
ATOM     79  F   UNL A   1      43.629  26.981  26.376  1.00  0.00    -0.203 F 
ATOM     80  F   UNL A   1      38.541  27.416  28.251  1.00  0.00    -0.200 F 
ATOM     81  C   UNL A   1      40.346  26.066  27.554  1.00  0.00     0.200 A 
ATOM     82  F   UNL A   1      42.164  24.767  26.786  1.00  0.00    -0.200 F 
ATOM     83  F   UNL A   1      39.598  24.963  27.692  1.00  0.00    -0.200 F 
ENDBRANCH  59  73
BRANCH  60  84
ATOM     84  C   UNL A   1      50.936  27.648  30.858  1.00  0.00     0.064 A 
ATOM     85  C   UNL A   1      51.855  28.644  31.381  1.00  0.00     0.173 A 
ATOM     86  C   UNL A   1      51.448  26.347  30.972  1.00  0.00     0.173 A 
ATOM     87  F   UNL A   1      51.580  29.954  31.325  1.00  0.00    -0.203 F 
ATOM     88  C   UNL A   1      53.067  28.353  32.045  1.00  0.00     0.198 A 
ATOM     89  C   UNL A   1      52.692  26.059  31.614  1.00  0.00     0.198 A 
ATOM     90  F   UNL A   1      50.722  25.308  30.543  1.00  0.00    -0.203 F 
ATOM     91  F   UNL A   1      53.785  29.339  32.609  1.00  0.00    -0.200 F 
ATOM     92  C   UNL A   1      53.477  27.053  32.181  1.00  0.00     0.200 A 
ATOM     93  F   UNL A   1      53.099  24.786  31.743  1.00  0.00    -0.200 F 
ATOM     94  F   UNL A   1      54.590  26.758  32.874  1.00  0.00    -0.200 F 
ENDBRANCH  60  84
BRANCH  72  95
ATOM     95  C   UNL A   1      46.722  26.255  26.993  1.00  0.00     0.064 A 
ATOM     96  C   UNL A   1      47.078  25.320  25.990  1.00  0.00     0.173 A 
ATOM     97  C   UNL A   1      45.857  25.785  27.991  1.00  0.00     0.173 A 
ATOM     98  F   UNL A   1      47.983  25.598  25.041  1.00  0.00    -0.203 F 
ATOM     99  C   UNL A   1      46.520  24.037  25.949  1.00  0.00     0.198 A 
ATOM    100  C   UNL A   1      45.349  24.488  27.980  1.00  0.00     0.198 A 
ATOM    101  F   UNL A   1      45.510  26.591  29.006  1.00  0.00    -0.203 F 
ATOM    102  F   UNL A   1      46.827  23.201  24.945  1.00  0.00    -0.200 F 
ATOM    103  C   UNL A   1      45.657  23.623  26.945  1.00  0.00     0.200 A 
ATOM    104  F   UNL A   1      44.557  24.081  28.981  1.00  0.00    -0.200 F 
ATOM    105  F   UNL A   1      45.136  22.388  26.921  1.00  0.00    -0.200 F 
ENDBRANCH  72  95
ENDBRANCH  46  47
ENDBRANCH  39  41
ENDBRANCH  38  39
ENDBRANCH  37  38
ENDBRANCH  36  37
ENDBRANCH  35  36
ENDBRANCH  34  35
ENDBRANCH  33  34
ENDBRANCH  32  33
ENDBRANCH   1  32
TORSDOF 24
ENDMDL
