MODEL 1
REMARK VINA RESULT:     -10.2      0.000      0.000
REMARK SMILES O=C(OCCOCCOCCOCCOC(=O)C1CCN(c2ccc(C(F)(F)F)cc2[N+](=O)[O-])CC1)c1ccc(-c2c3nc(c(-c4c(F)c(F)c(F)c(F)c4F)c4ccc([nH]4)c(-c4c(F)c(F)c(F)c(F)c4F)c4nc(c(-c5c(F)c(F)c(F)c(F)c5F)c5ccc2[nH]5)C=C4)C=C3)cc1
REMARK SMILES IDX 9 1 8 2 7 3 6 4 5 5 4 6 3 7 2 8 1 9 37 10 38 11 99 12 39 13
REMARK SMILES IDX 98 14 40 15 41 16 42 17 92 18 43 19 97 20 91 21 93 22 44 23
REMARK SMILES IDX 96 24 90 25 89 26 45 28 77 29 57 30 76 31 58 32 61 33 75 34
REMARK SMILES IDX 94 35 59 36 60 37 74 39 95 40 62 41 46 42 47 43 55 44 48 45
REMARK SMILES IDX 49 46 53 47 56 48 50 49 51 50 54 51 52 52 78 53 79 54 87 55
REMARK SMILES IDX 80 56 81 57 85 58 88 59 82 60 83 61 86 62 84 63 63 64 64 65
REMARK SMILES IDX 72 66 65 67 66 68 70 69 73 70 67 71 68 72 71 73 69 74 10 75
REMARK SMILES IDX 11 76 12 77 13 78 14 79 15 80 16 81 17 82 18 83 19 84 36 85
REMARK SMILES IDX 20 86 35 87 21 88 22 89 23 90 31 91 24 92 30 93 25 94 32 95
REMARK SMILES IDX 33 96 34 97 26 98 27 99 28 100 29 101
REMARK H PARENT 93 27 61 38
REMARK Flexibility Score: inf
ROOT
ATOM      1  O   UNL A   1      37.309  23.623  24.852  1.00  0.00    -0.377 OA
ENDROOT
BRANCH   1   2
ATOM      2  C   UNL A   1      37.833  23.782  26.173  1.00  0.00     0.188 C 
BRANCH   2   3
ATOM      3  C   UNL A   1      39.125  23.019  26.440  1.00  0.00     0.188 C 
BRANCH   3   4
ATOM      4  O   UNL A   1      38.861  21.630  26.548  1.00  0.00    -0.376 OA
BRANCH   4   5
ATOM      5  C   UNL A   1      38.981  20.895  25.339  1.00  0.00     0.202 C 
BRANCH   5   6
ATOM      6  C   UNL A   1      39.231  19.420  25.650  1.00  0.00     0.261 C 
BRANCH   6   7
ATOM      7  O   UNL A   1      40.404  19.251  26.471  1.00  0.00    -0.460 OA
BRANCH   7   8
ATOM      8  C   UNL A   1      41.671  19.604  26.134  1.00  0.00     0.338 C 
ATOM      9  O   UNL A   1      42.308  18.876  25.374  1.00  0.00    -0.246 OA
BRANCH   8  10
ATOM     10  C   UNL A   1      42.274  20.930  26.502  1.00  0.00     0.060 A 
ATOM     11  C   UNL A   1      42.641  21.347  27.786  1.00  0.00     0.016 A 
ATOM     12  C   UNL A   1      42.561  21.793  25.428  1.00  0.00     0.016 A 
ATOM     13  C   UNL A   1      43.251  22.580  28.006  1.00  0.00     0.010 A 
ATOM     14  C   UNL A   1      43.173  23.032  25.638  1.00  0.00     0.010 A 
ATOM     15  C   UNL A   1      43.508  23.434  26.936  1.00  0.00    -0.014 A 
BRANCH  15  16
ATOM     16  C   UNL A   1      43.991  24.801  27.206  1.00  0.00     0.031 A 
ATOM     17  C   UNL A   1      43.010  25.796  27.744  1.00  0.00     0.074 A 
ATOM     18  C   UNL A   1      45.286  25.115  27.029  1.00  0.00     0.049 A 
ATOM     19  N   UNL A   1      43.157  27.075  27.966  1.00  0.00    -0.248 NA
ATOM     20  C   UNL A   1      41.675  25.274  28.091  1.00  0.00     0.031 C 
ATOM     21  C   UNL A   1      46.332  24.182  26.610  1.00  0.00     0.029 A 
ATOM     22  N   UNL A   1      45.943  26.309  27.184  1.00  0.00    -0.354 N 
ATOM     23  C   UNL A   1      41.932  27.512  28.450  1.00  0.00     0.074 A 
ATOM     24  C   UNL A   1      41.050  26.369  28.497  1.00  0.00     0.031 C 
ATOM     25  C   UNL A   1      47.500  24.843  26.530  1.00  0.00     0.029 A 
ATOM     26  C   UNL A   1      47.271  26.252  26.835  1.00  0.00     0.049 A 
ATOM     27  H   UNL A   1      45.506  27.127  27.513  1.00  0.00     0.167 HD
ATOM     28  C   UNL A   1      41.581  28.767  28.811  1.00  0.00     0.037 A 
ATOM     29  C   UNL A   1      48.177  27.245  26.737  1.00  0.00     0.037 A 
ATOM     30  C   UNL A   1      42.480  29.887  28.761  1.00  0.00     0.049 A 
ATOM     31  C   UNL A   1      47.731  28.650  27.064  1.00  0.00     0.074 A 
ATOM     32  C   UNL A   1      42.237  31.208  29.081  1.00  0.00     0.029 A 
ATOM     33  N   UNL A   1      43.807  29.805  28.359  1.00  0.00    -0.354 N 
ATOM     34  N   UNL A   1      46.564  29.070  27.496  1.00  0.00    -0.248 NA
ATOM     35  C   UNL A   1      48.719  29.721  26.876  1.00  0.00     0.031 C 
ATOM     36  C   UNL A   1      43.402  31.937  28.825  1.00  0.00     0.029 A 
ATOM     37  C   UNL A   1      44.388  31.060  28.393  1.00  0.00     0.049 A 
ATOM     38  H   UNL A   1      44.266  28.978  28.088  1.00  0.00     0.167 HD
ATOM     39  C   UNL A   1      46.682  30.445  27.643  1.00  0.00     0.074 A 
ATOM     40  C   UNL A   1      48.042  30.786  27.283  1.00  0.00     0.031 C 
ATOM     41  C   UNL A   1      45.751  31.352  28.031  1.00  0.00     0.037 A 
BRANCH  28  42
ATOM     42  C   UNL A   1      40.159  28.998  29.222  1.00  0.00     0.064 A 
ATOM     43  C   UNL A   1      39.755  28.953  30.565  1.00  0.00     0.173 A 
ATOM     44  C   UNL A   1      39.185  29.280  28.252  1.00  0.00     0.173 A 
ATOM     45  F   UNL A   1      40.642  28.661  31.527  1.00  0.00    -0.203 F 
ATOM     46  C   UNL A   1      38.425  29.166  30.919  1.00  0.00     0.198 A 
ATOM     47  C   UNL A   1      37.862  29.516  28.611  1.00  0.00     0.198 A 
ATOM     48  F   UNL A   1      39.519  29.328  26.954  1.00  0.00    -0.203 F 
ATOM     49  F   UNL A   1      38.051  29.076  32.202  1.00  0.00    -0.200 F 
ATOM     50  C   UNL A   1      37.481  29.454  29.943  1.00  0.00     0.200 A 
ATOM     51  F   UNL A   1      36.952  29.799  27.667  1.00  0.00    -0.200 F 
ATOM     52  F   UNL A   1      36.202  29.663  30.286  1.00  0.00    -0.200 F 
ENDBRANCH  28  42
BRANCH  29  53
ATOM     53  C   UNL A   1      49.556  26.972  26.249  1.00  0.00     0.064 A 
ATOM     54  C   UNL A   1      49.877  27.038  24.885  1.00  0.00     0.173 A 
ATOM     55  C   UNL A   1      50.576  26.581  27.132  1.00  0.00     0.173 A 
ATOM     56  F   UNL A   1      48.934  27.376  23.992  1.00  0.00    -0.203 F 
ATOM     57  C   UNL A   1      51.148  26.698  24.423  1.00  0.00     0.198 A 
ATOM     58  C   UNL A   1      51.856  26.275  26.674  1.00  0.00     0.198 A 
ATOM     59  F   UNL A   1      50.327  26.488  28.447  1.00  0.00    -0.203 F 
ATOM     60  F   UNL A   1      51.405  26.705  23.108  1.00  0.00    -0.200 F 
ATOM     61  C   UNL A   1      52.138  26.320  25.318  1.00  0.00     0.200 A 
ATOM     62  F   UNL A   1      52.810  25.918  27.545  1.00  0.00    -0.200 F 
ATOM     63  F   UNL A   1      53.356  25.984  24.874  1.00  0.00    -0.200 F 
ENDBRANCH  29  53
BRANCH  41  64
ATOM     64  C   UNL A   1      46.183  32.786  28.098  1.00  0.00     0.064 A 
ATOM     65  C   UNL A   1      46.778  33.316  29.251  1.00  0.00     0.173 A 
ATOM     66  C   UNL A   1      46.052  33.619  26.977  1.00  0.00     0.173 A 
ATOM     67  F   UNL A   1      46.910  32.560  30.351  1.00  0.00    -0.203 F 
ATOM     68  C   UNL A   1      47.209  34.638  29.286  1.00  0.00     0.198 A 
ATOM     69  C   UNL A   1      46.513  34.931  27.006  1.00  0.00     0.198 A 
ATOM     70  F   UNL A   1      45.497  33.154  25.848  1.00  0.00    -0.203 F 
ATOM     71  F   UNL A   1      47.738  35.138  30.412  1.00  0.00    -0.200 F 
ATOM     72  C   UNL A   1      47.086  35.441  28.162  1.00  0.00     0.200 A 
ATOM     73  F   UNL A   1      46.408  35.701  25.913  1.00  0.00    -0.200 F 
ATOM     74  F   UNL A   1      47.514  36.710  28.194  1.00  0.00    -0.200 F 
ENDBRANCH  41  64
ENDBRANCH  15  16
ENDBRANCH   8  10
ENDBRANCH   7   8
ENDBRANCH   6   7
ENDBRANCH   5   6
ENDBRANCH   4   5
ENDBRANCH   3   4
ENDBRANCH   2   3
ENDBRANCH   1   2
BRANCH   1  75
ATOM     75  C   UNL A   1      35.962  24.081  24.685  1.00  0.00     0.188 C 
BRANCH  75  76
ATOM     76  C   UNL A   1      35.303  24.453  26.018  1.00  0.00     0.188 C 
BRANCH  76  77
ATOM     77  O   UNL A   1      33.918  24.784  25.957  1.00  0.00    -0.376 OA
BRANCH  77  78
ATOM     78  C   UNL A   1      33.573  26.109  25.567  1.00  0.00     0.202 C 
BRANCH  78  79
ATOM     79  C   UNL A   1      32.080  26.457  25.445  1.00  0.00     0.261 C 
BRANCH  79  80
ATOM     80  O   UNL A   1      31.628  26.709  24.092  1.00  0.00    -0.463 OA
BRANCH  80  81
ATOM     81  C   UNL A   1      32.314  26.084  23.105  1.00  0.00     0.309 C 
ATOM     82  O   UNL A   1      33.282  26.587  22.534  1.00  0.00    -0.252 OA
BRANCH  81  83
ATOM     83  C   UNL A   1      31.784  24.709  22.692  1.00  0.00     0.103 C 
ATOM     84  C   UNL A   1      30.884  23.893  23.633  1.00  0.00     0.037 C 
ATOM     85  C   UNL A   1      32.904  23.868  22.060  1.00  0.00     0.037 C 
ATOM     86  C   UNL A   1      31.483  22.676  24.357  1.00  0.00     0.117 C 
ATOM     87  C   UNL A   1      33.576  22.906  23.030  1.00  0.00     0.117 C 
ATOM     88  N   UNL A   1      32.570  22.031  23.617  1.00  0.00    -0.366 N 
BRANCH  88  89
ATOM     89  C   UNL A   1      32.848  20.692  23.878  1.00  0.00     0.116 A 
ATOM     90  C   UNL A   1      32.287  19.739  23.003  1.00  0.00     0.034 A 
ATOM     91  C   UNL A   1      33.650  20.157  24.906  1.00  0.00     0.293 A 
ATOM     92  C   UNL A   1      32.528  18.360  23.123  1.00  0.00     0.016 A 
ATOM     93  C   UNL A   1      33.896  18.771  25.047  1.00  0.00     0.101 A 
ATOM     94  C   UNL A   1      33.343  17.858  24.144  1.00  0.00     0.062 A 
BRANCH  91  95
ATOM     95  N   UNL A   1      34.194  20.982  25.968  1.00  0.00     0.064 N 
ATOM     96  O   UNL A   1      35.425  21.136  25.978  1.00  0.00    -0.258 OA
ATOM     97  O   UNL A   1      33.399  21.547  26.728  1.00  0.00    -0.258 OA
ENDBRANCH  91  95
BRANCH  94  98
ATOM     98  C   UNL A   1      33.625  16.377  24.241  1.00  0.00     0.416 C 
ATOM     99  F   UNL A   1      34.599  16.089  25.147  1.00  0.00    -0.166 F 
ATOM    100  F   UNL A   1      32.530  15.666  24.626  1.00  0.00    -0.166 F 
ATOM    101  F   UNL A   1      34.035  15.828  23.065  1.00  0.00    -0.166 F 
ENDBRANCH  94  98
ENDBRANCH  88  89
ENDBRANCH  81  83
ENDBRANCH  80  81
ENDBRANCH  79  80
ENDBRANCH  78  79
ENDBRANCH  77  78
ENDBRANCH  76  77
ENDBRANCH  75  76
ENDBRANCH   1  75
TORSDOF 23
ENDMDL
MODEL 2
REMARK VINA RESULT:      -9.9      6.020     10.582
REMARK SMILES O=C(OCCOCCOCCOCCOC(=O)C1CCN(c2ccc(C(F)(F)F)cc2[N+](=O)[O-])CC1)c1ccc(-c2c3nc(c(-c4c(F)c(F)c(F)c(F)c4F)c4ccc([nH]4)c(-c4c(F)c(F)c(F)c(F)c4F)c4nc(c(-c5c(F)c(F)c(F)c(F)c5F)c5ccc2[nH]5)C=C4)C=C3)cc1
REMARK SMILES IDX 9 1 8 2 7 3 6 4 5 5 4 6 3 7 2 8 1 9 37 10 38 11 99 12 39 13
REMARK SMILES IDX 98 14 40 15 41 16 42 17 92 18 43 19 97 20 91 21 93 22 44 23
REMARK SMILES IDX 96 24 90 25 89 26 45 28 77 29 57 30 76 31 58 32 61 33 75 34
REMARK SMILES IDX 94 35 59 36 60 37 74 39 95 40 62 41 46 42 47 43 55 44 48 45
REMARK SMILES IDX 49 46 53 47 56 48 50 49 51 50 54 51 52 52 78 53 79 54 87 55
REMARK SMILES IDX 80 56 81 57 85 58 88 59 82 60 83 61 86 62 84 63 63 64 64 65
REMARK SMILES IDX 72 66 65 67 66 68 70 69 73 70 67 71 68 72 71 73 69 74 10 75
REMARK SMILES IDX 11 76 12 77 13 78 14 79 15 80 16 81 17 82 18 83 19 84 36 85
REMARK SMILES IDX 20 86 35 87 21 88 22 89 23 90 31 91 24 92 30 93 25 94 32 95
REMARK SMILES IDX 33 96 34 97 26 98 27 99 28 100 29 101
REMARK H PARENT 93 27 61 38
REMARK Flexibility Score: inf
ROOT
ATOM      1  O   UNL A   1      32.579  35.124  29.883  1.00  0.00    -0.377 OA
ENDROOT
BRANCH   1   2
ATOM      2  C   UNL A   1      32.953  36.116  30.843  1.00  0.00     0.188 C 
BRANCH   2   3
ATOM      3  C   UNL A   1      32.483  35.833  32.265  1.00  0.00     0.188 C 
BRANCH   3   4
ATOM      4  O   UNL A   1      32.970  34.575  32.701  1.00  0.00    -0.376 OA
BRANCH   4   5
ATOM      5  C   UNL A   1      34.383  34.470  32.787  1.00  0.00     0.202 C 
BRANCH   5   6
ATOM      6  C   UNL A   1      34.766  33.520  33.921  1.00  0.00     0.261 C 
BRANCH   6   7
ATOM      7  O   UNL A   1      36.021  32.862  33.649  1.00  0.00    -0.460 OA
BRANCH   7   8
ATOM      8  C   UNL A   1      37.030  32.673  34.536  1.00  0.00     0.338 C 
ATOM      9  O   UNL A   1      36.794  32.792  35.739  1.00  0.00    -0.246 OA
BRANCH   8  10
ATOM     10  C   UNL A   1      38.382  32.153  34.138  1.00  0.00     0.060 A 
ATOM     11  C   UNL A   1      39.608  32.508  34.710  1.00  0.00     0.016 A 
ATOM     12  C   UNL A   1      38.389  31.159  33.142  1.00  0.00     0.016 A 
ATOM     13  C   UNL A   1      40.802  31.916  34.301  1.00  0.00     0.010 A 
ATOM     14  C   UNL A   1      39.580  30.560  32.724  1.00  0.00     0.010 A 
ATOM     15  C   UNL A   1      40.795  30.950  33.297  1.00  0.00    -0.014 A 
BRANCH  15  16
ATOM     16  C   UNL A   1      42.079  30.464  32.757  1.00  0.00     0.031 A 
ATOM     17  C   UNL A   1      42.758  31.296  31.713  1.00  0.00     0.074 A 
ATOM     18  C   UNL A   1      42.642  29.343  33.239  1.00  0.00     0.049 A 
ATOM     19  N   UNL A   1      43.831  31.042  31.013  1.00  0.00    -0.248 NA
ATOM     20  C   UNL A   1      42.144  32.605  31.421  1.00  0.00     0.031 C 
ATOM     21  C   UNL A   1      42.105  28.529  34.328  1.00  0.00     0.029 A 
ATOM     22  N   UNL A   1      43.795  28.697  32.873  1.00  0.00    -0.354 N 
ATOM     23  C   UNL A   1      44.004  32.142  30.184  1.00  0.00     0.074 A 
ATOM     24  C   UNL A   1      42.934  33.070  30.465  1.00  0.00     0.031 C 
ATOM     25  C   UNL A   1      42.923  27.482  34.536  1.00  0.00     0.029 A 
ATOM     26  C   UNL A   1      44.006  27.524  33.558  1.00  0.00     0.049 A 
ATOM     27  H   UNL A   1      44.412  29.040  32.187  1.00  0.00     0.167 HD
ATOM     28  C   UNL A   1      44.973  32.343  29.263  1.00  0.00     0.037 A 
ATOM     29  C   UNL A   1      44.949  26.579  33.373  1.00  0.00     0.037 A 
ATOM     30  C   UNL A   1      46.031  31.405  29.007  1.00  0.00     0.049 A 
ATOM     31  C   UNL A   1      45.966  26.793  32.278  1.00  0.00     0.074 A 
ATOM     32  C   UNL A   1      47.058  31.488  28.087  1.00  0.00     0.029 A 
ATOM     33  N   UNL A   1      46.190  30.204  29.686  1.00  0.00    -0.354 N 
ATOM     34  N   UNL A   1      46.115  27.820  31.474  1.00  0.00    -0.248 NA
ATOM     35  C   UNL A   1      46.935  25.712  32.051  1.00  0.00     0.031 C 
ATOM     36  C   UNL A   1      47.811  30.312  28.173  1.00  0.00     0.029 A 
ATOM     37  C   UNL A   1      47.282  29.520  29.183  1.00  0.00     0.049 A 
ATOM     38  H   UNL A   1      45.612  29.886  30.416  1.00  0.00     0.167 HD
ATOM     39  C   UNL A   1      47.197  27.517  30.660  1.00  0.00     0.074 A 
ATOM     40  C   UNL A   1      47.686  26.221  31.086  1.00  0.00     0.031 C 
ATOM     41  C   UNL A   1      47.738  28.233  29.643  1.00  0.00     0.037 A 
BRANCH  28  42
ATOM     42  C   UNL A   1      44.888  33.585  28.428  1.00  0.00     0.064 A 
ATOM     43  C   UNL A   1      44.276  33.594  27.166  1.00  0.00     0.173 A 
ATOM     44  C   UNL A   1      45.422  34.790  28.909  1.00  0.00     0.173 A 
ATOM     45  F   UNL A   1      43.774  32.462  26.652  1.00  0.00    -0.203 F 
ATOM     46  C   UNL A   1      44.216  34.762  26.410  1.00  0.00     0.198 A 
ATOM     47  C   UNL A   1      45.339  35.961  28.161  1.00  0.00     0.198 A 
ATOM     48  F   UNL A   1      46.024  34.833  30.107  1.00  0.00    -0.203 F 
ATOM     49  F   UNL A   1      43.665  34.740  25.189  1.00  0.00    -0.200 F 
ATOM     50  C   UNL A   1      44.741  35.945  26.910  1.00  0.00     0.200 A 
ATOM     51  F   UNL A   1      45.843  37.103  28.648  1.00  0.00    -0.200 F 
ATOM     52  F   UNL A   1      44.679  37.069  26.182  1.00  0.00    -0.200 F 
ENDBRANCH  28  42
BRANCH  29  53
ATOM     53  C   UNL A   1      44.941  25.328  34.179  1.00  0.00     0.064 A 
ATOM     54  C   UNL A   1      45.510  25.277  35.460  1.00  0.00     0.173 A 
ATOM     55  C   UNL A   1      44.415  24.133  33.660  1.00  0.00     0.173 A 
ATOM     56  F   UNL A   1      46.056  26.381  35.993  1.00  0.00    -0.203 F 
ATOM     57  C   UNL A   1      45.578  24.082  36.176  1.00  0.00     0.198 A 
ATOM     58  C   UNL A   1      44.451  22.946  34.390  1.00  0.00     0.198 A 
ATOM     59  F   UNL A   1      43.868  24.115  32.436  1.00  0.00    -0.203 F 
ATOM     60  F   UNL A   1      46.188  24.051  37.368  1.00  0.00    -0.200 F 
ATOM     61  C   UNL A   1      45.045  22.918  35.642  1.00  0.00     0.200 A 
ATOM     62  F   UNL A   1      43.928  21.827  33.872  1.00  0.00    -0.200 F 
ATOM     63  F   UNL A   1      45.118  21.768  36.325  1.00  0.00    -0.200 F 
ENDBRANCH  29  53
BRANCH  41  64
ATOM     64  C   UNL A   1      48.921  27.637  28.942  1.00  0.00     0.064 A 
ATOM     65  C   UNL A   1      50.193  27.630  29.533  1.00  0.00     0.173 A 
ATOM     66  C   UNL A   1      48.766  27.016  27.694  1.00  0.00     0.173 A 
ATOM     67  F   UNL A   1      50.389  28.224  30.719  1.00  0.00    -0.203 F 
ATOM     68  C   UNL A   1      51.273  27.038  28.888  1.00  0.00     0.198 A 
ATOM     69  C   UNL A   1      49.844  26.399  27.066  1.00  0.00     0.198 A 
ATOM     70  F   UNL A   1      47.567  26.990  27.093  1.00  0.00    -0.203 F 
ATOM     71  F   UNL A   1      52.490  27.079  29.450  1.00  0.00    -0.200 F 
ATOM     72  C   UNL A   1      51.097  26.416  27.661  1.00  0.00     0.200 A 
ATOM     73  F   UNL A   1      49.668  25.783  25.889  1.00  0.00    -0.200 F 
ATOM     74  F   UNL A   1      52.137  25.835  27.048  1.00  0.00    -0.200 F 
ENDBRANCH  41  64
ENDBRANCH  15  16
ENDBRANCH   8  10
ENDBRANCH   7   8
ENDBRANCH   6   7
ENDBRANCH   5   6
ENDBRANCH   4   5
ENDBRANCH   3   4
ENDBRANCH   2   3
ENDBRANCH   1   2
BRANCH   1  75
ATOM     75  C   UNL A   1      33.465  35.014  28.762  1.00  0.00     0.188 C 
BRANCH  75  76
ATOM     76  C   UNL A   1      34.740  34.235  29.102  1.00  0.00     0.188 C 
BRANCH  76  77
ATOM     77  O   UNL A   1      34.561  32.856  29.420  1.00  0.00    -0.376 OA
BRANCH  77  78
ATOM     78  C   UNL A   1      35.551  31.941  28.962  1.00  0.00     0.202 C 
BRANCH  78  79
ATOM     79  C   UNL A   1      36.514  31.343  30.001  1.00  0.00     0.261 C 
BRANCH  79  80
ATOM     80  O   UNL A   1      36.659  29.904  29.931  1.00  0.00    -0.463 OA
BRANCH  80  81
ATOM     81  C   UNL A   1      37.593  29.437  29.067  1.00  0.00     0.309 C 
ATOM     82  O   UNL A   1      37.379  29.278  27.865  1.00  0.00    -0.252 OA
BRANCH  81  83
ATOM     83  C   UNL A   1      38.943  29.063  29.682  1.00  0.00     0.103 C 
ATOM     84  C   UNL A   1      40.239  29.750  29.223  1.00  0.00     0.037 C 
ATOM     85  C   UNL A   1      39.083  27.536  29.784  1.00  0.00     0.037 C 
ATOM     86  C   UNL A   1      41.212  28.969  28.325  1.00  0.00     0.117 C 
ATOM     87  C   UNL A   1      39.853  26.908  28.631  1.00  0.00     0.117 C 
ATOM     88  N   UNL A   1      41.170  27.520  28.538  1.00  0.00    -0.366 N 
BRANCH  88  89
ATOM     89  C   UNL A   1      42.291  26.767  28.198  1.00  0.00     0.116 A 
ATOM     90  C   UNL A   1      43.185  26.442  29.238  1.00  0.00     0.034 A 
ATOM     91  C   UNL A   1      42.641  26.257  26.931  1.00  0.00     0.293 A 
ATOM     92  C   UNL A   1      44.326  25.647  29.041  1.00  0.00     0.016 A 
ATOM     93  C   UNL A   1      43.790  25.463  26.713  1.00  0.00     0.101 A 
ATOM     94  C   UNL A   1      44.640  25.140  27.775  1.00  0.00     0.062 A 
BRANCH  91  95
ATOM     95  N   UNL A   1      41.906  26.605  25.730  1.00  0.00     0.064 N 
ATOM     96  O   UNL A   1      42.398  27.491  25.013  1.00  0.00    -0.258 OA
ATOM     97  O   UNL A   1      40.901  25.941  25.451  1.00  0.00    -0.258 OA
ENDBRANCH  91  95
BRANCH  94  98
ATOM     98  C   UNL A   1      45.850  24.255  27.583  1.00  0.00     0.416 C 
ATOM     99  F   UNL A   1      46.838  24.518  28.480  1.00  0.00    -0.166 F 
ATOM    100  F   UNL A   1      45.552  22.934  27.726  1.00  0.00    -0.166 F 
ATOM    101  F   UNL A   1      46.418  24.381  26.352  1.00  0.00    -0.166 F 
ENDBRANCH  94  98
ENDBRANCH  88  89
ENDBRANCH  81  83
ENDBRANCH  80  81
ENDBRANCH  79  80
ENDBRANCH  78  79
ENDBRANCH  77  78
ENDBRANCH  76  77
ENDBRANCH  75  76
ENDBRANCH   1  75
TORSDOF 23
ENDMDL
MODEL 3
REMARK VINA RESULT:      -9.8      6.808     12.084
REMARK SMILES O=C(OCCOCCOCCOCCOC(=O)C1CCN(c2ccc(C(F)(F)F)cc2[N+](=O)[O-])CC1)c1ccc(-c2c3nc(c(-c4c(F)c(F)c(F)c(F)c4F)c4ccc([nH]4)c(-c4c(F)c(F)c(F)c(F)c4F)c4nc(c(-c5c(F)c(F)c(F)c(F)c5F)c5ccc2[nH]5)C=C4)C=C3)cc1
REMARK SMILES IDX 9 1 8 2 7 3 6 4 5 5 4 6 3 7 2 8 1 9 37 10 38 11 99 12 39 13
REMARK SMILES IDX 98 14 40 15 41 16 42 17 92 18 43 19 97 20 91 21 93 22 44 23
REMARK SMILES IDX 96 24 90 25 89 26 45 28 77 29 57 30 76 31 58 32 61 33 75 34
REMARK SMILES IDX 94 35 59 36 60 37 74 39 95 40 62 41 46 42 47 43 55 44 48 45
REMARK SMILES IDX 49 46 53 47 56 48 50 49 51 50 54 51 52 52 78 53 79 54 87 55
REMARK SMILES IDX 80 56 81 57 85 58 88 59 82 60 83 61 86 62 84 63 63 64 64 65
REMARK SMILES IDX 72 66 65 67 66 68 70 69 73 70 67 71 68 72 71 73 69 74 10 75
REMARK SMILES IDX 11 76 12 77 13 78 14 79 15 80 16 81 17 82 18 83 19 84 36 85
REMARK SMILES IDX 20 86 35 87 21 88 22 89 23 90 31 91 24 92 30 93 25 94 32 95
REMARK SMILES IDX 33 96 34 97 26 98 27 99 28 100 29 101
REMARK H PARENT 93 27 61 38
REMARK Flexibility Score: inf
ROOT
ATOM      1  O   UNL A   1      37.829  33.237  38.023  1.00  0.00    -0.377 OA
ENDROOT
BRANCH   1   2
ATOM      2  C   UNL A   1      37.812  33.277  39.452  1.00  0.00     0.188 C 
BRANCH   2   3
ATOM      3  C   UNL A   1      39.128  32.889  40.115  1.00  0.00     0.188 C 
BRANCH   3   4
ATOM      4  O   UNL A   1      39.626  33.970  40.886  1.00  0.00    -0.376 OA
BRANCH   4   5
ATOM      5  C   UNL A   1      38.825  35.144  40.871  1.00  0.00     0.202 C 
BRANCH   5   6
ATOM      6  C   UNL A   1      39.693  36.361  40.557  1.00  0.00     0.261 C 
BRANCH   6   7
ATOM      7  O   UNL A   1      41.045  35.971  40.240  1.00  0.00    -0.460 OA
BRANCH   7   8
ATOM      8  C   UNL A   1      41.790  36.441  39.208  1.00  0.00     0.338 C 
ATOM      9  O   UNL A   1      42.507  37.424  39.392  1.00  0.00    -0.246 OA
BRANCH   8  10
ATOM     10  C   UNL A   1      41.918  35.718  37.897  1.00  0.00     0.060 A 
ATOM     11  C   UNL A   1      40.876  35.399  37.021  1.00  0.00     0.016 A 
ATOM     12  C   UNL A   1      43.230  35.406  37.494  1.00  0.00     0.016 A 
ATOM     13  C   UNL A   1      41.116  34.777  35.797  1.00  0.00     0.010 A 
ATOM     14  C   UNL A   1      43.482  34.782  36.269  1.00  0.00     0.010 A 
ATOM     15  C   UNL A   1      42.418  34.454  35.421  1.00  0.00    -0.014 A 
BRANCH  15  16
ATOM     16  C   UNL A   1      42.637  33.642  34.210  1.00  0.00     0.031 A 
ATOM     17  C   UNL A   1      42.660  32.152  34.360  1.00  0.00     0.074 A 
ATOM     18  C   UNL A   1      42.749  34.229  33.006  1.00  0.00     0.049 A 
ATOM     19  N   UNL A   1      42.933  31.229  33.477  1.00  0.00    -0.248 NA
ATOM     20  C   UNL A   1      42.318  31.627  35.695  1.00  0.00     0.031 C 
ATOM     21  C   UNL A   1      42.632  35.664  32.751  1.00  0.00     0.029 A 
ATOM     22  N   UNL A   1      42.982  33.686  31.768  1.00  0.00    -0.354 N 
ATOM     23  C   UNL A   1      42.822  30.022  34.153  1.00  0.00     0.074 A 
ATOM     24  C   UNL A   1      42.454  30.321  35.517  1.00  0.00     0.031 C 
ATOM     25  C   UNL A   1      42.807  35.891  31.438  1.00  0.00     0.029 A 
ATOM     26  C   UNL A   1      43.103  34.626  30.772  1.00  0.00     0.049 A 
ATOM     27  H   UNL A   1      43.056  32.718  31.608  1.00  0.00     0.167 HD
ATOM     28  C   UNL A   1      43.025  28.777  33.668  1.00  0.00     0.037 A 
ATOM     29  C   UNL A   1      43.457  34.470  29.482  1.00  0.00     0.037 A 
ATOM     30  C   UNL A   1      43.385  28.507  32.303  1.00  0.00     0.049 A 
ATOM     31  C   UNL A   1      43.761  33.074  28.991  1.00  0.00     0.074 A 
ATOM     32  C   UNL A   1      43.636  27.290  31.698  1.00  0.00     0.029 A 
ATOM     33  N   UNL A   1      43.545  29.484  31.330  1.00  0.00    -0.354 N 
ATOM     34  N   UNL A   1      43.684  31.933  29.636  1.00  0.00    -0.248 NA
ATOM     35  C   UNL A   1      44.217  32.944  27.600  1.00  0.00     0.031 C 
ATOM     36  C   UNL A   1      43.997  27.535  30.370  1.00  0.00     0.029 A 
ATOM     37  C   UNL A   1      43.923  28.901  30.134  1.00  0.00     0.049 A 
ATOM     38  H   UNL A   1      43.411  30.449  31.470  1.00  0.00     0.167 HD
ATOM     39  C   UNL A   1      44.066  30.953  28.731  1.00  0.00     0.074 A 
ATOM     40  C   UNL A   1      44.347  31.630  27.482  1.00  0.00     0.031 C 
ATOM     41  C   UNL A   1      44.186  29.615  28.911  1.00  0.00     0.037 A 
BRANCH  28  42
ATOM     42  C   UNL A   1      42.926  27.633  34.631  1.00  0.00     0.064 A 
ATOM     43  C   UNL A   1      44.001  27.254  35.450  1.00  0.00     0.173 A 
ATOM     44  C   UNL A   1      41.728  26.911  34.743  1.00  0.00     0.173 A 
ATOM     45  F   UNL A   1      45.174  27.896  35.362  1.00  0.00    -0.203 F 
ATOM     46  C   UNL A   1      43.883  26.183  36.333  1.00  0.00     0.198 A 
ATOM     47  C   UNL A   1      41.607  25.857  35.643  1.00  0.00     0.198 A 
ATOM     48  F   UNL A   1      40.674  27.229  33.977  1.00  0.00    -0.203 F 
ATOM     49  F   UNL A   1      44.934  25.811  37.075  1.00  0.00    -0.200 F 
ATOM     50  C   UNL A   1      42.685  25.491  36.434  1.00  0.00     0.200 A 
ATOM     51  F   UNL A   1      40.447  25.192  35.742  1.00  0.00    -0.200 F 
ATOM     52  F   UNL A   1      42.573  24.463  37.287  1.00  0.00    -0.200 F 
ENDBRANCH  28  42
BRANCH  29  53
ATOM     53  C   UNL A   1      43.615  35.648  28.587  1.00  0.00     0.064 A 
ATOM     54  C   UNL A   1      44.861  36.266  28.401  1.00  0.00     0.173 A 
ATOM     55  C   UNL A   1      42.509  36.223  27.939  1.00  0.00     0.173 A 
ATOM     56  F   UNL A   1      45.947  35.780  29.021  1.00  0.00    -0.203 F 
ATOM     57  C   UNL A   1      44.988  37.422  27.631  1.00  0.00     0.198 A 
ATOM     58  C   UNL A   1      42.643  37.357  27.140  1.00  0.00     0.198 A 
ATOM     59  F   UNL A   1      41.289  35.684  28.087  1.00  0.00    -0.203 F 
ATOM     60  F   UNL A   1      46.179  38.028  27.529  1.00  0.00    -0.200 F 
ATOM     61  C   UNL A   1      43.880  37.965  26.998  1.00  0.00     0.200 A 
ATOM     62  F   UNL A   1      41.570  37.872  26.525  1.00  0.00    -0.200 F 
ATOM     63  F   UNL A   1      44.001  39.080  26.266  1.00  0.00    -0.200 F 
ENDBRANCH  29  53
BRANCH  41  64
ATOM     64  C   UNL A   1      44.623  28.804  27.727  1.00  0.00     0.064 A 
ATOM     65  C   UNL A   1      43.695  28.302  26.804  1.00  0.00     0.173 A 
ATOM     66  C   UNL A   1      45.986  28.579  27.487  1.00  0.00     0.173 A 
ATOM     67  F   UNL A   1      42.381  28.481  27.002  1.00  0.00    -0.203 F 
ATOM     68  C   UNL A   1      44.116  27.585  25.690  1.00  0.00     0.198 A 
ATOM     69  C   UNL A   1      46.405  27.887  26.354  1.00  0.00     0.198 A 
ATOM     70  F   UNL A   1      46.911  29.048  28.337  1.00  0.00    -0.203 F 
ATOM     71  F   UNL A   1      43.212  27.077  24.841  1.00  0.00    -0.200 F 
ATOM     72  C   UNL A   1      45.470  27.386  25.461  1.00  0.00     0.200 A 
ATOM     73  F   UNL A   1      47.714  27.711  26.126  1.00  0.00    -0.200 F 
ATOM     74  F   UNL A   1      45.875  26.706  24.380  1.00  0.00    -0.200 F 
ENDBRANCH  41  64
ENDBRANCH  15  16
ENDBRANCH   8  10
ENDBRANCH   7   8
ENDBRANCH   6   7
ENDBRANCH   5   6
ENDBRANCH   4   5
ENDBRANCH   3   4
ENDBRANCH   2   3
ENDBRANCH   1   2
BRANCH   1  75
ATOM     75  C   UNL A   1      38.842  32.393  37.462  1.00  0.00     0.188 C 
BRANCH  75  76
ATOM     76  C   UNL A   1      38.261  31.342  36.510  1.00  0.00     0.188 C 
BRANCH  76  77
ATOM     77  O   UNL A   1      37.412  31.837  35.477  1.00  0.00    -0.376 OA
BRANCH  77  78
ATOM     78  C   UNL A   1      37.953  32.812  34.591  1.00  0.00     0.202 C 
BRANCH  78  79
ATOM     79  C   UNL A   1      37.290  34.199  34.557  1.00  0.00     0.261 C 
BRANCH  79  80
ATOM     80  O   UNL A   1      37.291  34.837  33.257  1.00  0.00    -0.463 OA
BRANCH  80  81
ATOM     81  C   UNL A   1      36.096  34.902  32.621  1.00  0.00     0.309 C 
ATOM     82  O   UNL A   1      35.197  35.674  32.954  1.00  0.00    -0.252 OA
BRANCH  81  83
ATOM     83  C   UNL A   1      35.897  33.911  31.472  1.00  0.00     0.103 C 
ATOM     84  C   UNL A   1      35.205  32.559  31.705  1.00  0.00     0.037 C 
ATOM     85  C   UNL A   1      37.183  33.786  30.640  1.00  0.00     0.037 C 
ATOM     86  C   UNL A   1      36.064  31.285  31.737  1.00  0.00     0.117 C 
ATOM     87  C   UNL A   1      38.053  32.597  31.023  1.00  0.00     0.117 C 
ATOM     88  N   UNL A   1      37.273  31.372  30.915  1.00  0.00    -0.366 N 
BRANCH  88  89
ATOM     89  C   UNL A   1      37.849  30.192  30.453  1.00  0.00     0.116 A 
ATOM     90  C   UNL A   1      37.872  29.994  29.057  1.00  0.00     0.034 A 
ATOM     91  C   UNL A   1      38.444  29.163  31.211  1.00  0.00     0.293 A 
ATOM     92  C   UNL A   1      38.466  28.871  28.458  1.00  0.00     0.016 A 
ATOM     93  C   UNL A   1      39.039  28.022  30.624  1.00  0.00     0.101 A 
ATOM     94  C   UNL A   1      39.065  27.873  29.234  1.00  0.00     0.062 A 
BRANCH  91  95
ATOM     95  N   UNL A   1      38.390  29.143  32.660  1.00  0.00     0.064 N 
ATOM     96  O   UNL A   1      39.214  29.853  33.258  1.00  0.00    -0.258 OA
ATOM     97  O   UNL A   1      37.479  28.502  33.198  1.00  0.00    -0.258 OA
ENDBRANCH  91  95
BRANCH  94  98
ATOM     98  C   UNL A   1      39.735  26.688  28.576  1.00  0.00     0.416 C 
ATOM     99  F   UNL A   1      40.972  26.439  29.084  1.00  0.00    -0.166 F 
ATOM    100  F   UNL A   1      39.023  25.538  28.734  1.00  0.00    -0.166 F 
ATOM    101  F   UNL A   1      39.905  26.843  27.234  1.00  0.00    -0.166 F 
ENDBRANCH  94  98
ENDBRANCH  88  89
ENDBRANCH  81  83
ENDBRANCH  80  81
ENDBRANCH  79  80
ENDBRANCH  78  79
ENDBRANCH  77  78
ENDBRANCH  76  77
ENDBRANCH  75  76
ENDBRANCH   1  75
TORSDOF 23
ENDMDL
