MODEL 1
REMARK VINA RESULT:     -10.1      0.000      0.000
REMARK SMILES CC[C@H](C)[C@H](NC(=O)[C@@H](C)Oc1ccc2c(C)c(C)c(=O)oc2c1C)C(=O)OCCOCCOCCOCCOC(=O)c1ccc(-c2c3nc(c(-c4c(F)c(F)c(F)c(F)c4F)c4ccc([nH]4)c(-c4c(F)c(F)c(F)c(F)c4F)c4nc(c(-c5c(F)c(F)c(F)c(F)c5F)c5ccc2[nH]5)C=C4)C=C3)cc1
REMARK SMILES IDX 33 1 32 2 31 3 30 4 29 5 28 6 26 7 27 8 5 9 3 10 4 11 2 12
REMARK SMILES IDX 1 13 6 14 7 15 8 17 9 18 10 19 11 20 12 21 13 22 24 23 14 24
REMARK SMILES IDX 23 25 25 26 15 27 22 28 16 29 20 30 17 31 18 32 21 33 19 34
REMARK SMILES IDX 34 35 35 36 36 37 37 38 38 39 39 40 40 41 41 42 42 43 43 44
REMARK SMILES IDX 44 45 105 46 45 47 104 48 46 49 47 50 48 51 98 52 49 53
REMARK SMILES IDX 103 54 97 55 99 56 50 57 102 58 96 59 95 60 51 62 83 63
REMARK SMILES IDX 63 64 82 65 64 66 67 67 81 68 100 69 65 70 66 71 80 73
REMARK SMILES IDX 101 74 68 75 52 76 53 77 61 78 54 79 55 80 59 81 62 82 56 83
REMARK SMILES IDX 57 84 60 85 58 86 84 87 85 88 93 89 86 90 87 91 91 92 94 93
REMARK SMILES IDX 88 94 89 95 92 96 90 97 69 98 70 99 78 100 71 101 72 102
REMARK SMILES IDX 76 103 79 104 73 105 74 106 77 107 75 108
REMARK H PARENT 6 16 99 61 67 72
REMARK Flexibility Score: inf
ROOT
ATOM      1  C   UNL A   1      51.058  28.131  28.372  1.00  0.00     0.188 C 
ENDROOT
BRANCH   1   2
ATOM      2  C   UNL A   1      49.452  27.300  28.158  1.00  0.00     0.188 C 
BRANCH   2   3
ATOM      3  O   UNL A   1      48.311  28.065  27.777  1.00  0.00    -0.376 OA
BRANCH   3   4
ATOM      4  C   UNL A   1      47.872  28.313  26.406  1.00  0.00     0.202 C 
BRANCH   4   5
ATOM      5  C   UNL A   1      47.269  29.786  26.313  1.00  0.00     0.261 C 
BRANCH   5   6
ATOM      6  O   UNL A   1      45.851  29.741  26.101  1.00  0.00    -0.462 OA
BRANCH   6   7
ATOM      7  C   UNL A   1      45.257  30.710  26.844  1.00  0.00     0.328 C 
ATOM      8  O   UNL A   1      45.839  31.743  27.161  1.00  0.00    -0.250 OA
BRANCH   7   9
ATOM      9  C   UNL A   1      43.749  30.429  27.085  1.00  0.00     0.195 C 
BRANCH   9  10
ATOM     10  C   UNL A   1      43.613  29.952  28.566  1.00  0.00     0.019 C 
ATOM     11  C   UNL A   1      42.209  30.234  29.115  1.00  0.00     0.010 C 
BRANCH  10  12
ATOM     12  C   UNL A   1      44.068  28.463  28.677  1.00  0.00     0.002 C 
ATOM     13  C   UNL A   1      45.267  28.181  29.569  1.00  0.00     0.004 C 
ENDBRANCH  10  12
ENDBRANCH   9  10
BRANCH   9  14
ATOM     14  N   UNL A   1      43.122  29.488  26.102  1.00  0.00    -0.339 N 
ATOM     15  C   UNL A   1      42.125  28.578  25.900  1.00  0.00     0.261 C 
ATOM     16  H   UNL A   1      43.636  29.551  25.265  1.00  0.00     0.164 HD
ATOM     17  O   UNL A   1      42.247  28.249  24.691  1.00  0.00    -0.271 OA
BRANCH  15  18
ATOM     18  C   UNL A   1      40.698  27.818  26.918  1.00  0.00     0.258 C 
ATOM     19  C   UNL A   1      39.590  28.977  26.897  1.00  0.00     0.064 C 
BRANCH  18  20
ATOM     20  O   UNL A   1      40.417  25.912  27.465  1.00  0.00    -0.480 OA
BRANCH  20  21
ATOM     21  C   UNL A   1      41.415  24.437  28.087  1.00  0.00     0.127 A 
ATOM     22  C   UNL A   1      42.787  24.621  28.596  1.00  0.00     0.047 A 
ATOM     23  C   UNL A   1      41.310  22.977  27.523  1.00  0.00     0.035 A 
ATOM     24  C   UNL A   1      43.912  23.871  28.068  1.00  0.00     0.016 A 
ATOM     25  C   UNL A   1      42.492  22.219  27.275  1.00  0.00     0.145 A 
ATOM     26  C   UNL A   1      40.160  21.937  27.196  1.00  0.00     0.052 C 
ATOM     27  C   UNL A   1      43.747  22.753  27.249  1.00  0.00     0.021 A 
ATOM     28  O   UNL A   1      42.356  20.845  26.988  1.00  0.00    -0.422 OA
ATOM     29  C   UNL A   1      44.634  22.164  26.203  1.00  0.00    -0.030 A 
ATOM     30  C   UNL A   1      42.941  20.402  25.839  1.00  0.00     0.339 A 
ATOM     31  C   UNL A   1      45.822  22.970  25.769  1.00  0.00     0.045 C 
ATOM     32  C   UNL A   1      44.227  21.067  25.510  1.00  0.00     0.038 A 
ATOM     33  O   UNL A   1      42.444  19.505  25.169  1.00  0.00    -0.246 OA
ATOM     34  C   UNL A   1      44.928  20.427  24.341  1.00  0.00     0.052 C 
ENDBRANCH  20  21
ENDBRANCH  18  20
ENDBRANCH  15  18
ENDBRANCH   9  14
ENDBRANCH   7   9
ENDBRANCH   6   7
ENDBRANCH   5   6
ENDBRANCH   4   5
ENDBRANCH   3   4
ENDBRANCH   2   3
ENDBRANCH   1   2
BRANCH   1  35
ATOM     35  O   UNL A   1      52.694  27.649  28.307  1.00  0.00    -0.377 OA
BRANCH  35  36
ATOM     36  C   UNL A   1      53.652  26.490  27.306  1.00  0.00     0.188 C 
BRANCH  36  37
ATOM     37  C   UNL A   1      54.797  27.225  25.820  1.00  0.00     0.188 C 
BRANCH  37  38
ATOM     38  O   UNL A   1      54.272  29.045  25.454  1.00  0.00    -0.376 OA
BRANCH  38  39
ATOM     39  C   UNL A   1      54.696  30.349  26.752  1.00  0.00     0.202 C 
BRANCH  39  40
ATOM     40  C   UNL A   1      53.299  31.113  27.855  1.00  0.00     0.261 C 
BRANCH  40  41
ATOM     41  O   UNL A   1      53.103  30.761  29.601  1.00  0.00    -0.460 OA
BRANCH  41  42
ATOM     42  C   UNL A   1      52.601  31.374  30.834  1.00  0.00     0.338 C 
ATOM     43  O   UNL A   1      53.158  32.120  31.648  1.00  0.00    -0.246 OA
BRANCH  42  44
ATOM     44  C   UNL A   1      51.192  31.347  31.251  1.00  0.00     0.060 A 
ATOM     45  C   UNL A   1      50.254  31.040  30.219  1.00  0.00     0.016 A 
ATOM     46  C   UNL A   1      50.766  31.724  32.505  1.00  0.00     0.016 A 
ATOM     47  C   UNL A   1      48.906  30.985  30.460  1.00  0.00     0.010 A 
ATOM     48  C   UNL A   1      49.393  31.760  32.728  1.00  0.00     0.010 A 
ATOM     49  C   UNL A   1      48.484  31.384  31.715  1.00  0.00    -0.014 A 
BRANCH  49  50
ATOM     50  C   UNL A   1      47.049  31.553  31.917  1.00  0.00     0.031 A 
ATOM     51  C   UNL A   1      46.293  30.408  32.494  1.00  0.00     0.074 A 
ATOM     52  C   UNL A   1      46.496  32.722  31.575  1.00  0.00     0.049 A 
ATOM     53  N   UNL A   1      45.004  30.240  32.585  1.00  0.00    -0.248 NA
ATOM     54  C   UNL A   1      47.092  29.293  33.034  1.00  0.00     0.031 C 
ATOM     55  C   UNL A   1      47.233  33.902  31.116  1.00  0.00     0.029 A 
ATOM     56  N   UNL A   1      45.185  33.097  31.531  1.00  0.00    -0.354 N 
ATOM     57  C   UNL A   1      44.837  28.995  33.169  1.00  0.00     0.074 A 
ATOM     58  C   UNL A   1      46.150  28.440  33.405  1.00  0.00     0.031 C 
ATOM     59  C   UNL A   1      46.352  34.857  30.783  1.00  0.00     0.029 A 
ATOM     60  C   UNL A   1      45.003  34.334  30.969  1.00  0.00     0.049 A 
ATOM     61  H   UNL A   1      44.448  32.538  31.866  1.00  0.00     0.167 HD
ATOM     62  C   UNL A   1      43.671  28.384  33.468  1.00  0.00     0.037 A 
ATOM     63  C   UNL A   1      43.858  34.936  30.610  1.00  0.00     0.037 A 
ATOM     64  C   UNL A   1      42.394  28.980  33.184  1.00  0.00     0.049 A 
ATOM     65  C   UNL A   1      42.574  34.193  30.864  1.00  0.00     0.074 A 
ATOM     66  C   UNL A   1      41.131  28.469  33.408  1.00  0.00     0.029 A 
ATOM     67  N   UNL A   1      42.230  30.232  32.599  1.00  0.00    -0.354 N 
ATOM     68  N   UNL A   1      42.401  33.005  31.398  1.00  0.00    -0.248 NA
ATOM     69  C   UNL A   1      41.334  34.864  30.470  1.00  0.00     0.031 C 
ATOM     70  C   UNL A   1      40.204  29.393  32.914  1.00  0.00     0.029 A 
ATOM     71  C   UNL A   1      40.886  30.505  32.436  1.00  0.00     0.049 A 
ATOM     72  H   UNL A   1      42.965  30.834  32.339  1.00  0.00     0.167 HD
ATOM     73  C   UNL A   1      41.032  32.793  31.428  1.00  0.00     0.074 A 
ATOM     74  C   UNL A   1      40.422  33.986  30.869  1.00  0.00     0.031 C 
ATOM     75  C   UNL A   1      40.336  31.716  31.873  1.00  0.00     0.037 A 
BRANCH  62  76
ATOM     76  C   UNL A   1      43.735  27.020  34.085  1.00  0.00     0.064 A 
ATOM     77  C   UNL A   1      43.649  26.834  35.473  1.00  0.00     0.173 A 
ATOM     78  C   UNL A   1      43.871  25.878  33.280  1.00  0.00     0.173 A 
ATOM     79  F   UNL A   1      43.546  27.893  36.292  1.00  0.00    -0.203 F 
ATOM     80  C   UNL A   1      43.711  25.560  36.032  1.00  0.00     0.198 A 
ATOM     81  C   UNL A   1      43.903  24.604  33.840  1.00  0.00     0.198 A 
ATOM     82  F   UNL A   1      43.971  25.999  31.948  1.00  0.00    -0.203 F 
ATOM     83  F   UNL A   1      43.669  25.410  37.364  1.00  0.00    -0.200 F 
ATOM     84  C   UNL A   1      43.827  24.445  35.215  1.00  0.00     0.200 A 
ATOM     85  F   UNL A   1      44.008  23.528  33.048  1.00  0.00    -0.200 F 
ATOM     86  F   UNL A   1      43.873  23.219  35.754  1.00  0.00    -0.200 F 
ENDBRANCH  62  76
BRANCH  63  87
ATOM     87  C   UNL A   1      43.898  36.288  30.003  1.00  0.00     0.064 A 
ATOM     88  C   UNL A   1      43.780  36.447  28.618  1.00  0.00     0.173 A 
ATOM     89  C   UNL A   1      43.980  37.449  30.789  1.00  0.00     0.173 A 
ATOM     90  F   UNL A   1      43.710  35.368  27.825  1.00  0.00    -0.203 F 
ATOM     91  C   UNL A   1      43.745  37.714  28.038  1.00  0.00     0.198 A 
ATOM     92  C   UNL A   1      43.919  38.716  30.210  1.00  0.00     0.198 A 
ATOM     93  F   UNL A   1      44.085  37.353  32.122  1.00  0.00    -0.203 F 
ATOM     94  F   UNL A   1      43.653  37.836  26.707  1.00  0.00    -0.200 F 
ATOM     95  C   UNL A   1      43.805  38.847  28.836  1.00  0.00     0.200 A 
ATOM     96  F   UNL A   1      43.959  39.809  30.987  1.00  0.00    -0.200 F 
ATOM     97  F   UNL A   1      43.751  40.065  28.278  1.00  0.00    -0.200 F 
ENDBRANCH  63  87
BRANCH  75  98
ATOM     98  C   UNL A   1      38.842  31.794  31.787  1.00  0.00     0.064 A 
ATOM     99  C   UNL A   1      38.155  31.385  30.636  1.00  0.00     0.173 A 
ATOM    100  C   UNL A   1      38.091  32.197  32.901  1.00  0.00     0.173 A 
ATOM    101  F   UNL A   1      38.834  31.004  29.543  1.00  0.00    -0.203 F 
ATOM    102  C   UNL A   1      36.765  31.391  30.599  1.00  0.00     0.198 A 
ATOM    103  C   UNL A   1      36.701  32.168  32.871  1.00  0.00     0.198 A 
ATOM    104  F   UNL A   1      38.706  32.584  34.029  1.00  0.00    -0.203 F 
ATOM    105  F   UNL A   1      36.126  31.033  29.476  1.00  0.00    -0.200 F 
ATOM    106  C   UNL A   1      36.040  31.770  31.720  1.00  0.00     0.200 A 
ATOM    107  F   UNL A   1      36.003  32.514  33.962  1.00  0.00    -0.200 F 
ATOM    108  F   UNL A   1      34.701  31.753  31.688  1.00  0.00    -0.200 F 
ENDBRANCH  75  98
ENDBRANCH  49  50
ENDBRANCH  42  44
ENDBRANCH  41  42
ENDBRANCH  40  41
ENDBRANCH  39  40
ENDBRANCH  38  39
ENDBRANCH  37  38
ENDBRANCH  36  37
ENDBRANCH  35  36
ENDBRANCH   1  35
TORSDOF 26
ENDMDL
MODEL 2
REMARK VINA RESULT:      -9.9      3.355      8.411
REMARK SMILES CC[C@H](C)[C@H](NC(=O)[C@@H](C)Oc1ccc2c(C)c(C)c(=O)oc2c1C)C(=O)OCCOCCOCCOCCOC(=O)c1ccc(-c2c3nc(c(-c4c(F)c(F)c(F)c(F)c4F)c4ccc([nH]4)c(-c4c(F)c(F)c(F)c(F)c4F)c4nc(c(-c5c(F)c(F)c(F)c(F)c5F)c5ccc2[nH]5)C=C4)C=C3)cc1
REMARK SMILES IDX 33 1 32 2 31 3 30 4 29 5 28 6 26 7 27 8 5 9 3 10 4 11 2 12
REMARK SMILES IDX 1 13 6 14 7 15 8 17 9 18 10 19 11 20 12 21 13 22 24 23 14 24
REMARK SMILES IDX 23 25 25 26 15 27 22 28 16 29 20 30 17 31 18 32 21 33 19 34
REMARK SMILES IDX 34 35 35 36 36 37 37 38 38 39 39 40 40 41 41 42 42 43 43 44
REMARK SMILES IDX 44 45 105 46 45 47 104 48 46 49 47 50 48 51 98 52 49 53
REMARK SMILES IDX 103 54 97 55 99 56 50 57 102 58 96 59 95 60 51 62 83 63
REMARK SMILES IDX 63 64 82 65 64 66 67 67 81 68 100 69 65 70 66 71 80 73
REMARK SMILES IDX 101 74 68 75 52 76 53 77 61 78 54 79 55 80 59 81 62 82 56 83
REMARK SMILES IDX 57 84 60 85 58 86 84 87 85 88 93 89 86 90 87 91 91 92 94 93
REMARK SMILES IDX 88 94 89 95 92 96 90 97 69 98 70 99 78 100 71 101 72 102
REMARK SMILES IDX 76 103 79 104 73 105 74 106 77 107 75 108
REMARK H PARENT 6 16 99 61 67 72
REMARK Flexibility Score: inf
ROOT
ATOM      1  C   UNL A   1      54.806  24.192  31.618  1.00  0.00     0.188 C 
ENDROOT
BRANCH   1   2
ATOM      2  C   UNL A   1      56.009  25.558  31.541  1.00  0.00     0.188 C 
BRANCH   2   3
ATOM      3  O   UNL A   1      55.719  26.705  30.745  1.00  0.00    -0.376 OA
BRANCH   3   4
ATOM      4  C   UNL A   1      55.760  26.760  29.286  1.00  0.00     0.202 C 
BRANCH   4   5
ATOM      5  C   UNL A   1      54.301  27.099  28.739  1.00  0.00     0.261 C 
BRANCH   5   6
ATOM      6  O   UNL A   1      53.305  26.354  29.454  1.00  0.00    -0.462 OA
BRANCH   6   7
ATOM      7  C   UNL A   1      52.321  27.197  29.860  1.00  0.00     0.328 C 
ATOM      8  O   UNL A   1      52.449  28.417  29.828  1.00  0.00    -0.250 OA
BRANCH   7   9
ATOM      9  C   UNL A   1      51.002  26.450  30.193  1.00  0.00     0.195 C 
BRANCH   9  10
ATOM     10  C   UNL A   1      51.218  25.756  31.575  1.00  0.00     0.019 C 
ATOM     11  C   UNL A   1      51.864  26.713  32.584  1.00  0.00     0.010 C 
BRANCH  10  12
ATOM     12  C   UNL A   1      49.877  25.116  32.052  1.00  0.00     0.002 C 
ATOM     13  C   UNL A   1      48.610  25.919  31.802  1.00  0.00     0.004 C 
ENDBRANCH  10  12
ENDBRANCH   9  10
BRANCH   9  14
ATOM     14  N   UNL A   1      50.528  25.508  29.127  1.00  0.00    -0.339 N 
ATOM     15  C   UNL A   1      49.490  25.172  28.308  1.00  0.00     0.261 C 
ATOM     16  H   UNL A   1      51.262  24.878  28.945  1.00  0.00     0.164 HD
ATOM     17  O   UNL A   1      49.940  24.227  27.610  1.00  0.00    -0.271 OA
BRANCH  15  18
ATOM     18  C   UNL A   1      47.713  25.792  27.977  1.00  0.00     0.258 C 
ATOM     19  C   UNL A   1      47.954  27.264  27.387  1.00  0.00     0.064 C 
BRANCH  18  20
ATOM     20  O   UNL A   1      46.007  24.745  27.906  1.00  0.00    -0.480 OA
BRANCH  20  21
ATOM     21  C   UNL A   1      44.403  24.683  26.915  1.00  0.00     0.127 A 
ATOM     22  C   UNL A   1      44.300  25.366  25.612  1.00  0.00     0.047 A 
ATOM     23  C   UNL A   1      42.963  24.626  27.536  1.00  0.00     0.035 A 
ATOM     24  C   UNL A   1      43.253  26.331  25.328  1.00  0.00     0.016 A 
ATOM     25  C   UNL A   1      41.923  25.444  27.006  1.00  0.00     0.145 A 
ATOM     26  C   UNL A   1      42.204  23.772  28.633  1.00  0.00     0.052 C 
ATOM     27  C   UNL A   1      42.133  26.482  26.147  1.00  0.00     0.021 A 
ATOM     28  O   UNL A   1      40.600  25.202  27.433  1.00  0.00    -0.422 OA
ATOM     29  C   UNL A   1      41.249  27.660  26.391  1.00  0.00    -0.030 A 
ATOM     30  C   UNL A   1      39.920  26.269  27.941  1.00  0.00     0.339 A 
ATOM     31  C   UNL A   1      41.699  28.987  25.856  1.00  0.00     0.045 C 
ATOM     32  C   UNL A   1      40.220  27.561  27.275  1.00  0.00     0.038 A 
ATOM     33  O   UNL A   1      39.108  26.140  28.849  1.00  0.00    -0.246 OA
ATOM     34  C   UNL A   1      39.320  28.675  27.739  1.00  0.00     0.052 C 
ENDBRANCH  20  21
ENDBRANCH  18  20
ENDBRANCH  15  18
ENDBRANCH   9  14
ENDBRANCH   7   9
ENDBRANCH   6   7
ENDBRANCH   5   6
ENDBRANCH   4   5
ENDBRANCH   3   4
ENDBRANCH   2   3
ENDBRANCH   1   2
BRANCH   1  35
ATOM     35  O   UNL A   1      54.034  23.322  32.866  1.00  0.00    -0.377 OA
BRANCH  35  36
ATOM     36  C   UNL A   1      52.955  21.876  32.945  1.00  0.00     0.188 C 
BRANCH  36  37
ATOM     37  C   UNL A   1      51.774  21.647  34.561  1.00  0.00     0.188 C 
BRANCH  37  38
ATOM     38  O   UNL A   1      49.960  22.106  34.092  1.00  0.00    -0.376 OA
BRANCH  38  39
ATOM     39  C   UNL A   1      48.759  22.456  35.507  1.00  0.00     0.202 C 
BRANCH  39  40
ATOM     40  C   UNL A   1      47.177  23.530  35.195  1.00  0.00     0.261 C 
BRANCH  40  41
ATOM     41  O   UNL A   1      46.195  23.448  33.699  1.00  0.00    -0.460 OA
BRANCH  41  42
ATOM     42  C   UNL A   1      44.845  23.738  33.208  1.00  0.00     0.338 C 
ATOM     43  O   UNL A   1      43.814  23.053  33.231  1.00  0.00    -0.246 OA
BRANCH  42  44
ATOM     44  C   UNL A   1      44.410  25.058  32.730  1.00  0.00     0.060 A 
ATOM     45  C   UNL A   1      44.424  25.231  31.313  1.00  0.00     0.016 A 
ATOM     46  C   UNL A   1      44.139  26.115  33.570  1.00  0.00     0.016 A 
ATOM     47  C   UNL A   1      44.049  26.411  30.725  1.00  0.00     0.010 A 
ATOM     48  C   UNL A   1      43.848  27.341  32.979  1.00  0.00     0.010 A 
ATOM     49  C   UNL A   1      43.797  27.474  31.574  1.00  0.00    -0.014 A 
BRANCH  49  50
ATOM     50  C   UNL A   1      43.624  28.789  30.967  1.00  0.00     0.031 A 
ATOM     51  C   UNL A   1      44.841  29.484  30.465  1.00  0.00     0.074 A 
ATOM     52  C   UNL A   1      42.387  29.295  30.896  1.00  0.00     0.049 A 
ATOM     53  N   UNL A   1      44.975  30.718  30.071  1.00  0.00    -0.248 NA
ATOM     54  C   UNL A   1      46.080  28.687  30.404  1.00  0.00     0.031 C 
ATOM     55  C   UNL A   1      41.163  28.585  31.274  1.00  0.00     0.029 A 
ATOM     56  N   UNL A   1      41.962  30.531  30.510  1.00  0.00    -0.354 N 
ATOM     57  C   UNL A   1      46.314  30.854  29.740  1.00  0.00     0.074 A 
ATOM     58  C   UNL A   1      46.958  29.584  29.984  1.00  0.00     0.031 C 
ATOM     59  C   UNL A   1      40.124  29.424  31.153  1.00  0.00     0.029 A 
ATOM     60  C   UNL A   1      40.623  30.728  30.730  1.00  0.00     0.049 A 
ATOM     61  H   UNL A   1      42.555  31.212  30.116  1.00  0.00     0.167 HD
ATOM     62  C   UNL A   1      46.932  31.961  29.278  1.00  0.00     0.037 A 
ATOM     63  C   UNL A   1      39.912  31.863  30.636  1.00  0.00     0.037 A 
ATOM     64  C   UNL A   1      46.238  33.205  29.080  1.00  0.00     0.049 A 
ATOM     65  C   UNL A   1      40.643  33.107  30.213  1.00  0.00     0.074 A 
ATOM     66  C   UNL A   1      46.737  34.415  28.641  1.00  0.00     0.029 A 
ATOM     67  N   UNL A   1      44.880  33.388  29.323  1.00  0.00    -0.354 N 
ATOM     68  N   UNL A   1      41.915  33.256  29.914  1.00  0.00    -0.248 NA
ATOM     69  C   UNL A   1      39.853  34.336  30.112  1.00  0.00     0.031 C 
ATOM     70  C   UNL A   1      45.690  35.342  28.665  1.00  0.00     0.029 A 
ATOM     71  C   UNL A   1      44.525  34.698  29.062  1.00  0.00     0.049 A 
ATOM     72  H   UNL A   1      44.263  32.687  29.636  1.00  0.00     0.167 HD
ATOM     73  C   UNL A   1      42.075  34.588  29.567  1.00  0.00     0.074 A 
ATOM     74  C   UNL A   1      40.763  35.200  29.679  1.00  0.00     0.031 C 
ATOM     75  C   UNL A   1      43.197  35.251  29.191  1.00  0.00     0.037 A 
BRANCH  62  76
ATOM     76  C   UNL A   1      48.402  31.878  29.002  1.00  0.00     0.064 A 
ATOM     77  C   UNL A   1      49.355  32.207  29.978  1.00  0.00     0.173 A 
ATOM     78  C   UNL A   1      48.870  31.451  27.749  1.00  0.00     0.173 A 
ATOM     79  F   UNL A   1      48.963  32.649  31.184  1.00  0.00    -0.203 F 
ATOM     80  C   UNL A   1      50.719  32.126  29.707  1.00  0.00     0.198 A 
ATOM     81  C   UNL A   1      50.235  31.343  27.492  1.00  0.00     0.198 A 
ATOM     82  F   UNL A   1      48.004  31.136  26.776  1.00  0.00    -0.203 F 
ATOM     83  F   UNL A   1      51.610  32.486  30.642  1.00  0.00    -0.200 F 
ATOM     84  C   UNL A   1      51.157  31.684  28.468  1.00  0.00     0.200 A 
ATOM     85  F   UNL A   1      50.656  30.908  26.296  1.00  0.00    -0.200 F 
ATOM     86  F   UNL A   1      52.470  31.593  28.213  1.00  0.00    -0.200 F 
ENDBRANCH  62  76
BRANCH  63  87
ATOM     87  C   UNL A   1      38.459  31.845  30.933  1.00  0.00     0.064 A 
ATOM     88  C   UNL A   1      38.002  31.999  32.247  1.00  0.00     0.173 A 
ATOM     89  C   UNL A   1      37.498  31.748  29.914  1.00  0.00     0.173 A 
ATOM     90  F   UNL A   1      38.883  32.086  33.255  1.00  0.00    -0.203 F 
ATOM     91  C   UNL A   1      36.640  32.056  32.534  1.00  0.00     0.198 A 
ATOM     92  C   UNL A   1      36.136  31.830  30.200  1.00  0.00     0.198 A 
ATOM     93  F   UNL A   1      37.882  31.607  28.637  1.00  0.00    -0.203 F 
ATOM     94  F   UNL A   1      36.231  32.184  33.803  1.00  0.00    -0.200 F 
ATOM     95  C   UNL A   1      35.708  31.980  31.509  1.00  0.00     0.200 A 
ATOM     96  F   UNL A   1      35.239  31.774  29.204  1.00  0.00    -0.200 F 
ATOM     97  F   UNL A   1      34.399  32.054  31.786  1.00  0.00    -0.200 F 
ENDBRANCH  63  87
BRANCH  75  98
ATOM     98  C   UNL A   1      43.045  36.704  28.858  1.00  0.00     0.064 A 
ATOM     99  C   UNL A   1      43.498  37.703  29.729  1.00  0.00     0.173 A 
ATOM    100  C   UNL A   1      42.521  37.093  27.615  1.00  0.00     0.173 A 
ATOM    101  F   UNL A   1      43.994  37.377  30.932  1.00  0.00    -0.203 F 
ATOM    102  C   UNL A   1      43.419  39.046  29.373  1.00  0.00     0.198 A 
ATOM    103  C   UNL A   1      42.477  38.433  27.250  1.00  0.00     0.198 A 
ATOM    104  F   UNL A   1      42.087  36.169  26.745  1.00  0.00    -0.203 F 
ATOM    105  F   UNL A   1      43.823  39.989  30.235  1.00  0.00    -0.200 F 
ATOM    106  C   UNL A   1      42.921  39.408  28.130  1.00  0.00     0.200 A 
ATOM    107  F   UNL A   1      42.015  38.780  26.041  1.00  0.00    -0.200 F 
ATOM    108  F   UNL A   1      42.867  40.700  27.781  1.00  0.00    -0.200 F 
ENDBRANCH  75  98
ENDBRANCH  49  50
ENDBRANCH  42  44
ENDBRANCH  41  42
ENDBRANCH  40  41
ENDBRANCH  39  40
ENDBRANCH  38  39
ENDBRANCH  37  38
ENDBRANCH  36  37
ENDBRANCH  35  36
ENDBRANCH   1  35
TORSDOF 26
ENDMDL
MODEL 3
REMARK VINA RESULT:      -9.8      6.682     12.066
REMARK SMILES CC[C@H](C)[C@H](NC(=O)[C@@H](C)Oc1ccc2c(C)c(C)c(=O)oc2c1C)C(=O)OCCOCCOCCOCCOC(=O)c1ccc(-c2c3nc(c(-c4c(F)c(F)c(F)c(F)c4F)c4ccc([nH]4)c(-c4c(F)c(F)c(F)c(F)c4F)c4nc(c(-c5c(F)c(F)c(F)c(F)c5F)c5ccc2[nH]5)C=C4)C=C3)cc1
REMARK SMILES IDX 33 1 32 2 31 3 30 4 29 5 28 6 26 7 27 8 5 9 3 10 4 11 2 12
REMARK SMILES IDX 1 13 6 14 7 15 8 17 9 18 10 19 11 20 12 21 13 22 24 23 14 24
REMARK SMILES IDX 23 25 25 26 15 27 22 28 16 29 20 30 17 31 18 32 21 33 19 34
REMARK SMILES IDX 34 35 35 36 36 37 37 38 38 39 39 40 40 41 41 42 42 43 43 44
REMARK SMILES IDX 44 45 105 46 45 47 104 48 46 49 47 50 48 51 98 52 49 53
REMARK SMILES IDX 103 54 97 55 99 56 50 57 102 58 96 59 95 60 51 62 83 63
REMARK SMILES IDX 63 64 82 65 64 66 67 67 81 68 100 69 65 70 66 71 80 73
REMARK SMILES IDX 101 74 68 75 52 76 53 77 61 78 54 79 55 80 59 81 62 82 56 83
REMARK SMILES IDX 57 84 60 85 58 86 84 87 85 88 93 89 86 90 87 91 91 92 94 93
REMARK SMILES IDX 88 94 89 95 92 96 90 97 69 98 70 99 78 100 71 101 72 102
REMARK SMILES IDX 76 103 79 104 73 105 74 106 77 107 75 108
REMARK H PARENT 6 16 99 61 67 72
REMARK Flexibility Score: inf
ROOT
ATOM      1  C   UNL A   1      42.082  33.466  42.003  1.00  0.00     0.188 C 
ENDROOT
BRANCH   1   2
ATOM      2  C   UNL A   1      41.194  31.920  41.634  1.00  0.00     0.188 C 
BRANCH   2   3
ATOM      3  O   UNL A   1      39.979  31.968  40.889  1.00  0.00    -0.376 OA
BRANCH   3   4
ATOM      4  C   UNL A   1      38.700  32.471  41.381  1.00  0.00     0.202 C 
BRANCH   4   5
ATOM      5  C   UNL A   1      37.534  31.943  40.430  1.00  0.00     0.261 C 
BRANCH   5   6
ATOM      6  O   UNL A   1      38.052  31.598  39.136  1.00  0.00    -0.462 OA
BRANCH   6   7
ATOM      7  C   UNL A   1      37.376  32.293  38.184  1.00  0.00     0.328 C 
ATOM      8  O   UNL A   1      36.220  32.671  38.346  1.00  0.00    -0.250 OA
BRANCH   7   9
ATOM      9  C   UNL A   1      38.280  32.680  36.983  1.00  0.00     0.195 C 
BRANCH   9  10
ATOM     10  C   UNL A   1      39.098  33.936  37.425  1.00  0.00     0.019 C 
ATOM     11  C   UNL A   1      40.514  33.549  37.870  1.00  0.00     0.010 C 
BRANCH  10  12
ATOM     12  C   UNL A   1      39.042  35.016  36.300  1.00  0.00     0.002 C 
ATOM     13  C   UNL A   1      40.041  36.158  36.400  1.00  0.00     0.004 C 
ENDBRANCH  10  12
ENDBRANCH   9  10
BRANCH   9  14
ATOM     14  N   UNL A   1      37.551  32.877  35.688  1.00  0.00    -0.339 N 
ATOM     15  C   UNL A   1      37.421  32.450  34.399  1.00  0.00     0.261 C 
ATOM     16  H   UNL A   1      36.908  33.610  35.822  1.00  0.00     0.164 HD
ATOM     17  O   UNL A   1      36.474  33.139  33.939  1.00  0.00    -0.271 OA
BRANCH  15  18
ATOM     18  C   UNL A   1      38.230  31.135  33.272  1.00  0.00     0.258 C 
ATOM     19  C   UNL A   1      39.165  30.322  34.290  1.00  0.00     0.064 C 
BRANCH  18  20
ATOM     20  O   UNL A   1      37.712  30.571  31.422  1.00  0.00    -0.480 OA
BRANCH  20  21
ATOM     21  C   UNL A   1      38.506  30.292  29.733  1.00  0.00     0.127 A 
ATOM     22  C   UNL A   1      37.773  29.583  28.668  1.00  0.00     0.047 A 
ATOM     23  C   UNL A   1      40.038  30.066  29.486  1.00  0.00     0.035 A 
ATOM     24  C   UNL A   1      38.324  28.422  27.993  1.00  0.00     0.016 A 
ATOM     25  C   UNL A   1      40.475  29.046  28.591  1.00  0.00     0.145 A 
ATOM     26  C   UNL A   1      41.398  30.764  29.901  1.00  0.00     0.052 C 
ATOM     27  C   UNL A   1      39.667  28.059  28.107  1.00  0.00     0.021 A 
ATOM     28  O   UNL A   1      41.836  29.021  28.220  1.00  0.00    -0.422 OA
ATOM     29  C   UNL A   1      40.337  26.731  27.988  1.00  0.00    -0.030 A 
ATOM     30  C   UNL A   1      42.500  27.846  28.417  1.00  0.00     0.339 A 
ATOM     31  C   UNL A   1      39.460  25.515  27.940  1.00  0.00     0.045 C 
ATOM     32  C   UNL A   1      41.681  26.632  28.175  1.00  0.00     0.038 A 
ATOM     33  O   UNL A   1      43.682  27.821  28.735  1.00  0.00    -0.246 OA
ATOM     34  C   UNL A   1      42.494  25.365  28.224  1.00  0.00     0.052 C 
ENDBRANCH  20  21
ENDBRANCH  18  20
ENDBRANCH  15  18
ENDBRANCH   9  14
ENDBRANCH   7   9
ENDBRANCH   6   7
ENDBRANCH   5   6
ENDBRANCH   4   5
ENDBRANCH   3   4
ENDBRANCH   2   3
ENDBRANCH   1   2
BRANCH   1  35
ATOM     35  O   UNL A   1      41.627  35.064  42.397  1.00  0.00    -0.377 OA
BRANCH  35  36
ATOM     36  C   UNL A   1      42.405  36.441  43.269  1.00  0.00     0.188 C 
BRANCH  36  37
ATOM     37  C   UNL A   1      41.350  38.141  43.510  1.00  0.00     0.188 C 
BRANCH  37  38
ATOM     38  O   UNL A   1      39.726  38.033  42.475  1.00  0.00    -0.376 OA
BRANCH  38  39
ATOM     39  C   UNL A   1      39.676  38.970  40.836  1.00  0.00     0.202 C 
BRANCH  39  40
ATOM     40  C   UNL A   1      41.003  40.328  40.453  1.00  0.00     0.261 C 
BRANCH  40  41
ATOM     41  O   UNL A   1      42.754  40.131  40.777  1.00  0.00    -0.460 OA
BRANCH  41  42
ATOM     42  C   UNL A   1      43.936  39.440  40.255  1.00  0.00     0.338 C 
ATOM     43  O   UNL A   1      45.112  39.814  40.159  1.00  0.00    -0.246 OA
BRANCH  42  44
ATOM     44  C   UNL A   1      43.962  38.016  39.892  1.00  0.00     0.060 A 
ATOM     45  C   UNL A   1      45.231  37.515  39.472  1.00  0.00     0.016 A 
ATOM     46  C   UNL A   1      42.832  37.232  39.819  1.00  0.00     0.016 A 
ATOM     47  C   UNL A   1      45.405  36.208  39.099  1.00  0.00     0.010 A 
ATOM     48  C   UNL A   1      42.988  35.931  39.351  1.00  0.00     0.010 A 
ATOM     49  C   UNL A   1      44.263  35.433  39.007  1.00  0.00    -0.014 A 
BRANCH  49  50
ATOM     50  C   UNL A   1      44.395  34.115  38.395  1.00  0.00     0.031 A 
ATOM     51  C   UNL A   1      43.960  33.965  36.978  1.00  0.00     0.074 A 
ATOM     52  C   UNL A   1      44.898  33.120  39.135  1.00  0.00     0.049 A 
ATOM     53  N   UNL A   1      43.796  32.876  36.284  1.00  0.00    -0.248 NA
ATOM     54  C   UNL A   1      43.660  35.208  36.244  1.00  0.00     0.031 C 
ATOM     55  C   UNL A   1      45.440  33.268  40.488  1.00  0.00     0.029 A 
ATOM     56  N   UNL A   1      45.005  31.788  38.865  1.00  0.00    -0.354 N 
ATOM     57  C   UNL A   1      43.351  33.298  35.041  1.00  0.00     0.074 A 
ATOM     58  C   UNL A   1      43.260  34.739  35.072  1.00  0.00     0.031 C 
ATOM     59  C   UNL A   1      45.773  32.054  40.953  1.00  0.00     0.029 A 
ATOM     60  C   UNL A   1      45.428  31.057  39.945  1.00  0.00     0.049 A 
ATOM     61  H   UNL A   1      44.798  31.393  37.987  1.00  0.00     0.167 HD
ATOM     62  C   UNL A   1      43.044  32.523  33.979  1.00  0.00     0.037 A 
ATOM     63  C   UNL A   1      45.477  29.724  40.092  1.00  0.00     0.037 A 
ATOM     64  C   UNL A   1      43.130  31.089  34.019  1.00  0.00     0.049 A 
ATOM     65  C   UNL A   1      45.036  28.880  38.927  1.00  0.00     0.074 A 
ATOM     66  C   UNL A   1      42.829  30.174  33.031  1.00  0.00     0.029 A 
ATOM     67  N   UNL A   1      43.550  30.364  35.132  1.00  0.00    -0.354 N 
ATOM     68  N   UNL A   1      44.593  29.264  37.751  1.00  0.00    -0.248 NA
ATOM     69  C   UNL A   1      45.099  27.428  39.103  1.00  0.00     0.031 C 
ATOM     70  C   UNL A   1      43.020  28.894  33.562  1.00  0.00     0.029 A 
ATOM     71  C   UNL A   1      43.497  29.010  34.861  1.00  0.00     0.049 A 
ATOM     72  H   UNL A   1      43.840  30.758  35.986  1.00  0.00     0.167 HD
ATOM     73  C   UNL A   1      44.347  28.104  37.035  1.00  0.00     0.074 A 
ATOM     74  C   UNL A   1      44.704  27.001  37.910  1.00  0.00     0.031 C 
ATOM     75  C   UNL A   1      43.869  27.954  35.774  1.00  0.00     0.037 A 
BRANCH  62  76
ATOM     76  C   UNL A   1      42.562  33.204  32.734  1.00  0.00     0.064 A 
ATOM     77  C   UNL A   1      43.417  33.445  31.648  1.00  0.00     0.173 A 
ATOM     78  C   UNL A   1      41.224  33.612  32.616  1.00  0.00     0.173 A 
ATOM     79  F   UNL A   1      44.713  33.101  31.718  1.00  0.00    -0.203 F 
ATOM     80  C   UNL A   1      42.955  34.080  30.497  1.00  0.00     0.198 A 
ATOM     81  C   UNL A   1      40.759  34.220  31.452  1.00  0.00     0.198 A 
ATOM     82  F   UNL A   1      40.367  33.418  33.628  1.00  0.00    -0.203 F 
ATOM     83  F   UNL A   1      43.801  34.336  29.489  1.00  0.00    -0.200 F 
ATOM     84  C   UNL A   1      41.625  34.457  30.396  1.00  0.00     0.200 A 
ATOM     85  F   UNL A   1      39.471  34.577  31.354  1.00  0.00    -0.200 F 
ATOM     86  F   UNL A   1      41.179  35.055  29.283  1.00  0.00    -0.200 F 
ENDBRANCH  62  76
BRANCH  63  87
ATOM     87  C   UNL A   1      45.967  29.144  41.366  1.00  0.00     0.064 A 
ATOM     88  C   UNL A   1      45.093  28.958  42.443  1.00  0.00     0.173 A 
ATOM     89  C   UNL A   1      47.290  28.698  41.514  1.00  0.00     0.173 A 
ATOM     90  F   UNL A   1      43.822  29.377  42.352  1.00  0.00    -0.203 F 
ATOM     91  C   UNL A   1      45.520  28.349  43.621  1.00  0.00     0.198 A 
ATOM     92  C   UNL A   1      47.710  28.066  42.684  1.00  0.00     0.198 A 
ATOM     93  F   UNL A   1      48.166  28.844  40.510  1.00  0.00    -0.203 F 
ATOM     94  F   UNL A   1      44.666  28.202  44.644  1.00  0.00    -0.200 F 
ATOM     95  C   UNL A   1      46.826  27.896  43.737  1.00  0.00     0.200 A 
ATOM     96  F   UNL A   1      48.968  27.613  42.786  1.00  0.00    -0.200 F 
ATOM     97  F   UNL A   1      47.230  27.293  44.865  1.00  0.00    -0.200 F 
ENDBRANCH  63  87
BRANCH  75  98
ATOM     98  C   UNL A   1      43.725  26.553  35.267  1.00  0.00     0.064 A 
ATOM     99  C   UNL A   1      44.769  25.912  34.586  1.00  0.00     0.173 A 
ATOM    100  C   UNL A   1      42.563  25.816  35.545  1.00  0.00     0.173 A 
ATOM    101  F   UNL A   1      45.893  26.582  34.289  1.00  0.00    -0.203 F 
ATOM    102  C   UNL A   1      44.649  24.585  34.188  1.00  0.00     0.198 A 
ATOM    103  C   UNL A   1      42.461  24.480  35.175  1.00  0.00     0.198 A 
ATOM    104  F   UNL A   1      41.542  26.385  36.204  1.00  0.00    -0.203 F 
ATOM    105  F   UNL A   1      45.644  24.001  33.506  1.00  0.00    -0.200 F 
ATOM    106  C   UNL A   1      43.502  23.867  34.494  1.00  0.00     0.200 A 
ATOM    107  F   UNL A   1      41.361  23.783  35.490  1.00  0.00    -0.200 F 
ATOM    108  F   UNL A   1      43.399  22.582  34.129  1.00  0.00    -0.200 F 
ENDBRANCH  75  98
ENDBRANCH  49  50
ENDBRANCH  42  44
ENDBRANCH  41  42
ENDBRANCH  40  41
ENDBRANCH  39  40
ENDBRANCH  38  39
ENDBRANCH  37  38
ENDBRANCH  36  37
ENDBRANCH  35  36
ENDBRANCH   1  35
TORSDOF 26
ENDMDL
