MODEL 1
REMARK VINA RESULT:      -7.9      0.000      0.000
REMARK SMILES CC(C)(C[S@](=O)c1cccc(Cl)c1)C(=O)OCCOCCOCCOCCOC(=O)c1ccc(-c2c3nc(c(-c4c(F)c(F)c(F)c(F)c4F)c4ccc([nH]4)c(-c4c(F)c(F)c(F)c(F)c4F)c4nc(c(-c5c(F)c(F)c(F)c(F)c5F)c5ccc2[nH]5)C=C4)C=C3)cc1
REMARK SMILES IDX 21 1 20 2 19 3 18 4 17 5 16 6 14 7 15 8 2 9 1 10 3 11 4 12
REMARK SMILES IDX 5 13 6 14 7 15 8 16 13 17 9 18 11 19 10 20 12 21 22 22 23 23
REMARK SMILES IDX 24 24 25 25 26 26 27 27 28 28 29 29 30 30 31 31 32 32 93 33
REMARK SMILES IDX 33 34 92 35 34 36 35 37 36 38 86 39 37 40 91 41 85 42 87 43
REMARK SMILES IDX 38 44 90 45 84 46 83 47 39 49 71 50 51 51 70 52 52 53 55 54
REMARK SMILES IDX 69 55 88 56 53 57 54 58 68 60 89 61 56 62 40 63 41 64 49 65
REMARK SMILES IDX 42 66 43 67 47 68 50 69 44 70 45 71 48 72 46 73 72 74 73 75
REMARK SMILES IDX 81 76 74 77 75 78 79 79 82 80 76 81 77 82 80 83 78 84 57 85
REMARK SMILES IDX 58 86 66 87 59 88 60 89 64 90 67 91 61 92 62 93 65 94 63 95
REMARK H PARENT 87 48 55 59
REMARK Flexibility Score: inf
ROOT
ATOM      1  C   UNL A   1      39.789  33.767  34.348  1.00  0.00     0.188 C 
ENDROOT
BRANCH   1   2
ATOM      2  C   UNL A   1      38.739  33.852  35.475  1.00  0.00     0.188 C 
BRANCH   2   3
ATOM      3  O   UNL A   1      39.131  33.161  36.641  1.00  0.00    -0.376 OA
BRANCH   3   4
ATOM      4  C   UNL A   1      38.441  31.968  36.954  1.00  0.00     0.202 C 
BRANCH   4   5
ATOM      5  C   UNL A   1      38.478  30.762  35.990  1.00  0.00     0.261 C 
BRANCH   5   6
ATOM      6  O   UNL A   1      39.528  29.768  36.123  1.00  0.00    -0.463 OA
BRANCH   6   7
ATOM      7  C   UNL A   1      40.245  29.465  35.014  1.00  0.00     0.312 C 
ATOM      8  O   UNL A   1      39.709  29.224  33.938  1.00  0.00    -0.252 OA
BRANCH   7   9
ATOM      9  C   UNL A   1      41.768  29.288  35.268  1.00  0.00     0.074 C 
ATOM     10  C   UNL A   1      42.180  30.401  36.252  1.00  0.00     0.024 C 
ATOM     11  C   UNL A   1      42.392  29.604  33.889  1.00  0.00     0.024 C 
BRANCH   9  12
ATOM     12  C   UNL A   1      42.380  27.919  35.720  1.00  0.00     0.128 C 
BRANCH  12  13
ATOM     13  S   UNL A   1      41.768  26.406  34.934  1.00  0.00     0.054 S 
ATOM     14  O   UNL A   1      40.652  25.789  35.712  1.00  0.00    -0.254 OA
BRANCH  13  15
ATOM     15  C   UNL A   1      43.112  25.210  34.880  1.00  0.00     0.040 A 
ATOM     16  C   UNL A   1      42.789  23.844  34.946  1.00  0.00     0.018 A 
ATOM     17  C   UNL A   1      44.416  25.571  34.521  1.00  0.00     0.038 A 
ATOM     18  C   UNL A   1      43.733  22.855  34.658  1.00  0.00     0.003 A 
ATOM     19  C   UNL A   1      45.361  24.573  34.232  1.00  0.00     0.042 A 
ATOM     20  C   UNL A   1      45.025  23.221  34.294  1.00  0.00     0.020 A 
ATOM     21  Cl  UNL A   1      46.949  25.016  33.733  1.00  0.00    -0.084 Cl
ENDBRANCH  13  15
ENDBRANCH  12  13
ENDBRANCH   9  12
ENDBRANCH   7   9
ENDBRANCH   6   7
ENDBRANCH   5   6
ENDBRANCH   4   5
ENDBRANCH   3   4
ENDBRANCH   2   3
ENDBRANCH   1   2
BRANCH   1  22
ATOM     22  O   UNL A   1      39.461  33.548  32.985  1.00  0.00    -0.377 OA
BRANCH  22  23
ATOM     23  C   UNL A   1      38.779  34.574  32.297  1.00  0.00     0.188 C 
BRANCH  23  24
ATOM     24  C   UNL A   1      37.349  34.284  31.808  1.00  0.00     0.188 C 
BRANCH  24  25
ATOM     25  O   UNL A   1      37.290  33.519  30.619  1.00  0.00    -0.376 OA
BRANCH  25  26
ATOM     26  C   UNL A   1      36.251  33.748  29.683  1.00  0.00     0.202 C 
BRANCH  26  27
ATOM     27  C   UNL A   1      35.026  32.818  29.636  1.00  0.00     0.261 C 
BRANCH  27  28
ATOM     28  O   UNL A   1      34.613  32.354  28.349  1.00  0.00    -0.460 OA
BRANCH  28  29
ATOM     29  C   UNL A   1      34.482  31.024  28.183  1.00  0.00     0.338 C 
ATOM     30  O   UNL A   1      33.490  30.410  27.824  1.00  0.00    -0.246 OA
BRANCH  29  31
ATOM     31  C   UNL A   1      35.821  30.443  28.365  1.00  0.00     0.060 A 
ATOM     32  C   UNL A   1      36.153  29.840  29.586  1.00  0.00     0.016 A 
ATOM     33  C   UNL A   1      36.730  30.459  27.306  1.00  0.00     0.016 A 
ATOM     34  C   UNL A   1      37.387  29.213  29.741  1.00  0.00     0.010 A 
ATOM     35  C   UNL A   1      37.988  29.888  27.481  1.00  0.00     0.010 A 
ATOM     36  C   UNL A   1      38.324  29.278  28.705  1.00  0.00    -0.014 A 
BRANCH  36  37
ATOM     37  C   UNL A   1      39.743  28.966  28.973  1.00  0.00     0.031 A 
ATOM     38  C   UNL A   1      40.572  30.055  29.589  1.00  0.00     0.074 A 
ATOM     39  C   UNL A   1      40.284  27.782  28.646  1.00  0.00     0.049 A 
ATOM     40  N   UNL A   1      41.864  30.122  29.764  1.00  0.00    -0.248 NA
ATOM     41  C   UNL A   1      39.835  31.241  30.060  1.00  0.00     0.031 C 
ATOM     42  C   UNL A   1      39.556  26.636  28.108  1.00  0.00     0.029 A 
ATOM     43  N   UNL A   1      41.589  27.362  28.698  1.00  0.00    -0.354 N 
ATOM     44  C   UNL A   1      42.093  31.358  30.351  1.00  0.00     0.074 A 
ATOM     45  C   UNL A   1      40.816  32.020  30.483  1.00  0.00     0.031 C 
ATOM     46  C   UNL A   1      40.433  25.648  27.851  1.00  0.00     0.029 A 
ATOM     47  C   UNL A   1      41.785  26.115  28.160  1.00  0.00     0.049 A 
ATOM     48  H   UNL A   1      42.315  27.904  29.085  1.00  0.00     0.167 HD
ATOM     49  C   UNL A   1      43.272  31.894  30.742  1.00  0.00     0.037 A 
ATOM     50  C   UNL A   1      42.934  25.456  27.909  1.00  0.00     0.037 A 
ATOM     51  C   UNL A   1      44.536  31.231  30.584  1.00  0.00     0.049 A 
ATOM     52  C   UNL A   1      44.247  26.117  28.255  1.00  0.00     0.074 A 
ATOM     53  C   UNL A   1      45.796  31.681  30.931  1.00  0.00     0.029 A 
ATOM     54  N   UNL A   1      44.697  29.975  30.016  1.00  0.00    -0.354 N 
ATOM     55  N   UNL A   1      44.467  27.286  28.811  1.00  0.00    -0.248 NA
ATOM     56  C   UNL A   1      45.474  25.372  27.935  1.00  0.00     0.031 C 
ATOM     57  C   UNL A   1      46.725  30.724  30.519  1.00  0.00     0.029 A 
ATOM     58  C   UNL A   1      46.040  29.644  29.984  1.00  0.00     0.049 A 
ATOM     59  H   UNL A   1      43.966  29.405  29.684  1.00  0.00     0.167 HD
ATOM     60  C   UNL A   1      45.846  27.392  28.951  1.00  0.00     0.074 A 
ATOM     61  C   UNL A   1      46.413  26.173  28.417  1.00  0.00     0.031 C 
ATOM     62  C   UNL A   1      46.576  28.404  29.481  1.00  0.00     0.037 A 
BRANCH  49  63
ATOM     63  C   UNL A   1      43.243  33.271  31.333  1.00  0.00     0.064 A 
ATOM     64  C   UNL A   1      43.203  33.480  32.720  1.00  0.00     0.173 A 
ATOM     65  C   UNL A   1      43.269  34.399  30.501  1.00  0.00     0.173 A 
ATOM     66  F   UNL A   1      43.154  32.434  33.561  1.00  0.00    -0.203 F 
ATOM     67  C   UNL A   1      43.162  34.766  33.250  1.00  0.00     0.198 A 
ATOM     68  C   UNL A   1      43.264  35.684  31.034  1.00  0.00     0.198 A 
ATOM     69  F   UNL A   1      43.304  34.256  29.168  1.00  0.00    -0.203 F 
ATOM     70  F   UNL A   1      43.067  34.941  34.575  1.00  0.00    -0.200 F 
ATOM     71  C   UNL A   1      43.202  35.867  32.407  1.00  0.00     0.200 A 
ATOM     72  F   UNL A   1      43.313  36.747  30.218  1.00  0.00    -0.200 F 
ATOM     73  F   UNL A   1      43.170  37.106  32.919  1.00  0.00    -0.200 F 
ENDBRANCH  49  63
BRANCH  50  74
ATOM     74  C   UNL A   1      42.907  24.108  27.277  1.00  0.00     0.064 A 
ATOM     75  C   UNL A   1      43.174  23.947  25.910  1.00  0.00     0.173 A 
ATOM     76  C   UNL A   1      42.580  22.960  28.016  1.00  0.00     0.173 A 
ATOM     77  F   UNL A   1      43.466  25.016  25.155  1.00  0.00    -0.203 F 
ATOM     78  C   UNL A   1      43.089  22.696  25.301  1.00  0.00     0.198 A 
ATOM     79  C   UNL A   1      42.528  21.705  27.411  1.00  0.00     0.198 A 
ATOM     80  F   UNL A   1      42.312  23.056  29.326  1.00  0.00    -0.203 F 
ATOM     81  F   UNL A   1      43.294  22.582  23.982  1.00  0.00    -0.200 F 
ATOM     82  C   UNL A   1      42.773  21.575  26.054  1.00  0.00     0.200 A 
ATOM     83  F   UNL A   1      42.235  20.623  28.145  1.00  0.00    -0.200 F 
ATOM     84  F   UNL A   1      42.692  20.373  25.467  1.00  0.00    -0.200 F 
ENDBRANCH  50  74
BRANCH  62  85
ATOM     85  C   UNL A   1      48.062  28.216  29.593  1.00  0.00     0.064 A 
ATOM     86  C   UNL A   1      48.940  28.584  28.565  1.00  0.00     0.173 A 
ATOM     87  C   UNL A   1      48.616  27.750  30.797  1.00  0.00     0.173 A 
ATOM     88  F   UNL A   1      48.459  29.024  27.392  1.00  0.00    -0.203 F 
ATOM     89  C   UNL A   1      50.318  28.484  28.734  1.00  0.00     0.198 A 
ATOM     90  C   UNL A   1      49.994  27.683  30.973  1.00  0.00     0.198 A 
ATOM     91  F   UNL A   1      47.818  27.394  31.816  1.00  0.00    -0.203 F 
ATOM     92  F   UNL A   1      51.140  28.812  27.727  1.00  0.00    -0.200 F 
ATOM     93  C   UNL A   1      50.843  28.047  29.941  1.00  0.00     0.200 A 
ATOM     94  F   UNL A   1      50.498  27.281  32.148  1.00  0.00    -0.200 F 
ATOM     95  F   UNL A   1      52.171  27.976  30.110  1.00  0.00    -0.200 F 
ENDBRANCH  62  85
ENDBRANCH  36  37
ENDBRANCH  29  31
ENDBRANCH  28  29
ENDBRANCH  27  28
ENDBRANCH  26  27
ENDBRANCH  25  26
ENDBRANCH  24  25
ENDBRANCH  23  24
ENDBRANCH  22  23
ENDBRANCH   1  22
TORSDOF 23
ENDMDL
MODEL 2
REMARK VINA RESULT:      -7.6      4.335      9.755
REMARK SMILES CC(C)(C[S@](=O)c1cccc(Cl)c1)C(=O)OCCOCCOCCOCCOC(=O)c1ccc(-c2c3nc(c(-c4c(F)c(F)c(F)c(F)c4F)c4ccc([nH]4)c(-c4c(F)c(F)c(F)c(F)c4F)c4nc(c(-c5c(F)c(F)c(F)c(F)c5F)c5ccc2[nH]5)C=C4)C=C3)cc1
REMARK SMILES IDX 21 1 20 2 19 3 18 4 17 5 16 6 14 7 15 8 2 9 1 10 3 11 4 12
REMARK SMILES IDX 5 13 6 14 7 15 8 16 13 17 9 18 11 19 10 20 12 21 22 22 23 23
REMARK SMILES IDX 24 24 25 25 26 26 27 27 28 28 29 29 30 30 31 31 32 32 93 33
REMARK SMILES IDX 33 34 92 35 34 36 35 37 36 38 86 39 37 40 91 41 85 42 87 43
REMARK SMILES IDX 38 44 90 45 84 46 83 47 39 49 71 50 51 51 70 52 52 53 55 54
REMARK SMILES IDX 69 55 88 56 53 57 54 58 68 60 89 61 56 62 40 63 41 64 49 65
REMARK SMILES IDX 42 66 43 67 47 68 50 69 44 70 45 71 48 72 46 73 72 74 73 75
REMARK SMILES IDX 81 76 74 77 75 78 79 79 82 80 76 81 77 82 80 83 78 84 57 85
REMARK SMILES IDX 58 86 66 87 59 88 60 89 64 90 67 91 61 92 62 93 65 94 63 95
REMARK H PARENT 87 48 55 59
REMARK Flexibility Score: inf
ROOT
ATOM      1  C   UNL A   1      41.685  24.892  26.471  1.00  0.00     0.188 C 
ENDROOT
BRANCH   1   2
ATOM      2  C   UNL A   1      41.364  24.713  27.970  1.00  0.00     0.188 C 
BRANCH   2   3
ATOM      3  O   UNL A   1      40.176  25.368  28.356  1.00  0.00    -0.376 OA
BRANCH   3   4
ATOM      4  C   UNL A   1      39.926  26.643  27.798  1.00  0.00     0.202 C 
BRANCH   4   5
ATOM      5  C   UNL A   1      40.236  27.927  28.598  1.00  0.00     0.261 C 
BRANCH   5   6
ATOM      6  O   UNL A   1      39.148  28.694  29.176  1.00  0.00    -0.463 OA
BRANCH   6   7
ATOM      7  C   UNL A   1      39.233  29.008  30.491  1.00  0.00     0.312 C 
ATOM      8  O   UNL A   1      40.138  28.584  31.204  1.00  0.00    -0.252 OA
BRANCH   7   9
ATOM      9  C   UNL A   1      38.013  29.797  31.039  1.00  0.00     0.074 C 
ATOM     10  C   UNL A   1      37.748  29.263  32.461  1.00  0.00     0.024 C 
ATOM     11  C   UNL A   1      36.856  29.334  30.124  1.00  0.00     0.024 C 
BRANCH   9  12
ATOM     12  C   UNL A   1      37.969  31.363  31.038  1.00  0.00     0.128 C 
BRANCH  12  13
ATOM     13  S   UNL A   1      36.404  32.175  30.619  1.00  0.00     0.054 S 
ATOM     14  O   UNL A   1      36.583  33.208  29.557  1.00  0.00    -0.254 OA
BRANCH  13  15
ATOM     15  C   UNL A   1      35.789  33.013  32.088  1.00  0.00     0.040 A 
ATOM     16  C   UNL A   1      36.350  32.673  33.332  1.00  0.00     0.018 A 
ATOM     17  C   UNL A   1      34.976  34.150  32.013  1.00  0.00     0.038 A 
ATOM     18  C   UNL A   1      36.117  33.443  34.474  1.00  0.00     0.003 A 
ATOM     19  C   UNL A   1      34.746  34.920  33.163  1.00  0.00     0.042 A 
ATOM     20  C   UNL A   1      35.315  34.576  34.389  1.00  0.00     0.020 A 
ATOM     21  Cl  UNL A   1      33.794  36.353  33.059  1.00  0.00    -0.084 Cl
ENDBRANCH  13  15
ENDBRANCH  12  13
ENDBRANCH   9  12
ENDBRANCH   7   9
ENDBRANCH   6   7
ENDBRANCH   5   6
ENDBRANCH   4   5
ENDBRANCH   3   4
ENDBRANCH   2   3
ENDBRANCH   1   2
BRANCH   1  22
ATOM     22  O   UNL A   1      42.581  24.056  25.756  1.00  0.00    -0.377 OA
BRANCH  22  23
ATOM     23  C   UNL A   1      43.129  22.945  26.431  1.00  0.00     0.188 C 
BRANCH  23  24
ATOM     24  C   UNL A   1      43.632  21.764  25.582  1.00  0.00     0.188 C 
BRANCH  24  25
ATOM     25  O   UNL A   1      45.019  21.804  25.303  1.00  0.00    -0.376 OA
BRANCH  25  26
ATOM     26  C   UNL A   1      45.512  22.673  24.298  1.00  0.00     0.202 C 
BRANCH  26  27
ATOM     27  C   UNL A   1      46.376  23.890  24.674  1.00  0.00     0.261 C 
BRANCH  27  28
ATOM     28  O   UNL A   1      45.689  25.057  25.128  1.00  0.00    -0.460 OA
BRANCH  28  29
ATOM     29  C   UNL A   1      46.286  26.246  24.922  1.00  0.00     0.338 C 
ATOM     30  O   UNL A   1      47.037  26.557  24.011  1.00  0.00    -0.246 OA
BRANCH  29  31
ATOM     31  C   UNL A   1      45.737  27.173  25.924  1.00  0.00     0.060 A 
ATOM     32  C   UNL A   1      46.599  27.786  26.843  1.00  0.00     0.016 A 
ATOM     33  C   UNL A   1      44.372  27.465  25.919  1.00  0.00     0.016 A 
ATOM     34  C   UNL A   1      46.103  28.728  27.742  1.00  0.00     0.010 A 
ATOM     35  C   UNL A   1      43.866  28.359  26.859  1.00  0.00     0.010 A 
ATOM     36  C   UNL A   1      44.728  28.980  27.782  1.00  0.00    -0.014 A 
BRANCH  36  37
ATOM     37  C   UNL A   1      44.139  29.666  28.949  1.00  0.00     0.031 A 
ATOM     38  C   UNL A   1      43.983  31.156  28.854  1.00  0.00     0.074 A 
ATOM     39  C   UNL A   1      43.795  29.003  30.064  1.00  0.00     0.049 A 
ATOM     40  N   UNL A   1      43.669  32.023  29.778  1.00  0.00    -0.248 NA
ATOM     41  C   UNL A   1      44.230  31.748  27.527  1.00  0.00     0.031 C 
ATOM     42  C   UNL A   1      43.841  27.553  30.238  1.00  0.00     0.029 A 
ATOM     43  N   UNL A   1      43.361  29.477  31.277  1.00  0.00    -0.354 N 
ATOM     44  C   UNL A   1      43.696  33.260  29.148  1.00  0.00     0.074 A 
ATOM     45  C   UNL A   1      44.077  33.038  27.773  1.00  0.00     0.031 C 
ATOM     46  C   UNL A   1      43.477  27.257  31.499  1.00  0.00     0.029 A 
ATOM     47  C   UNL A   1      43.224  28.499  32.230  1.00  0.00     0.049 A 
ATOM     48  H   UNL A   1      43.167  30.427  31.447  1.00  0.00     0.167 HD
ATOM     49  C   UNL A   1      43.427  34.474  29.677  1.00  0.00     0.037 A 
ATOM     50  C   UNL A   1      42.967  28.610  33.548  1.00  0.00     0.037 A 
ATOM     51  C   UNL A   1      43.071  34.680  31.053  1.00  0.00     0.049 A 
ATOM     52  C   UNL A   1      42.776  29.986  34.142  1.00  0.00     0.074 A 
ATOM     53  C   UNL A   1      42.789  35.866  31.704  1.00  0.00     0.029 A 
ATOM     54  N   UNL A   1      42.961  33.666  31.995  1.00  0.00    -0.354 N 
ATOM     55  N   UNL A   1      42.800  31.157  33.549  1.00  0.00    -0.248 NA
ATOM     56  C   UNL A   1      42.528  30.059  35.590  1.00  0.00     0.031 C 
ATOM     57  C   UNL A   1      42.567  35.577  33.052  1.00  0.00     0.029 A 
ATOM     58  C   UNL A   1      42.635  34.203  33.227  1.00  0.00     0.049 A 
ATOM     59  H   UNL A   1      43.094  32.707  31.813  1.00  0.00     0.167 HD
ATOM     60  C   UNL A   1      42.522  32.095  34.537  1.00  0.00     0.074 A 
ATOM     61  C   UNL A   1      42.340  31.359  35.769  1.00  0.00     0.031 C 
ATOM     62  C   UNL A   1      42.421  33.443  34.432  1.00  0.00     0.037 A 
BRANCH  49  63
ATOM     63  C   UNL A   1      43.554  35.665  28.775  1.00  0.00     0.064 A 
ATOM     64  C   UNL A   1      42.448  36.201  28.098  1.00  0.00     0.173 A 
ATOM     65  C   UNL A   1      44.798  36.287  28.594  1.00  0.00     0.173 A 
ATOM     66  F   UNL A   1      41.239  35.630  28.220  1.00  0.00    -0.203 F 
ATOM     67  C   UNL A   1      42.588  37.298  27.253  1.00  0.00     0.198 A 
ATOM     68  C   UNL A   1      44.929  37.405  27.776  1.00  0.00     0.198 A 
ATOM     69  F   UNL A   1      45.888  35.812  29.214  1.00  0.00    -0.203 F 
ATOM     70  F   UNL A   1      41.529  37.758  26.574  1.00  0.00    -0.200 F 
ATOM     71  C   UNL A   1      43.826  37.904  27.100  1.00  0.00     0.200 A 
ATOM     72  F   UNL A   1      46.124  37.996  27.638  1.00  0.00    -0.200 F 
ATOM     73  F   UNL A   1      43.958  38.966  26.292  1.00  0.00    -0.200 F 
ENDBRANCH  49  63
BRANCH  50  74
ATOM     74  C   UNL A   1      42.898  27.397  34.408  1.00  0.00     0.064 A 
ATOM     75  C   UNL A   1      41.678  26.741  34.633  1.00  0.00     0.173 A 
ATOM     76  C   UNL A   1      44.037  26.888  35.049  1.00  0.00     0.173 A 
ATOM     77  F   UNL A   1      40.556  27.203  34.064  1.00  0.00    -0.203 F 
ATOM     78  C   UNL A   1      41.597  25.642  35.486  1.00  0.00     0.198 A 
ATOM     79  C   UNL A   1      43.960  25.768  35.876  1.00  0.00     0.198 A 
ATOM     80  F   UNL A   1      45.229  27.476  34.872  1.00  0.00    -0.203 F 
ATOM     81  F   UNL A   1      40.409  25.071  35.727  1.00  0.00    -0.200 F 
ATOM     82  C   UNL A   1      42.739  25.153  36.102  1.00  0.00     0.200 A 
ATOM     83  F   UNL A   1      45.068  25.291  36.459  1.00  0.00    -0.200 F 
ATOM     84  F   UNL A   1      42.660  24.096  36.922  1.00  0.00    -0.200 F 
ENDBRANCH  50  74
BRANCH  62  85
ATOM     85  C   UNL A   1      42.015  34.215  35.654  1.00  0.00     0.064 A 
ATOM     86  C   UNL A   1      42.955  34.814  36.504  1.00  0.00     0.173 A 
ATOM     87  C   UNL A   1      40.653  34.438  35.917  1.00  0.00     0.173 A 
ATOM     88  F   UNL A   1      44.267  34.621  36.303  1.00  0.00    -0.203 F 
ATOM     89  C   UNL A   1      42.546  35.601  37.578  1.00  0.00     0.198 A 
ATOM     90  C   UNL A   1      40.251  35.253  36.970  1.00  0.00     0.198 A 
ATOM     91  F   UNL A   1      39.714  33.895  35.127  1.00  0.00    -0.203 F 
ATOM     92  F   UNL A   1      43.461  36.139  38.397  1.00  0.00    -0.200 F 
ATOM     93  C   UNL A   1      41.196  35.830  37.801  1.00  0.00     0.200 A 
ATOM     94  F   UNL A   1      38.946  35.490  37.170  1.00  0.00    -0.200 F 
ATOM     95  F   UNL A   1      40.808  36.609  38.819  1.00  0.00    -0.200 F 
ENDBRANCH  62  85
ENDBRANCH  36  37
ENDBRANCH  29  31
ENDBRANCH  28  29
ENDBRANCH  27  28
ENDBRANCH  26  27
ENDBRANCH  25  26
ENDBRANCH  24  25
ENDBRANCH  23  24
ENDBRANCH  22  23
ENDBRANCH   1  22
TORSDOF 23
ENDMDL
MODEL 3
REMARK VINA RESULT:      -7.4      4.508      9.745
REMARK SMILES CC(C)(C[S@](=O)c1cccc(Cl)c1)C(=O)OCCOCCOCCOCCOC(=O)c1ccc(-c2c3nc(c(-c4c(F)c(F)c(F)c(F)c4F)c4ccc([nH]4)c(-c4c(F)c(F)c(F)c(F)c4F)c4nc(c(-c5c(F)c(F)c(F)c(F)c5F)c5ccc2[nH]5)C=C4)C=C3)cc1
REMARK SMILES IDX 21 1 20 2 19 3 18 4 17 5 16 6 14 7 15 8 2 9 1 10 3 11 4 12
REMARK SMILES IDX 5 13 6 14 7 15 8 16 13 17 9 18 11 19 10 20 12 21 22 22 23 23
REMARK SMILES IDX 24 24 25 25 26 26 27 27 28 28 29 29 30 30 31 31 32 32 93 33
REMARK SMILES IDX 33 34 92 35 34 36 35 37 36 38 86 39 37 40 91 41 85 42 87 43
REMARK SMILES IDX 38 44 90 45 84 46 83 47 39 49 71 50 51 51 70 52 52 53 55 54
REMARK SMILES IDX 69 55 88 56 53 57 54 58 68 60 89 61 56 62 40 63 41 64 49 65
REMARK SMILES IDX 42 66 43 67 47 68 50 69 44 70 45 71 48 72 46 73 72 74 73 75
REMARK SMILES IDX 81 76 74 77 75 78 79 79 82 80 76 81 77 82 80 83 78 84 57 85
REMARK SMILES IDX 58 86 66 87 59 88 60 89 64 90 67 91 61 92 62 93 65 94 63 95
REMARK H PARENT 87 48 55 59
REMARK Flexibility Score: inf
ROOT
ATOM      1  C   UNL A   1      32.356  36.136  31.860  1.00  0.00     0.188 C 
ENDROOT
BRANCH   1   2
ATOM      2  C   UNL A   1      33.370  37.291  31.994  1.00  0.00     0.188 C 
BRANCH   2   3
ATOM      3  O   UNL A   1      34.436  36.984  32.866  1.00  0.00    -0.376 OA
BRANCH   3   4
ATOM      4  C   UNL A   1      34.311  35.823  33.662  1.00  0.00     0.202 C 
BRANCH   4   5
ATOM      5  C   UNL A   1      35.390  34.719  33.619  1.00  0.00     0.261 C 
BRANCH   5   6
ATOM      6  O   UNL A   1      36.683  34.953  34.235  1.00  0.00    -0.463 OA
BRANCH   6   7
ATOM      7  C   UNL A   1      37.271  33.911  34.870  1.00  0.00     0.312 C 
ATOM      8  O   UNL A   1      36.618  33.054  35.457  1.00  0.00    -0.252 OA
BRANCH   7   9
ATOM      9  C   UNL A   1      38.822  33.992  34.928  1.00  0.00     0.074 C 
ATOM     10  C   UNL A   1      39.299  34.282  33.491  1.00  0.00     0.024 C 
ATOM     11  C   UNL A   1      39.235  32.547  35.294  1.00  0.00     0.024 C 
BRANCH   9  12
ATOM     12  C   UNL A   1      39.567  34.927  35.940  1.00  0.00     0.128 C 
BRANCH  12  13
ATOM     13  S   UNL A   1      39.673  34.404  37.671  1.00  0.00     0.054 S 
ATOM     14  O   UNL A   1      38.328  34.103  38.244  1.00  0.00    -0.254 OA
BRANCH  13  15
ATOM     15  C   UNL A   1      40.378  35.754  38.630  1.00  0.00     0.040 A 
ATOM     16  C   UNL A   1      41.776  35.893  38.654  1.00  0.00     0.018 A 
ATOM     17  C   UNL A   1      39.595  36.801  39.129  1.00  0.00     0.038 A 
ATOM     18  C   UNL A   1      42.388  37.044  39.155  1.00  0.00     0.003 A 
ATOM     19  C   UNL A   1      40.215  37.957  39.631  1.00  0.00     0.042 A 
ATOM     20  C   UNL A   1      41.604  38.085  39.642  1.00  0.00     0.020 A 
ATOM     21  Cl  UNL A   1      39.252  39.271  40.191  1.00  0.00    -0.084 Cl
ENDBRANCH  13  15
ENDBRANCH  12  13
ENDBRANCH   9  12
ENDBRANCH   7   9
ENDBRANCH   6   7
ENDBRANCH   5   6
ENDBRANCH   4   5
ENDBRANCH   3   4
ENDBRANCH   2   3
ENDBRANCH   1   2
BRANCH   1  22
ATOM     22  O   UNL A   1      32.494  35.075  30.928  1.00  0.00    -0.377 OA
BRANCH  22  23
ATOM     23  C   UNL A   1      33.552  35.148  29.997  1.00  0.00     0.188 C 
BRANCH  23  24
ATOM     24  C   UNL A   1      34.640  34.061  30.058  1.00  0.00     0.188 C 
BRANCH  24  25
ATOM     25  O   UNL A   1      34.379  33.037  31.000  1.00  0.00    -0.376 OA
BRANCH  25  26
ATOM     26  C   UNL A   1      35.239  31.913  31.077  1.00  0.00     0.202 C 
BRANCH  26  27
ATOM     27  C   UNL A   1      36.637  32.043  31.708  1.00  0.00     0.261 C 
BRANCH  27  28
ATOM     28  O   UNL A   1      36.966  31.121  32.748  1.00  0.00    -0.460 OA
BRANCH  28  29
ATOM     29  C   UNL A   1      37.574  29.974  32.389  1.00  0.00     0.338 C 
ATOM     30  O   UNL A   1      37.142  28.836  32.489  1.00  0.00    -0.246 OA
BRANCH  29  31
ATOM     31  C   UNL A   1      38.816  30.354  31.698  1.00  0.00     0.060 A 
ATOM     32  C   UNL A   1      39.933  30.745  32.448  1.00  0.00     0.016 A 
ATOM     33  C   UNL A   1      38.881  30.277  30.305  1.00  0.00     0.016 A 
ATOM     34  C   UNL A   1      41.138  31.026  31.809  1.00  0.00     0.010 A 
ATOM     35  C   UNL A   1      40.068  30.619  29.661  1.00  0.00     0.010 A 
ATOM     36  C   UNL A   1      41.193  31.010  30.411  1.00  0.00    -0.014 A 
BRANCH  36  37
ATOM     37  C   UNL A   1      42.319  31.660  29.710  1.00  0.00     0.031 A 
ATOM     38  C   UNL A   1      43.446  30.774  29.269  1.00  0.00     0.074 A 
ATOM     39  C   UNL A   1      42.360  32.986  29.510  1.00  0.00     0.049 A 
ATOM     40  N   UNL A   1      44.623  31.091  28.802  1.00  0.00    -0.248 NA
ATOM     41  C   UNL A   1      43.213  29.323  29.386  1.00  0.00     0.031 C 
ATOM     42  C   UNL A   1      41.292  33.928  29.837  1.00  0.00     0.029 A 
ATOM     43  N   UNL A   1      43.363  33.774  29.004  1.00  0.00    -0.354 N 
ATOM     44  C   UNL A   1      45.272  29.883  28.584  1.00  0.00     0.074 A 
ATOM     45  C   UNL A   1      44.373  28.828  28.989  1.00  0.00     0.031 C 
ATOM     46  C   UNL A   1      41.709  35.174  29.548  1.00  0.00     0.029 A 
ATOM     47  C   UNL A   1      43.090  35.117  29.066  1.00  0.00     0.049 A 
ATOM     48  H   UNL A   1      44.199  33.409  28.631  1.00  0.00     0.167 HD
ATOM     49  C   UNL A   1      46.514  29.677  28.090  1.00  0.00     0.037 A 
ATOM     50  C   UNL A   1      43.887  36.172  28.803  1.00  0.00     0.037 A 
ATOM     51  C   UNL A   1      47.404  30.739  27.713  1.00  0.00     0.049 A 
ATOM     52  C   UNL A   1      45.308  35.921  28.355  1.00  0.00     0.074 A 
ATOM     53  C   UNL A   1      48.690  30.650  27.213  1.00  0.00     0.029 A 
ATOM     54  N   UNL A   1      47.099  32.090  27.808  1.00  0.00    -0.354 N 
ATOM     55  N   UNL A   1      45.924  34.780  28.148  1.00  0.00    -0.248 NA
ATOM     56  C   UNL A   1      46.148  37.102  28.110  1.00  0.00     0.031 C 
ATOM     57  C   UNL A   1      49.185  31.948  27.062  1.00  0.00     0.029 A 
ATOM     58  C   UNL A   1      48.182  32.846  27.396  1.00  0.00     0.049 A 
ATOM     59  H   UNL A   1      46.241  32.456  28.123  1.00  0.00     0.167 HD
ATOM     60  C   UNL A   1      47.199  35.107  27.703  1.00  0.00     0.074 A 
ATOM     61  C   UNL A   1      47.272  36.551  27.676  1.00  0.00     0.031 C 
ATOM     62  C   UNL A   1      48.215  34.285  27.342  1.00  0.00     0.037 A 
BRANCH  49  63
ATOM     63  C   UNL A   1      46.987  28.259  27.977  1.00  0.00     0.064 A 
ATOM     64  C   UNL A   1      47.498  27.561  29.082  1.00  0.00     0.173 A 
ATOM     65  C   UNL A   1      46.916  27.585  26.750  1.00  0.00     0.173 A 
ATOM     66  F   UNL A   1      47.608  28.167  30.274  1.00  0.00    -0.203 F 
ATOM     67  C   UNL A   1      47.946  26.249  28.955  1.00  0.00     0.198 A 
ATOM     68  C   UNL A   1      47.332  26.262  26.634  1.00  0.00     0.198 A 
ATOM     69  F   UNL A   1      46.439  28.208  25.662  1.00  0.00    -0.203 F 
ATOM     70  F   UNL A   1      48.483  25.620  30.009  1.00  0.00    -0.200 F 
ATOM     71  C   UNL A   1      47.854  25.598  27.733  1.00  0.00     0.200 A 
ATOM     72  F   UNL A   1      47.232  25.631  25.455  1.00  0.00    -0.200 F 
ATOM     73  F   UNL A   1      48.279  24.332  27.614  1.00  0.00    -0.200 F 
ENDBRANCH  49  63
BRANCH  50  74
ATOM     74  C   UNL A   1      43.380  37.561  28.976  1.00  0.00     0.064 A 
ATOM     75  C   UNL A   1      43.663  38.292  30.139  1.00  0.00     0.173 A 
ATOM     76  C   UNL A   1      42.577  38.174  28.003  1.00  0.00     0.173 A 
ATOM     77  F   UNL A   1      44.405  37.741  31.111  1.00  0.00    -0.203 F 
ATOM     78  C   UNL A   1      43.140  39.569  30.334  1.00  0.00     0.198 A 
ATOM     79  C   UNL A   1      42.082  39.465  28.185  1.00  0.00     0.198 A 
ATOM     80  F   UNL A   1      42.272  37.521  26.872  1.00  0.00    -0.203 F 
ATOM     81  F   UNL A   1      43.381  40.220  31.480  1.00  0.00    -0.200 F 
ATOM     82  C   UNL A   1      42.356  40.157  29.353  1.00  0.00     0.200 A 
ATOM     83  F   UNL A   1      41.335  40.034  27.229  1.00  0.00    -0.200 F 
ATOM     84  F   UNL A   1      41.854  41.385  29.542  1.00  0.00    -0.200 F 
ENDBRANCH  50  74
BRANCH  62  85
ATOM     85  C   UNL A   1      49.470  34.911  26.805  1.00  0.00     0.064 A 
ATOM     86  C   UNL A   1      49.572  35.360  25.481  1.00  0.00     0.173 A 
ATOM     87  C   UNL A   1      50.552  35.153  27.667  1.00  0.00     0.173 A 
ATOM     88  F   UNL A   1      48.570  35.143  24.615  1.00  0.00    -0.203 F 
ATOM     89  C   UNL A   1      50.715  36.021  25.038  1.00  0.00     0.198 A 
ATOM     90  C   UNL A   1      51.678  35.843  27.229  1.00  0.00     0.198 A 
ATOM     91  F   UNL A   1      50.500  34.752  28.947  1.00  0.00    -0.203 F 
ATOM     92  F   UNL A   1      50.805  36.414  23.760  1.00  0.00    -0.200 F 
ATOM     93  C   UNL A   1      51.760  36.273  25.915  1.00  0.00     0.200 A 
ATOM     94  F   UNL A   1      52.676  36.103  28.085  1.00  0.00    -0.200 F 
ATOM     95  F   UNL A   1      52.847  36.932  25.492  1.00  0.00    -0.200 F 
ENDBRANCH  62  85
ENDBRANCH  36  37
ENDBRANCH  29  31
ENDBRANCH  28  29
ENDBRANCH  27  28
ENDBRANCH  26  27
ENDBRANCH  25  26
ENDBRANCH  24  25
ENDBRANCH  23  24
ENDBRANCH  22  23
ENDBRANCH   1  22
TORSDOF 23
ENDMDL
