MODEL 1
REMARK VINA RESULT:      -9.8      0.000      0.000
REMARK SMILES CCOc1ccc([C@H](C)[C@](O)(C(=O)OCCOCCOCCOCCOC(=O)c2ccc(-c3c4nc(c(-c5c(F)c(F)c(F)c(F)c5F)c5ccc([nH]5)c(-c5c(F)c(F)c(F)c(F)c5F)c5nc(c(-c6c(F)c(F)c(F)c(F)c6F)c6ccc3[nH]6)C=C5)C=C4)cc2)C(C)C)cc1
REMARK SMILES IDX 19 1 18 2 17 3 16 4 15 5 14 6 12 7 13 8 10 9 8 10 9 11 7 12
REMARK SMILES IDX 4 13 5 14 96 15 6 16 95 17 3 18 2 19 1 20 92 21 93 22 94 23
REMARK SMILES IDX 11 24 20 26 21 27 22 28 23 29 24 30 25 31 26 32 27 33 28 34
REMARK SMILES IDX 29 35 30 36 91 37 31 38 90 39 32 40 33 41 34 42 84 43 35 44
REMARK SMILES IDX 89 45 83 46 85 47 36 48 88 49 82 50 81 51 37 53 69 54 49 55
REMARK SMILES IDX 68 56 50 57 53 58 67 59 86 60 51 61 52 62 66 64 87 65 54 66
REMARK SMILES IDX 38 67 39 68 47 69 40 70 41 71 45 72 48 73 42 74 43 75 46 76
REMARK SMILES IDX 44 77 70 78 71 79 79 80 72 81 73 82 77 83 80 84 74 85 75 86
REMARK SMILES IDX 78 87 76 88 55 89 56 90 64 91 57 92 58 93 62 94 65 95 59 96
REMARK SMILES IDX 60 97 63 98 61 99
REMARK H PARENT 11 25 85 52 53 63
REMARK Flexibility Score: inf
ROOT
ATOM      1  C   UNL A   1      31.351  27.804  25.765  1.00  0.00     0.188 C 
ENDROOT
BRANCH   1   2
ATOM      2  C   UNL A   1      30.685  26.578  25.127  1.00  0.00     0.188 C 
BRANCH   2   3
ATOM      3  O   UNL A   1      30.877  26.423  23.738  1.00  0.00    -0.376 OA
BRANCH   3   4
ATOM      4  C   UNL A   1      31.917  27.104  23.060  1.00  0.00     0.202 C 
BRANCH   4   5
ATOM      5  C   UNL A   1      33.112  26.488  22.292  1.00  0.00     0.261 C 
BRANCH   5   6
ATOM      6  O   UNL A   1      33.677  25.233  22.681  1.00  0.00    -0.461 OA
BRANCH   6   7
ATOM      7  C   UNL A   1      33.848  25.036  24.018  1.00  0.00     0.339 C 
ATOM      8  O   UNL A   1      34.468  25.802  24.745  1.00  0.00    -0.249 OA
BRANCH   7   9
ATOM      9  C   UNL A   1      33.194  23.684  24.469  1.00  0.00     0.170 C 
BRANCH   9  10
ATOM     10  C   UNL A   1      34.106  22.551  23.825  1.00  0.00     0.060 C 
ATOM     11  C   UNL A   1      35.599  22.819  24.130  1.00  0.00     0.016 C 
BRANCH  10  12
ATOM     12  C   UNL A   1      33.716  21.088  24.104  1.00  0.00    -0.041 A 
ATOM     13  C   UNL A   1      33.202  18.310  24.129  1.00  0.00     0.119 A 
ATOM     14  C   UNL A   1      32.233  19.196  23.682  1.00  0.00     0.047 A 
ATOM     15  C   UNL A   1      34.363  18.809  24.697  1.00  0.00     0.047 A 
ATOM     16  C   UNL A   1      32.478  20.571  23.693  1.00  0.00     0.008 A 
ATOM     17  C   UNL A   1      34.588  20.189  24.735  1.00  0.00     0.008 A 
BRANCH  13  18
ATOM     18  O   UNL A   1      32.987  16.992  23.851  1.00  0.00    -0.494 OA
BRANCH  18  19
ATOM     19  C   UNL A   1      33.687  16.055  24.667  1.00  0.00     0.226 C 
ATOM     20  C   UNL A   1      32.751  15.132  25.433  1.00  0.00     0.049 C 
ENDBRANCH  18  19
ENDBRANCH  13  18
ENDBRANCH  10  12
ENDBRANCH   9  10
BRANCH   9  21
ATOM     21  C   UNL A   1      33.012  23.764  26.043  1.00  0.00     0.027 C 
ATOM     22  C   UNL A   1      31.680  23.152  26.541  1.00  0.00     0.011 C 
ATOM     23  C   UNL A   1      34.085  23.100  26.906  1.00  0.00     0.011 C 
ENDBRANCH   9  21
BRANCH   9  24
ATOM     24  O   UNL A   1      31.888  23.550  23.878  1.00  0.00    -0.377 OA
ATOM     25  H   UNL A   1      31.832  22.704  23.407  1.00  0.00     0.212 HD
ENDBRANCH   9  24
ENDBRANCH   7   9
ENDBRANCH   6   7
ENDBRANCH   5   6
ENDBRANCH   4   5
ENDBRANCH   3   4
ENDBRANCH   2   3
ENDBRANCH   1   2
BRANCH   1  26
ATOM     26  O   UNL A   1      32.247  27.460  26.807  1.00  0.00    -0.377 OA
BRANCH  26  27
ATOM     27  C   UNL A   1      33.402  28.289  26.912  1.00  0.00     0.188 C 
BRANCH  27  28
ATOM     28  C   UNL A   1      33.357  29.742  26.378  1.00  0.00     0.188 C 
BRANCH  28  29
ATOM     29  O   UNL A   1      32.768  30.692  27.257  1.00  0.00    -0.376 OA
BRANCH  29  30
ATOM     30  C   UNL A   1      31.748  31.565  26.810  1.00  0.00     0.202 C 
BRANCH  30  31
ATOM     31  C   UNL A   1      31.904  33.072  27.071  1.00  0.00     0.261 C 
BRANCH  31  32
ATOM     32  O   UNL A   1      33.210  33.509  27.468  1.00  0.00    -0.460 OA
BRANCH  32  33
ATOM     33  C   UNL A   1      33.278  34.466  28.415  1.00  0.00     0.338 C 
ATOM     34  O   UNL A   1      32.494  35.384  28.594  1.00  0.00    -0.246 OA
BRANCH  33  35
ATOM     35  C   UNL A   1      34.349  34.090  29.360  1.00  0.00     0.060 A 
ATOM     36  C   UNL A   1      35.680  34.271  28.962  1.00  0.00     0.016 A 
ATOM     37  C   UNL A   1      34.051  33.591  30.631  1.00  0.00     0.016 A 
ATOM     38  C   UNL A   1      36.718  33.914  29.817  1.00  0.00     0.010 A 
ATOM     39  C   UNL A   1      35.093  33.201  31.476  1.00  0.00     0.010 A 
ATOM     40  C   UNL A   1      36.428  33.322  31.052  1.00  0.00    -0.014 A 
BRANCH  40  41
ATOM     41  C   UNL A   1      37.524  32.632  31.769  1.00  0.00     0.031 A 
ATOM     42  C   UNL A   1      38.193  31.470  31.087  1.00  0.00     0.074 A 
ATOM     43  C   UNL A   1      37.977  33.084  32.950  1.00  0.00     0.049 A 
ATOM     44  N   UNL A   1      39.210  30.746  31.478  1.00  0.00    -0.248 NA
ATOM     45  C   UNL A   1      37.641  31.076  29.780  1.00  0.00     0.031 C 
ATOM     46  C   UNL A   1      37.441  34.231  33.679  1.00  0.00     0.029 A 
ATOM     47  N   UNL A   1      39.007  32.633  33.737  1.00  0.00    -0.354 N 
ATOM     48  C   UNL A   1      39.418  29.816  30.468  1.00  0.00     0.074 A 
ATOM     49  C   UNL A   1      38.401  30.039  29.466  1.00  0.00     0.031 C 
ATOM     50  C   UNL A   1      38.149  34.395  34.810  1.00  0.00     0.029 A 
ATOM     51  C   UNL A   1      39.168  33.351  34.895  1.00  0.00     0.049 A 
ATOM     52  H   UNL A   1      39.576  31.867  33.494  1.00  0.00     0.167 HD
ATOM     53  C   UNL A   1      40.381  28.869  30.380  1.00  0.00     0.037 A 
ATOM     54  C   UNL A   1      40.035  33.171  35.910  1.00  0.00     0.037 A 
ATOM     55  C   UNL A   1      41.388  28.649  31.384  1.00  0.00     0.049 A 
ATOM     56  C   UNL A   1      41.048  32.056  35.823  1.00  0.00     0.074 A 
ATOM     57  C   UNL A   1      42.416  27.724  31.387  1.00  0.00     0.029 A 
ATOM     58  N   UNL A   1      41.485  29.357  32.573  1.00  0.00    -0.354 N 
ATOM     59  N   UNL A   1      41.260  31.198  34.853  1.00  0.00    -0.248 NA
ATOM     60  C   UNL A   1      41.948  31.892  36.973  1.00  0.00     0.031 C 
ATOM     61  C   UNL A   1      43.093  27.827  32.605  1.00  0.00     0.029 A 
ATOM     62  C   UNL A   1      42.535  28.866  33.333  1.00  0.00     0.049 A 
ATOM     63  H   UNL A   1      40.894  30.099  32.839  1.00  0.00     0.167 HD
ATOM     64  C   UNL A   1      42.333  30.416  35.260  1.00  0.00     0.074 A 
ATOM     65  C   UNL A   1      42.743  30.917  36.556  1.00  0.00     0.031 C 
ATOM     66  C   UNL A   1      42.928  29.376  34.622  1.00  0.00     0.037 A 
BRANCH  53  67
ATOM     67  C   UNL A   1      40.367  27.976  29.172  1.00  0.00     0.064 A 
ATOM     68  C   UNL A   1      39.602  26.800  29.126  1.00  0.00     0.173 A 
ATOM     69  C   UNL A   1      41.112  28.317  28.034  1.00  0.00     0.173 A 
ATOM     70  F   UNL A   1      38.886  26.416  30.194  1.00  0.00    -0.203 F 
ATOM     71  C   UNL A   1      39.606  25.986  27.995  1.00  0.00     0.198 A 
ATOM     72  C   UNL A   1      41.087  27.520  26.893  1.00  0.00     0.198 A 
ATOM     73  F   UNL A   1      41.861  29.430  28.024  1.00  0.00    -0.203 F 
ATOM     74  F   UNL A   1      38.910  24.840  27.993  1.00  0.00    -0.200 F 
ATOM     75  C   UNL A   1      40.340  26.351  26.877  1.00  0.00     0.200 A 
ATOM     76  F   UNL A   1      41.786  27.881  25.809  1.00  0.00    -0.200 F 
ATOM     77  F   UNL A   1      40.336  25.572  25.787  1.00  0.00    -0.200 F 
ENDBRANCH  53  67
BRANCH  54  78
ATOM     78  C   UNL A   1      39.984  34.059  37.103  1.00  0.00     0.064 A 
ATOM     79  C   UNL A   1      40.794  35.199  37.196  1.00  0.00     0.173 A 
ATOM     80  C   UNL A   1      39.148  33.765  38.190  1.00  0.00     0.173 A 
ATOM     81  F   UNL A   1      41.631  35.510  36.195  1.00  0.00    -0.203 F 
ATOM     82  C   UNL A   1      40.788  35.997  38.339  1.00  0.00     0.198 A 
ATOM     83  C   UNL A   1      39.116  34.582  39.318  1.00  0.00     0.198 A 
ATOM     84  F   UNL A   1      38.354  32.684  38.155  1.00  0.00    -0.203 F 
ATOM     85  F   UNL A   1      41.614  37.049  38.425  1.00  0.00    -0.200 F 
ATOM     86  C   UNL A   1      39.945  35.691  39.396  1.00  0.00     0.200 A 
ATOM     87  F   UNL A   1      38.290  34.290  40.332  1.00  0.00    -0.200 F 
ATOM     88  F   UNL A   1      39.937  36.459  40.494  1.00  0.00    -0.200 F 
ENDBRANCH  54  78
BRANCH  66  89
ATOM     89  C   UNL A   1      44.107  28.736  35.302  1.00  0.00     0.064 A 
ATOM     90  C   UNL A   1      43.959  27.649  36.177  1.00  0.00     0.173 A 
ATOM     91  C   UNL A   1      45.408  29.209  35.062  1.00  0.00     0.173 A 
ATOM     92  F   UNL A   1      42.738  27.163  36.450  1.00  0.00    -0.203 F 
ATOM     93  C   UNL A   1      45.061  27.092  36.822  1.00  0.00     0.198 A 
ATOM     94  C   UNL A   1      46.510  28.622  35.676  1.00  0.00     0.198 A 
ATOM     95  F   UNL A   1      45.610  30.236  34.225  1.00  0.00    -0.203 F 
ATOM     96  F   UNL A   1      44.885  26.101  37.708  1.00  0.00    -0.200 F 
ATOM     97  C   UNL A   1      46.335  27.574  36.567  1.00  0.00     0.200 A 
ATOM     98  F   UNL A   1      47.743  29.077  35.413  1.00  0.00    -0.200 F 
ATOM     99  F   UNL A   1      47.394  27.035  37.187  1.00  0.00    -0.200 F 
ENDBRANCH  66  89
ENDBRANCH  40  41
ENDBRANCH  33  35
ENDBRANCH  32  33
ENDBRANCH  31  32
ENDBRANCH  30  31
ENDBRANCH  29  30
ENDBRANCH  28  29
ENDBRANCH  27  28
ENDBRANCH  26  27
ENDBRANCH   1  26
TORSDOF 26
ENDMDL
MODEL 2
REMARK VINA RESULT:      -9.5      0.821      7.080
REMARK SMILES CCOc1ccc([C@H](C)[C@](O)(C(=O)OCCOCCOCCOCCOC(=O)c2ccc(-c3c4nc(c(-c5c(F)c(F)c(F)c(F)c5F)c5ccc([nH]5)c(-c5c(F)c(F)c(F)c(F)c5F)c5nc(c(-c6c(F)c(F)c(F)c(F)c6F)c6ccc3[nH]6)C=C5)C=C4)cc2)C(C)C)cc1
REMARK SMILES IDX 19 1 18 2 17 3 16 4 15 5 14 6 12 7 13 8 10 9 8 10 9 11 7 12
REMARK SMILES IDX 4 13 5 14 96 15 6 16 95 17 3 18 2 19 1 20 92 21 93 22 94 23
REMARK SMILES IDX 11 24 20 26 21 27 22 28 23 29 24 30 25 31 26 32 27 33 28 34
REMARK SMILES IDX 29 35 30 36 91 37 31 38 90 39 32 40 33 41 34 42 84 43 35 44
REMARK SMILES IDX 89 45 83 46 85 47 36 48 88 49 82 50 81 51 37 53 69 54 49 55
REMARK SMILES IDX 68 56 50 57 53 58 67 59 86 60 51 61 52 62 66 64 87 65 54 66
REMARK SMILES IDX 38 67 39 68 47 69 40 70 41 71 45 72 48 73 42 74 43 75 46 76
REMARK SMILES IDX 44 77 70 78 71 79 79 80 72 81 73 82 77 83 80 84 74 85 75 86
REMARK SMILES IDX 78 87 76 88 55 89 56 90 64 91 57 92 58 93 62 94 65 95 59 96
REMARK SMILES IDX 60 97 63 98 61 99
REMARK H PARENT 11 25 85 52 53 63
REMARK Flexibility Score: inf
ROOT
ATOM      1  C   UNL A   1      31.404  27.627  26.491  1.00  0.00     0.188 C 
ENDROOT
BRANCH   1   2
ATOM      2  C   UNL A   1      30.723  26.276  26.234  1.00  0.00     0.188 C 
BRANCH   2   3
ATOM      3  O   UNL A   1      30.688  25.849  24.889  1.00  0.00    -0.376 OA
BRANCH   3   4
ATOM      4  C   UNL A   1      31.237  26.642  23.852  1.00  0.00     0.202 C 
BRANCH   4   5
ATOM      5  C   UNL A   1      32.649  26.540  23.227  1.00  0.00     0.261 C 
BRANCH   5   6
ATOM      6  O   UNL A   1      33.355  25.297  23.188  1.00  0.00    -0.461 OA
BRANCH   6   7
ATOM      7  C   UNL A   1      33.911  24.880  24.359  1.00  0.00     0.339 C 
ATOM      8  O   UNL A   1      34.776  25.503  24.962  1.00  0.00    -0.249 OA
BRANCH   7   9
ATOM      9  C   UNL A   1      33.329  23.488  24.786  1.00  0.00     0.170 C 
BRANCH   9  10
ATOM     10  C   UNL A   1      34.214  22.418  24.010  1.00  0.00     0.060 C 
ATOM     11  C   UNL A   1      35.711  22.798  24.083  1.00  0.00     0.016 C 
BRANCH  10  12
ATOM     12  C   UNL A   1      33.981  20.933  24.346  1.00  0.00    -0.041 A 
ATOM     13  C   UNL A   1      33.592  18.136  24.433  1.00  0.00     0.119 A 
ATOM     14  C   UNL A   1      32.503  18.991  24.348  1.00  0.00     0.047 A 
ATOM     15  C   UNL A   1      34.856  18.671  24.621  1.00  0.00     0.047 A 
ATOM     16  C   UNL A   1      32.694  20.374  24.330  1.00  0.00     0.008 A 
ATOM     17  C   UNL A   1      35.037  20.057  24.636  1.00  0.00     0.008 A 
BRANCH  13  18
ATOM     18  O   UNL A   1      33.343  16.818  24.191  1.00  0.00    -0.494 OA
BRANCH  18  19
ATOM     19  C   UNL A   1      32.320  16.215  24.982  1.00  0.00     0.226 C 
ATOM     20  C   UNL A   1      32.815  15.000  25.751  1.00  0.00     0.049 C 
ENDBRANCH  18  19
ENDBRANCH  13  18
ENDBRANCH  10  12
ENDBRANCH   9  10
BRANCH   9  21
ATOM     21  C   UNL A   1      33.273  23.479  26.371  1.00  0.00     0.027 C 
ATOM     22  C   UNL A   1      31.960  22.886  26.939  1.00  0.00     0.011 C 
ATOM     23  C   UNL A   1      34.383  22.727  27.107  1.00  0.00     0.011 C 
ENDBRANCH   9  21
BRANCH   9  24
ATOM     24  O   UNL A   1      31.983  23.347  24.295  1.00  0.00    -0.377 OA
ATOM     25  H   UNL A   1      31.532  24.205  24.337  1.00  0.00     0.212 HD
ENDBRANCH   9  24
ENDBRANCH   7   9
ENDBRANCH   6   7
ENDBRANCH   5   6
ENDBRANCH   4   5
ENDBRANCH   3   4
ENDBRANCH   2   3
ENDBRANCH   1   2
BRANCH   1  26
ATOM     26  O   UNL A   1      32.750  27.491  26.914  1.00  0.00    -0.377 OA
BRANCH  26  27
ATOM     27  C   UNL A   1      33.665  28.412  26.330  1.00  0.00     0.188 C 
BRANCH  27  28
ATOM     28  C   UNL A   1      33.144  29.748  25.744  1.00  0.00     0.188 C 
BRANCH  28  29
ATOM     29  O   UNL A   1      32.868  30.762  26.702  1.00  0.00    -0.376 OA
BRANCH  29  30
ATOM     30  C   UNL A   1      31.754  31.623  26.552  1.00  0.00     0.202 C 
BRANCH  30  31
ATOM     31  C   UNL A   1      31.783  32.990  27.255  1.00  0.00     0.261 C 
BRANCH  31  32
ATOM     32  O   UNL A   1      33.063  33.628  27.338  1.00  0.00    -0.460 OA
BRANCH  32  33
ATOM     33  C   UNL A   1      33.252  34.500  28.348  1.00  0.00     0.338 C 
ATOM     34  O   UNL A   1      32.528  35.431  28.665  1.00  0.00    -0.246 OA
BRANCH  33  35
ATOM     35  C   UNL A   1      34.377  34.006  29.167  1.00  0.00     0.060 A 
ATOM     36  C   UNL A   1      35.678  34.381  28.805  1.00  0.00     0.016 A 
ATOM     37  C   UNL A   1      34.158  33.207  30.292  1.00  0.00     0.016 A 
ATOM     38  C   UNL A   1      36.766  33.923  29.540  1.00  0.00     0.010 A 
ATOM     39  C   UNL A   1      35.254  32.719  31.011  1.00  0.00     0.010 A 
ATOM     40  C   UNL A   1      36.561  33.043  30.609  1.00  0.00    -0.014 A 
BRANCH  40  41
ATOM     41  C   UNL A   1      37.729  32.298  31.132  1.00  0.00     0.031 A 
ATOM     42  C   UNL A   1      38.196  32.606  32.529  1.00  0.00     0.074 A 
ATOM     43  C   UNL A   1      38.298  31.308  30.425  1.00  0.00     0.049 A 
ATOM     44  N   UNL A   1      39.149  32.051  33.231  1.00  0.00    -0.248 NA
ATOM     45  C   UNL A   1      37.483  33.686  33.231  1.00  0.00     0.031 C 
ATOM     46  C   UNL A   1      37.896  30.888  29.084  1.00  0.00     0.029 A 
ATOM     47  N   UNL A   1      39.332  30.467  30.748  1.00  0.00    -0.354 N 
ATOM     48  C   UNL A   1      39.149  32.711  34.452  1.00  0.00     0.074 A 
ATOM     49  C   UNL A   1      38.129  33.733  34.385  1.00  0.00     0.031 C 
ATOM     50  C   UNL A   1      38.678  29.864  28.698  1.00  0.00     0.029 A 
ATOM     51  C   UNL A   1      39.648  29.577  29.753  1.00  0.00     0.049 A 
ATOM     52  H   UNL A   1      39.804  30.500  31.612  1.00  0.00     0.167 HD
ATOM     53  C   UNL A   1      39.922  32.476  35.538  1.00  0.00     0.037 A 
ATOM     54  C   UNL A   1      40.621  28.646  29.702  1.00  0.00     0.037 A 
ATOM     55  C   UNL A   1      40.940  31.459  35.597  1.00  0.00     0.049 A 
ATOM     56  C   UNL A   1      41.522  28.459  30.898  1.00  0.00     0.074 A 
ATOM     57  C   UNL A   1      41.770  31.131  36.653  1.00  0.00     0.029 A 
ATOM     58  N   UNL A   1      41.272  30.614  34.549  1.00  0.00    -0.354 N 
ATOM     59  N   UNL A   1      41.498  29.064  32.061  1.00  0.00    -0.248 NA
ATOM     60  C   UNL A   1      42.581  27.448  30.773  1.00  0.00     0.031 C 
ATOM     61  C   UNL A   1      42.650  30.134  36.222  1.00  0.00     0.029 A 
ATOM     62  C   UNL A   1      42.320  29.787  34.921  1.00  0.00     0.049 A 
ATOM     63  H   UNL A   1      40.829  30.603  33.669  1.00  0.00     0.167 HD
ATOM     64  C   UNL A   1      42.513  28.490  32.814  1.00  0.00     0.074 A 
ATOM     65  C   UNL A   1      43.120  27.471  31.983  1.00  0.00     0.031 C 
ATOM     66  C   UNL A   1      42.912  28.778  34.080  1.00  0.00     0.037 A 
BRANCH  53  67
ATOM     67  C   UNL A   1      39.722  33.359  36.736  1.00  0.00     0.064 A 
ATOM     68  C   UNL A   1      40.439  34.552  36.910  1.00  0.00     0.173 A 
ATOM     69  C   UNL A   1      38.777  33.016  37.716  1.00  0.00     0.173 A 
ATOM     70  F   UNL A   1      41.369  34.918  36.014  1.00  0.00    -0.203 F 
ATOM     71  C   UNL A   1      40.238  35.354  38.031  1.00  0.00     0.198 A 
ATOM     72  C   UNL A   1      38.553  33.836  38.817  1.00  0.00     0.198 A 
ATOM     73  F   UNL A   1      38.063  31.885  37.600  1.00  0.00    -0.203 F 
ATOM     74  F   UNL A   1      40.973  36.462  38.202  1.00  0.00    -0.200 F 
ATOM     75  C   UNL A   1      39.288  35.001  38.978  1.00  0.00     0.200 A 
ATOM     76  F   UNL A   1      37.626  33.500  39.724  1.00  0.00    -0.200 F 
ATOM     77  F   UNL A   1      39.089  35.778  40.052  1.00  0.00    -0.200 F 
ENDBRANCH  53  67
BRANCH  54  78
ATOM     78  C   UNL A   1      40.804  27.822  28.477  1.00  0.00     0.064 A 
ATOM     79  C   UNL A   1      41.608  28.263  27.417  1.00  0.00     0.173 A 
ATOM     80  C   UNL A   1      40.149  26.590  28.328  1.00  0.00     0.173 A 
ATOM     81  F   UNL A   1      42.234  29.446  27.499  1.00  0.00    -0.203 F 
ATOM     82  C   UNL A   1      41.730  27.517  26.246  1.00  0.00     0.198 A 
ATOM     83  C   UNL A   1      40.300  25.829  27.171  1.00  0.00     0.198 A 
ATOM     84  F   UNL A   1      39.365  26.122  29.311  1.00  0.00    -0.203 F 
ATOM     85  F   UNL A   1      42.459  27.990  25.226  1.00  0.00    -0.200 F 
ATOM     86  C   UNL A   1      41.081  26.298  26.127  1.00  0.00     0.200 A 
ATOM     87  F   UNL A   1      39.681  24.644  27.066  1.00  0.00    -0.200 F 
ATOM     88  F   UNL A   1      41.200  25.580  25.002  1.00  0.00    -0.200 F 
ENDBRANCH  54  78
BRANCH  66  89
ATOM     89  C   UNL A   1      44.033  27.954  34.652  1.00  0.00     0.064 A 
ATOM     90  C   UNL A   1      43.794  26.757  35.345  1.00  0.00     0.173 A 
ATOM     91  C   UNL A   1      45.367  28.359  34.489  1.00  0.00     0.173 A 
ATOM     92  F   UNL A   1      42.538  26.328  35.538  1.00  0.00    -0.203 F 
ATOM     93  C   UNL A   1      44.844  26.025  35.895  1.00  0.00     0.198 A 
ATOM     94  C   UNL A   1      46.416  27.603  35.004  1.00  0.00     0.198 A 
ATOM     95  F   UNL A   1      45.656  29.487  33.824  1.00  0.00    -0.203 F 
ATOM     96  F   UNL A   1      44.584  24.923  36.614  1.00  0.00    -0.200 F 
ATOM     97  C   UNL A   1      46.153  26.444  35.718  1.00  0.00     0.200 A 
ATOM     98  F   UNL A   1      47.682  27.999  34.816  1.00  0.00    -0.200 F 
ATOM     99  F   UNL A   1      47.162  25.737  36.247  1.00  0.00    -0.200 F 
ENDBRANCH  66  89
ENDBRANCH  40  41
ENDBRANCH  33  35
ENDBRANCH  32  33
ENDBRANCH  31  32
ENDBRANCH  30  31
ENDBRANCH  29  30
ENDBRANCH  28  29
ENDBRANCH  27  28
ENDBRANCH  26  27
ENDBRANCH   1  26
TORSDOF 26
ENDMDL
MODEL 3
REMARK VINA RESULT:      -9.2      4.681      9.822
REMARK SMILES CCOc1ccc([C@H](C)[C@](O)(C(=O)OCCOCCOCCOCCOC(=O)c2ccc(-c3c4nc(c(-c5c(F)c(F)c(F)c(F)c5F)c5ccc([nH]5)c(-c5c(F)c(F)c(F)c(F)c5F)c5nc(c(-c6c(F)c(F)c(F)c(F)c6F)c6ccc3[nH]6)C=C5)C=C4)cc2)C(C)C)cc1
REMARK SMILES IDX 19 1 18 2 17 3 16 4 15 5 14 6 12 7 13 8 10 9 8 10 9 11 7 12
REMARK SMILES IDX 4 13 5 14 96 15 6 16 95 17 3 18 2 19 1 20 92 21 93 22 94 23
REMARK SMILES IDX 11 24 20 26 21 27 22 28 23 29 24 30 25 31 26 32 27 33 28 34
REMARK SMILES IDX 29 35 30 36 91 37 31 38 90 39 32 40 33 41 34 42 84 43 35 44
REMARK SMILES IDX 89 45 83 46 85 47 36 48 88 49 82 50 81 51 37 53 69 54 49 55
REMARK SMILES IDX 68 56 50 57 53 58 67 59 86 60 51 61 52 62 66 64 87 65 54 66
REMARK SMILES IDX 38 67 39 68 47 69 40 70 41 71 45 72 48 73 42 74 43 75 46 76
REMARK SMILES IDX 44 77 70 78 71 79 79 80 72 81 73 82 77 83 80 84 74 85 75 86
REMARK SMILES IDX 78 87 76 88 55 89 56 90 64 91 57 92 58 93 62 94 65 95 59 96
REMARK SMILES IDX 60 97 63 98 61 99
REMARK H PARENT 11 25 85 52 53 63
REMARK Flexibility Score: inf
ROOT
ATOM      1  C   UNL A   1      34.450  31.491  28.494  1.00  0.00     0.188 C 
ENDROOT
BRANCH   1   2
ATOM      2  C   UNL A   1      34.027  30.810  27.185  1.00  0.00     0.188 C 
BRANCH   2   3
ATOM      3  O   UNL A   1      32.775  30.158  27.205  1.00  0.00    -0.376 OA
BRANCH   3   4
ATOM      4  C   UNL A   1      32.674  28.772  27.476  1.00  0.00     0.202 C 
BRANCH   4   5
ATOM      5  C   UNL A   1      33.374  27.607  26.735  1.00  0.00     0.261 C 
BRANCH   5   6
ATOM      6  O   UNL A   1      32.631  26.686  25.931  1.00  0.00    -0.461 OA
BRANCH   6   7
ATOM      7  C   UNL A   1      33.313  26.081  24.920  1.00  0.00     0.339 C 
ATOM      8  O   UNL A   1      34.098  26.664  24.184  1.00  0.00    -0.249 OA
BRANCH   7   9
ATOM      9  C   UNL A   1      32.912  24.569  24.806  1.00  0.00     0.170 C 
BRANCH   9  10
ATOM     10  C   UNL A   1      32.045  24.473  23.475  1.00  0.00     0.060 C 
ATOM     11  C   UNL A   1      31.354  23.093  23.378  1.00  0.00     0.016 C 
BRANCH  10  12
ATOM     12  C   UNL A   1      31.068  25.628  23.186  1.00  0.00    -0.041 A 
ATOM     13  C   UNL A   1      29.520  27.988  23.066  1.00  0.00     0.119 A 
ATOM     14  C   UNL A   1      29.087  26.905  23.817  1.00  0.00     0.047 A 
ATOM     15  C   UNL A   1      30.641  27.847  22.264  1.00  0.00     0.047 A 
ATOM     16  C   UNL A   1      29.839  25.730  23.856  1.00  0.00     0.008 A 
ATOM     17  C   UNL A   1      31.372  26.656  22.282  1.00  0.00     0.008 A 
BRANCH  13  18
ATOM     18  O   UNL A   1      28.872  29.168  23.281  1.00  0.00    -0.494 OA
BRANCH  18  19
ATOM     19  C   UNL A   1      28.034  29.628  22.222  1.00  0.00     0.226 C 
ATOM     20  C   UNL A   1      28.624  30.819  21.483  1.00  0.00     0.049 C 
ENDBRANCH  18  19
ENDBRANCH  13  18
ENDBRANCH  10  12
ENDBRANCH   9  10
BRANCH   9  21
ATOM     21  C   UNL A   1      34.248  23.726  24.951  1.00  0.00     0.027 C 
ATOM     22  C   UNL A   1      34.014  22.282  25.458  1.00  0.00     0.011 C 
ATOM     23  C   UNL A   1      35.110  23.558  23.699  1.00  0.00     0.011 C 
ENDBRANCH   9  21
BRANCH   9  24
ATOM     24  O   UNL A   1      32.041  24.209  25.894  1.00  0.00    -0.377 OA
ATOM     25  H   UNL A   1      31.960  24.959  26.505  1.00  0.00     0.212 HD
ENDBRANCH   9  24
ENDBRANCH   7   9
ENDBRANCH   6   7
ENDBRANCH   5   6
ENDBRANCH   4   5
ENDBRANCH   3   4
ENDBRANCH   2   3
ENDBRANCH   1   2
BRANCH   1  26
ATOM     26  O   UNL A   1      34.889  32.824  28.300  1.00  0.00    -0.377 OA
BRANCH  26  27
ATOM     27  C   UNL A   1      34.070  33.825  28.898  1.00  0.00     0.188 C 
BRANCH  27  28
ATOM     28  C   UNL A   1      34.722  34.952  29.737  1.00  0.00     0.188 C 
BRANCH  28  29
ATOM     29  O   UNL A   1      34.565  34.827  31.145  1.00  0.00    -0.376 OA
BRANCH  29  30
ATOM     30  C   UNL A   1      34.009  33.657  31.716  1.00  0.00     0.202 C 
BRANCH  30  31
ATOM     31  C   UNL A   1      34.544  33.177  33.075  1.00  0.00     0.261 C 
BRANCH  31  32
ATOM     32  O   UNL A   1      35.441  32.060  33.039  1.00  0.00    -0.460 OA
BRANCH  32  33
ATOM     33  C   UNL A   1      36.715  32.281  33.417  1.00  0.00     0.338 C 
ATOM     34  O   UNL A   1      37.098  32.815  34.446  1.00  0.00    -0.246 OA
BRANCH  33  35
ATOM     35  C   UNL A   1      37.597  31.559  32.477  1.00  0.00     0.060 A 
ATOM     36  C   UNL A   1      38.613  30.753  33.004  1.00  0.00     0.016 A 
ATOM     37  C   UNL A   1      37.410  31.651  31.095  1.00  0.00     0.016 A 
ATOM     38  C   UNL A   1      39.475  30.070  32.151  1.00  0.00     0.010 A 
ATOM     39  C   UNL A   1      38.297  30.993  30.238  1.00  0.00     0.010 A 
ATOM     40  C   UNL A   1      39.357  30.236  30.766  1.00  0.00    -0.014 A 
BRANCH  40  41
ATOM     41  C   UNL A   1      40.486  29.802  29.913  1.00  0.00     0.031 A 
ATOM     42  C   UNL A   1      41.604  30.778  29.669  1.00  0.00     0.074 A 
ATOM     43  C   UNL A   1      40.564  28.544  29.448  1.00  0.00     0.049 A 
ATOM     44  N   UNL A   1      42.724  30.617  29.014  1.00  0.00    -0.248 NA
ATOM     45  C   UNL A   1      41.435  32.120  30.251  1.00  0.00     0.031 C 
ATOM     46  C   UNL A   1      39.567  27.498  29.665  1.00  0.00     0.029 A 
ATOM     47  N   UNL A   1      41.542  27.932  28.704  1.00  0.00    -0.354 N 
ATOM     48  C   UNL A   1      43.391  31.831  29.106  1.00  0.00     0.074 A 
ATOM     49  C   UNL A   1      42.536  32.733  29.845  1.00  0.00     0.031 C 
ATOM     50  C   UNL A   1      39.985  26.369  29.066  1.00  0.00     0.029 A 
ATOM     51  C   UNL A   1      41.264  26.622  28.404  1.00  0.00     0.049 A 
ATOM     52  H   UNL A   1      42.364  28.389  28.413  1.00  0.00     0.167 HD
ATOM     53  C   UNL A   1      44.614  32.161  28.627  1.00  0.00     0.037 A 
ATOM     54  C   UNL A   1      41.963  25.737  27.667  1.00  0.00     0.037 A 
ATOM     55  C   UNL A   1      45.458  31.260  27.887  1.00  0.00     0.049 A 
ATOM     56  C   UNL A   1      43.287  26.155  27.077  1.00  0.00     0.074 A 
ATOM     57  C   UNL A   1      46.719  31.490  27.368  1.00  0.00     0.029 A 
ATOM     58  N   UNL A   1      45.119  29.958  27.551  1.00  0.00    -0.354 N 
ATOM     59  N   UNL A   1      43.927  27.294  27.193  1.00  0.00    -0.248 NA
ATOM     60  C   UNL A   1      43.990  25.156  26.260  1.00  0.00     0.031 C 
ATOM     61  C   UNL A   1      47.114  30.351  26.661  1.00  0.00     0.029 A 
ATOM     62  C   UNL A   1      46.132  29.382  26.801  1.00  0.00     0.049 A 
ATOM     63  H   UNL A   1      44.280  29.507  27.808  1.00  0.00     0.167 HD
ATOM     64  C   UNL A   1      45.116  27.140  26.492  1.00  0.00     0.074 A 
ATOM     65  C   UNL A   1      45.119  25.787  25.974  1.00  0.00     0.031 C 
ATOM     66  C   UNL A   1      46.118  28.035  26.292  1.00  0.00     0.037 A 
BRANCH  53  67
ATOM     67  C   UNL A   1      45.093  33.565  28.858  1.00  0.00     0.064 A 
ATOM     68  C   UNL A   1      45.899  33.905  29.956  1.00  0.00     0.173 A 
ATOM     69  C   UNL A   1      44.760  34.583  27.952  1.00  0.00     0.173 A 
ATOM     70  F   UNL A   1      46.231  32.975  30.865  1.00  0.00    -0.203 F 
ATOM     71  C   UNL A   1      46.330  35.215  30.151  1.00  0.00     0.198 A 
ATOM     72  C   UNL A   1      45.221  35.883  28.130  1.00  0.00     0.198 A 
ATOM     73  F   UNL A   1      43.992  34.314  26.884  1.00  0.00    -0.203 F 
ATOM     74  F   UNL A   1      47.055  35.526  31.235  1.00  0.00    -0.200 F 
ATOM     75  C   UNL A   1      45.999  36.201  29.234  1.00  0.00     0.200 A 
ATOM     76  F   UNL A   1      44.911  36.831  27.236  1.00  0.00    -0.200 F 
ATOM     77  F   UNL A   1      46.422  37.459  29.417  1.00  0.00    -0.200 F 
ENDBRANCH  53  67
BRANCH  54  78
ATOM     78  C   UNL A   1      41.427  24.369  27.435  1.00  0.00     0.064 A 
ATOM     79  C   UNL A   1      40.294  24.157  26.637  1.00  0.00     0.173 A 
ATOM     80  C   UNL A   1      42.017  23.247  28.037  1.00  0.00     0.173 A 
ATOM     81  F   UNL A   1      39.677  25.198  26.061  1.00  0.00    -0.203 F 
ATOM     82  C   UNL A   1      39.758  22.881  26.469  1.00  0.00     0.198 A 
ATOM     83  C   UNL A   1      41.502  21.968  27.840  1.00  0.00     0.198 A 
ATOM     84  F   UNL A   1      43.101  23.393  28.813  1.00  0.00    -0.203 F 
ATOM     85  F   UNL A   1      38.642  22.715  25.748  1.00  0.00    -0.200 F 
ATOM     86  C   UNL A   1      40.366  21.787  27.066  1.00  0.00     0.200 A 
ATOM     87  F   UNL A   1      42.101  20.912  28.409  1.00  0.00    -0.200 F 
ATOM     88  F   UNL A   1      39.852  20.560  26.903  1.00  0.00    -0.200 F 
ENDBRANCH  54  78
BRANCH  66  89
ATOM     89  C   UNL A   1      47.314  27.564  25.511  1.00  0.00     0.064 A 
ATOM     90  C   UNL A   1      48.408  26.942  26.132  1.00  0.00     0.173 A 
ATOM     91  C   UNL A   1      47.358  27.723  24.116  1.00  0.00     0.173 A 
ATOM     92  F   UNL A   1      48.422  26.773  27.463  1.00  0.00    -0.203 F 
ATOM     93  C   UNL A   1      49.520  26.543  25.395  1.00  0.00     0.198 A 
ATOM     94  C   UNL A   1      48.453  27.285  23.378  1.00  0.00     0.198 A 
ATOM     95  F   UNL A   1      46.335  28.298  23.468  1.00  0.00    -0.203 F 
ATOM     96  F   UNL A   1      50.582  26.016  26.021  1.00  0.00    -0.200 F 
ATOM     97  C   UNL A   1      49.539  26.708  24.018  1.00  0.00     0.200 A 
ATOM     98  F   UNL A   1      48.462  27.428  22.046  1.00  0.00    -0.200 F 
ATOM     99  F   UNL A   1      50.610  26.322  23.310  1.00  0.00    -0.200 F 
ENDBRANCH  66  89
ENDBRANCH  40  41
ENDBRANCH  33  35
ENDBRANCH  32  33
ENDBRANCH  31  32
ENDBRANCH  30  31
ENDBRANCH  29  30
ENDBRANCH  28  29
ENDBRANCH  27  28
ENDBRANCH  26  27
ENDBRANCH   1  26
TORSDOF 26
ENDMDL
