MODEL 1
REMARK VINA RESULT:      -9.6      0.000      0.000
REMARK SMILES Nc1ccc(SCc2ccc(C(=O)OCCOCCOCCOCCOC(=O)c3ccc(-c4c5nc(c(-c6c(F)c(F)c(F)c(F)c6F)c6ccc([nH]6)c(-c6c(F)c(F)c(F)c(F)c6F)c6nc(c(-c7c(F)c(F)c(F)c(F)c7F)c7ccc4[nH]7)C=C6)C=C5)cc3)o2)cc1
REMARK SMILES IDX 19 1 18 2 17 3 16 4 15 5 14 6 12 7 13 8 11 9 8 10 9 11 92 12
REMARK SMILES IDX 10 13 7 14 6 15 5 16 2 17 3 18 94 19 4 20 93 21 1 22 20 25
REMARK SMILES IDX 21 26 22 27 23 28 24 29 25 30 26 31 27 32 28 33 29 34 30 35
REMARK SMILES IDX 91 36 31 37 90 38 32 39 33 40 34 41 84 42 35 43 89 44 83 45
REMARK SMILES IDX 85 46 36 47 88 48 82 49 81 50 37 52 69 53 49 54 68 55 50 56
REMARK SMILES IDX 53 57 67 58 86 59 51 60 52 61 66 63 87 64 54 65 38 66 39 67
REMARK SMILES IDX 47 68 40 69 41 70 45 71 48 72 42 73 43 74 46 75 44 76 70 77
REMARK SMILES IDX 71 78 79 79 72 80 73 81 77 82 80 83 74 84 75 85 78 86 76 87
REMARK SMILES IDX 55 88 56 89 64 90 57 91 58 92 62 93 65 94 59 95 60 96 63 97
REMARK SMILES IDX 61 98
REMARK H PARENT 1 23 1 24 85 51 53 62
REMARK Flexibility Score: inf
ROOT
ATOM      1  C   UNL A   1      39.461  21.895  25.951  1.00  0.00     0.188 C 
ENDROOT
BRANCH   1   2
ATOM      2  C   UNL A   1      38.189  21.255  25.377  1.00  0.00     0.188 C 
BRANCH   2   3
ATOM      3  O   UNL A   1      37.264  22.202  24.837  1.00  0.00    -0.376 OA
BRANCH   3   4
ATOM      4  C   UNL A   1      36.254  22.643  25.737  1.00  0.00     0.202 C 
BRANCH   4   5
ATOM      5  C   UNL A   1      36.099  24.170  25.749  1.00  0.00     0.261 C 
BRANCH   5   6
ATOM      6  O   UNL A   1      35.040  24.666  24.919  1.00  0.00    -0.457 OA
BRANCH   6   7
ATOM      7  C   UNL A   1      34.022  25.308  25.553  1.00  0.00     0.374 C 
ATOM      8  O   UNL A   1      34.011  26.507  25.807  1.00  0.00    -0.242 OA
BRANCH   7   9
ATOM      9  C   UNL A   1      32.938  24.378  25.750  1.00  0.00     0.211 A 
ATOM     10  C   UNL A   1      31.971  22.397  25.573  1.00  0.00     0.115 A 
ATOM     11  C   UNL A   1      31.166  23.157  26.398  1.00  0.00     0.047 A 
ATOM     12  O   UNL A   1      33.035  23.148  25.168  1.00  0.00    -0.453 OA
ATOM     13  C   UNL A   1      31.791  24.422  26.522  1.00  0.00     0.058 A 
BRANCH  10  14
ATOM     14  C   UNL A   1      31.843  21.003  25.053  1.00  0.00     0.150 C 
BRANCH  14  15
ATOM     15  S   UNL A   1      33.323  20.298  24.256  1.00  0.00    -0.118 SA
BRANCH  15  16
ATOM     16  C   UNL A   1      33.163  18.528  24.480  1.00  0.00     0.008 A 
ATOM     17  C   UNL A   1      33.019  15.772  25.122  1.00  0.00     0.031 A 
ATOM     18  C   UNL A   1      32.471  16.729  25.974  1.00  0.00     0.026 A 
ATOM     19  C   UNL A   1      33.549  16.196  23.906  1.00  0.00     0.026 A 
ATOM     20  C   UNL A   1      32.559  18.093  25.666  1.00  0.00     0.017 A 
ATOM     21  C   UNL A   1      33.615  17.557  23.585  1.00  0.00     0.017 A 
BRANCH  17  22
ATOM     22  N   UNL A   1      32.917  14.420  25.409  1.00  0.00    -0.399 N 
ATOM     23  H   UNL A   1      33.676  13.945  25.819  1.00  0.00     0.156 HD
ATOM     24  H   UNL A   1      32.086  13.934  25.202  1.00  0.00     0.156 HD
ENDBRANCH  17  22
ENDBRANCH  15  16
ENDBRANCH  14  15
ENDBRANCH  10  14
ENDBRANCH   7   9
ENDBRANCH   6   7
ENDBRANCH   5   6
ENDBRANCH   4   5
ENDBRANCH   3   4
ENDBRANCH   2   3
ENDBRANCH   1   2
BRANCH   1  25
ATOM     25  O   UNL A   1      39.866  21.448  27.234  1.00  0.00    -0.377 OA
BRANCH  25  26
ATOM     26  C   UNL A   1      41.215  21.651  27.645  1.00  0.00     0.188 C 
BRANCH  26  27
ATOM     27  C   UNL A   1      42.261  20.516  27.632  1.00  0.00     0.188 C 
BRANCH  27  28
ATOM     28  O   UNL A   1      41.818  19.299  27.044  1.00  0.00    -0.376 OA
BRANCH  28  29
ATOM     29  C   UNL A   1      42.830  18.367  26.683  1.00  0.00     0.202 C 
BRANCH  29  30
ATOM     30  C   UNL A   1      43.290  18.524  25.230  1.00  0.00     0.261 C 
BRANCH  30  31
ATOM     31  O   UNL A   1      44.717  18.509  25.065  1.00  0.00    -0.460 OA
BRANCH  31  32
ATOM     32  C   UNL A   1      45.228  19.378  24.167  1.00  0.00     0.338 C 
ATOM     33  O   UNL A   1      45.648  19.134  23.051  1.00  0.00    -0.246 OA
BRANCH  32  34
ATOM     34  C   UNL A   1      45.049  20.738  24.701  1.00  0.00     0.060 A 
ATOM     35  C   UNL A   1      44.601  21.744  23.838  1.00  0.00     0.016 A 
ATOM     36  C   UNL A   1      45.343  21.019  26.039  1.00  0.00     0.016 A 
ATOM     37  C   UNL A   1      44.487  23.053  24.305  1.00  0.00     0.010 A 
ATOM     38  C   UNL A   1      45.242  22.331  26.500  1.00  0.00     0.010 A 
ATOM     39  C   UNL A   1      44.849  23.357  25.625  1.00  0.00    -0.014 A 
BRANCH  39  40
ATOM     40  C   UNL A   1      45.003  24.769  26.039  1.00  0.00     0.031 A 
ATOM     41  C   UNL A   1      46.365  25.396  25.939  1.00  0.00     0.074 A 
ATOM     42  C   UNL A   1      43.959  25.478  26.499  1.00  0.00     0.049 A 
ATOM     43  N   UNL A   1      46.751  26.603  26.261  1.00  0.00    -0.248 NA
ATOM     44  C   UNL A   1      47.438  24.541  25.406  1.00  0.00     0.031 C 
ATOM     45  C   UNL A   1      42.591  24.983  26.629  1.00  0.00     0.029 A 
ATOM     46  N   UNL A   1      43.899  26.770  26.957  1.00  0.00    -0.354 N 
ATOM     47  C   UNL A   1      48.106  26.654  25.965  1.00  0.00     0.074 A 
ATOM     48  C   UNL A   1      48.485  25.350  25.468  1.00  0.00     0.031 C 
ATOM     49  C   UNL A   1      41.825  25.959  27.147  1.00  0.00     0.029 A 
ATOM     50  C   UNL A   1      42.654  27.137  27.402  1.00  0.00     0.049 A 
ATOM     51  H   UNL A   1      44.674  27.376  26.965  1.00  0.00     0.167 HD
ATOM     52  C   UNL A   1      48.957  27.700  26.086  1.00  0.00     0.037 A 
ATOM     53  C   UNL A   1      42.241  28.289  27.964  1.00  0.00     0.037 A 
ATOM     54  C   UNL A   1      48.586  28.992  26.592  1.00  0.00     0.049 A 
ATOM     55  C   UNL A   1      43.224  29.417  28.149  1.00  0.00     0.074 A 
ATOM     56  C   UNL A   1      49.369  30.123  26.731  1.00  0.00     0.029 A 
ATOM     57  N   UNL A   1      47.320  29.319  27.056  1.00  0.00    -0.354 N 
ATOM     58  N   UNL A   1      44.492  29.474  27.822  1.00  0.00    -0.248 NA
ATOM     59  C   UNL A   1      42.714  30.642  28.783  1.00  0.00     0.031 C 
ATOM     60  C   UNL A   1      48.587  31.125  27.319  1.00  0.00     0.029 A 
ATOM     61  C   UNL A   1      47.308  30.628  27.508  1.00  0.00     0.049 A 
ATOM     62  H   UNL A   1      46.546  28.711  27.063  1.00  0.00     0.167 HD
ATOM     63  C   UNL A   1      44.924  30.743  28.185  1.00  0.00     0.074 A 
ATOM     64  C   UNL A   1      43.780  31.428  28.749  1.00  0.00     0.031 C 
ATOM     65  C   UNL A   1      46.158  31.293  28.063  1.00  0.00     0.037 A 
BRANCH  52  66
ATOM     66  C   UNL A   1      50.380  27.473  25.678  1.00  0.00     0.064 A 
ATOM     67  C   UNL A   1      51.365  27.135  26.618  1.00  0.00     0.173 A 
ATOM     68  C   UNL A   1      50.760  27.582  24.333  1.00  0.00     0.173 A 
ATOM     69  F   UNL A   1      51.053  27.038  27.919  1.00  0.00    -0.203 F 
ATOM     70  C   UNL A   1      52.687  26.935  26.226  1.00  0.00     0.198 A 
ATOM     71  C   UNL A   1      52.078  27.359  23.942  1.00  0.00     0.198 A 
ATOM     72  F   UNL A   1      49.854  27.905  23.398  1.00  0.00    -0.203 F 
ATOM     73  F   UNL A   1      53.621  26.655  27.146  1.00  0.00    -0.200 F 
ATOM     74  C   UNL A   1      53.040  27.043  24.890  1.00  0.00     0.200 A 
ATOM     75  F   UNL A   1      52.418  27.458  22.650  1.00  0.00    -0.200 F 
ATOM     76  F   UNL A   1      54.313  26.850  24.515  1.00  0.00    -0.200 F 
ENDBRANCH  52  66
BRANCH  53  77
ATOM     77  C   UNL A   1      40.830  28.438  28.400  1.00  0.00     0.064 A 
ATOM     78  C   UNL A   1      39.864  28.979  27.542  1.00  0.00     0.173 A 
ATOM     79  C   UNL A   1      40.425  28.061  29.688  1.00  0.00     0.173 A 
ATOM     80  F   UNL A   1      40.212  29.379  26.310  1.00  0.00    -0.203 F 
ATOM     81  C   UNL A   1      38.548  29.154  27.962  1.00  0.00     0.198 A 
ATOM     82  C   UNL A   1      39.103  28.216  30.100  1.00  0.00     0.198 A 
ATOM     83  F   UNL A   1      41.314  27.542  30.547  1.00  0.00    -0.203 F 
ATOM     84  F   UNL A   1      37.652  29.714  27.138  1.00  0.00    -0.200 F 
ATOM     85  C   UNL A   1      38.167  28.768  29.239  1.00  0.00     0.200 A 
ATOM     86  F   UNL A   1      38.738  27.835  31.331  1.00  0.00    -0.200 F 
ATOM     87  F   UNL A   1      36.900  28.937  29.643  1.00  0.00    -0.200 F 
ENDBRANCH  53  77
BRANCH  65  88
ATOM     88  C   UNL A   1      46.329  32.709  28.527  1.00  0.00     0.064 A 
ATOM     89  C   UNL A   1      46.796  33.006  29.815  1.00  0.00     0.173 A 
ATOM     90  C   UNL A   1      46.069  33.778  27.657  1.00  0.00     0.173 A 
ATOM     91  F   UNL A   1      47.045  32.018  30.688  1.00  0.00    -0.203 F 
ATOM     92  C   UNL A   1      46.976  34.325  30.223  1.00  0.00     0.198 A 
ATOM     93  C   UNL A   1      46.275  35.095  28.060  1.00  0.00     0.198 A 
ATOM     94  F   UNL A   1      45.628  33.545  26.412  1.00  0.00    -0.203 F 
ATOM     95  F   UNL A   1      47.386  34.589  31.472  1.00  0.00    -0.200 F 
ATOM     96  C   UNL A   1      46.722  35.368  29.344  1.00  0.00     0.200 A 
ATOM     97  F   UNL A   1      46.040  36.100  27.205  1.00  0.00    -0.200 F 
ATOM     98  F   UNL A   1      46.903  36.636  29.735  1.00  0.00    -0.200 F 
ENDBRANCH  65  88
ENDBRANCH  39  40
ENDBRANCH  32  34
ENDBRANCH  31  32
ENDBRANCH  30  31
ENDBRANCH  29  30
ENDBRANCH  28  29
ENDBRANCH  27  28
ENDBRANCH  26  27
ENDBRANCH  25  26
ENDBRANCH   1  25
TORSDOF 24
ENDMDL
MODEL 2
REMARK VINA RESULT:      -9.4      2.825      5.338
REMARK SMILES Nc1ccc(SCc2ccc(C(=O)OCCOCCOCCOCCOC(=O)c3ccc(-c4c5nc(c(-c6c(F)c(F)c(F)c(F)c6F)c6ccc([nH]6)c(-c6c(F)c(F)c(F)c(F)c6F)c6nc(c(-c7c(F)c(F)c(F)c(F)c7F)c7ccc4[nH]7)C=C6)C=C5)cc3)o2)cc1
REMARK SMILES IDX 19 1 18 2 17 3 16 4 15 5 14 6 12 7 13 8 11 9 8 10 9 11 92 12
REMARK SMILES IDX 10 13 7 14 6 15 5 16 2 17 3 18 94 19 4 20 93 21 1 22 20 25
REMARK SMILES IDX 21 26 22 27 23 28 24 29 25 30 26 31 27 32 28 33 29 34 30 35
REMARK SMILES IDX 91 36 31 37 90 38 32 39 33 40 34 41 84 42 35 43 89 44 83 45
REMARK SMILES IDX 85 46 36 47 88 48 82 49 81 50 37 52 69 53 49 54 68 55 50 56
REMARK SMILES IDX 53 57 67 58 86 59 51 60 52 61 66 63 87 64 54 65 38 66 39 67
REMARK SMILES IDX 47 68 40 69 41 70 45 71 48 72 42 73 43 74 46 75 44 76 70 77
REMARK SMILES IDX 71 78 79 79 72 80 73 81 77 82 80 83 74 84 75 85 78 86 76 87
REMARK SMILES IDX 55 88 56 89 64 90 57 91 58 92 62 93 65 94 59 95 60 96 63 97
REMARK SMILES IDX 61 98
REMARK H PARENT 1 23 1 24 85 51 53 62
REMARK Flexibility Score: inf
ROOT
ATOM      1  C   UNL A   1      38.525  21.782  25.382  1.00  0.00     0.188 C 
ENDROOT
BRANCH   1   2
ATOM      2  C   UNL A   1      37.185  22.408  25.792  1.00  0.00     0.188 C 
BRANCH   2   3
ATOM      3  O   UNL A   1      36.829  23.559  25.022  1.00  0.00    -0.376 OA
BRANCH   3   4
ATOM      4  C   UNL A   1      35.543  24.101  25.300  1.00  0.00     0.202 C 
BRANCH   4   5
ATOM      5  C   UNL A   1      34.602  24.042  24.089  1.00  0.00     0.261 C 
BRANCH   5   6
ATOM      6  O   UNL A   1      33.499  24.957  24.150  1.00  0.00    -0.457 OA
BRANCH   6   7
ATOM      7  C   UNL A   1      33.521  25.994  23.270  1.00  0.00     0.374 C 
ATOM      8  O   UNL A   1      33.982  25.930  22.136  1.00  0.00    -0.242 OA
BRANCH   7   9
ATOM      9  C   UNL A   1      32.812  27.108  23.848  1.00  0.00     0.211 A 
ATOM     10  C   UNL A   1      32.456  28.636  25.408  1.00  0.00     0.115 A 
ATOM     11  C   UNL A   1      31.622  28.947  24.353  1.00  0.00     0.047 A 
ATOM     12  O   UNL A   1      33.162  27.509  25.105  1.00  0.00    -0.453 OA
ATOM     13  C   UNL A   1      31.860  27.978  23.347  1.00  0.00     0.058 A 
BRANCH  10  14
ATOM     14  C   UNL A   1      32.653  29.261  26.750  1.00  0.00     0.150 C 
BRANCH  14  15
ATOM     15  S   UNL A   1      34.379  29.498  27.286  1.00  0.00    -0.118 SA
BRANCH  15  16
ATOM     16  C   UNL A   1      34.522  31.254  27.607  1.00  0.00     0.008 A 
ATOM     17  C   UNL A   1      34.914  33.956  28.363  1.00  0.00     0.031 A 
ATOM     18  C   UNL A   1      35.994  33.080  28.273  1.00  0.00     0.026 A 
ATOM     19  C   UNL A   1      33.658  33.497  27.978  1.00  0.00     0.026 A 
ATOM     20  C   UNL A   1      35.798  31.739  27.918  1.00  0.00     0.017 A 
ATOM     21  C   UNL A   1      33.463  32.164  27.598  1.00  0.00     0.017 A 
BRANCH  17  22
ATOM     22  N   UNL A   1      35.104  35.289  28.693  1.00  0.00    -0.399 N 
ATOM     23  H   UNL A   1      35.571  35.529  29.526  1.00  0.00     0.156 HD
ATOM     24  H   UNL A   1      34.772  35.997  28.095  1.00  0.00     0.156 HD
ENDBRANCH  17  22
ENDBRANCH  15  16
ENDBRANCH  14  15
ENDBRANCH  10  14
ENDBRANCH   7   9
ENDBRANCH   6   7
ENDBRANCH   5   6
ENDBRANCH   4   5
ENDBRANCH   3   4
ENDBRANCH   2   3
ENDBRANCH   1   2
BRANCH   1  25
ATOM     25  O   UNL A   1      39.371  21.360  26.438  1.00  0.00    -0.377 OA
BRANCH  25  26
ATOM     26  C   UNL A   1      40.730  21.789  26.452  1.00  0.00     0.188 C 
BRANCH  26  27
ATOM     27  C   UNL A   1      41.884  20.860  26.884  1.00  0.00     0.188 C 
BRANCH  27  28
ATOM     28  O   UNL A   1      41.540  19.483  26.985  1.00  0.00    -0.376 OA
BRANCH  28  29
ATOM     29  C   UNL A   1      42.504  18.555  26.505  1.00  0.00     0.202 C 
BRANCH  29  30
ATOM     30  C   UNL A   1      43.117  18.974  25.165  1.00  0.00     0.261 C 
BRANCH  30  31
ATOM     31  O   UNL A   1      44.480  18.557  24.990  1.00  0.00    -0.460 OA
BRANCH  31  32
ATOM     32  C   UNL A   1      45.270  19.374  24.260  1.00  0.00     0.338 C 
ATOM     33  O   UNL A   1      45.919  19.090  23.270  1.00  0.00    -0.246 OA
BRANCH  32  34
ATOM     34  C   UNL A   1      45.097  20.744  24.768  1.00  0.00     0.060 A 
ATOM     35  C   UNL A   1      44.738  21.753  23.867  1.00  0.00     0.016 A 
ATOM     36  C   UNL A   1      45.308  21.032  26.119  1.00  0.00     0.016 A 
ATOM     37  C   UNL A   1      44.633  23.070  24.312  1.00  0.00     0.010 A 
ATOM     38  C   UNL A   1      45.216  22.351  26.560  1.00  0.00     0.010 A 
ATOM     39  C   UNL A   1      44.914  23.378  25.650  1.00  0.00    -0.014 A 
BRANCH  39  40
ATOM     40  C   UNL A   1      45.083  24.790  26.060  1.00  0.00     0.031 A 
ATOM     41  C   UNL A   1      46.452  25.400  25.967  1.00  0.00     0.074 A 
ATOM     42  C   UNL A   1      44.044  25.513  26.511  1.00  0.00     0.049 A 
ATOM     43  N   UNL A   1      46.851  26.603  26.288  1.00  0.00    -0.248 NA
ATOM     44  C   UNL A   1      47.519  24.530  25.445  1.00  0.00     0.031 C 
ATOM     45  C   UNL A   1      42.669  25.035  26.633  1.00  0.00     0.029 A 
ATOM     46  N   UNL A   1      43.996  26.808  26.963  1.00  0.00    -0.354 N 
ATOM     47  C   UNL A   1      48.209  26.637  26.001  1.00  0.00     0.074 A 
ATOM     48  C   UNL A   1      48.575  25.326  25.512  1.00  0.00     0.031 C 
ATOM     49  C   UNL A   1      41.911  26.022  27.142  1.00  0.00     0.029 A 
ATOM     50  C   UNL A   1      42.753  27.191  27.398  1.00  0.00     0.049 A 
ATOM     51  H   UNL A   1      44.779  27.404  26.974  1.00  0.00     0.167 HD
ATOM     52  C   UNL A   1      49.072  27.672  26.124  1.00  0.00     0.037 A 
ATOM     53  C   UNL A   1      42.351  28.350  27.953  1.00  0.00     0.037 A 
ATOM     54  C   UNL A   1      48.713  28.970  26.624  1.00  0.00     0.049 A 
ATOM     55  C   UNL A   1      43.346  29.467  28.141  1.00  0.00     0.074 A 
ATOM     56  C   UNL A   1      49.509  30.093  26.764  1.00  0.00     0.029 A 
ATOM     57  N   UNL A   1      47.448  29.315  27.077  1.00  0.00    -0.354 N 
ATOM     58  N   UNL A   1      44.616  29.508  27.822  1.00  0.00    -0.248 NA
ATOM     59  C   UNL A   1      42.846  30.701  28.767  1.00  0.00     0.031 C 
ATOM     60  C   UNL A   1      48.736  31.106  27.342  1.00  0.00     0.029 A 
ATOM     61  C   UNL A   1      47.448  30.625  27.524  1.00  0.00     0.049 A 
ATOM     62  H   UNL A   1      46.667  28.716  27.081  1.00  0.00     0.167 HD
ATOM     63  C   UNL A   1      45.062  30.772  28.184  1.00  0.00     0.074 A 
ATOM     64  C   UNL A   1      43.922  31.474  28.737  1.00  0.00     0.031 C 
ATOM     65  C   UNL A   1      46.303  31.306  28.069  1.00  0.00     0.037 A 
BRANCH  52  66
ATOM     66  C   UNL A   1      50.495  27.426  25.727  1.00  0.00     0.064 A 
ATOM     67  C   UNL A   1      50.919  27.572  24.398  1.00  0.00     0.173 A 
ATOM     68  C   UNL A   1      51.446  27.052  26.687  1.00  0.00     0.173 A 
ATOM     69  F   UNL A   1      50.041  27.909  23.442  1.00  0.00    -0.203 F 
ATOM     70  C   UNL A   1      52.244  27.332  24.041  1.00  0.00     0.198 A 
ATOM     71  C   UNL A   1      52.774  26.834  26.330  1.00  0.00     0.198 A 
ATOM     72  F   UNL A   1      51.088  26.897  27.971  1.00  0.00    -0.203 F 
ATOM     73  F   UNL A   1      52.618  27.436  22.759  1.00  0.00    -0.200 F 
ATOM     74  C   UNL A   1      53.169  26.968  25.007  1.00  0.00     0.200 A 
ATOM     75  F   UNL A   1      53.669  26.488  27.264  1.00  0.00    -0.200 F 
ATOM     76  F   UNL A   1      54.444  26.737  24.661  1.00  0.00    -0.200 F 
ENDBRANCH  52  66
BRANCH  53  77
ATOM     77  C   UNL A   1      40.938  28.518  28.378  1.00  0.00     0.064 A 
ATOM     78  C   UNL A   1      40.530  28.176  29.674  1.00  0.00     0.173 A 
ATOM     79  C   UNL A   1      39.967  29.004  27.492  1.00  0.00     0.173 A 
ATOM     80  F   UNL A   1      41.419  27.681  30.547  1.00  0.00    -0.203 F 
ATOM     81  C   UNL A   1      39.198  28.298  30.063  1.00  0.00     0.198 A 
ATOM     82  C   UNL A   1      38.639  29.147  27.889  1.00  0.00     0.198 A 
ATOM     83  F   UNL A   1      40.308  29.341  26.240  1.00  0.00    -0.203 F 
ATOM     84  F   UNL A   1      38.824  27.923  31.294  1.00  0.00    -0.200 F 
ATOM     85  C   UNL A   1      38.254  28.788  29.172  1.00  0.00     0.200 A 
ATOM     86  F   UNL A   1      37.732  29.628  27.028  1.00  0.00    -0.200 F 
ATOM     87  F   UNL A   1      36.973  28.905  29.547  1.00  0.00    -0.200 F 
ENDBRANCH  53  77
BRANCH  65  88
ATOM     88  C   UNL A   1      46.489  32.722  28.529  1.00  0.00     0.064 A 
ATOM     89  C   UNL A   1      46.266  33.807  27.670  1.00  0.00     0.173 A 
ATOM     90  C   UNL A   1      46.848  32.996  29.857  1.00  0.00     0.173 A 
ATOM     91  F   UNL A   1      45.934  33.595  26.387  1.00  0.00    -0.203 F 
ATOM     92  C   UNL A   1      46.416  35.116  28.119  1.00  0.00     0.198 A 
ATOM     93  C   UNL A   1      46.972  34.307  30.309  1.00  0.00     0.198 A 
ATOM     94  F   UNL A   1      47.065  31.992  30.720  1.00  0.00    -0.203 F 
ATOM     95  F   UNL A   1      46.235  36.138  27.270  1.00  0.00    -0.200 F 
ATOM     96  C   UNL A   1      46.762  35.366  29.439  1.00  0.00     0.200 A 
ATOM     97  F   UNL A   1      47.296  34.546  31.588  1.00  0.00    -0.200 F 
ATOM     98  F   UNL A   1      46.899  36.626  29.871  1.00  0.00    -0.200 F 
ENDBRANCH  65  88
ENDBRANCH  39  40
ENDBRANCH  32  34
ENDBRANCH  31  32
ENDBRANCH  30  31
ENDBRANCH  29  30
ENDBRANCH  28  29
ENDBRANCH  27  28
ENDBRANCH  26  27
ENDBRANCH  25  26
ENDBRANCH   1  25
TORSDOF 24
ENDMDL
MODEL 3
REMARK VINA RESULT:      -9.4      5.194      9.842
REMARK SMILES Nc1ccc(SCc2ccc(C(=O)OCCOCCOCCOCCOC(=O)c3ccc(-c4c5nc(c(-c6c(F)c(F)c(F)c(F)c6F)c6ccc([nH]6)c(-c6c(F)c(F)c(F)c(F)c6F)c6nc(c(-c7c(F)c(F)c(F)c(F)c7F)c7ccc4[nH]7)C=C6)C=C5)cc3)o2)cc1
REMARK SMILES IDX 19 1 18 2 17 3 16 4 15 5 14 6 12 7 13 8 11 9 8 10 9 11 92 12
REMARK SMILES IDX 10 13 7 14 6 15 5 16 2 17 3 18 94 19 4 20 93 21 1 22 20 25
REMARK SMILES IDX 21 26 22 27 23 28 24 29 25 30 26 31 27 32 28 33 29 34 30 35
REMARK SMILES IDX 91 36 31 37 90 38 32 39 33 40 34 41 84 42 35 43 89 44 83 45
REMARK SMILES IDX 85 46 36 47 88 48 82 49 81 50 37 52 69 53 49 54 68 55 50 56
REMARK SMILES IDX 53 57 67 58 86 59 51 60 52 61 66 63 87 64 54 65 38 66 39 67
REMARK SMILES IDX 47 68 40 69 41 70 45 71 48 72 42 73 43 74 46 75 44 76 70 77
REMARK SMILES IDX 71 78 79 79 72 80 73 81 77 82 80 83 74 84 75 85 78 86 76 87
REMARK SMILES IDX 55 88 56 89 64 90 57 91 58 92 62 93 65 94 59 95 60 96 63 97
REMARK SMILES IDX 61 98
REMARK H PARENT 1 23 1 24 85 51 53 62
REMARK Flexibility Score: inf
ROOT
ATOM      1  C   UNL A   1      46.139  23.771  27.140  1.00  0.00     0.188 C 
ENDROOT
BRANCH   1   2
ATOM      2  C   UNL A   1      45.792  25.240  26.861  1.00  0.00     0.188 C 
BRANCH   2   3
ATOM      3  O   UNL A   1      46.022  25.637  25.508  1.00  0.00    -0.376 OA
BRANCH   3   4
ATOM      4  C   UNL A   1      45.683  26.986  25.206  1.00  0.00     0.202 C 
BRANCH   4   5
ATOM      5  C   UNL A   1      44.243  27.338  25.604  1.00  0.00     0.261 C 
BRANCH   5   6
ATOM      6  O   UNL A   1      44.138  28.220  26.730  1.00  0.00    -0.457 OA
BRANCH   6   7
ATOM      7  C   UNL A   1      43.420  29.361  26.543  1.00  0.00     0.374 C 
ATOM      8  O   UNL A   1      42.346  29.414  25.955  1.00  0.00    -0.242 OA
BRANCH   7   9
ATOM      9  C   UNL A   1      44.067  30.437  27.250  1.00  0.00     0.211 A 
ATOM     10  C   UNL A   1      45.663  31.942  27.538  1.00  0.00     0.115 A 
ATOM     11  C   UNL A   1      44.690  32.215  28.478  1.00  0.00     0.047 A 
ATOM     12  O   UNL A   1      45.290  30.852  26.808  1.00  0.00    -0.453 OA
ATOM     13  C   UNL A   1      43.661  31.260  28.286  1.00  0.00     0.058 A 
BRANCH  10  14
ATOM     14  C   UNL A   1      46.985  32.574  27.250  1.00  0.00     0.150 C 
BRANCH  14  15
ATOM     15  S   UNL A   1      46.967  34.017  26.137  1.00  0.00    -0.118 SA
BRANCH  15  16
ATOM     16  C   UNL A   1      45.392  34.813  26.447  1.00  0.00     0.008 A 
ATOM     17  C   UNL A   1      42.895  36.136  26.633  1.00  0.00     0.031 A 
ATOM     18  C   UNL A   1      43.105  35.149  25.672  1.00  0.00     0.026 A 
ATOM     19  C   UNL A   1      43.905  36.383  27.558  1.00  0.00     0.026 A 
ATOM     20  C   UNL A   1      44.347  34.509  25.567  1.00  0.00     0.017 A 
ATOM     21  C   UNL A   1      45.137  35.726  27.471  1.00  0.00     0.017 A 
BRANCH  17  22
ATOM     22  N   UNL A   1      41.662  36.759  26.757  1.00  0.00    -0.399 N 
ATOM     23  H   UNL A   1      41.458  37.291  27.560  1.00  0.00     0.156 HD
ATOM     24  H   UNL A   1      40.991  36.669  26.044  1.00  0.00     0.156 HD
ENDBRANCH  17  22
ENDBRANCH  15  16
ENDBRANCH  14  15
ENDBRANCH  10  14
ENDBRANCH   7   9
ENDBRANCH   6   7
ENDBRANCH   5   6
ENDBRANCH   4   5
ENDBRANCH   3   4
ENDBRANCH   2   3
ENDBRANCH   1   2
BRANCH   1  25
ATOM     25  O   UNL A   1      45.740  22.833  26.156  1.00  0.00    -0.377 OA
BRANCH  25  26
ATOM     26  C   UNL A   1      44.508  22.137  26.321  1.00  0.00     0.188 C 
BRANCH  26  27
ATOM     27  C   UNL A   1      43.297  22.370  25.393  1.00  0.00     0.188 C 
BRANCH  27  28
ATOM     28  O   UNL A   1      42.471  21.230  25.188  1.00  0.00    -0.376 OA
BRANCH  28  29
ATOM     29  C   UNL A   1      42.019  20.559  26.357  1.00  0.00     0.202 C 
BRANCH  29  30
ATOM     30  C   UNL A   1      40.544  20.833  26.667  1.00  0.00     0.261 C 
BRANCH  30  31
ATOM     31  O   UNL A   1      40.299  22.127  27.242  1.00  0.00    -0.460 OA
BRANCH  31  32
ATOM     32  C   UNL A   1      39.482  22.949  26.549  1.00  0.00     0.338 C 
ATOM     33  O   UNL A   1      38.706  22.649  25.660  1.00  0.00    -0.246 OA
BRANCH  32  34
ATOM     34  C   UNL A   1      39.562  24.286  27.157  1.00  0.00     0.060 A 
ATOM     35  C   UNL A   1      40.229  25.301  26.462  1.00  0.00     0.016 A 
ATOM     36  C   UNL A   1      38.999  24.529  28.414  1.00  0.00     0.016 A 
ATOM     37  C   UNL A   1      40.374  26.558  27.047  1.00  0.00     0.010 A 
ATOM     38  C   UNL A   1      39.157  25.782  29.003  1.00  0.00     0.010 A 
ATOM     39  C   UNL A   1      39.876  26.789  28.337  1.00  0.00    -0.014 A 
BRANCH  39  40
ATOM     40  C   UNL A   1      40.271  28.012  29.070  1.00  0.00     0.031 A 
ATOM     41  C   UNL A   1      41.661  28.086  29.635  1.00  0.00     0.074 A 
ATOM     42  C   UNL A   1      39.411  29.031  29.237  1.00  0.00     0.049 A 
ATOM     43  N   UNL A   1      42.226  29.038  30.331  1.00  0.00    -0.248 NA
ATOM     44  C   UNL A   1      42.530  26.925  29.383  1.00  0.00     0.031 C 
ATOM     45  C   UNL A   1      38.045  29.079  28.725  1.00  0.00     0.029 A 
ATOM     46  N   UNL A   1      39.569  30.221  29.901  1.00  0.00    -0.354 N 
ATOM     47  C   UNL A   1      43.515  28.595  30.593  1.00  0.00     0.074 A 
ATOM     48  C   UNL A   1      43.641  27.276  30.013  1.00  0.00     0.031 C 
ATOM     49  C   UNL A   1      37.479  30.238  29.106  1.00  0.00     0.029 A 
ATOM     50  C   UNL A   1      38.439  31.000  29.905  1.00  0.00     0.049 A 
ATOM     51  H   UNL A   1      40.410  30.490  30.335  1.00  0.00     0.167 HD
ATOM     52  C   UNL A   1      44.510  29.235  31.251  1.00  0.00     0.037 A 
ATOM     53  C   UNL A   1      38.209  32.187  30.499  1.00  0.00     0.037 A 
ATOM     54  C   UNL A   1      44.382  30.538  31.841  1.00  0.00     0.049 A 
ATOM     55  C   UNL A   1      39.313  32.850  31.282  1.00  0.00     0.074 A 
ATOM     56  C   UNL A   1      45.340  31.283  32.507  1.00  0.00     0.029 A 
ATOM     57  N   UNL A   1      43.216  31.289  31.844  1.00  0.00    -0.354 N 
ATOM     58  N   UNL A   1      40.544  32.447  31.485  1.00  0.00    -0.248 NA
ATOM     59  C   UNL A   1      38.992  34.136  31.919  1.00  0.00     0.031 C 
ATOM     60  C   UNL A   1      44.739  32.467  32.951  1.00  0.00     0.029 A 
ATOM     61  C   UNL A   1      43.420  32.476  32.525  1.00  0.00     0.049 A 
ATOM     62  H   UNL A   1      42.368  31.016  31.425  1.00  0.00     0.167 HD
ATOM     63  C   UNL A   1      41.150  33.436  32.248  1.00  0.00     0.074 A 
ATOM     64  C   UNL A   1      40.155  34.465  32.464  1.00  0.00     0.031 C 
ATOM     65  C   UNL A   1      42.417  33.489  32.728  1.00  0.00     0.037 A 
BRANCH  52  66
ATOM     66  C   UNL A   1      45.817  28.516  31.380  1.00  0.00     0.064 A 
ATOM     67  C   UNL A   1      46.043  27.587  32.407  1.00  0.00     0.173 A 
ATOM     68  C   UNL A   1      46.850  28.747  30.460  1.00  0.00     0.173 A 
ATOM     69  F   UNL A   1      45.092  27.347  33.322  1.00  0.00    -0.203 F 
ATOM     70  C   UNL A   1      47.267  26.931  32.521  1.00  0.00     0.198 A 
ATOM     71  C   UNL A   1      48.064  28.073  30.564  1.00  0.00     0.198 A 
ATOM     72  F   UNL A   1      46.682  29.628  29.462  1.00  0.00    -0.203 F 
ATOM     73  F   UNL A   1      47.476  26.080  33.534  1.00  0.00    -0.200 F 
ATOM     74  C   UNL A   1      48.272  27.172  31.597  1.00  0.00     0.200 A 
ATOM     75  F   UNL A   1      49.033  28.302  29.668  1.00  0.00    -0.200 F 
ATOM     76  F   UNL A   1      49.450  26.539  31.708  1.00  0.00    -0.200 F 
ENDBRANCH  52  66
BRANCH  53  77
ATOM     77  C   UNL A   1      36.875  32.828  30.383  1.00  0.00     0.064 A 
ATOM     78  C   UNL A   1      36.521  33.553  29.238  1.00  0.00     0.173 A 
ATOM     79  C   UNL A   1      35.938  32.745  31.422  1.00  0.00     0.173 A 
ATOM     80  F   UNL A   1      37.397  33.684  28.231  1.00  0.00    -0.203 F 
ATOM     81  C   UNL A   1      35.284  34.187  29.144  1.00  0.00     0.198 A 
ATOM     82  C   UNL A   1      34.692  33.360  31.317  1.00  0.00     0.198 A 
ATOM     83  F   UNL A   1      36.232  32.065  32.540  1.00  0.00    -0.203 F 
ATOM     84  F   UNL A   1      34.986  34.912  28.057  1.00  0.00    -0.200 F 
ATOM     85  C   UNL A   1      34.369  34.086  30.180  1.00  0.00     0.200 A 
ATOM     86  F   UNL A   1      33.808  33.253  32.318  1.00  0.00    -0.200 F 
ATOM     87  F   UNL A   1      33.178  34.696  30.089  1.00  0.00    -0.200 F 
ENDBRANCH  53  77
BRANCH  65  88
ATOM     88  C   UNL A   1      42.806  34.706  33.514  1.00  0.00     0.064 A 
ATOM     89  C   UNL A   1      42.729  34.730  34.913  1.00  0.00     0.173 A 
ATOM     90  C   UNL A   1      43.304  35.844  32.861  1.00  0.00     0.173 A 
ATOM     91  F   UNL A   1      42.245  33.671  35.581  1.00  0.00    -0.203 F 
ATOM     92  C   UNL A   1      43.119  35.857  35.631  1.00  0.00     0.198 A 
ATOM     93  C   UNL A   1      43.717  36.960  33.584  1.00  0.00     0.198 A 
ATOM     94  F   UNL A   1      43.404  35.868  31.524  1.00  0.00    -0.203 F 
ATOM     95  F   UNL A   1      43.002  35.873  36.966  1.00  0.00    -0.200 F 
ATOM     96  C   UNL A   1      43.619  36.968  34.967  1.00  0.00     0.200 A 
ATOM     97  F   UNL A   1      44.210  38.028  32.942  1.00  0.00    -0.200 F 
ATOM     98  F   UNL A   1      44.000  38.050  35.660  1.00  0.00    -0.200 F 
ENDBRANCH  65  88
ENDBRANCH  39  40
ENDBRANCH  32  34
ENDBRANCH  31  32
ENDBRANCH  30  31
ENDBRANCH  29  30
ENDBRANCH  28  29
ENDBRANCH  27  28
ENDBRANCH  26  27
ENDBRANCH  25  26
ENDBRANCH   1  25
TORSDOF 24
ENDMDL
