MODEL 1
REMARK VINA RESULT:     -10.4      0.000      0.000
REMARK SMILES Cc1nc(=O)[nH]c(C)c1CC(=O)Nc1sccc1C(=O)OCCOCCOCCOCCOC(=O)c1ccc(-c2c3nc(c(-c4c(F)c(F)c(F)c(F)c4F)c4ccc([nH]4)c(-c4c(F)c(F)c(F)c(F)c4F)c4nc(c(-c5c(F)c(F)c(F)c(F)c5F)c5ccc2[nH]5)C=C4)C=C3)cc1
REMARK SMILES IDX 26 1 25 2 24 3 23 4 22 5 21 6 19 7 20 8 18 9 14 10 15 11
REMARK SMILES IDX 16 12 17 13 13 14 11 15 12 16 10 18 9 19 1 20 2 21 3 22 4 23
REMARK SMILES IDX 7 24 5 25 6 26 8 27 27 29 28 30 29 31 30 32 31 33 32 34
REMARK SMILES IDX 33 35 34 36 35 37 36 38 37 39 98 40 38 41 97 42 39 43 40 44
REMARK SMILES IDX 41 45 91 46 42 47 96 48 90 49 92 50 43 51 95 52 89 53 88 54
REMARK SMILES IDX 44 56 76 57 56 58 75 59 57 60 60 61 74 62 93 63 58 64 59 65
REMARK SMILES IDX 73 67 94 68 61 69 45 70 46 71 54 72 47 73 48 74 52 75 55 76
REMARK SMILES IDX 49 77 50 78 53 79 51 80 77 81 78 82 86 83 79 84 80 85 84 86
REMARK SMILES IDX 87 87 81 88 82 89 85 90 83 91 62 92 63 93 71 94 64 95 65 96
REMARK SMILES IDX 69 97 72 98 66 99 67 100 70 101 68 102
REMARK H PARENT 13 17 6 28 92 55 60 66
REMARK Flexibility Score: inf
ROOT
ATOM      1  C   UNL A   1      35.647  29.763  27.275  1.00  0.00     0.188 C 
ENDROOT
BRANCH   1   2
ATOM      2  C   UNL A   1      34.177  29.385  27.487  1.00  0.00     0.188 C 
BRANCH   2   3
ATOM      3  O   UNL A   1      33.322  29.848  26.446  1.00  0.00    -0.376 OA
BRANCH   3   4
ATOM      4  C   UNL A   1      32.466  28.912  25.815  1.00  0.00     0.202 C 
BRANCH   4   5
ATOM      5  C   UNL A   1      31.767  27.955  26.786  1.00  0.00     0.261 C 
BRANCH   5   6
ATOM      6  O   UNL A   1      31.928  26.525  26.653  1.00  0.00    -0.460 OA
BRANCH   6   7
ATOM      7  C   UNL A   1      31.167  25.790  25.802  1.00  0.00     0.341 C 
ATOM      8  O   UNL A   1      30.071  25.322  26.068  1.00  0.00    -0.246 OA
BRANCH   7   9
ATOM      9  C   UNL A   1      31.706  25.732  24.446  1.00  0.00     0.094 A 
ATOM     10  C   UNL A   1      33.030  25.653  24.070  1.00  0.00     0.110 A 
ATOM     11  S   UNL A   1      33.275  25.999  22.421  1.00  0.00    -0.126 S 
ATOM     12  C   UNL A   1      31.594  25.990  22.113  1.00  0.00     0.068 A 
ATOM     13  C   UNL A   1      30.871  25.858  23.277  1.00  0.00     0.029 A 
BRANCH  10  14
ATOM     14  N   UNL A   1      34.197  25.418  24.751  1.00  0.00    -0.317 N 
ATOM     15  C   UNL A   1      34.842  24.216  24.881  1.00  0.00     0.229 C 
ATOM     16  O   UNL A   1      35.714  24.099  25.746  1.00  0.00    -0.274 OA
ATOM     17  H   UNL A   1      34.615  26.192  25.191  1.00  0.00     0.170 HD
BRANCH  15  18
ATOM     18  C   UNL A   1      34.630  23.122  23.821  1.00  0.00     0.139 C 
BRANCH  18  19
ATOM     19  C   UNL A   1      34.153  21.770  24.264  1.00  0.00     0.002 A 
ATOM     20  C   UNL A   1      31.776  22.243  23.260  1.00  0.00     0.067 C 
ATOM     21  C   UNL A   1      32.718  21.354  24.049  1.00  0.00     0.049 A 
ATOM     22  N   UNL A   1      32.184  20.270  24.511  1.00  0.00    -0.198 NA
ATOM     23  C   UNL A   1      32.949  19.413  25.242  1.00  0.00     0.345 A 
ATOM     24  C   UNL A   1      34.900  20.814  24.849  1.00  0.00     0.022 A 
ATOM     25  O   UNL A   1      32.506  18.425  25.819  1.00  0.00    -0.246 OA
ATOM     26  N   UNL A   1      34.291  19.677  25.319  1.00  0.00    -0.310 N 
ATOM     27  C   UNL A   1      36.377  20.911  25.115  1.00  0.00     0.065 C 
ATOM     28  H   UNL A   1      34.863  18.999  25.744  1.00  0.00     0.171 HD
ENDBRANCH  18  19
ENDBRANCH  15  18
ENDBRANCH  10  14
ENDBRANCH   7   9
ENDBRANCH   6   7
ENDBRANCH   5   6
ENDBRANCH   4   5
ENDBRANCH   3   4
ENDBRANCH   2   3
ENDBRANCH   1   2
BRANCH   1  29
ATOM     29  O   UNL A   1      36.149  30.851  28.034  1.00  0.00    -0.377 OA
BRANCH  29  30
ATOM     30  C   UNL A   1      35.395  32.050  27.997  1.00  0.00     0.188 C 
BRANCH  30  31
ATOM     31  C   UNL A   1      36.111  33.294  28.566  1.00  0.00     0.188 C 
BRANCH  31  32
ATOM     32  O   UNL A   1      35.404  34.409  29.101  1.00  0.00    -0.376 OA
BRANCH  32  33
ATOM     33  C   UNL A   1      34.393  35.049  28.347  1.00  0.00     0.202 C 
BRANCH  33  34
ATOM     34  C   UNL A   1      33.246  35.701  29.133  1.00  0.00     0.261 C 
BRANCH  34  35
ATOM     35  O   UNL A   1      32.746  34.947  30.249  1.00  0.00    -0.460 OA
BRANCH  35  36
ATOM     36  C   UNL A   1      32.797  35.575  31.448  1.00  0.00     0.338 C 
ATOM     37  O   UNL A   1      32.049  36.443  31.863  1.00  0.00    -0.246 OA
BRANCH  36  38
ATOM     38  C   UNL A   1      33.844  34.953  32.294  1.00  0.00     0.060 A 
ATOM     39  C   UNL A   1      35.063  35.632  32.445  1.00  0.00     0.016 A 
ATOM     40  C   UNL A   1      33.660  33.699  32.880  1.00  0.00     0.016 A 
ATOM     41  C   UNL A   1      36.117  35.042  33.139  1.00  0.00     0.010 A 
ATOM     42  C   UNL A   1      34.734  33.084  33.536  1.00  0.00     0.010 A 
ATOM     43  C   UNL A   1      35.980  33.735  33.619  1.00  0.00    -0.014 A 
BRANCH  43  44
ATOM     44  C   UNL A   1      37.206  32.945  33.884  1.00  0.00     0.031 A 
ATOM     45  C   UNL A   1      37.930  33.211  35.178  1.00  0.00     0.074 A 
ATOM     46  C   UNL A   1      37.653  32.003  33.037  1.00  0.00     0.049 A 
ATOM     47  N   UNL A   1      39.048  32.707  35.632  1.00  0.00    -0.248 NA
ATOM     48  C   UNL A   1      37.297  34.182  36.088  1.00  0.00     0.031 C 
ATOM     49  C   UNL A   1      37.005  31.603  31.792  1.00  0.00     0.029 A 
ATOM     50  N   UNL A   1      38.775  31.213  33.104  1.00  0.00    -0.354 N 
ATOM     51  C   UNL A   1      39.256  33.309  36.867  1.00  0.00     0.074 A 
ATOM     52  C   UNL A   1      38.160  34.224  37.089  1.00  0.00     0.031 C 
ATOM     53  C   UNL A   1      37.748  30.649  31.202  1.00  0.00     0.029 A 
ATOM     54  C   UNL A   1      38.941  30.399  32.012  1.00  0.00     0.049 A 
ATOM     55  H   UNL A   1      39.400  31.229  33.864  1.00  0.00     0.167 HD
ATOM     56  C   UNL A   1      40.271  33.118  37.740  1.00  0.00     0.037 A 
ATOM     57  C   UNL A   1      39.956  29.570  31.699  1.00  0.00     0.037 A 
ATOM     58  C   UNL A   1      41.363  32.211  37.517  1.00  0.00     0.049 A 
ATOM     59  C   UNL A   1      41.126  29.443  32.647  1.00  0.00     0.074 A 
ATOM     60  C   UNL A   1      42.436  31.933  38.342  1.00  0.00     0.029 A 
ATOM     61  N   UNL A   1      41.521  31.441  36.374  1.00  0.00    -0.354 N 
ATOM     62  N   UNL A   1      41.311  30.003  33.817  1.00  0.00    -0.248 NA
ATOM     63  C   UNL A   1      42.229  28.569  32.222  1.00  0.00     0.031 C 
ATOM     64  C   UNL A   1      43.274  31.034  37.674  1.00  0.00     0.029 A 
ATOM     65  C   UNL A   1      42.693  30.711  36.458  1.00  0.00     0.049 A 
ATOM     66  H   UNL A   1      40.893  31.419  35.615  1.00  0.00     0.167 HD
ATOM     67  C   UNL A   1      42.531  29.526  34.283  1.00  0.00     0.074 A 
ATOM     68  C   UNL A   1      43.039  28.625  33.271  1.00  0.00     0.031 C 
ATOM     69  C   UNL A   1      43.173  29.807  35.444  1.00  0.00     0.037 A 
BRANCH  56  70
ATOM     70  C   UNL A   1      40.268  33.946  38.990  1.00  0.00     0.064 A 
ATOM     71  C   UNL A   1      39.631  33.517  40.164  1.00  0.00     0.173 A 
ATOM     72  C   UNL A   1      40.915  35.191  39.011  1.00  0.00     0.173 A 
ATOM     73  F   UNL A   1      38.979  32.345  40.188  1.00  0.00    -0.203 F 
ATOM     74  C   UNL A   1      39.622  34.314  41.305  1.00  0.00     0.198 A 
ATOM     75  C   UNL A   1      40.928  35.973  40.161  1.00  0.00     0.198 A 
ATOM     76  F   UNL A   1      41.535  35.650  37.913  1.00  0.00    -0.203 F 
ATOM     77  F   UNL A   1      38.963  33.909  42.399  1.00  0.00    -0.200 F 
ATOM     78  C   UNL A   1      40.275  35.538  41.305  1.00  0.00     0.200 A 
ATOM     79  F   UNL A   1      41.567  37.151  40.162  1.00  0.00    -0.200 F 
ATOM     80  F   UNL A   1      40.267  36.304  42.404  1.00  0.00    -0.200 F 
ENDBRANCH  56  70
BRANCH  57  81
ATOM     81  C   UNL A   1      39.932  28.803  30.425  1.00  0.00     0.064 A 
ATOM     82  C   UNL A   1      40.453  29.351  29.243  1.00  0.00     0.173 A 
ATOM     83  C   UNL A   1      39.360  27.525  30.353  1.00  0.00     0.173 A 
ATOM     84  F   UNL A   1      40.982  30.582  29.252  1.00  0.00    -0.203 F 
ATOM     85  C   UNL A   1      40.388  28.655  28.037  1.00  0.00     0.198 A 
ATOM     86  C   UNL A   1      39.319  26.819  29.152  1.00  0.00     0.198 A 
ATOM     87  F   UNL A   1      38.838  26.961  31.451  1.00  0.00    -0.203 F 
ATOM     88  F   UNL A   1      40.850  29.221  26.914  1.00  0.00    -0.200 F 
ATOM     89  C   UNL A   1      39.827  27.387  27.994  1.00  0.00     0.200 A 
ATOM     90  F   UNL A   1      38.781  25.592  29.115  1.00  0.00    -0.200 F 
ATOM     91  F   UNL A   1      39.765  26.719  26.834  1.00  0.00    -0.200 F 
ENDBRANCH  57  81
BRANCH  69  92
ATOM     92  C   UNL A   1      44.472  29.101  35.708  1.00  0.00     0.064 A 
ATOM     93  C   UNL A   1      44.516  27.855  36.349  1.00  0.00     0.173 A 
ATOM     94  C   UNL A   1      45.681  29.655  35.261  1.00  0.00     0.173 A 
ATOM     95  F   UNL A   1      43.389  27.289  36.806  1.00  0.00    -0.203 F 
ATOM     96  C   UNL A   1      45.728  27.201  36.555  1.00  0.00     0.198 A 
ATOM     97  C   UNL A   1      46.886  28.983  35.441  1.00  0.00     0.198 A 
ATOM     98  F   UNL A   1      45.692  30.840  34.633  1.00  0.00    -0.203 F 
ATOM     99  F   UNL A   1      45.753  26.031  37.210  1.00  0.00    -0.200 F 
ATOM    100  C   UNL A   1      46.910  27.761  36.093  1.00  0.00     0.200 A 
ATOM    101  F   UNL A   1      48.025  29.520  34.980  1.00  0.00    -0.200 F 
ATOM    102  F   UNL A   1      48.074  27.124  36.283  1.00  0.00    -0.200 F 
ENDBRANCH  69  92
ENDBRANCH  43  44
ENDBRANCH  36  38
ENDBRANCH  35  36
ENDBRANCH  34  35
ENDBRANCH  33  34
ENDBRANCH  32  33
ENDBRANCH  31  32
ENDBRANCH  30  31
ENDBRANCH  29  30
ENDBRANCH   1  29
TORSDOF 23
ENDMDL
MODEL 2
REMARK VINA RESULT:     -10.2      5.090      8.009
REMARK SMILES Cc1nc(=O)[nH]c(C)c1CC(=O)Nc1sccc1C(=O)OCCOCCOCCOCCOC(=O)c1ccc(-c2c3nc(c(-c4c(F)c(F)c(F)c(F)c4F)c4ccc([nH]4)c(-c4c(F)c(F)c(F)c(F)c4F)c4nc(c(-c5c(F)c(F)c(F)c(F)c5F)c5ccc2[nH]5)C=C4)C=C3)cc1
REMARK SMILES IDX 26 1 25 2 24 3 23 4 22 5 21 6 19 7 20 8 18 9 14 10 15 11
REMARK SMILES IDX 16 12 17 13 13 14 11 15 12 16 10 18 9 19 1 20 2 21 3 22 4 23
REMARK SMILES IDX 7 24 5 25 6 26 8 27 27 29 28 30 29 31 30 32 31 33 32 34
REMARK SMILES IDX 33 35 34 36 35 37 36 38 37 39 98 40 38 41 97 42 39 43 40 44
REMARK SMILES IDX 41 45 91 46 42 47 96 48 90 49 92 50 43 51 95 52 89 53 88 54
REMARK SMILES IDX 44 56 76 57 56 58 75 59 57 60 60 61 74 62 93 63 58 64 59 65
REMARK SMILES IDX 73 67 94 68 61 69 45 70 46 71 54 72 47 73 48 74 52 75 55 76
REMARK SMILES IDX 49 77 50 78 53 79 51 80 77 81 78 82 86 83 79 84 80 85 84 86
REMARK SMILES IDX 87 87 81 88 82 89 85 90 83 91 62 92 63 93 71 94 64 95 65 96
REMARK SMILES IDX 69 97 72 98 66 99 67 100 70 101 68 102
REMARK H PARENT 13 17 6 28 92 55 60 66
REMARK Flexibility Score: inf
ROOT
ATOM      1  C   UNL A   1      32.755  31.677  27.310  1.00  0.00     0.188 C 
ENDROOT
BRANCH   1   2
ATOM      2  C   UNL A   1      31.951  30.784  26.360  1.00  0.00     0.188 C 
BRANCH   2   3
ATOM      3  O   UNL A   1      32.733  30.244  25.299  1.00  0.00    -0.376 OA
BRANCH   3   4
ATOM      4  C   UNL A   1      33.555  29.123  25.574  1.00  0.00     0.202 C 
BRANCH   4   5
ATOM      5  C   UNL A   1      33.403  27.979  24.567  1.00  0.00     0.261 C 
BRANCH   5   6
ATOM      6  O   UNL A   1      33.955  26.673  24.848  1.00  0.00    -0.460 OA
BRANCH   6   7
ATOM      7  C   UNL A   1      33.577  25.950  25.933  1.00  0.00     0.341 C 
ATOM      8  O   UNL A   1      32.864  26.360  26.836  1.00  0.00    -0.246 OA
BRANCH   7   9
ATOM      9  C   UNL A   1      33.972  24.546  25.860  1.00  0.00     0.094 A 
ATOM     10  C   UNL A   1      33.374  23.470  26.482  1.00  0.00     0.110 A 
ATOM     11  S   UNL A   1      34.346  22.072  26.470  1.00  0.00    -0.126 S 
ATOM     12  C   UNL A   1      35.463  22.790  25.396  1.00  0.00     0.068 A 
ATOM     13  C   UNL A   1      35.160  24.113  25.166  1.00  0.00     0.029 A 
BRANCH  10  14
ATOM     14  N   UNL A   1      32.196  23.303  27.162  1.00  0.00    -0.317 N 
ATOM     15  C   UNL A   1      30.943  23.202  26.618  1.00  0.00     0.229 C 
ATOM     16  O   UNL A   1      29.961  23.338  27.353  1.00  0.00    -0.274 OA
ATOM     17  H   UNL A   1      32.256  23.248  28.143  1.00  0.00     0.170 HD
BRANCH  15  18
ATOM     18  C   UNL A   1      30.782  22.709  25.170  1.00  0.00     0.139 C 
BRANCH  18  19
ATOM     19  C   UNL A   1      31.340  23.545  24.056  1.00  0.00     0.002 A 
ATOM     20  C   UNL A   1      32.623  21.469  23.095  1.00  0.00     0.067 C 
ATOM     21  C   UNL A   1      32.308  22.952  23.062  1.00  0.00     0.049 A 
ATOM     22  N   UNL A   1      32.940  23.622  22.153  1.00  0.00    -0.198 NA
ATOM     23  C   UNL A   1      32.731  24.964  22.052  1.00  0.00     0.345 A 
ATOM     24  C   UNL A   1      31.049  24.837  23.806  1.00  0.00     0.022 A 
ATOM     25  O   UNL A   1      33.368  25.699  21.306  1.00  0.00    -0.246 OA
ATOM     26  N   UNL A   1      31.741  25.506  22.827  1.00  0.00    -0.310 N 
ATOM     27  C   UNL A   1      30.056  25.665  24.576  1.00  0.00     0.065 C 
ATOM     28  H   UNL A   1      31.507  26.449  22.671  1.00  0.00     0.171 HD
ENDBRANCH  18  19
ENDBRANCH  15  18
ENDBRANCH  10  14
ENDBRANCH   7   9
ENDBRANCH   6   7
ENDBRANCH   5   6
ENDBRANCH   4   5
ENDBRANCH   3   4
ENDBRANCH   2   3
ENDBRANCH   1   2
BRANCH   1  29
ATOM     29  O   UNL A   1      32.369  33.040  27.396  1.00  0.00    -0.377 OA
BRANCH  29  30
ATOM     30  C   UNL A   1      33.374  33.959  27.788  1.00  0.00     0.188 C 
BRANCH  30  31
ATOM     31  C   UNL A   1      34.165  33.567  29.054  1.00  0.00     0.188 C 
BRANCH  31  32
ATOM     32  O   UNL A   1      33.669  33.795  30.370  1.00  0.00    -0.376 OA
BRANCH  32  33
ATOM     33  C   UNL A   1      34.366  33.302  31.498  1.00  0.00     0.202 C 
BRANCH  33  34
ATOM     34  C   UNL A   1      35.215  34.309  32.287  1.00  0.00     0.261 C 
BRANCH  34  35
ATOM     35  O   UNL A   1      36.602  33.969  32.444  1.00  0.00    -0.460 OA
BRANCH  35  36
ATOM     36  C   UNL A   1      36.850  32.824  33.125  1.00  0.00     0.338 C 
ATOM     37  O   UNL A   1      36.455  32.525  34.239  1.00  0.00    -0.246 OA
BRANCH  36  38
ATOM     38  C   UNL A   1      37.584  31.874  32.256  1.00  0.00     0.060 A 
ATOM     39  C   UNL A   1      38.387  30.899  32.870  1.00  0.00     0.016 A 
ATOM     40  C   UNL A   1      37.537  31.971  30.864  1.00  0.00     0.016 A 
ATOM     41  C   UNL A   1      39.181  30.053  32.100  1.00  0.00     0.010 A 
ATOM     42  C   UNL A   1      38.372  31.154  30.091  1.00  0.00     0.010 A 
ATOM     43  C   UNL A   1      39.233  30.230  30.713  1.00  0.00    -0.014 A 
BRANCH  43  44
ATOM     44  C   UNL A   1      40.410  29.710  29.977  1.00  0.00     0.031 A 
ATOM     45  C   UNL A   1      41.561  30.659  29.762  1.00  0.00     0.074 A 
ATOM     46  C   UNL A   1      40.485  28.441  29.542  1.00  0.00     0.049 A 
ATOM     47  N   UNL A   1      42.680  30.483  29.107  1.00  0.00    -0.248 NA
ATOM     48  C   UNL A   1      41.426  31.992  30.374  1.00  0.00     0.031 C 
ATOM     49  C   UNL A   1      39.473  27.411  29.751  1.00  0.00     0.029 A 
ATOM     50  N   UNL A   1      41.470  27.810  28.822  1.00  0.00    -0.354 N 
ATOM     51  C   UNL A   1      43.370  31.684  29.220  1.00  0.00     0.074 A 
ATOM     52  C   UNL A   1      42.544  32.584  29.990  1.00  0.00     0.031 C 
ATOM     53  C   UNL A   1      39.883  26.274  29.159  1.00  0.00     0.029 A 
ATOM     54  C   UNL A   1      41.168  26.509  28.501  1.00  0.00     0.049 A 
ATOM     55  H   UNL A   1      42.312  28.248  28.562  1.00  0.00     0.167 HD
ATOM     56  C   UNL A   1      44.586  32.009  28.724  1.00  0.00     0.037 A 
ATOM     57  C   UNL A   1      41.847  25.629  27.741  1.00  0.00     0.037 A 
ATOM     58  C   UNL A   1      45.405  31.115  27.954  1.00  0.00     0.049 A 
ATOM     59  C   UNL A   1      43.159  26.045  27.119  1.00  0.00     0.074 A 
ATOM     60  C   UNL A   1      46.657  31.340  27.415  1.00  0.00     0.029 A 
ATOM     61  N   UNL A   1      45.041  29.822  27.607  1.00  0.00    -0.354 N 
ATOM     62  N   UNL A   1      43.813  27.175  27.239  1.00  0.00    -0.248 NA
ATOM     63  C   UNL A   1      43.823  25.061  26.251  1.00  0.00     0.031 C 
ATOM     64  C   UNL A   1      47.029  30.201  26.694  1.00  0.00     0.029 A 
ATOM     65  C   UNL A   1      46.032  29.247  26.831  1.00  0.00     0.049 A 
ATOM     66  H   UNL A   1      44.202  29.380  27.872  1.00  0.00     0.167 HD
ATOM     67  C   UNL A   1      44.977  27.027  26.492  1.00  0.00     0.074 A 
ATOM     68  C   UNL A   1      44.942  25.694  25.929  1.00  0.00     0.031 C 
ATOM     69  C   UNL A   1      45.984  27.912  26.292  1.00  0.00     0.037 A 
BRANCH  56  70
ATOM     70  C   UNL A   1      45.073  33.407  28.959  1.00  0.00     0.064 A 
ATOM     71  C   UNL A   1      44.760  34.460  28.085  1.00  0.00     0.173 A 
ATOM     72  C   UNL A   1      45.865  33.698  30.079  1.00  0.00     0.173 A 
ATOM     73  F   UNL A   1      44.025  34.229  26.987  1.00  0.00    -0.203 F 
ATOM     74  C   UNL A   1      45.243  35.745  28.312  1.00  0.00     0.198 A 
ATOM     75  C   UNL A   1      46.323  34.990  30.319  1.00  0.00     0.198 A 
ATOM     76  F   UNL A   1      46.197  32.727  30.944  1.00  0.00    -0.203 F 
ATOM     77  F   UNL A   1      44.976  36.725  27.437  1.00  0.00    -0.200 F 
ATOM     78  C   UNL A   1      46.019  36.011  29.431  1.00  0.00     0.200 A 
ATOM     79  F   UNL A   1      47.065  35.246  31.405  1.00  0.00    -0.200 F 
ATOM     80  F   UNL A   1      46.481  37.249  29.650  1.00  0.00    -0.200 F 
ENDBRANCH  56  70
BRANCH  57  81
ATOM     81  C   UNL A   1      41.299  24.267  27.501  1.00  0.00     0.064 A 
ATOM     82  C   UNL A   1      41.900  23.135  28.072  1.00  0.00     0.173 A 
ATOM     83  C   UNL A   1      40.187  24.064  26.671  1.00  0.00     0.173 A 
ATOM     84  F   UNL A   1      42.985  23.273  28.847  1.00  0.00    -0.203 F 
ATOM     85  C   UNL A   1      41.418  21.854  27.810  1.00  0.00     0.198 A 
ATOM     86  C   UNL A   1      39.690  22.784  26.430  1.00  0.00     0.198 A 
ATOM     87  F   UNL A   1      39.582  25.111  26.091  1.00  0.00    -0.203 F 
ATOM     88  F   UNL A   1      42.041  20.787  28.330  1.00  0.00    -0.200 F 
ATOM     89  C   UNL A   1      40.310  21.680  26.994  1.00  0.00     0.200 A 
ATOM     90  F   UNL A   1      38.616  22.621  25.645  1.00  0.00    -0.200 F 
ATOM     91  F   UNL A   1      39.848  20.448  26.742  1.00  0.00    -0.200 F 
ENDBRANCH  57  81
BRANCH  69  92
ATOM     92  C   UNL A   1      47.155  27.458  25.468  1.00  0.00     0.064 A 
ATOM     93  C   UNL A   1      47.240  27.732  24.096  1.00  0.00     0.173 A 
ATOM     94  C   UNL A   1      48.229  26.790  26.075  1.00  0.00     0.173 A 
ATOM     95  F   UNL A   1      46.234  28.356  23.466  1.00  0.00    -0.203 F 
ATOM     96  C   UNL A   1      48.350  27.331  23.356  1.00  0.00     0.198 A 
ATOM     97  C   UNL A   1      49.350  26.419  25.338  1.00  0.00     0.198 A 
ATOM     98  F   UNL A   1      48.200  26.513  27.387  1.00  0.00    -0.203 F 
ATOM     99  F   UNL A   1      48.392  27.562  22.036  1.00  0.00    -0.200 F 
ATOM    100  C   UNL A   1      49.406  26.683  23.979  1.00  0.00     0.200 A 
ATOM    101  F   UNL A   1      50.376  25.807  25.946  1.00  0.00    -0.200 F 
ATOM    102  F   UNL A   1      50.478  26.308  23.267  1.00  0.00    -0.200 F 
ENDBRANCH  69  92
ENDBRANCH  43  44
ENDBRANCH  36  38
ENDBRANCH  35  36
ENDBRANCH  34  35
ENDBRANCH  33  34
ENDBRANCH  32  33
ENDBRANCH  31  32
ENDBRANCH  30  31
ENDBRANCH  29  30
ENDBRANCH   1  29
TORSDOF 23
ENDMDL
MODEL 3
REMARK VINA RESULT:      -9.9      1.215      2.143
REMARK SMILES Cc1nc(=O)[nH]c(C)c1CC(=O)Nc1sccc1C(=O)OCCOCCOCCOCCOC(=O)c1ccc(-c2c3nc(c(-c4c(F)c(F)c(F)c(F)c4F)c4ccc([nH]4)c(-c4c(F)c(F)c(F)c(F)c4F)c4nc(c(-c5c(F)c(F)c(F)c(F)c5F)c5ccc2[nH]5)C=C4)C=C3)cc1
REMARK SMILES IDX 26 1 25 2 24 3 23 4 22 5 21 6 19 7 20 8 18 9 14 10 15 11
REMARK SMILES IDX 16 12 17 13 13 14 11 15 12 16 10 18 9 19 1 20 2 21 3 22 4 23
REMARK SMILES IDX 7 24 5 25 6 26 8 27 27 29 28 30 29 31 30 32 31 33 32 34
REMARK SMILES IDX 33 35 34 36 35 37 36 38 37 39 98 40 38 41 97 42 39 43 40 44
REMARK SMILES IDX 41 45 91 46 42 47 96 48 90 49 92 50 43 51 95 52 89 53 88 54
REMARK SMILES IDX 44 56 76 57 56 58 75 59 57 60 60 61 74 62 93 63 58 64 59 65
REMARK SMILES IDX 73 67 94 68 61 69 45 70 46 71 54 72 47 73 48 74 52 75 55 76
REMARK SMILES IDX 49 77 50 78 53 79 51 80 77 81 78 82 86 83 79 84 80 85 84 86
REMARK SMILES IDX 87 87 81 88 82 89 85 90 83 91 62 92 63 93 71 94 64 95 65 96
REMARK SMILES IDX 69 97 72 98 66 99 67 100 70 101 68 102
REMARK H PARENT 13 17 6 28 92 55 60 66
REMARK Flexibility Score: inf
ROOT
ATOM      1  C   UNL A   1      36.279  29.734  27.707  1.00  0.00     0.188 C 
ENDROOT
BRANCH   1   2
ATOM      2  C   UNL A   1      34.803  29.363  27.529  1.00  0.00     0.188 C 
BRANCH   2   3
ATOM      3  O   UNL A   1      34.534  28.702  26.296  1.00  0.00    -0.376 OA
BRANCH   3   4
ATOM      4  C   UNL A   1      33.465  27.773  26.252  1.00  0.00     0.202 C 
BRANCH   4   5
ATOM      5  C   UNL A   1      33.609  26.711  25.157  1.00  0.00     0.261 C 
BRANCH   5   6
ATOM      6  O   UNL A   1      33.212  25.343  25.404  1.00  0.00    -0.460 OA
BRANCH   6   7
ATOM      7  C   UNL A   1      34.004  24.475  26.084  1.00  0.00     0.341 C 
ATOM      8  O   UNL A   1      33.771  24.041  27.202  1.00  0.00    -0.246 OA
BRANCH   7   9
ATOM      9  C   UNL A   1      35.116  23.961  25.289  1.00  0.00     0.094 A 
ATOM     10  C   UNL A   1      35.165  23.795  23.921  1.00  0.00     0.110 A 
ATOM     11  S   UNL A   1      36.464  22.815  23.418  1.00  0.00    -0.126 S 
ATOM     12  C   UNL A   1      37.147  22.820  24.983  1.00  0.00     0.068 A 
ATOM     13  C   UNL A   1      36.322  23.446  25.890  1.00  0.00     0.029 A 
BRANCH  10  14
ATOM     14  N   UNL A   1      34.359  24.195  22.888  1.00  0.00    -0.317 N 
ATOM     15  C   UNL A   1      33.501  23.409  22.165  1.00  0.00     0.229 C 
ATOM     16  O   UNL A   1      33.058  23.836  21.096  1.00  0.00    -0.274 OA
ATOM     17  H   UNL A   1      34.399  25.147  22.639  1.00  0.00     0.170 HD
BRANCH  15  18
ATOM     18  C   UNL A   1      32.939  22.122  22.794  1.00  0.00     0.139 C 
BRANCH  18  19
ATOM     19  C   UNL A   1      32.187  22.220  24.089  1.00  0.00     0.002 A 
ATOM     20  C   UNL A   1      30.528  23.956  23.032  1.00  0.00     0.067 C 
ATOM     21  C   UNL A   1      31.031  23.179  24.234  1.00  0.00     0.049 A 
ATOM     22  N   UNL A   1      30.410  23.429  25.341  1.00  0.00    -0.198 NA
ATOM     23  C   UNL A   1      30.797  22.787  26.478  1.00  0.00     0.345 A 
ATOM     24  C   UNL A   1      32.418  21.497  25.202  1.00  0.00     0.022 A 
ATOM     25  O   UNL A   1      30.351  23.043  27.592  1.00  0.00    -0.246 OA
ATOM     26  N   UNL A   1      31.731  21.794  26.353  1.00  0.00    -0.310 N 
ATOM     27  C   UNL A   1      33.449  20.409  25.328  1.00  0.00     0.065 C 
ATOM     28  H   UNL A   1      31.925  21.249  27.149  1.00  0.00     0.171 HD
ENDBRANCH  18  19
ENDBRANCH  15  18
ENDBRANCH  10  14
ENDBRANCH   7   9
ENDBRANCH   6   7
ENDBRANCH   5   6
ENDBRANCH   4   5
ENDBRANCH   3   4
ENDBRANCH   2   3
ENDBRANCH   1   2
BRANCH   1  29
ATOM     29  O   UNL A   1      36.560  30.987  28.310  1.00  0.00    -0.377 OA
BRANCH  29  30
ATOM     30  C   UNL A   1      35.703  32.062  27.967  1.00  0.00     0.188 C 
BRANCH  30  31
ATOM     31  C   UNL A   1      36.245  33.468  28.304  1.00  0.00     0.188 C 
BRANCH  31  32
ATOM     32  O   UNL A   1      35.444  34.471  28.920  1.00  0.00    -0.376 OA
BRANCH  32  33
ATOM     33  C   UNL A   1      34.251  34.920  28.304  1.00  0.00     0.202 C 
BRANCH  33  34
ATOM     34  C   UNL A   1      33.192  35.554  29.217  1.00  0.00     0.261 C 
BRANCH  34  35
ATOM     35  O   UNL A   1      32.826  34.787  30.375  1.00  0.00    -0.460 OA
BRANCH  35  36
ATOM     36  C   UNL A   1      32.887  35.447  31.556  1.00  0.00     0.338 C 
ATOM     37  O   UNL A   1      32.111  36.287  31.977  1.00  0.00    -0.246 OA
BRANCH  36  38
ATOM     38  C   UNL A   1      33.994  34.900  32.377  1.00  0.00     0.060 A 
ATOM     39  C   UNL A   1      35.240  35.544  32.323  1.00  0.00     0.016 A 
ATOM     40  C   UNL A   1      33.834  33.743  33.142  1.00  0.00     0.016 A 
ATOM     41  C   UNL A   1      36.340  35.009  32.989  1.00  0.00     0.010 A 
ATOM     42  C   UNL A   1      34.949  33.178  33.773  1.00  0.00     0.010 A 
ATOM     43  C   UNL A   1      36.214  33.783  33.652  1.00  0.00    -0.014 A 
BRANCH  43  44
ATOM     44  C   UNL A   1      37.439  32.986  33.906  1.00  0.00     0.031 A 
ATOM     45  C   UNL A   1      38.171  33.243  35.198  1.00  0.00     0.074 A 
ATOM     46  C   UNL A   1      37.877  32.047  33.052  1.00  0.00     0.049 A 
ATOM     47  N   UNL A   1      39.289  32.731  35.642  1.00  0.00    -0.248 NA
ATOM     48  C   UNL A   1      37.547  34.213  36.116  1.00  0.00     0.031 C 
ATOM     49  C   UNL A   1      37.219  31.656  31.809  1.00  0.00     0.029 A 
ATOM     50  N   UNL A   1      38.995  31.252  33.109  1.00  0.00    -0.354 N 
ATOM     51  C   UNL A   1      39.506  33.327  36.879  1.00  0.00     0.074 A 
ATOM     52  C   UNL A   1      38.416  34.245  37.111  1.00  0.00     0.031 C 
ATOM     53  C   UNL A   1      37.955  30.701  31.210  1.00  0.00     0.029 A 
ATOM     54  C   UNL A   1      39.152  30.441  32.012  1.00  0.00     0.049 A 
ATOM     55  H   UNL A   1      39.624  31.261  33.866  1.00  0.00     0.167 HD
ATOM     56  C   UNL A   1      40.526  33.127  37.746  1.00  0.00     0.037 A 
ATOM     57  C   UNL A   1      40.161  29.609  31.690  1.00  0.00     0.037 A 
ATOM     58  C   UNL A   1      41.612  32.217  37.512  1.00  0.00     0.049 A 
ATOM     59  C   UNL A   1      41.335  29.472  32.630  1.00  0.00     0.074 A 
ATOM     60  C   UNL A   1      42.688  31.929  38.330  1.00  0.00     0.029 A 
ATOM     61  N   UNL A   1      41.760  31.452  36.365  1.00  0.00    -0.354 N 
ATOM     62  N   UNL A   1      41.529  30.026  33.802  1.00  0.00    -0.248 NA
ATOM     63  C   UNL A   1      42.433  28.596  32.195  1.00  0.00     0.031 C 
ATOM     64  C   UNL A   1      43.518  31.030  37.653  1.00  0.00     0.029 A 
ATOM     65  C   UNL A   1      42.929  30.716  36.438  1.00  0.00     0.049 A 
ATOM     66  H   UNL A   1      41.128  31.436  35.610  1.00  0.00     0.167 HD
ATOM     67  C   UNL A   1      42.750  29.542  34.259  1.00  0.00     0.074 A 
ATOM     68  C   UNL A   1      43.248  28.643  33.240  1.00  0.00     0.031 C 
ATOM     69  C   UNL A   1      43.400  29.815  35.418  1.00  0.00     0.037 A 
BRANCH  56  70
ATOM     70  C   UNL A   1      40.533  33.949  38.999  1.00  0.00     0.064 A 
ATOM     71  C   UNL A   1      39.898  33.519  40.174  1.00  0.00     0.173 A 
ATOM     72  C   UNL A   1      41.189  35.190  39.023  1.00  0.00     0.173 A 
ATOM     73  F   UNL A   1      39.238  32.352  40.195  1.00  0.00    -0.203 F 
ATOM     74  C   UNL A   1      39.899  34.311  41.319  1.00  0.00     0.198 A 
ATOM     75  C   UNL A   1      41.212  35.966  40.178  1.00  0.00     0.198 A 
ATOM     76  F   UNL A   1      41.808  35.649  37.925  1.00  0.00    -0.203 F 
ATOM     77  F   UNL A   1      39.242  33.905  42.414  1.00  0.00    -0.200 F 
ATOM     78  C   UNL A   1      40.560  35.531  41.322  1.00  0.00     0.200 A 
ATOM     79  F   UNL A   1      41.859  37.139  40.181  1.00  0.00    -0.200 F 
ATOM     80  F   UNL A   1      40.562  36.291  42.425  1.00  0.00    -0.200 F 
ENDBRANCH  56  70
BRANCH  57  81
ATOM     81  C   UNL A   1      40.127  28.849  30.412  1.00  0.00     0.064 A 
ATOM     82  C   UNL A   1      40.699  29.374  29.243  1.00  0.00     0.173 A 
ATOM     83  C   UNL A   1      39.494  27.600  30.323  1.00  0.00     0.173 A 
ATOM     84  F   UNL A   1      41.287  30.578  29.270  1.00  0.00    -0.203 F 
ATOM     85  C   UNL A   1      40.625  28.686  28.034  1.00  0.00     0.198 A 
ATOM     86  C   UNL A   1      39.444  26.901  29.118  1.00  0.00     0.198 A 
ATOM     87  F   UNL A   1      38.922  27.059  31.408  1.00  0.00    -0.203 F 
ATOM     88  F   UNL A   1      41.138  29.232  26.923  1.00  0.00    -0.200 F 
ATOM     89  C   UNL A   1      40.004  27.448  27.973  1.00  0.00     0.200 A 
ATOM     90  F   UNL A   1      38.847  25.703  29.065  1.00  0.00    -0.200 F 
ATOM     91  F   UNL A   1      39.933  26.787  26.810  1.00  0.00    -0.200 F 
ENDBRANCH  57  81
BRANCH  69  92
ATOM     92  C   UNL A   1      44.697  29.101  35.671  1.00  0.00     0.064 A 
ATOM     93  C   UNL A   1      45.928  29.653  35.290  1.00  0.00     0.173 A 
ATOM     94  C   UNL A   1      44.707  27.876  36.354  1.00  0.00     0.173 A 
ATOM     95  F   UNL A   1      45.971  30.815  34.622  1.00  0.00    -0.203 F 
ATOM     96  C   UNL A   1      47.122  28.991  35.564  1.00  0.00     0.198 A 
ATOM     97  C   UNL A   1      45.904  27.233  36.654  1.00  0.00     0.198 A 
ATOM     98  F   UNL A   1      43.557  27.311  36.750  1.00  0.00    -0.203 F 
ATOM     99  F   UNL A   1      48.286  29.513  35.151  1.00  0.00    -0.200 F 
ATOM    100  C   UNL A   1      47.110  27.787  36.252  1.00  0.00     0.200 A 
ATOM    101  F   UNL A   1      45.891  26.077  37.334  1.00  0.00    -0.200 F 
ATOM    102  F   UNL A   1      48.261  27.156  36.524  1.00  0.00    -0.200 F 
ENDBRANCH  69  92
ENDBRANCH  43  44
ENDBRANCH  36  38
ENDBRANCH  35  36
ENDBRANCH  34  35
ENDBRANCH  33  34
ENDBRANCH  32  33
ENDBRANCH  31  32
ENDBRANCH  30  31
ENDBRANCH  29  30
ENDBRANCH   1  29
TORSDOF 23
ENDMDL
