MODEL 1
REMARK VINA RESULT:     -10.6      0.000      0.000
REMARK SMILES C[C@@H]1CN(C(=O)c2c(F)cc(Br)cc2F)C[C@H]1C(=O)OCCOCCOCCOCCOC(=O)c1ccc(-c2c3nc(c(-c4c(F)c(F)c(F)c(F)c4F)c4ccc([nH]4)c(-c4c(F)c(F)c(F)c(F)c4F)c4nc(c(-c5c(F)c(F)c(F)c(F)c5F)c5ccc2[nH]5)C=C4)C=C3)cc1
REMARK SMILES IDX 26 1 25 2 24 3 23 4 22 5 21 6 20 7 18 8 19 9 17 10 1 11 2 12
REMARK SMILES IDX 3 13 4 14 16 15 5 16 6 17 7 18 8 19 14 20 9 21 10 22 13 23
REMARK SMILES IDX 15 24 11 25 12 26 27 27 28 28 29 29 30 30 31 31 32 32 33 33
REMARK SMILES IDX 34 34 35 35 36 36 97 37 37 38 96 39 38 40 39 41 40 42 90 43
REMARK SMILES IDX 41 44 95 45 89 46 91 47 42 48 94 49 88 50 87 51 43 53 75 54
REMARK SMILES IDX 55 55 74 56 56 57 59 58 73 59 92 60 57 61 58 62 72 64 93 65
REMARK SMILES IDX 60 66 44 67 45 68 53 69 46 70 47 71 51 72 54 73 48 74 49 75
REMARK SMILES IDX 52 76 50 77 76 78 77 79 85 80 78 81 79 82 83 83 86 84 80 85
REMARK SMILES IDX 81 86 84 87 82 88 61 89 62 90 70 91 63 92 64 93 68 94 71 95
REMARK SMILES IDX 65 96 66 97 69 98 67 99
REMARK H PARENT 91 52 59 63
REMARK Flexibility Score: inf
ROOT
ATOM      1  O   UNL A   1      35.238  32.586  27.792  1.00  0.00    -0.377 OA
ENDROOT
BRANCH   1   2
ATOM      2  C   UNL A   1      34.653  31.421  28.337  1.00  0.00     0.188 C 
BRANCH   2   3
ATOM      3  C   UNL A   1      33.910  30.524  27.340  1.00  0.00     0.188 C 
BRANCH   3   4
ATOM      4  O   UNL A   1      32.502  30.596  27.215  1.00  0.00    -0.376 OA
BRANCH   4   5
ATOM      5  C   UNL A   1      31.855  30.434  25.962  1.00  0.00     0.202 C 
BRANCH   5   6
ATOM      6  C   UNL A   1      32.163  29.297  24.969  1.00  0.00     0.261 C 
BRANCH   6   7
ATOM      7  O   UNL A   1      32.499  28.009  25.511  1.00  0.00    -0.463 OA
BRANCH   7   8
ATOM      8  C   UNL A   1      31.458  27.261  25.938  1.00  0.00     0.311 C 
ATOM      9  O   UNL A   1      31.158  27.105  27.119  1.00  0.00    -0.252 OA
BRANCH   8  10
ATOM     10  C   UNL A   1      30.683  26.555  24.837  1.00  0.00     0.123 C 
ATOM     11  C   UNL A   1      31.053  26.334  22.305  1.00  0.00     0.010 C 
ATOM     12  C   UNL A   1      31.428  25.808  23.690  1.00  0.00     0.021 C 
ATOM     13  C   UNL A   1      31.030  24.335  23.843  1.00  0.00     0.124 C 
ATOM     14  N   UNL A   1      30.649  24.276  25.235  1.00  0.00    -0.337 N 
ATOM     15  C   UNL A   1      29.886  25.468  25.542  1.00  0.00     0.135 C 
BRANCH  14  16
ATOM     16  C   UNL A   1      31.294  23.574  26.238  1.00  0.00     0.259 C 
ATOM     17  O   UNL A   1      30.816  23.363  27.348  1.00  0.00    -0.269 OA
BRANCH  16  18
ATOM     18  C   UNL A   1      32.613  23.014  25.954  1.00  0.00     0.111 A 
ATOM     19  C   UNL A   1      33.778  23.759  26.111  1.00  0.00     0.140 A 
ATOM     20  C   UNL A   1      32.691  21.684  25.561  1.00  0.00     0.140 A 
ATOM     21  F   UNL A   1      33.727  25.043  26.493  1.00  0.00    -0.206 F 
ATOM     22  C   UNL A   1      35.019  23.194  25.832  1.00  0.00     0.056 A 
ATOM     23  C   UNL A   1      33.924  21.099  25.291  1.00  0.00     0.056 A 
ATOM     24  F   UNL A   1      31.582  20.948  25.411  1.00  0.00    -0.206 F 
ATOM     25  C   UNL A   1      35.083  21.863  25.417  1.00  0.00     0.023 A 
ATOM     26  Br  UNL A   1      36.755  21.092  24.992  1.00  0.00    -0.051 Br
ENDBRANCH  16  18
ENDBRANCH  14  16
ENDBRANCH   8  10
ENDBRANCH   7   8
ENDBRANCH   6   7
ENDBRANCH   5   6
ENDBRANCH   4   5
ENDBRANCH   3   4
ENDBRANCH   2   3
ENDBRANCH   1   2
BRANCH   1  27
ATOM     27  C   UNL A   1      34.625  33.838  28.060  1.00  0.00     0.188 C 
BRANCH  27  28
ATOM     28  C   UNL A   1      33.089  33.949  28.020  1.00  0.00     0.188 C 
BRANCH  28  29
ATOM     29  O   UNL A   1      32.559  34.983  28.835  1.00  0.00    -0.376 OA
BRANCH  29  30
ATOM     30  C   UNL A   1      33.420  36.028  29.265  1.00  0.00     0.202 C 
BRANCH  30  31
ATOM     31  C   UNL A   1      32.868  37.054  30.268  1.00  0.00     0.261 C 
BRANCH  31  32
ATOM     32  O   UNL A   1      33.229  36.874  31.648  1.00  0.00    -0.460 OA
BRANCH  32  33
ATOM     33  C   UNL A   1      32.846  35.738  32.275  1.00  0.00     0.338 C 
ATOM     34  O   UNL A   1      31.719  35.378  32.522  1.00  0.00    -0.246 OA
BRANCH  33  35
ATOM     35  C   UNL A   1      34.058  34.898  32.436  1.00  0.00     0.060 A 
ATOM     36  C   UNL A   1      33.913  33.573  32.870  1.00  0.00     0.016 A 
ATOM     37  C   UNL A   1      35.324  35.409  32.146  1.00  0.00     0.016 A 
ATOM     38  C   UNL A   1      35.037  32.760  33.025  1.00  0.00     0.010 A 
ATOM     39  C   UNL A   1      36.452  34.601  32.328  1.00  0.00     0.010 A 
ATOM     40  C   UNL A   1      36.317  33.279  32.788  1.00  0.00    -0.014 A 
BRANCH  40  41
ATOM     41  C   UNL A   1      37.522  32.493  33.154  1.00  0.00     0.031 A 
ATOM     42  C   UNL A   1      38.220  32.802  34.450  1.00  0.00     0.074 A 
ATOM     43  C   UNL A   1      37.989  31.521  32.351  1.00  0.00     0.049 A 
ATOM     44  N   UNL A   1      39.333  32.311  34.935  1.00  0.00    -0.248 NA
ATOM     45  C   UNL A   1      37.575  33.802  35.315  1.00  0.00     0.031 C 
ATOM     46  C   UNL A   1      37.376  31.092  31.097  1.00  0.00     0.029 A 
ATOM     47  N   UNL A   1      39.104  30.726  32.472  1.00  0.00    -0.354 N 
ATOM     48  C   UNL A   1      39.525  32.949  36.153  1.00  0.00     0.074 A 
ATOM     49  C   UNL A   1      38.430  33.879  36.324  1.00  0.00     0.031 C 
ATOM     50  C   UNL A   1      38.133  30.123  30.553  1.00  0.00     0.029 A 
ATOM     51  C   UNL A   1      39.304  29.893  31.398  1.00  0.00     0.049 A 
ATOM     52  H   UNL A   1      39.702  30.751  33.253  1.00  0.00     0.167 HD
ATOM     53  C   UNL A   1      40.524  32.770  37.051  1.00  0.00     0.037 A 
ATOM     54  C   UNL A   1      40.332  29.068  31.117  1.00  0.00     0.037 A 
ATOM     55  C   UNL A   1      41.613  31.845  36.877  1.00  0.00     0.049 A 
ATOM     56  C   UNL A   1      41.482  28.957  32.090  1.00  0.00     0.074 A 
ATOM     57  C   UNL A   1      42.660  31.574  37.742  1.00  0.00     0.029 A 
ATOM     58  N   UNL A   1      41.805  31.050  35.757  1.00  0.00    -0.354 N 
ATOM     59  N   UNL A   1      41.644  29.540  33.253  1.00  0.00    -0.248 NA
ATOM     60  C   UNL A   1      42.594  28.075  31.707  1.00  0.00     0.031 C 
ATOM     61  C   UNL A   1      43.520  30.667  37.116  1.00  0.00     0.029 A 
ATOM     62  C   UNL A   1      42.975  30.318  35.891  1.00  0.00     0.049 A 
ATOM     63  H   UNL A   1      41.200  31.010  34.982  1.00  0.00     0.167 HD
ATOM     64  C   UNL A   1      42.858  29.077  33.750  1.00  0.00     0.074 A 
ATOM     65  C   UNL A   1      43.380  28.148  32.771  1.00  0.00     0.031 C 
ATOM     66  C   UNL A   1      43.484  29.393  34.911  1.00  0.00     0.037 A 
BRANCH  53  67
ATOM     67  C   UNL A   1      40.510  33.617  38.290  1.00  0.00     0.064 A 
ATOM     68  C   UNL A   1      39.712  33.296  39.398  1.00  0.00     0.173 A 
ATOM     69  C   UNL A   1      41.346  34.740  38.389  1.00  0.00     0.173 A 
ATOM     70  F   UNL A   1      38.884  32.241  39.352  1.00  0.00    -0.203 F 
ATOM     71  C   UNL A   1      39.737  34.078  40.550  1.00  0.00     0.198 A 
ATOM     72  C   UNL A   1      41.393  35.502  39.554  1.00  0.00     0.198 A 
ATOM     73  F   UNL A   1      42.132  35.090  37.360  1.00  0.00    -0.203 F 
ATOM     74  F   UNL A   1      38.933  33.778  41.580  1.00  0.00    -0.200 F 
ATOM     75  C   UNL A   1      40.584  35.174  40.630  1.00  0.00     0.200 A 
ATOM     76  F   UNL A   1      42.223  36.550  39.634  1.00  0.00    -0.200 F 
ATOM     77  F   UNL A   1      40.616  35.919  41.744  1.00  0.00    -0.200 F 
ENDBRANCH  53  67
BRANCH  54  78
ATOM     78  C   UNL A   1      40.353  28.307  29.837  1.00  0.00     0.064 A 
ATOM     79  C   UNL A   1      41.069  28.768  28.724  1.00  0.00     0.173 A 
ATOM     80  C   UNL A   1      39.616  27.124  29.688  1.00  0.00     0.173 A 
ATOM     81  F   UNL A   1      41.766  29.911  28.803  1.00  0.00    -0.203 F 
ATOM     82  C   UNL A   1      41.026  28.089  27.508  1.00  0.00     0.198 A 
ATOM     83  C   UNL A   1      39.602  26.424  28.484  1.00  0.00     0.198 A 
ATOM     84  F   UNL A   1      38.908  26.642  30.720  1.00  0.00    -0.203 F 
ATOM     85  F   UNL A   1      41.669  28.587  26.442  1.00  0.00    -0.200 F 
ATOM     86  C   UNL A   1      40.297  26.914  27.389  1.00  0.00     0.200 A 
ATOM     87  F   UNL A   1      38.905  25.284  28.383  1.00  0.00    -0.200 F 
ATOM     88  F   UNL A   1      40.253  26.264  26.219  1.00  0.00    -0.200 F 
ENDBRANCH  54  78
BRANCH  66  89
ATOM     89  C   UNL A   1      44.789  28.708  35.206  1.00  0.00     0.064 A 
ATOM     90  C   UNL A   1      44.840  27.447  35.819  1.00  0.00     0.173 A 
ATOM     91  C   UNL A   1      46.005  29.299  34.829  1.00  0.00     0.173 A 
ATOM     92  F   UNL A   1      43.709  26.842  36.212  1.00  0.00    -0.203 F 
ATOM     93  C   UNL A   1      46.057  26.818  36.069  1.00  0.00     0.198 A 
ATOM     94  C   UNL A   1      47.219  28.652  35.047  1.00  0.00     0.198 A 
ATOM     95  F   UNL A   1      46.017  30.500  34.230  1.00  0.00    -0.203 F 
ATOM     96  F   UNL A   1      46.082  25.638  36.703  1.00  0.00    -0.200 F 
ATOM     97  C   UNL A   1      47.245  27.417  35.675  1.00  0.00     0.200 A 
ATOM     98  F   UNL A   1      48.364  29.224  34.647  1.00  0.00    -0.200 F 
ATOM     99  F   UNL A   1      48.414  26.805  35.906  1.00  0.00    -0.200 F 
ENDBRANCH  66  89
ENDBRANCH  40  41
ENDBRANCH  33  35
ENDBRANCH  32  33
ENDBRANCH  31  32
ENDBRANCH  30  31
ENDBRANCH  29  30
ENDBRANCH  28  29
ENDBRANCH  27  28
ENDBRANCH   1  27
TORSDOF 22
ENDMDL
MODEL 2
REMARK VINA RESULT:     -10.3      6.010     10.541
REMARK SMILES C[C@@H]1CN(C(=O)c2c(F)cc(Br)cc2F)C[C@H]1C(=O)OCCOCCOCCOCCOC(=O)c1ccc(-c2c3nc(c(-c4c(F)c(F)c(F)c(F)c4F)c4ccc([nH]4)c(-c4c(F)c(F)c(F)c(F)c4F)c4nc(c(-c5c(F)c(F)c(F)c(F)c5F)c5ccc2[nH]5)C=C4)C=C3)cc1
REMARK SMILES IDX 26 1 25 2 24 3 23 4 22 5 21 6 20 7 18 8 19 9 17 10 1 11 2 12
REMARK SMILES IDX 3 13 4 14 16 15 5 16 6 17 7 18 8 19 14 20 9 21 10 22 13 23
REMARK SMILES IDX 15 24 11 25 12 26 27 27 28 28 29 29 30 30 31 31 32 32 33 33
REMARK SMILES IDX 34 34 35 35 36 36 97 37 37 38 96 39 38 40 39 41 40 42 90 43
REMARK SMILES IDX 41 44 95 45 89 46 91 47 42 48 94 49 88 50 87 51 43 53 75 54
REMARK SMILES IDX 55 55 74 56 56 57 59 58 73 59 92 60 57 61 58 62 72 64 93 65
REMARK SMILES IDX 60 66 44 67 45 68 53 69 46 70 47 71 51 72 54 73 48 74 49 75
REMARK SMILES IDX 52 76 50 77 76 78 77 79 85 80 78 81 79 82 83 83 86 84 80 85
REMARK SMILES IDX 81 86 84 87 82 88 61 89 62 90 70 91 63 92 64 93 68 94 71 95
REMARK SMILES IDX 65 96 66 97 69 98 67 99
REMARK H PARENT 91 52 59 63
REMARK Flexibility Score: inf
ROOT
ATOM      1  O   UNL A   1      34.784  20.145  24.612  1.00  0.00    -0.377 OA
ENDROOT
BRANCH   1   2
ATOM      2  C   UNL A   1      33.690  19.542  25.271  1.00  0.00     0.188 C 
BRANCH   2   3
ATOM      3  C   UNL A   1      32.825  20.484  26.117  1.00  0.00     0.188 C 
BRANCH   3   4
ATOM      4  O   UNL A   1      32.715  21.855  25.784  1.00  0.00    -0.376 OA
BRANCH   4   5
ATOM      5  C   UNL A   1      32.753  22.868  26.778  1.00  0.00     0.202 C 
BRANCH   5   6
ATOM      6  C   UNL A   1      31.796  24.075  26.821  1.00  0.00     0.261 C 
BRANCH   6   7
ATOM      7  O   UNL A   1      32.280  25.329  26.313  1.00  0.00    -0.463 OA
BRANCH   7   8
ATOM      8  C   UNL A   1      31.430  26.375  26.421  1.00  0.00     0.311 C 
ATOM      9  O   UNL A   1      30.219  26.265  26.594  1.00  0.00    -0.252 OA
BRANCH   8  10
ATOM     10  C   UNL A   1      32.074  27.742  26.259  1.00  0.00     0.123 C 
ATOM     11  C   UNL A   1      34.494  28.572  26.487  1.00  0.00     0.010 C 
ATOM     12  C   UNL A   1      33.469  27.891  25.580  1.00  0.00     0.021 C 
ATOM     13  C   UNL A   1      33.216  28.723  24.317  1.00  0.00     0.124 C 
ATOM     14  N   UNL A   1      31.811  28.483  24.082  1.00  0.00    -0.337 N 
ATOM     15  C   UNL A   1      31.129  28.526  25.359  1.00  0.00     0.135 C 
BRANCH  14  16
ATOM     16  C   UNL A   1      31.257  27.805  23.010  1.00  0.00     0.259 C 
ATOM     17  O   UNL A   1      30.638  28.345  22.100  1.00  0.00    -0.269 OA
BRANCH  16  18
ATOM     18  C   UNL A   1      31.449  26.359  22.931  1.00  0.00     0.111 A 
ATOM     19  C   UNL A   1      30.452  25.463  23.303  1.00  0.00     0.140 A 
ATOM     20  C   UNL A   1      32.652  25.883  22.426  1.00  0.00     0.140 A 
ATOM     21  F   UNL A   1      29.281  25.900  23.790  1.00  0.00    -0.206 F 
ATOM     22  C   UNL A   1      30.668  24.090  23.214  1.00  0.00     0.056 A 
ATOM     23  C   UNL A   1      32.881  24.515  22.318  1.00  0.00     0.056 A 
ATOM     24  F   UNL A   1      33.623  26.728  22.055  1.00  0.00    -0.206 F 
ATOM     25  C   UNL A   1      31.888  23.624  22.725  1.00  0.00     0.023 A 
ATOM     26  Br  UNL A   1      32.216  21.765  22.638  1.00  0.00    -0.051 Br
ENDBRANCH  16  18
ENDBRANCH  14  16
ENDBRANCH   8  10
ENDBRANCH   7   8
ENDBRANCH   6   7
ENDBRANCH   5   6
ENDBRANCH   4   5
ENDBRANCH   3   4
ENDBRANCH   2   3
ENDBRANCH   1   2
BRANCH   1  27
ATOM     27  C   UNL A   1      35.780  20.780  25.400  1.00  0.00     0.188 C 
BRANCH  27  28
ATOM     28  C   UNL A   1      36.814  21.694  24.716  1.00  0.00     0.188 C 
BRANCH  28  29
ATOM     29  O   UNL A   1      38.164  21.351  24.989  1.00  0.00    -0.376 OA
BRANCH  29  30
ATOM     30  C   UNL A   1      38.532  19.979  25.015  1.00  0.00     0.202 C 
BRANCH  30  31
ATOM     31  C   UNL A   1      39.640  19.546  25.990  1.00  0.00     0.261 C 
BRANCH  31  32
ATOM     32  O   UNL A   1      40.905  19.179  25.415  1.00  0.00    -0.460 OA
BRANCH  32  33
ATOM     33  C   UNL A   1      41.999  19.169  26.211  1.00  0.00     0.338 C 
ATOM     34  O   UNL A   1      42.703  18.224  26.483  1.00  0.00    -0.246 OA
BRANCH  33  35
ATOM     35  C   UNL A   1      42.311  20.580  26.545  1.00  0.00     0.060 A 
ATOM     36  C   UNL A   1      42.510  21.496  25.504  1.00  0.00     0.016 A 
ATOM     37  C   UNL A   1      42.387  20.997  27.876  1.00  0.00     0.016 A 
ATOM     38  C   UNL A   1      42.801  22.831  25.792  1.00  0.00     0.010 A 
ATOM     39  C   UNL A   1      42.705  22.330  28.162  1.00  0.00     0.010 A 
ATOM     40  C   UNL A   1      42.933  23.249  27.123  1.00  0.00    -0.014 A 
BRANCH  40  41
ATOM     41  C   UNL A   1      43.448  24.607  27.433  1.00  0.00     0.031 A 
ATOM     42  C   UNL A   1      42.496  25.635  27.979  1.00  0.00     0.074 A 
ATOM     43  C   UNL A   1      44.739  24.923  27.232  1.00  0.00     0.049 A 
ATOM     44  N   UNL A   1      42.697  26.902  28.238  1.00  0.00    -0.248 NA
ATOM     45  C   UNL A   1      41.131  25.169  28.271  1.00  0.00     0.031 C 
ATOM     46  C   UNL A   1      45.771  24.005  26.756  1.00  0.00     0.029 A 
ATOM     47  N   UNL A   1      45.399  26.118  27.394  1.00  0.00    -0.354 N 
ATOM     48  C   UNL A   1      41.485  27.385  28.713  1.00  0.00     0.074 A 
ATOM     49  C   UNL A   1      40.547  26.284  28.683  1.00  0.00     0.031 C 
ATOM     50  C   UNL A   1      46.932  24.675  26.647  1.00  0.00     0.029 A 
ATOM     51  C   UNL A   1      46.716  26.076  27.005  1.00  0.00     0.049 A 
ATOM     52  H   UNL A   1      44.969  26.926  27.755  1.00  0.00     0.167 HD
ATOM     53  C   UNL A   1      41.183  28.635  29.139  1.00  0.00     0.037 A 
ATOM     54  C   UNL A   1      47.628  27.065  26.915  1.00  0.00     0.037 A 
ATOM     55  C   UNL A   1      42.118  29.730  29.166  1.00  0.00     0.049 A 
ATOM     56  C   UNL A   1      47.239  28.471  27.307  1.00  0.00     0.074 A 
ATOM     57  C   UNL A   1      41.914  31.027  29.605  1.00  0.00     0.029 A 
ATOM     58  N   UNL A   1      43.430  29.660  28.724  1.00  0.00    -0.354 N 
ATOM     59  N   UNL A   1      46.101  28.916  27.781  1.00  0.00    -0.248 NA
ATOM     60  C   UNL A   1      48.264  29.513  27.145  1.00  0.00     0.031 C 
ATOM     61  C   UNL A   1      43.080  31.758  29.364  1.00  0.00     0.029 A 
ATOM     62  C   UNL A   1      44.035  30.902  28.840  1.00  0.00     0.049 A 
ATOM     63  H   UNL A   1      43.868  28.849  28.377  1.00  0.00     0.167 HD
ATOM     64  C   UNL A   1      46.281  30.277  28.000  1.00  0.00     0.074 A 
ATOM     65  C   UNL A   1      47.645  30.582  27.625  1.00  0.00     0.031 C 
ATOM     66  C   UNL A   1      45.396  31.193  28.466  1.00  0.00     0.037 A 
BRANCH  53  67
ATOM     67  C   UNL A   1      39.773  28.902  29.581  1.00  0.00     0.064 A 
ATOM     68  C   UNL A   1      38.799  29.390  28.697  1.00  0.00     0.173 A 
ATOM     69  C   UNL A   1      39.379  28.618  30.898  1.00  0.00     0.173 A 
ATOM     70  F   UNL A   1      39.126  29.691  27.431  1.00  0.00    -0.203 F 
ATOM     71  C   UNL A   1      37.489  29.602  29.121  1.00  0.00     0.198 A 
ATOM     72  C   UNL A   1      38.062  28.800  31.310  1.00  0.00     0.198 A 
ATOM     73  F   UNL A   1      40.270  28.147  31.783  1.00  0.00    -0.203 F 
ATOM     74  F   UNL A   1      36.586  30.110  28.271  1.00  0.00    -0.200 F 
ATOM     75  C   UNL A   1      37.120  29.298  30.423  1.00  0.00     0.200 A 
ATOM     76  F   UNL A   1      37.704  28.491  32.563  1.00  0.00    -0.200 F 
ATOM     77  F   UNL A   1      35.856  29.491  30.825  1.00  0.00    -0.200 F 
ENDBRANCH  53  67
BRANCH  54  78
ATOM     78  C   UNL A   1      48.992  26.779  26.392  1.00  0.00     0.064 A 
ATOM     79  C   UNL A   1      49.309  26.955  25.038  1.00  0.00     0.173 A 
ATOM     80  C   UNL A   1      49.997  26.277  27.231  1.00  0.00     0.173 A 
ATOM     81  F   UNL A   1      48.375  27.404  24.186  1.00  0.00    -0.203 F 
ATOM     82  C   UNL A   1      50.567  26.618  24.542  1.00  0.00     0.198 A 
ATOM     83  C   UNL A   1      51.266  25.974  26.744  1.00  0.00     0.198 A 
ATOM     84  F   UNL A   1      49.746  26.084  28.534  1.00  0.00    -0.203 F 
ATOM     85  F   UNL A   1      50.821  26.738  23.231  1.00  0.00    -0.200 F 
ATOM     86  C   UNL A   1      51.547  26.133  25.395  1.00  0.00     0.200 A 
ATOM     87  F   UNL A   1      52.210  25.517  27.578  1.00  0.00    -0.200 F 
ATOM     88  F   UNL A   1      52.754  25.804  24.917  1.00  0.00    -0.200 F 
ENDBRANCH  54  78
BRANCH  66  89
ATOM     89  C   UNL A   1      45.880  32.607  28.630  1.00  0.00     0.064 A 
ATOM     90  C   UNL A   1      46.520  33.038  29.802  1.00  0.00     0.173 A 
ATOM     91  C   UNL A   1      45.743  33.533  27.583  1.00  0.00     0.173 A 
ATOM     92  F   UNL A   1      46.665  32.199  30.839  1.00  0.00    -0.203 F 
ATOM     93  C   UNL A   1      46.979  34.347  29.930  1.00  0.00     0.198 A 
ATOM     94  C   UNL A   1      46.235  34.830  27.700  1.00  0.00     0.198 A 
ATOM     95  F   UNL A   1      45.148  33.173  26.435  1.00  0.00    -0.203 F 
ATOM     96  F   UNL A   1      47.539  34.749  31.078  1.00  0.00    -0.200 F 
ATOM     97  C   UNL A   1      46.844  35.239  28.876  1.00  0.00     0.200 A 
ATOM     98  F   UNL A   1      46.122  35.684  26.673  1.00  0.00    -0.200 F 
ATOM     99  F   UNL A   1      47.296  36.494  28.997  1.00  0.00    -0.200 F 
ENDBRANCH  66  89
ENDBRANCH  40  41
ENDBRANCH  33  35
ENDBRANCH  32  33
ENDBRANCH  31  32
ENDBRANCH  30  31
ENDBRANCH  29  30
ENDBRANCH  28  29
ENDBRANCH  27  28
ENDBRANCH   1  27
TORSDOF 22
ENDMDL
MODEL 3
REMARK VINA RESULT:     -10.2      6.049     11.421
REMARK SMILES C[C@@H]1CN(C(=O)c2c(F)cc(Br)cc2F)C[C@H]1C(=O)OCCOCCOCCOCCOC(=O)c1ccc(-c2c3nc(c(-c4c(F)c(F)c(F)c(F)c4F)c4ccc([nH]4)c(-c4c(F)c(F)c(F)c(F)c4F)c4nc(c(-c5c(F)c(F)c(F)c(F)c5F)c5ccc2[nH]5)C=C4)C=C3)cc1
REMARK SMILES IDX 26 1 25 2 24 3 23 4 22 5 21 6 20 7 18 8 19 9 17 10 1 11 2 12
REMARK SMILES IDX 3 13 4 14 16 15 5 16 6 17 7 18 8 19 14 20 9 21 10 22 13 23
REMARK SMILES IDX 15 24 11 25 12 26 27 27 28 28 29 29 30 30 31 31 32 32 33 33
REMARK SMILES IDX 34 34 35 35 36 36 97 37 37 38 96 39 38 40 39 41 40 42 90 43
REMARK SMILES IDX 41 44 95 45 89 46 91 47 42 48 94 49 88 50 87 51 43 53 75 54
REMARK SMILES IDX 55 55 74 56 56 57 59 58 73 59 92 60 57 61 58 62 72 64 93 65
REMARK SMILES IDX 60 66 44 67 45 68 53 69 46 70 47 71 51 72 54 73 48 74 49 75
REMARK SMILES IDX 52 76 50 77 76 78 77 79 85 80 78 81 79 82 83 83 86 84 80 85
REMARK SMILES IDX 81 86 84 87 82 88 61 89 62 90 70 91 63 92 64 93 68 94 71 95
REMARK SMILES IDX 65 96 66 97 69 98 67 99
REMARK H PARENT 91 52 59 63
REMARK Flexibility Score: inf
ROOT
ATOM      1  O   UNL A   1      34.816  20.165  24.608  1.00  0.00    -0.377 OA
ENDROOT
BRANCH   1   2
ATOM      2  C   UNL A   1      33.734  19.557  25.282  1.00  0.00     0.188 C 
BRANCH   2   3
ATOM      3  C   UNL A   1      32.838  20.505  26.088  1.00  0.00     0.188 C 
BRANCH   3   4
ATOM      4  O   UNL A   1      32.743  21.874  25.743  1.00  0.00    -0.376 OA
BRANCH   4   5
ATOM      5  C   UNL A   1      32.761  22.894  26.730  1.00  0.00     0.202 C 
BRANCH   5   6
ATOM      6  C   UNL A   1      31.795  24.094  26.755  1.00  0.00     0.261 C 
BRANCH   6   7
ATOM      7  O   UNL A   1      32.274  25.348  26.244  1.00  0.00    -0.463 OA
BRANCH   7   8
ATOM      8  C   UNL A   1      31.441  26.402  26.395  1.00  0.00     0.311 C 
ATOM      9  O   UNL A   1      30.235  26.304  26.611  1.00  0.00    -0.252 OA
BRANCH   8  10
ATOM     10  C   UNL A   1      32.094  27.764  26.226  1.00  0.00     0.123 C 
ATOM     11  C   UNL A   1      34.520  28.579  26.451  1.00  0.00     0.010 C 
ATOM     12  C   UNL A   1      33.491  27.899  25.547  1.00  0.00     0.021 C 
ATOM     13  C   UNL A   1      33.246  28.725  24.279  1.00  0.00     0.124 C 
ATOM     14  N   UNL A   1      31.840  28.493  24.044  1.00  0.00    -0.337 N 
ATOM     15  C   UNL A   1      31.156  28.549  25.320  1.00  0.00     0.135 C 
BRANCH  14  16
ATOM     16  C   UNL A   1      31.282  27.813  22.976  1.00  0.00     0.259 C 
ATOM     17  O   UNL A   1      30.656  28.350  22.068  1.00  0.00    -0.269 OA
BRANCH  16  18
ATOM     18  C   UNL A   1      31.479  26.368  22.896  1.00  0.00     0.111 A 
ATOM     19  C   UNL A   1      30.484  25.468  23.268  1.00  0.00     0.140 A 
ATOM     20  C   UNL A   1      32.683  25.895  22.390  1.00  0.00     0.140 A 
ATOM     21  F   UNL A   1      29.313  25.901  23.755  1.00  0.00    -0.206 F 
ATOM     22  C   UNL A   1      30.705  24.096  23.179  1.00  0.00     0.056 A 
ATOM     23  C   UNL A   1      32.916  24.528  22.282  1.00  0.00     0.056 A 
ATOM     24  F   UNL A   1      33.651  26.745  22.020  1.00  0.00    -0.206 F 
ATOM     25  C   UNL A   1      31.927  23.634  22.689  1.00  0.00     0.023 A 
ATOM     26  Br  UNL A   1      32.261  21.776  22.602  1.00  0.00    -0.051 Br
ENDBRANCH  16  18
ENDBRANCH  14  16
ENDBRANCH   8  10
ENDBRANCH   7   8
ENDBRANCH   6   7
ENDBRANCH   5   6
ENDBRANCH   4   5
ENDBRANCH   3   4
ENDBRANCH   2   3
ENDBRANCH   1   2
BRANCH   1  27
ATOM     27  C   UNL A   1      35.827  20.791  25.384  1.00  0.00     0.188 C 
BRANCH  27  28
ATOM     28  C   UNL A   1      36.854  21.704  24.689  1.00  0.00     0.188 C 
BRANCH  28  29
ATOM     29  O   UNL A   1      38.207  21.386  24.979  1.00  0.00    -0.376 OA
BRANCH  29  30
ATOM     30  C   UNL A   1      38.581  20.020  25.091  1.00  0.00     0.202 C 
BRANCH  30  31
ATOM     31  C   UNL A   1      39.722  19.660  26.058  1.00  0.00     0.261 C 
BRANCH  31  32
ATOM     32  O   UNL A   1      40.932  19.146  25.474  1.00  0.00    -0.460 OA
BRANCH  32  33
ATOM     33  C   UNL A   1      42.040  19.070  26.245  1.00  0.00     0.338 C 
ATOM     34  O   UNL A   1      42.643  18.074  26.572  1.00  0.00    -0.246 OA
BRANCH  33  35
ATOM     35  C   UNL A   1      42.517  20.457  26.465  1.00  0.00     0.060 A 
ATOM     36  C   UNL A   1      42.485  20.989  27.761  1.00  0.00     0.016 A 
ATOM     37  C   UNL A   1      43.007  21.220  25.403  1.00  0.00     0.016 A 
ATOM     38  C   UNL A   1      42.931  22.291  27.995  1.00  0.00     0.010 A 
ATOM     39  C   UNL A   1      43.429  22.533  25.635  1.00  0.00     0.010 A 
ATOM     40  C   UNL A   1      43.376  23.083  26.928  1.00  0.00    -0.014 A 
BRANCH  40  41
ATOM     41  C   UNL A   1      43.648  24.528  27.133  1.00  0.00     0.031 A 
ATOM     42  C   UNL A   1      45.041  25.042  26.896  1.00  0.00     0.074 A 
ATOM     43  C   UNL A   1      42.676  25.371  27.524  1.00  0.00     0.049 A 
ATOM     44  N   UNL A   1      45.533  26.239  27.094  1.00  0.00    -0.248 NA
ATOM     45  C   UNL A   1      46.012  24.072  26.363  1.00  0.00     0.031 C 
ATOM     46  C   UNL A   1      41.278  25.008  27.739  1.00  0.00     0.029 A 
ATOM     47  N   UNL A   1      42.727  26.711  27.824  1.00  0.00    -0.354 N 
ATOM     48  C   UNL A   1      46.869  26.163  26.721  1.00  0.00     0.074 A 
ATOM     49  C   UNL A   1      47.117  24.799  26.308  1.00  0.00     0.031 C 
ATOM     50  C   UNL A   1      40.605  26.096  28.153  1.00  0.00     0.029 A 
ATOM     51  C   UNL A   1      41.533  27.220  28.273  1.00  0.00     0.049 A 
ATOM     52  H   UNL A   1      43.541  27.255  27.724  1.00  0.00     0.167 HD
ATOM     53  C   UNL A   1      47.802  27.145  26.719  1.00  0.00     0.037 A 
ATOM     54  C   UNL A   1      41.235  28.443  28.758  1.00  0.00     0.037 A 
ATOM     55  C   UNL A   1      47.551  28.502  27.131  1.00  0.00     0.049 A 
ATOM     56  C   UNL A   1      42.318  29.493  28.834  1.00  0.00     0.074 A 
ATOM     57  C   UNL A   1      48.425  29.575  27.141  1.00  0.00     0.029 A 
ATOM     58  N   UNL A   1      46.341  28.968  27.621  1.00  0.00    -0.354 N 
ATOM     59  N   UNL A   1      43.570  29.425  28.454  1.00  0.00    -0.248 NA
ATOM     60  C   UNL A   1      41.942  30.792  29.413  1.00  0.00     0.031 C 
ATOM     61  C   UNL A   1      47.764  30.672  27.700  1.00  0.00     0.029 A 
ATOM     62  C   UNL A   1      46.457  30.304  27.975  1.00  0.00     0.049 A 
ATOM     63  H   UNL A   1      45.520  28.431  27.706  1.00  0.00     0.167 HD
ATOM     64  C   UNL A   1      44.123  30.673  28.721  1.00  0.00     0.074 A 
ATOM     65  C   UNL A   1      43.063  31.486  29.277  1.00  0.00     0.031 C 
ATOM     66  C   UNL A   1      45.393  31.105  28.525  1.00  0.00     0.037 A 
BRANCH  53  67
ATOM     67  C   UNL A   1      49.194  26.785  26.289  1.00  0.00     0.064 A 
ATOM     68  C   UNL A   1      49.624  26.939  24.963  1.00  0.00     0.173 A 
ATOM     69  C   UNL A   1      50.129  26.327  27.232  1.00  0.00     0.173 A 
ATOM     70  F   UNL A   1      48.768  27.360  24.020  1.00  0.00    -0.203 F 
ATOM     71  C   UNL A   1      50.930  26.627  24.592  1.00  0.00     0.198 A 
ATOM     72  C   UNL A   1      51.442  26.047  26.864  1.00  0.00     0.198 A 
ATOM     73  F   UNL A   1      49.771  26.165  28.514  1.00  0.00    -0.203 F 
ATOM     74  F   UNL A   1      51.306  26.741  23.310  1.00  0.00    -0.200 F 
ATOM     75  C   UNL A   1      51.840  26.192  25.544  1.00  0.00     0.200 A 
ATOM     76  F   UNL A   1      52.323  25.641  27.789  1.00  0.00    -0.200 F 
ATOM     77  F   UNL A   1      53.099  25.905  25.189  1.00  0.00    -0.200 F 
ENDBRANCH  53  67
BRANCH  54  78
ATOM     78  C   UNL A   1      39.863  28.737  29.254  1.00  0.00     0.064 A 
ATOM     79  C   UNL A   1      39.467  28.398  30.555  1.00  0.00     0.173 A 
ATOM     80  C   UNL A   1      38.903  29.324  28.417  1.00  0.00     0.173 A 
ATOM     81  F   UNL A   1      40.338  27.808  31.387  1.00  0.00    -0.203 F 
ATOM     82  C   UNL A   1      38.160  28.612  30.990  1.00  0.00     0.198 A 
ATOM     83  C   UNL A   1      37.606  29.571  28.862  1.00  0.00     0.198 A 
ATOM     84  F   UNL A   1      39.227  29.661  27.161  1.00  0.00    -0.203 F 
ATOM     85  F   UNL A   1      37.793  28.221  32.218  1.00  0.00    -0.200 F 
ATOM     86  C   UNL A   1      37.232  29.203  30.146  1.00  0.00     0.200 A 
ATOM     87  F   UNL A   1      36.720  30.153  28.044  1.00  0.00    -0.200 F 
ATOM     88  F   UNL A   1      35.974  29.404  30.562  1.00  0.00    -0.200 F 
ENDBRANCH  54  78
BRANCH  66  89
ATOM     89  C   UNL A   1      45.705  32.532  28.883  1.00  0.00     0.064 A 
ATOM     90  C   UNL A   1      45.502  33.583  27.976  1.00  0.00     0.173 A 
ATOM     91  C   UNL A   1      46.170  32.858  30.167  1.00  0.00     0.173 A 
ATOM     92  F   UNL A   1      45.072  33.326  26.732  1.00  0.00    -0.203 F 
ATOM     93  C   UNL A   1      45.779  34.901  28.331  1.00  0.00     0.198 A 
ATOM     94  C   UNL A   1      46.411  34.181  30.531  1.00  0.00     0.198 A 
ATOM     95  F   UNL A   1      46.372  31.895  31.079  1.00  0.00    -0.203 F 
ATOM     96  F   UNL A   1      45.627  35.881  27.430  1.00  0.00    -0.200 F 
ATOM     97  C   UNL A   1      46.225  35.200  29.610  1.00  0.00     0.200 A 
ATOM     98  F   UNL A   1      46.822  34.469  31.774  1.00  0.00    -0.200 F 
ATOM     99  F   UNL A   1      46.479  36.469  29.953  1.00  0.00    -0.200 F 
ENDBRANCH  66  89
ENDBRANCH  40  41
ENDBRANCH  33  35
ENDBRANCH  32  33
ENDBRANCH  31  32
ENDBRANCH  30  31
ENDBRANCH  29  30
ENDBRANCH  28  29
ENDBRANCH  27  28
ENDBRANCH   1  27
TORSDOF 22
ENDMDL
