MODEL 1
REMARK VINA RESULT:     -10.4      0.000      0.000
REMARK SMILES C[C@H](NS(=O)(=O)c1ccc(-c2cc(-c3ccccc3)c3cc([N+](=O)[O-])ccc3n2)cc1)C(=O)OCCOCCOCCOCCOC(=O)c1ccc(-c2c3nc(c(-c4c(F)c(F)c(F)c(F)c4F)c4ccc([nH]4)c(-c4c(F)c(F)c(F)c(F)c4F)c4nc(c(-c5c(F)c(F)c(F)c(F)c5F)c5ccc2[nH]5)C=C4)C=C3)cc1
REMARK SMILES IDX 38 1 37 2 36 3 35 4 34 5 32 6 33 7 2 8 1 9 3 10 4 12 5 13
REMARK SMILES IDX 6 14 7 15 8 16 31 17 9 18 30 19 10 20 11 21 12 22 29 23
REMARK SMILES IDX 13 24 28 25 20 26 27 27 21 28 26 29 22 30 14 31 15 32 19 33
REMARK SMILES IDX 16 34 18 35 17 36 23 37 24 38 25 39 39 40 40 41 41 42 42 43
REMARK SMILES IDX 43 44 44 45 45 46 46 47 47 48 48 49 49 50 50 51 111 52 51 53
REMARK SMILES IDX 110 54 52 55 53 56 54 57 104 58 55 59 109 60 103 61 105 62
REMARK SMILES IDX 56 63 108 64 102 65 101 66 57 68 89 69 69 70 88 71 70 72
REMARK SMILES IDX 73 73 87 74 106 75 71 76 72 77 86 79 107 80 74 81 58 82
REMARK SMILES IDX 59 83 67 84 60 85 61 86 65 87 68 88 62 89 63 90 66 91 64 92
REMARK SMILES IDX 90 93 91 94 99 95 92 96 93 97 97 98 100 99 94 100 95 101
REMARK SMILES IDX 98 102 96 103 75 104 76 105 84 106 77 107 78 108 82 109
REMARK SMILES IDX 85 110 79 111 80 112 83 113 81 114
REMARK H PARENT 3 11 105 67 73 78
REMARK Flexibility Score: inf
ROOT
ATOM      1  C   UNL A   1      32.484  30.791  27.020  1.00  0.00     0.188 C 
ENDROOT
BRANCH   1   2
ATOM      2  O   UNL A   1      31.883  29.507  27.226  1.00  0.00    -0.376 OA
BRANCH   2   3
ATOM      3  C   UNL A   1      31.475  28.798  26.058  1.00  0.00     0.202 C 
BRANCH   3   4
ATOM      4  C   UNL A   1      31.562  29.654  24.792  1.00  0.00     0.261 C 
BRANCH   4   5
ATOM      5  O   UNL A   1      30.264  29.959  24.248  1.00  0.00    -0.462 OA
BRANCH   5   6
ATOM      6  C   UNL A   1      29.978  29.401  23.058  1.00  0.00     0.323 C 
ATOM      7  O   UNL A   1      30.612  29.666  22.038  1.00  0.00    -0.250 OA
BRANCH   6   8
ATOM      8  C   UNL A   1      28.943  28.295  23.100  1.00  0.00     0.176 C 
ATOM      9  C   UNL A   1      27.573  28.979  23.104  1.00  0.00     0.038 C 
BRANCH   8  10
ATOM     10  N   UNL A   1      28.865  27.052  23.889  1.00  0.00    -0.197 NA
ATOM     11  H   UNL A   1      27.993  26.625  23.576  1.00  0.00     0.142 HD
BRANCH  10  12
ATOM     12  S   UNL A   1      29.901  25.757  24.042  1.00  0.00     0.241 S 
ATOM     13  O   UNL A   1      30.170  25.669  25.461  1.00  0.00    -0.207 OA
ATOM     14  O   UNL A   1      29.369  24.635  23.306  1.00  0.00    -0.207 OA
BRANCH  12  15
ATOM     15  C   UNL A   1      31.449  26.192  23.284  1.00  0.00     0.082 A 
ATOM     16  C   UNL A   1      31.610  26.142  21.906  1.00  0.00     0.022 A 
ATOM     17  C   UNL A   1      32.568  26.242  24.115  1.00  0.00     0.022 A 
ATOM     18  C   UNL A   1      32.821  25.675  21.394  1.00  0.00     0.012 A 
ATOM     19  C   UNL A   1      33.812  25.929  23.575  1.00  0.00     0.012 A 
ATOM     20  C   UNL A   1      33.860  25.360  22.278  1.00  0.00     0.000 A 
BRANCH  20  21
ATOM     21  C   UNL A   1      34.461  23.982  22.214  1.00  0.00     0.072 A 
ATOM     22  C   UNL A   1      35.625  23.693  22.900  1.00  0.00     0.038 A 
ATOM     23  N   UNL A   1      33.440  23.085  22.249  1.00  0.00    -0.248 NA
ATOM     24  C   UNL A   1      35.533  22.801  23.978  1.00  0.00    -0.007 A 
ATOM     25  C   UNL A   1      33.217  22.524  23.434  1.00  0.00     0.072 A 
ATOM     26  C   UNL A   1      34.227  22.460  24.401  1.00  0.00     0.015 A 
ATOM     27  C   UNL A   1      31.910  22.235  23.782  1.00  0.00     0.036 A 
ATOM     28  C   UNL A   1      33.865  22.287  25.755  1.00  0.00     0.096 A 
ATOM     29  C   UNL A   1      31.526  22.151  25.118  1.00  0.00     0.088 A 
ATOM     30  C   UNL A   1      32.506  22.274  26.100  1.00  0.00     0.270 A 
BRANCH  24  31
ATOM     31  C   UNL A   1      36.728  22.279  24.651  1.00  0.00    -0.018 A 
ATOM     32  C   UNL A   1      37.527  23.170  25.395  1.00  0.00     0.009 A 
ATOM     33  C   UNL A   1      37.071  20.922  24.652  1.00  0.00     0.009 A 
ATOM     34  C   UNL A   1      38.625  22.719  26.124  1.00  0.00     0.001 A 
ATOM     35  C   UNL A   1      38.180  20.471  25.373  1.00  0.00     0.001 A 
ATOM     36  C   UNL A   1      38.953  21.368  26.108  1.00  0.00     0.000 A 
ENDBRANCH  24  31
BRANCH  30  37
ATOM     37  N   UNL A   1      32.108  22.628  27.469  1.00  0.00     0.062 N 
ATOM     38  O   UNL A   1      32.904  22.368  28.379  1.00  0.00    -0.258 OA
ATOM     39  O   UNL A   1      31.023  23.207  27.621  1.00  0.00    -0.258 OA
ENDBRANCH  30  37
ENDBRANCH  20  21
ENDBRANCH  12  15
ENDBRANCH  10  12
ENDBRANCH   8  10
ENDBRANCH   6   8
ENDBRANCH   5   6
ENDBRANCH   4   5
ENDBRANCH   3   4
ENDBRANCH   2   3
ENDBRANCH   1   2
BRANCH   1  40
ATOM     40  C   UNL A   1      34.007  30.813  27.216  1.00  0.00     0.188 C 
BRANCH  40  41
ATOM     41  O   UNL A   1      34.532  31.558  28.304  1.00  0.00    -0.377 OA
BRANCH  41  42
ATOM     42  C   UNL A   1      35.821  31.157  28.755  1.00  0.00     0.188 C 
BRANCH  42  43
ATOM     43  C   UNL A   1      36.501  30.243  27.725  1.00  0.00     0.188 C 
BRANCH  43  44
ATOM     44  O   UNL A   1      36.909  28.994  28.286  1.00  0.00    -0.376 OA
BRANCH  44  45
ATOM     45  C   UNL A   1      38.154  28.996  28.981  1.00  0.00     0.202 C 
BRANCH  45  46
ATOM     46  C   UNL A   1      39.389  29.490  28.206  1.00  0.00     0.261 C 
BRANCH  46  47
ATOM     47  O   UNL A   1      40.657  29.039  28.723  1.00  0.00    -0.460 OA
BRANCH  47  48
ATOM     48  C   UNL A   1      40.998  29.440  29.965  1.00  0.00     0.338 C 
ATOM     49  O   UNL A   1      41.183  28.738  30.944  1.00  0.00    -0.246 OA
BRANCH  48  50
ATOM     50  C   UNL A   1      41.297  30.888  29.928  1.00  0.00     0.060 A 
ATOM     51  C   UNL A   1      42.614  31.287  29.667  1.00  0.00     0.016 A 
ATOM     52  C   UNL A   1      40.309  31.842  30.187  1.00  0.00     0.016 A 
ATOM     53  C   UNL A   1      42.961  32.637  29.728  1.00  0.00     0.010 A 
ATOM     54  C   UNL A   1      40.662  33.193  30.264  1.00  0.00     0.010 A 
ATOM     55  C   UNL A   1      41.999  33.592  30.081  1.00  0.00    -0.014 A 
BRANCH  55  56
ATOM     56  C   UNL A   1      42.431  34.950  30.500  1.00  0.00     0.031 A 
ATOM     57  C   UNL A   1      42.563  35.229  31.974  1.00  0.00     0.074 A 
ATOM     58  C   UNL A   1      42.726  35.917  29.614  1.00  0.00     0.049 A 
ATOM     59  N   UNL A   1      42.921  36.331  32.584  1.00  0.00    -0.248 NA
ATOM     60  C   UNL A   1      42.276  34.106  32.882  1.00  0.00     0.031 C 
ATOM     61  C   UNL A   1      42.711  35.783  28.161  1.00  0.00     0.029 A 
ATOM     62  N   UNL A   1      43.071  37.230  29.825  1.00  0.00    -0.354 N 
ATOM     63  C   UNL A   1      42.946  36.020  33.936  1.00  0.00     0.074 A 
ATOM     64  C   UNL A   1      42.511  34.647  34.068  1.00  0.00     0.031 C 
ATOM     65  C   UNL A   1      42.954  36.987  27.608  1.00  0.00     0.029 A 
ATOM     66  C   UNL A   1      43.142  37.968  28.670  1.00  0.00     0.049 A 
ATOM     67  H   UNL A   1      43.249  37.605  30.718  1.00  0.00     0.167 HD
ATOM     68  C   UNL A   1      43.326  36.797  34.977  1.00  0.00     0.037 A 
ATOM     69  C   UNL A   1      43.309  39.293  28.504  1.00  0.00     0.037 A 
ATOM     70  C   UNL A   1      43.730  38.171  34.870  1.00  0.00     0.049 A 
ATOM     71  C   UNL A   1      43.557  40.178  29.696  1.00  0.00     0.074 A 
ATOM     72  C   UNL A   1      44.173  39.024  35.866  1.00  0.00     0.029 A 
ATOM     73  N   UNL A   1      43.715  38.901  33.694  1.00  0.00    -0.354 N 
ATOM     74  N   UNL A   1      43.644  39.862  30.963  1.00  0.00    -0.248 NA
ATOM     75  C   UNL A   1      43.766  41.609  29.418  1.00  0.00     0.031 C 
ATOM     76  C   UNL A   1      44.385  40.286  35.299  1.00  0.00     0.029 A 
ATOM     77  C   UNL A   1      44.108  40.205  33.945  1.00  0.00     0.049 A 
ATOM     78  H   UNL A   1      43.463  38.546  32.810  1.00  0.00     0.167 HD
ATOM     79  C   UNL A   1      43.954  41.041  31.625  1.00  0.00     0.074 A 
ATOM     80  C   UNL A   1      44.032  42.083  30.626  1.00  0.00     0.031 C 
ATOM     81  C   UNL A   1      44.178  41.236  32.946  1.00  0.00     0.037 A 
BRANCH  68  82
ATOM     82  C   UNL A   1      43.329  36.164  36.332  1.00  0.00     0.064 A 
ATOM     83  C   UNL A   1      44.475  35.523  36.827  1.00  0.00     0.173 A 
ATOM     84  C   UNL A   1      42.195  36.224  37.152  1.00  0.00     0.173 A 
ATOM     85  F   UNL A   1      45.578  35.432  36.069  1.00  0.00    -0.203 F 
ATOM     86  C   UNL A   1      44.478  34.948  38.094  1.00  0.00     0.198 A 
ATOM     87  C   UNL A   1      42.209  35.662  38.427  1.00  0.00     0.198 A 
ATOM     88  F   UNL A   1      41.078  36.826  36.720  1.00  0.00    -0.203 F 
ATOM     89  F   UNL A   1      45.573  34.314  38.537  1.00  0.00    -0.200 F 
ATOM     90  C   UNL A   1      43.348  35.023  38.894  1.00  0.00     0.200 A 
ATOM     91  F   UNL A   1      41.119  35.739  39.202  1.00  0.00    -0.200 F 
ATOM     92  F   UNL A   1      43.354  34.472  40.116  1.00  0.00    -0.200 F 
ENDBRANCH  68  82
BRANCH  69  93
ATOM     93  C   UNL A   1      43.235  39.919  27.165  1.00  0.00     0.064 A 
ATOM     94  C   UNL A   1      44.401  40.240  26.460  1.00  0.00     0.173 A 
ATOM     95  C   UNL A   1      42.009  40.386  26.671  1.00  0.00     0.173 A 
ATOM     96  F   UNL A   1      45.595  39.848  26.925  1.00  0.00    -0.203 F 
ATOM     97  C   UNL A   1      44.347  41.053  25.332  1.00  0.00     0.198 A 
ATOM     98  C   UNL A   1      41.956  41.191  25.537  1.00  0.00     0.198 A 
ATOM     99  F   UNL A   1      40.876  40.139  27.343  1.00  0.00    -0.203 F 
ATOM    100  F   UNL A   1      45.479  41.415  24.714  1.00  0.00    -0.200 F 
ATOM    101  C   UNL A   1      43.130  41.544  24.885  1.00  0.00     0.200 A 
ATOM    102  F   UNL A   1      40.781  41.677  25.116  1.00  0.00    -0.200 F 
ATOM    103  F   UNL A   1      43.097  42.396  23.852  1.00  0.00    -0.200 F 
ENDBRANCH  69  93
BRANCH  81 104
ATOM    104  C   UNL A   1      44.569  42.617  33.375  1.00  0.00     0.064 A 
ATOM    105  C   UNL A   1      45.907  42.961  33.614  1.00  0.00     0.173 A 
ATOM    106  C   UNL A   1      43.590  43.607  33.547  1.00  0.00     0.173 A 
ATOM    107  F   UNL A   1      46.873  42.039  33.489  1.00  0.00    -0.203 F 
ATOM    108  C   UNL A   1      46.249  44.244  34.030  1.00  0.00     0.198 A 
ATOM    109  C   UNL A   1      43.939  44.895  33.940  1.00  0.00     0.198 A 
ATOM    110  F   UNL A   1      42.296  43.324  33.336  1.00  0.00    -0.203 F 
ATOM    111  F   UNL A   1      47.529  44.541  34.298  1.00  0.00    -0.200 F 
ATOM    112  C   UNL A   1      45.267  45.211  34.187  1.00  0.00     0.200 A 
ATOM    113  F   UNL A   1      42.990  45.829  34.089  1.00  0.00    -0.200 F 
ATOM    114  F   UNL A   1      45.599  46.446  34.589  1.00  0.00    -0.200 F 
ENDBRANCH  81 104
ENDBRANCH  55  56
ENDBRANCH  48  50
ENDBRANCH  47  48
ENDBRANCH  46  47
ENDBRANCH  45  46
ENDBRANCH  44  45
ENDBRANCH  43  44
ENDBRANCH  42  43
ENDBRANCH  41  42
ENDBRANCH  40  41
ENDBRANCH   1  40
TORSDOF 26
ENDMDL
MODEL 2
REMARK VINA RESULT:     -10.4      6.121      9.896
REMARK SMILES C[C@H](NS(=O)(=O)c1ccc(-c2cc(-c3ccccc3)c3cc([N+](=O)[O-])ccc3n2)cc1)C(=O)OCCOCCOCCOCCOC(=O)c1ccc(-c2c3nc(c(-c4c(F)c(F)c(F)c(F)c4F)c4ccc([nH]4)c(-c4c(F)c(F)c(F)c(F)c4F)c4nc(c(-c5c(F)c(F)c(F)c(F)c5F)c5ccc2[nH]5)C=C4)C=C3)cc1
REMARK SMILES IDX 38 1 37 2 36 3 35 4 34 5 32 6 33 7 2 8 1 9 3 10 4 12 5 13
REMARK SMILES IDX 6 14 7 15 8 16 31 17 9 18 30 19 10 20 11 21 12 22 29 23
REMARK SMILES IDX 13 24 28 25 20 26 27 27 21 28 26 29 22 30 14 31 15 32 19 33
REMARK SMILES IDX 16 34 18 35 17 36 23 37 24 38 25 39 39 40 40 41 41 42 42 43
REMARK SMILES IDX 43 44 44 45 45 46 46 47 47 48 48 49 49 50 50 51 111 52 51 53
REMARK SMILES IDX 110 54 52 55 53 56 54 57 104 58 55 59 109 60 103 61 105 62
REMARK SMILES IDX 56 63 108 64 102 65 101 66 57 68 89 69 69 70 88 71 70 72
REMARK SMILES IDX 73 73 87 74 106 75 71 76 72 77 86 79 107 80 74 81 58 82
REMARK SMILES IDX 59 83 67 84 60 85 61 86 65 87 68 88 62 89 63 90 66 91 64 92
REMARK SMILES IDX 90 93 91 94 99 95 92 96 93 97 97 98 100 99 94 100 95 101
REMARK SMILES IDX 98 102 96 103 75 104 76 105 84 106 77 107 78 108 82 109
REMARK SMILES IDX 85 110 79 111 80 112 83 113 81 114
REMARK H PARENT 3 11 105 67 73 78
REMARK Flexibility Score: inf
ROOT
ATOM      1  C   UNL A   1      32.279  31.078  26.883  1.00  0.00     0.188 C 
ENDROOT
BRANCH   1   2
ATOM      2  O   UNL A   1      32.003  29.683  27.048  1.00  0.00    -0.376 OA
BRANCH   2   3
ATOM      3  C   UNL A   1      31.612  28.967  25.879  1.00  0.00     0.202 C 
BRANCH   3   4
ATOM      4  C   UNL A   1      31.408  29.883  24.670  1.00  0.00     0.261 C 
BRANCH   4   5
ATOM      5  O   UNL A   1      30.069  29.801  24.143  1.00  0.00    -0.462 OA
BRANCH   5   6
ATOM      6  C   UNL A   1      29.928  29.105  23.001  1.00  0.00     0.323 C 
ATOM      7  O   UNL A   1      30.547  29.391  21.976  1.00  0.00    -0.250 OA
BRANCH   6   8
ATOM      8  C   UNL A   1      29.094  27.846  23.115  1.00  0.00     0.176 C 
ATOM      9  C   UNL A   1      27.660  28.295  23.400  1.00  0.00     0.038 C 
BRANCH   8  10
ATOM     10  N   UNL A   1      29.343  26.562  23.797  1.00  0.00    -0.197 NA
ATOM     11  H   UNL A   1      28.613  25.951  23.430  1.00  0.00     0.142 HD
BRANCH  10  12
ATOM     12  S   UNL A   1      30.681  25.572  23.866  1.00  0.00     0.241 S 
ATOM     13  O   UNL A   1      30.374  24.479  22.969  1.00  0.00    -0.207 OA
ATOM     14  O   UNL A   1      31.871  26.371  23.698  1.00  0.00    -0.207 OA
BRANCH  12  15
ATOM     15  C   UNL A   1      30.759  24.855  25.491  1.00  0.00     0.082 A 
ATOM     16  C   UNL A   1      31.594  25.383  26.466  1.00  0.00     0.022 A 
ATOM     17  C   UNL A   1      30.236  23.571  25.641  1.00  0.00     0.022 A 
ATOM     18  C   UNL A   1      32.268  24.502  27.313  1.00  0.00     0.012 A 
ATOM     19  C   UNL A   1      30.800  22.731  26.597  1.00  0.00     0.012 A 
ATOM     20  C   UNL A   1      32.013  23.129  27.213  1.00  0.00     0.000 A 
BRANCH  20  21
ATOM     21  C   UNL A   1      33.173  22.200  26.982  1.00  0.00     0.072 A 
ATOM     22  C   UNL A   1      32.980  20.975  26.372  1.00  0.00     0.038 A 
ATOM     23  N   UNL A   1      34.238  22.957  26.607  1.00  0.00    -0.248 NA
ATOM     24  C   UNL A   1      33.534  20.796  25.097  1.00  0.00    -0.007 A 
ATOM     25  C   UNL A   1      34.485  22.985  25.301  1.00  0.00     0.072 A 
ATOM     26  C   UNL A   1      34.040  21.955  24.463  1.00  0.00     0.015 A 
ATOM     27  C   UNL A   1      34.963  24.161  24.752  1.00  0.00     0.036 A 
ATOM     28  C   UNL A   1      33.911  22.208  23.079  1.00  0.00     0.096 A 
ATOM     29  C   UNL A   1      34.761  24.459  23.407  1.00  0.00     0.088 A 
ATOM     30  C   UNL A   1      34.145  23.505  22.600  1.00  0.00     0.270 A 
BRANCH  24  31
ATOM     31  C   UNL A   1      33.554  19.482  24.443  1.00  0.00    -0.018 A 
ATOM     32  C   UNL A   1      32.555  19.185  23.495  1.00  0.00     0.009 A 
ATOM     33  C   UNL A   1      34.564  18.538  24.661  1.00  0.00     0.009 A 
ATOM     34  C   UNL A   1      32.570  17.989  22.781  1.00  0.00     0.001 A 
ATOM     35  C   UNL A   1      34.573  17.333  23.954  1.00  0.00     0.001 A 
ATOM     36  C   UNL A   1      33.579  17.061  23.015  1.00  0.00     0.000 A 
ENDBRANCH  24  31
BRANCH  30  37
ATOM     37  N   UNL A   1      33.528  23.927  21.336  1.00  0.00     0.062 N 
ATOM     38  O   UNL A   1      33.400  25.142  21.142  1.00  0.00    -0.258 OA
ATOM     39  O   UNL A   1      33.217  23.043  20.524  1.00  0.00    -0.258 OA
ENDBRANCH  30  37
ENDBRANCH  20  21
ENDBRANCH  12  15
ENDBRANCH  10  12
ENDBRANCH   8  10
ENDBRANCH   6   8
ENDBRANCH   5   6
ENDBRANCH   4   5
ENDBRANCH   3   4
ENDBRANCH   2   3
ENDBRANCH   1   2
BRANCH   1  40
ATOM     40  C   UNL A   1      33.637  31.524  27.445  1.00  0.00     0.188 C 
BRANCH  40  41
ATOM     41  O   UNL A   1      33.651  32.528  28.449  1.00  0.00    -0.377 OA
BRANCH  41  42
ATOM     42  C   UNL A   1      33.254  33.826  28.022  1.00  0.00     0.188 C 
BRANCH  42  43
ATOM     43  C   UNL A   1      33.586  34.878  29.092  1.00  0.00     0.188 C 
BRANCH  43  44
ATOM     44  O   UNL A   1      33.004  34.571  30.360  1.00  0.00    -0.376 OA
BRANCH  44  45
ATOM     45  C   UNL A   1      33.606  35.195  31.493  1.00  0.00     0.202 C 
BRANCH  45  46
ATOM     46  C   UNL A   1      35.079  34.853  31.782  1.00  0.00     0.261 C 
BRANCH  46  47
ATOM     47  O   UNL A   1      35.397  33.447  31.761  1.00  0.00    -0.460 OA
BRANCH  47  48
ATOM     48  C   UNL A   1      36.366  33.042  30.915  1.00  0.00     0.338 C 
ATOM     49  O   UNL A   1      36.475  33.311  29.732  1.00  0.00    -0.246 OA
BRANCH  48  50
ATOM     50  C   UNL A   1      37.409  32.341  31.695  1.00  0.00     0.060 A 
ATOM     51  C   UNL A   1      37.020  31.637  32.841  1.00  0.00     0.016 A 
ATOM     52  C   UNL A   1      38.757  32.405  31.330  1.00  0.00     0.016 A 
ATOM     53  C   UNL A   1      37.983  31.051  33.664  1.00  0.00     0.010 A 
ATOM     54  C   UNL A   1      39.722  31.832  32.165  1.00  0.00     0.010 A 
ATOM     55  C   UNL A   1      39.344  31.193  33.359  1.00  0.00    -0.014 A 
BRANCH  55  56
ATOM     56  C   UNL A   1      40.363  30.898  34.397  1.00  0.00     0.031 A 
ATOM     57  C   UNL A   1      40.663  31.965  35.418  1.00  0.00     0.074 A 
ATOM     58  C   UNL A   1      41.001  29.717  34.467  1.00  0.00     0.049 A 
ATOM     59  N   UNL A   1      41.510  31.946  36.418  1.00  0.00    -0.248 NA
ATOM     60  C   UNL A   1      39.887  33.211  35.312  1.00  0.00     0.031 C 
ATOM     61  C   UNL A   1      40.773  28.568  33.597  1.00  0.00     0.029 A 
ATOM     62  N   UNL A   1      42.006  29.306  35.309  1.00  0.00    -0.354 N 
ATOM     63  C   UNL A   1      41.333  33.152  37.081  1.00  0.00     0.074 A 
ATOM     64  C   UNL A   1      40.346  33.906  36.342  1.00  0.00     0.031 C 
ATOM     65  C   UNL A   1      41.670  27.608  33.897  1.00  0.00     0.029 A 
ATOM     66  C   UNL A   1      42.527  28.080  34.979  1.00  0.00     0.049 A 
ATOM     67  H   UNL A   1      42.321  29.839  36.074  1.00  0.00     0.167 HD
ATOM     68  C   UNL A   1      41.919  33.584  38.222  1.00  0.00     0.037 A 
ATOM     69  C   UNL A   1      43.596  27.435  35.481  1.00  0.00     0.037 A 
ATOM     70  C   UNL A   1      42.924  32.863  38.952  1.00  0.00     0.049 A 
ATOM     71  C   UNL A   1      44.350  28.018  36.646  1.00  0.00     0.074 A 
ATOM     72  C   UNL A   1      43.542  33.204  40.143  1.00  0.00     0.029 A 
ATOM     73  N   UNL A   1      43.477  31.661  38.544  1.00  0.00    -0.354 N 
ATOM     74  N   UNL A   1      44.134  29.127  37.306  1.00  0.00    -0.248 NA
ATOM     75  C   UNL A   1      45.484  27.228  37.154  1.00  0.00     0.031 C 
ATOM     76  C   UNL A   1      44.503  32.228  40.432  1.00  0.00     0.029 A 
ATOM     77  C   UNL A   1      44.454  31.264  39.440  1.00  0.00     0.049 A 
ATOM     78  H   UNL A   1      43.214  31.163  37.735  1.00  0.00     0.167 HD
ATOM     79  C   UNL A   1      45.074  29.148  38.326  1.00  0.00     0.074 A 
ATOM     80  C   UNL A   1      45.871  27.949  38.196  1.00  0.00     0.031 C 
ATOM     81  C   UNL A   1      45.245  30.072  39.300  1.00  0.00     0.037 A 
BRANCH  68  82
ATOM     82  C   UNL A   1      41.471  34.907  38.756  1.00  0.00     0.064 A 
ATOM     83  C   UNL A   1      42.220  36.071  38.525  1.00  0.00     0.173 A 
ATOM     84  C   UNL A   1      40.274  35.020  39.475  1.00  0.00     0.173 A 
ATOM     85  F   UNL A   1      43.380  36.005  37.852  1.00  0.00    -0.203 F 
ATOM     86  C   UNL A   1      41.793  37.302  39.012  1.00  0.00     0.198 A 
ATOM     87  C   UNL A   1      39.841  36.258  39.945  1.00  0.00     0.198 A 
ATOM     88  F   UNL A   1      39.526  33.935  39.720  1.00  0.00    -0.203 F 
ATOM     89  F   UNL A   1      42.538  38.397  38.806  1.00  0.00    -0.200 F 
ATOM     90  C   UNL A   1      40.602  37.395  39.716  1.00  0.00     0.200 A 
ATOM     91  F   UNL A   1      38.688  36.349  40.621  1.00  0.00    -0.200 F 
ATOM     92  F   UNL A   1      40.189  38.583  40.180  1.00  0.00    -0.200 F 
ENDBRANCH  68  82
BRANCH  69  93
ATOM     93  C   UNL A   1      44.073  26.160  34.900  1.00  0.00     0.064 A 
ATOM     94  C   UNL A   1      43.584  24.935  35.367  1.00  0.00     0.173 A 
ATOM     95  C   UNL A   1      45.165  26.150  34.022  1.00  0.00     0.173 A 
ATOM     96  F   UNL A   1      42.568  24.907  36.240  1.00  0.00    -0.203 F 
ATOM     97  C   UNL A   1      44.206  23.741  35.013  1.00  0.00     0.198 A 
ATOM     98  C   UNL A   1      45.780  24.955  33.661  1.00  0.00     0.198 A 
ATOM     99  F   UNL A   1      45.691  27.304  33.590  1.00  0.00    -0.203 F 
ATOM    100  F   UNL A   1      43.773  22.583  35.529  1.00  0.00    -0.200 F 
ATOM    101  C   UNL A   1      45.314  23.754  34.180  1.00  0.00     0.200 A 
ATOM    102  F   UNL A   1      46.860  24.971  32.869  1.00  0.00    -0.200 F 
ATOM    103  F   UNL A   1      45.959  22.610  33.916  1.00  0.00    -0.200 F 
ENDBRANCH  69  93
BRANCH  81 104
ATOM    104  C   UNL A   1      46.305  29.798  40.323  1.00  0.00     0.064 A 
ATOM    105  C   UNL A   1      46.029  29.076  41.492  1.00  0.00     0.173 A 
ATOM    106  C   UNL A   1      47.614  30.265  40.126  1.00  0.00     0.173 A 
ATOM    107  F   UNL A   1      44.786  28.634  41.734  1.00  0.00    -0.203 F 
ATOM    108  C   UNL A   1      47.024  28.846  42.439  1.00  0.00     0.198 A 
ATOM    109  C   UNL A   1      48.610  30.014  41.064  1.00  0.00     0.198 A 
ATOM    110  F   UNL A   1      47.924  30.967  39.026  1.00  0.00    -0.203 F 
ATOM    111  F   UNL A   1      46.729  28.192  43.571  1.00  0.00    -0.200 F 
ATOM    112  C   UNL A   1      48.313  29.310  42.222  1.00  0.00     0.200 A 
ATOM    113  F   UNL A   1      49.855  30.460  40.853  1.00  0.00    -0.200 F 
ATOM    114  F   UNL A   1      49.267  29.089  43.136  1.00  0.00    -0.200 F 
ENDBRANCH  81 104
ENDBRANCH  55  56
ENDBRANCH  48  50
ENDBRANCH  47  48
ENDBRANCH  46  47
ENDBRANCH  45  46
ENDBRANCH  44  45
ENDBRANCH  43  44
ENDBRANCH  42  43
ENDBRANCH  41  42
ENDBRANCH  40  41
ENDBRANCH   1  40
TORSDOF 26
ENDMDL
MODEL 3
REMARK VINA RESULT:      -9.4      5.550     11.644
REMARK SMILES C[C@H](NS(=O)(=O)c1ccc(-c2cc(-c3ccccc3)c3cc([N+](=O)[O-])ccc3n2)cc1)C(=O)OCCOCCOCCOCCOC(=O)c1ccc(-c2c3nc(c(-c4c(F)c(F)c(F)c(F)c4F)c4ccc([nH]4)c(-c4c(F)c(F)c(F)c(F)c4F)c4nc(c(-c5c(F)c(F)c(F)c(F)c5F)c5ccc2[nH]5)C=C4)C=C3)cc1
REMARK SMILES IDX 38 1 37 2 36 3 35 4 34 5 32 6 33 7 2 8 1 9 3 10 4 12 5 13
REMARK SMILES IDX 6 14 7 15 8 16 31 17 9 18 30 19 10 20 11 21 12 22 29 23
REMARK SMILES IDX 13 24 28 25 20 26 27 27 21 28 26 29 22 30 14 31 15 32 19 33
REMARK SMILES IDX 16 34 18 35 17 36 23 37 24 38 25 39 39 40 40 41 41 42 42 43
REMARK SMILES IDX 43 44 44 45 45 46 46 47 47 48 48 49 49 50 50 51 111 52 51 53
REMARK SMILES IDX 110 54 52 55 53 56 54 57 104 58 55 59 109 60 103 61 105 62
REMARK SMILES IDX 56 63 108 64 102 65 101 66 57 68 89 69 69 70 88 71 70 72
REMARK SMILES IDX 73 73 87 74 106 75 71 76 72 77 86 79 107 80 74 81 58 82
REMARK SMILES IDX 59 83 67 84 60 85 61 86 65 87 68 88 62 89 63 90 66 91 64 92
REMARK SMILES IDX 90 93 91 94 99 95 92 96 93 97 97 98 100 99 94 100 95 101
REMARK SMILES IDX 98 102 96 103 75 104 76 105 84 106 77 107 78 108 82 109
REMARK SMILES IDX 85 110 79 111 80 112 83 113 81 114
REMARK H PARENT 3 11 105 67 73 78
REMARK Flexibility Score: inf
ROOT
ATOM      1  C   UNL A   1      33.549  25.152  24.051  1.00  0.00     0.188 C 
ENDROOT
BRANCH   1   2
ATOM      2  O   UNL A   1      34.538  24.883  25.051  1.00  0.00    -0.376 OA
BRANCH   2   3
ATOM      3  C   UNL A   1      35.592  23.996  24.685  1.00  0.00     0.202 C 
BRANCH   3   4
ATOM      4  C   UNL A   1      36.063  23.128  25.855  1.00  0.00     0.261 C 
BRANCH   4   5
ATOM      5  O   UNL A   1      37.332  23.561  26.380  1.00  0.00    -0.462 OA
BRANCH   5   6
ATOM      6  C   UNL A   1      38.363  22.718  26.199  1.00  0.00     0.323 C 
ATOM      7  O   UNL A   1      38.200  21.526  25.941  1.00  0.00    -0.250 OA
BRANCH   6   8
ATOM      8  C   UNL A   1      39.729  23.373  26.159  1.00  0.00     0.176 C 
ATOM      9  C   UNL A   1      40.504  22.843  27.367  1.00  0.00     0.038 C 
BRANCH   8  10
ATOM     10  N   UNL A   1      40.144  24.762  25.890  1.00  0.00    -0.197 NA
ATOM     11  H   UNL A   1      39.520  25.315  26.478  1.00  0.00     0.142 HD
BRANCH  10  12
ATOM     12  S   UNL A   1      41.609  25.541  26.036  1.00  0.00     0.241 S 
ATOM     13  O   UNL A   1      42.575  24.475  26.193  1.00  0.00    -0.207 OA
ATOM     14  O   UNL A   1      41.733  26.519  24.983  1.00  0.00    -0.207 OA
BRANCH  12  15
ATOM     15  C   UNL A   1      41.616  26.428  27.577  1.00  0.00     0.082 A 
ATOM     16  C   UNL A   1      41.184  27.746  27.645  1.00  0.00     0.022 A 
ATOM     17  C   UNL A   1      42.377  25.889  28.613  1.00  0.00     0.022 A 
ATOM     18  C   UNL A   1      41.879  28.632  28.469  1.00  0.00     0.012 A 
ATOM     19  C   UNL A   1      42.949  26.757  29.538  1.00  0.00     0.012 A 
ATOM     20  C   UNL A   1      42.925  28.147  29.264  1.00  0.00     0.000 A 
BRANCH  20  21
ATOM     21  C   UNL A   1      44.279  28.790  29.135  1.00  0.00     0.072 A 
ATOM     22  C   UNL A   1      45.337  28.360  29.913  1.00  0.00     0.038 A 
ATOM     23  N   UNL A   1      44.494  29.035  27.815  1.00  0.00    -0.248 NA
ATOM     24  C   UNL A   1      46.395  27.714  29.260  1.00  0.00    -0.007 A 
ATOM     25  C   UNL A   1      45.269  28.152  27.192  1.00  0.00     0.072 A 
ATOM     26  C   UNL A   1      46.181  27.364  27.906  1.00  0.00     0.015 A 
ATOM     27  C   UNL A   1      44.984  27.851  25.873  1.00  0.00     0.036 A 
ATOM     28  C   UNL A   1      46.646  26.164  27.326  1.00  0.00     0.096 A 
ATOM     29  C   UNL A   1      45.362  26.631  25.319  1.00  0.00     0.088 A 
ATOM     30  C   UNL A   1      46.117  25.753  26.094  1.00  0.00     0.270 A 
BRANCH  24  31
ATOM     31  C   UNL A   1      47.646  27.389  29.956  1.00  0.00    -0.018 A 
ATOM     32  C   UNL A   1      47.602  26.491  31.041  1.00  0.00     0.009 A 
ATOM     33  C   UNL A   1      48.895  27.870  29.544  1.00  0.00     0.009 A 
ATOM     34  C   UNL A   1      48.765  26.080  31.686  1.00  0.00     0.001 A 
ATOM     35  C   UNL A   1      50.061  27.468  30.200  1.00  0.00     0.001 A 
ATOM     36  C   UNL A   1      49.996  26.573  31.266  1.00  0.00     0.000 A 
ENDBRANCH  24  31
BRANCH  30  37
ATOM     37  N   UNL A   1      46.156  24.330  25.733  1.00  0.00     0.062 N 
ATOM     38  O   UNL A   1      45.937  23.509  26.632  1.00  0.00    -0.258 OA
ATOM     39  O   UNL A   1      46.359  24.043  24.545  1.00  0.00    -0.258 OA
ENDBRANCH  30  37
ENDBRANCH  20  21
ENDBRANCH  12  15
ENDBRANCH  10  12
ENDBRANCH   8  10
ENDBRANCH   6   8
ENDBRANCH   5   6
ENDBRANCH   4   5
ENDBRANCH   3   4
ENDBRANCH   2   3
ENDBRANCH   1   2
BRANCH   1  40
ATOM     40  C   UNL A   1      32.263  25.795  24.592  1.00  0.00     0.188 C 
BRANCH  40  41
ATOM     41  O   UNL A   1      32.385  26.930  25.436  1.00  0.00    -0.377 OA
BRANCH  41  42
ATOM     42  C   UNL A   1      32.645  28.162  24.772  1.00  0.00     0.188 C 
BRANCH  42  43
ATOM     43  C   UNL A   1      31.486  29.149  24.977  1.00  0.00     0.188 C 
BRANCH  43  44
ATOM     44  O   UNL A   1      31.836  30.233  25.840  1.00  0.00    -0.376 OA
BRANCH  44  45
ATOM     45  C   UNL A   1      32.902  29.987  26.754  1.00  0.00     0.202 C 
BRANCH  45  46
ATOM     46  C   UNL A   1      33.500  31.206  27.479  1.00  0.00     0.261 C 
BRANCH  46  47
ATOM     47  O   UNL A   1      34.761  30.971  28.136  1.00  0.00    -0.460 OA
BRANCH  47  48
ATOM     48  C   UNL A   1      35.686  31.950  28.073  1.00  0.00     0.338 C 
ATOM     49  O   UNL A   1      35.559  33.057  27.581  1.00  0.00    -0.246 OA
BRANCH  48  50
ATOM     50  C   UNL A   1      36.863  31.540  28.870  1.00  0.00     0.060 A 
ATOM     51  C   UNL A   1      37.053  32.132  30.125  1.00  0.00     0.016 A 
ATOM     52  C   UNL A   1      37.789  30.617  28.377  1.00  0.00     0.016 A 
ATOM     53  C   UNL A   1      38.205  31.853  30.863  1.00  0.00     0.010 A 
ATOM     54  C   UNL A   1      38.951  30.352  29.110  1.00  0.00     0.010 A 
ATOM     55  C   UNL A   1      39.186  31.003  30.334  1.00  0.00    -0.014 A 
BRANCH  55  56
ATOM     56  C   UNL A   1      40.546  30.992  30.930  1.00  0.00     0.031 A 
ATOM     57  C   UNL A   1      41.446  32.171  30.666  1.00  0.00     0.074 A 
ATOM     58  C   UNL A   1      40.984  29.987  31.708  1.00  0.00     0.049 A 
ATOM     59  N   UNL A   1      42.671  32.392  31.074  1.00  0.00    -0.248 NA
ATOM     60  C   UNL A   1      40.879  33.259  29.852  1.00  0.00     0.031 C 
ATOM     61  C   UNL A   1      40.212  28.815  32.108  1.00  0.00     0.029 A 
ATOM     62  N   UNL A   1      42.218  29.786  32.277  1.00  0.00    -0.354 N 
ATOM     63  C   UNL A   1      42.999  33.656  30.606  1.00  0.00     0.074 A 
ATOM     64  C   UNL A   1      41.874  34.133  29.834  1.00  0.00     0.031 C 
ATOM     65  C   UNL A   1      41.014  27.976  32.792  1.00  0.00     0.029 A 
ATOM     66  C   UNL A   1      42.349  28.558  32.875  1.00  0.00     0.049 A 
ATOM     67  H   UNL A   1      42.938  30.457  32.257  1.00  0.00     0.167 HD
ATOM     68  C   UNL A   1      44.127  34.372  30.823  1.00  0.00     0.037 A 
ATOM     69  C   UNL A   1      43.439  27.968  33.400  1.00  0.00     0.037 A 
ATOM     70  C   UNL A   1      45.268  33.903  31.559  1.00  0.00     0.049 A 
ATOM     71  C   UNL A   1      44.741  28.719  33.475  1.00  0.00     0.074 A 
ATOM     72  C   UNL A   1      46.437  34.576  31.866  1.00  0.00     0.029 A 
ATOM     73  N   UNL A   1      45.390  32.628  32.083  1.00  0.00    -0.354 N 
ATOM     74  N   UNL A   1      45.023  29.937  33.090  1.00  0.00    -0.248 NA
ATOM     75  C   UNL A   1      45.872  28.009  34.098  1.00  0.00     0.031 C 
ATOM     76  C   UNL A   1      47.287  33.692  32.541  1.00  0.00     0.029 A 
ATOM     77  C   UNL A   1      46.630  32.482  32.682  1.00  0.00     0.049 A 
ATOM     78  H   UNL A   1      44.698  31.928  32.038  1.00  0.00     0.167 HD
ATOM     79  C   UNL A   1      46.343  30.153  33.456  1.00  0.00     0.074 A 
ATOM     80  C   UNL A   1      46.814  28.940  34.086  1.00  0.00     0.031 C 
ATOM     81  C   UNL A   1      47.092  31.270  33.302  1.00  0.00     0.037 A 
BRANCH  68  82
ATOM     82  C   UNL A   1      44.173  35.755  30.256  1.00  0.00     0.064 A 
ATOM     83  C   UNL A   1      43.860  36.871  31.048  1.00  0.00     0.173 A 
ATOM     84  C   UNL A   1      44.561  35.972  28.928  1.00  0.00     0.173 A 
ATOM     85  F   UNL A   1      43.471  36.707  32.322  1.00  0.00    -0.203 F 
ATOM     86  C   UNL A   1      43.918  38.157  30.521  1.00  0.00     0.198 A 
ATOM     87  C   UNL A   1      44.635  37.263  28.410  1.00  0.00     0.198 A 
ATOM     88  F   UNL A   1      44.869  34.936  28.135  1.00  0.00    -0.203 F 
ATOM     89  F   UNL A   1      43.586  39.208  31.285  1.00  0.00    -0.200 F 
ATOM     90  C   UNL A   1      44.310  38.352  29.205  1.00  0.00     0.200 A 
ATOM     91  F   UNL A   1      45.019  37.452  27.141  1.00  0.00    -0.200 F 
ATOM     92  F   UNL A   1      44.370  39.592  28.700  1.00  0.00    -0.200 F 
ENDBRANCH  68  82
BRANCH  69  93
ATOM     93  C   UNL A   1      43.400  26.573  33.895  1.00  0.00     0.064 A 
ATOM     94  C   UNL A   1      42.887  26.279  35.163  1.00  0.00     0.173 A 
ATOM     95  C   UNL A   1      44.060  25.557  33.191  1.00  0.00     0.173 A 
ATOM     96  F   UNL A   1      42.287  27.236  35.883  1.00  0.00    -0.203 F 
ATOM     97  C   UNL A   1      43.081  25.024  35.733  1.00  0.00     0.198 A 
ATOM     98  C   UNL A   1      44.245  24.300  33.759  1.00  0.00     0.198 A 
ATOM     99  F   UNL A   1      44.606  25.813  31.995  1.00  0.00    -0.203 F 
ATOM    100  F   UNL A   1      42.651  24.782  36.979  1.00  0.00    -0.200 F 
ATOM    101  C   UNL A   1      43.777  24.045  35.041  1.00  0.00     0.200 A 
ATOM    102  F   UNL A   1      44.931  23.360  33.095  1.00  0.00    -0.200 F 
ATOM    103  F   UNL A   1      44.035  22.871  35.633  1.00  0.00    -0.200 F 
ENDBRANCH  69  93
BRANCH  81 104
ATOM    104  C   UNL A   1      48.481  31.244  33.864  1.00  0.00     0.064 A 
ATOM    105  C   UNL A   1      48.751  31.655  35.176  1.00  0.00     0.173 A 
ATOM    106  C   UNL A   1      49.553  30.799  33.076  1.00  0.00     0.173 A 
ATOM    107  F   UNL A   1      47.761  32.114  35.956  1.00  0.00    -0.203 F 
ATOM    108  C   UNL A   1      50.050  31.640  35.674  1.00  0.00     0.198 A 
ATOM    109  C   UNL A   1      50.847  30.764  33.585  1.00  0.00     0.198 A 
ATOM    110  F   UNL A   1      49.344  30.401  31.812  1.00  0.00    -0.203 F 
ATOM    111  F   UNL A   1      50.295  32.081  36.917  1.00  0.00    -0.200 F 
ATOM    112  C   UNL A   1      51.096  31.190  34.881  1.00  0.00     0.200 A 
ATOM    113  F   UNL A   1      51.855  30.326  32.819  1.00  0.00    -0.200 F 
ATOM    114  F   UNL A   1      52.346  31.178  35.363  1.00  0.00    -0.200 F 
ENDBRANCH  81 104
ENDBRANCH  55  56
ENDBRANCH  48  50
ENDBRANCH  47  48
ENDBRANCH  46  47
ENDBRANCH  45  46
ENDBRANCH  44  45
ENDBRANCH  43  44
ENDBRANCH  42  43
ENDBRANCH  41  42
ENDBRANCH  40  41
ENDBRANCH   1  40
TORSDOF 26
ENDMDL
