MODEL 1
REMARK VINA RESULT:     -10.3      0.000      0.000
REMARK SMILES CC(C)Cc1ccc(-c2cc(Cl)cc3c2O[C@@H](C(F)(F)F)C(C(=O)OCCOCCOCCOCCOC(=O)c2ccc(-c4c5nc(c(-c6c(F)c(F)c(F)c(F)c6F)c6ccc([nH]6)c(-c6c(F)c(F)c(F)c(F)c6F)c6nc(c(-c7c(F)c(F)c(F)c(F)c7F)c7ccc4[nH]7)C=C6)C=C5)cc2)=C3)cc1
REMARK SMILES IDX 30 1 29 2 28 3 27 4 26 5 25 6 23 7 24 8 22 9 9 10 10 11
REMARK SMILES IDX 15 12 11 13 14 14 16 15 12 16 13 17 103 18 17 19 8 20 5 21
REMARK SMILES IDX 6 22 105 23 7 24 104 25 4 26 2 27 1 28 3 29 18 30 19 31
REMARK SMILES IDX 20 32 21 33 31 34 32 35 33 36 34 37 35 38 36 39 37 40 38 41
REMARK SMILES IDX 39 42 40 43 41 44 102 45 42 46 101 47 43 48 44 49 45 50
REMARK SMILES IDX 95 51 46 52 100 53 94 54 96 55 47 56 99 57 93 58 92 59 48 61
REMARK SMILES IDX 80 62 60 63 79 64 61 65 64 66 78 67 97 68 62 69 63 70 77 72
REMARK SMILES IDX 98 73 65 74 49 75 50 76 58 77 51 78 52 79 56 80 59 81 53 82
REMARK SMILES IDX 54 83 57 84 55 85 81 86 82 87 90 88 83 89 84 90 88 91 91 92
REMARK SMILES IDX 85 93 86 94 89 95 87 96 66 97 67 98 75 99 68 100 69 101
REMARK SMILES IDX 73 102 76 103 70 104 71 105 74 106 72 107
REMARK H PARENT 96 60 64 71
REMARK Flexibility Score: inf
ROOT
ATOM      1  C   UNL A   1      41.624  20.642  26.142  1.00  0.00     0.188 C 
ENDROOT
BRANCH   1   2
ATOM      2  C   UNL A   1      40.192  20.956  26.593  1.00  0.00     0.188 C 
BRANCH   2   3
ATOM      3  O   UNL A   1      39.199  20.661  25.613  1.00  0.00    -0.376 OA
BRANCH   3   4
ATOM      4  C   UNL A   1      38.136  21.597  25.451  1.00  0.00     0.202 C 
BRANCH   4   5
ATOM      5  C   UNL A   1      36.708  21.037  25.445  1.00  0.00     0.261 C 
BRANCH   5   6
ATOM      6  O   UNL A   1      36.008  21.462  24.253  1.00  0.00    -0.460 OA
BRANCH   6   7
ATOM      7  C   UNL A   1      34.793  22.000  24.450  1.00  0.00     0.338 C 
ATOM      8  O   UNL A   1      33.742  21.516  24.049  1.00  0.00    -0.246 OA
BRANCH   7   9
ATOM      9  C   UNL A   1      34.826  23.158  25.377  1.00  0.00     0.087 C 
ATOM     10  C   UNL A   1      32.091  26.173  24.575  1.00  0.00     0.026 A 
ATOM     11  C   UNL A   1      31.850  26.172  23.182  1.00  0.00     0.033 A 
ATOM     12  C   UNL A   1      33.077  25.274  25.031  1.00  0.00     0.135 A 
ATOM     13  C   UNL A   1      32.754  25.585  22.298  1.00  0.00     0.042 A 
ATOM     14  C   UNL A   1      34.100  24.895  24.149  1.00  0.00     0.019 A 
ATOM     15  O   UNL A   1      32.921  24.590  26.232  1.00  0.00    -0.475 OA
ATOM     16  Cl  UNL A   1      32.445  25.623  20.609  1.00  0.00    -0.084 Cl
ATOM     17  C   UNL A   1      33.938  25.040  22.775  1.00  0.00     0.032 A 
ATOM     18  C   UNL A   1      35.292  24.228  24.711  1.00  0.00     0.027 C 
ATOM     19  C   UNL A   1      33.884  23.485  26.523  1.00  0.00     0.316 C 
BRANCH  10  20
ATOM     20  C   UNL A   1      31.794  27.485  25.243  1.00  0.00    -0.015 A 
ATOM     21  C   UNL A   1      32.194  29.882  26.762  1.00  0.00    -0.048 A 
ATOM     22  C   UNL A   1      32.249  29.899  25.363  1.00  0.00     0.004 A 
ATOM     23  C   UNL A   1      31.847  28.684  27.391  1.00  0.00     0.004 A 
ATOM     24  C   UNL A   1      32.047  28.721  24.616  1.00  0.00     0.009 A 
ATOM     25  C   UNL A   1      31.639  27.512  26.645  1.00  0.00     0.009 A 
BRANCH  21  26
ATOM     26  C   UNL A   1      32.539  31.111  27.578  1.00  0.00     0.038 C 
BRANCH  26  27
ATOM     27  C   UNL A   1      33.982  31.612  27.388  1.00  0.00    -0.013 C 
ATOM     28  C   UNL A   1      34.252  32.888  28.188  1.00  0.00     0.008 C 
ATOM     29  C   UNL A   1      34.985  30.532  27.808  1.00  0.00     0.008 C 
ENDBRANCH  26  27
ENDBRANCH  21  26
ENDBRANCH  10  20
BRANCH  19  30
ATOM     30  C   UNL A   1      33.316  22.306  27.353  1.00  0.00     0.430 C 
ATOM     31  F   UNL A   1      34.277  21.353  27.502  1.00  0.00    -0.167 F 
ATOM     32  F   UNL A   1      32.973  22.700  28.603  1.00  0.00    -0.167 F 
ATOM     33  F   UNL A   1      32.250  21.680  26.835  1.00  0.00    -0.167 F 
ENDBRANCH  19  30
ENDBRANCH   7   9
ENDBRANCH   6   7
ENDBRANCH   5   6
ENDBRANCH   4   5
ENDBRANCH   3   4
ENDBRANCH   2   3
ENDBRANCH   1   2
BRANCH   1  34
ATOM     34  O   UNL A   1      41.788  19.304  25.715  1.00  0.00    -0.377 OA
BRANCH  34  35
ATOM     35  C   UNL A   1      43.111  18.780  25.688  1.00  0.00     0.188 C 
BRANCH  35  36
ATOM     36  C   UNL A   1      44.195  19.353  24.745  1.00  0.00     0.188 C 
BRANCH  36  37
ATOM     37  O   UNL A   1      44.871  20.503  25.248  1.00  0.00    -0.376 OA
BRANCH  37  38
ATOM     38  C   UNL A   1      45.316  21.461  24.298  1.00  0.00     0.202 C 
BRANCH  38  39
ATOM     39  C   UNL A   1      45.664  22.823  24.911  1.00  0.00     0.261 C 
BRANCH  39  40
ATOM     40  O   UNL A   1      44.886  23.920  24.409  1.00  0.00    -0.460 OA
BRANCH  40  41
ATOM     41  C   UNL A   1      43.795  24.271  25.123  1.00  0.00     0.338 C 
ATOM     42  O   UNL A   1      42.854  23.561  25.435  1.00  0.00    -0.246 OA
BRANCH  41  43
ATOM     43  C   UNL A   1      44.012  25.634  25.642  1.00  0.00     0.060 A 
ATOM     44  C   UNL A   1      44.774  25.792  26.807  1.00  0.00     0.016 A 
ATOM     45  C   UNL A   1      43.484  26.744  24.979  1.00  0.00     0.016 A 
ATOM     46  C   UNL A   1      44.966  27.065  27.342  1.00  0.00     0.010 A 
ATOM     47  C   UNL A   1      43.661  28.017  25.525  1.00  0.00     0.010 A 
ATOM     48  C   UNL A   1      44.368  28.174  26.729  1.00  0.00    -0.014 A 
BRANCH  48  49
ATOM     49  C   UNL A   1      44.283  29.454  27.468  1.00  0.00     0.031 A 
ATOM     50  C   UNL A   1      45.443  30.405  27.362  1.00  0.00     0.074 A 
ATOM     51  C   UNL A   1      43.205  29.774  28.203  1.00  0.00     0.049 A 
ATOM     52  N   UNL A   1      45.616  31.576  27.919  1.00  0.00    -0.248 NA
ATOM     53  C   UNL A   1      46.563  29.972  26.509  1.00  0.00     0.031 C 
ATOM     54  C   UNL A   1      42.013  28.947  28.364  1.00  0.00     0.029 A 
ATOM     55  N   UNL A   1      42.950  30.890  28.962  1.00  0.00    -0.354 N 
ATOM     56  C   UNL A   1      46.859  32.018  27.483  1.00  0.00     0.074 A 
ATOM     57  C   UNL A   1      47.413  30.977  26.645  1.00  0.00     0.031 C 
ATOM     58  C   UNL A   1      41.155  29.578  29.185  1.00  0.00     0.029 A 
ATOM     59  C   UNL A   1      41.748  30.842  29.621  1.00  0.00     0.049 A 
ATOM     60  H   UNL A   1      43.570  31.653  29.025  1.00  0.00     0.167 HD
ATOM     61  C   UNL A   1      47.478  33.191  27.750  1.00  0.00     0.037 A 
ATOM     62  C   UNL A   1      41.203  31.715  30.491  1.00  0.00     0.037 A 
ATOM     63  C   UNL A   1      46.932  34.218  28.594  1.00  0.00     0.049 A 
ATOM     64  C   UNL A   1      41.941  32.988  30.823  1.00  0.00     0.074 A 
ATOM     65  C   UNL A   1      47.473  35.450  28.914  1.00  0.00     0.029 A 
ATOM     66  N   UNL A   1      45.721  34.125  29.263  1.00  0.00    -0.354 N 
ATOM     67  N   UNL A   1      43.095  33.420  30.372  1.00  0.00    -0.248 NA
ATOM     68  C   UNL A   1      41.296  33.899  31.779  1.00  0.00     0.031 C 
ATOM     69  C   UNL A   1      46.612  36.083  29.817  1.00  0.00     0.029 A 
ATOM     70  C   UNL A   1      45.509  35.268  30.016  1.00  0.00     0.049 A 
ATOM     71  H   UNL A   1      45.104  33.360  29.209  1.00  0.00     0.167 HD
ATOM     72  C   UNL A   1      43.299  34.660  30.966  1.00  0.00     0.074 A 
ATOM     73  C   UNL A   1      42.143  34.918  31.800  1.00  0.00     0.031 C 
ATOM     74  C   UNL A   1      44.347  35.510  30.833  1.00  0.00     0.037 A 
BRANCH  61  75
ATOM     75  C   UNL A   1      48.832  33.405  27.142  1.00  0.00     0.064 A 
ATOM     76  C   UNL A   1      49.000  34.155  25.968  1.00  0.00     0.173 A 
ATOM     77  C   UNL A   1      49.975  32.864  27.746  1.00  0.00     0.173 A 
ATOM     78  F   UNL A   1      47.935  34.676  25.340  1.00  0.00    -0.203 F 
ATOM     79  C   UNL A   1      50.263  34.333  25.408  1.00  0.00     0.198 A 
ATOM     80  C   UNL A   1      51.239  33.068  27.199  1.00  0.00     0.198 A 
ATOM     81  F   UNL A   1      49.868  32.138  28.869  1.00  0.00    -0.203 F 
ATOM     82  F   UNL A   1      50.395  35.011  24.258  1.00  0.00    -0.200 F 
ATOM     83  C   UNL A   1      51.381  33.795  26.027  1.00  0.00     0.200 A 
ATOM     84  F   UNL A   1      52.319  32.554  27.803  1.00  0.00    -0.200 F 
ATOM     85  F   UNL A   1      52.596  33.970  25.488  1.00  0.00    -0.200 F 
ENDBRANCH  61  75
BRANCH  62  86
ATOM     86  C   UNL A   1      39.889  31.418  31.118  1.00  0.00     0.064 A 
ATOM     87  C   UNL A   1      38.691  31.842  30.527  1.00  0.00     0.173 A 
ATOM     88  C   UNL A   1      39.806  30.729  32.337  1.00  0.00     0.173 A 
ATOM     89  F   UNL A   1      38.719  32.530  29.376  1.00  0.00    -0.203 F 
ATOM     90  C   UNL A   1      37.462  31.606  31.141  1.00  0.00     0.198 A 
ATOM     91  C   UNL A   1      38.575  30.469  32.936  1.00  0.00     0.198 A 
ATOM     92  F   UNL A   1      40.923  30.308  32.948  1.00  0.00    -0.203 F 
ATOM     93  F   UNL A   1      36.335  32.066  30.579  1.00  0.00    -0.200 F 
ATOM     94  C   UNL A   1      37.405  30.914  32.342  1.00  0.00     0.200 A 
ATOM     95  F   UNL A   1      38.524  29.795  34.093  1.00  0.00    -0.200 F 
ATOM     96  F   UNL A   1      36.223  30.689  32.932  1.00  0.00    -0.200 F 
ENDBRANCH  62  86
BRANCH  74  97
ATOM     97  C   UNL A   1      44.279  36.814  31.575  1.00  0.00     0.064 A 
ATOM     98  C   UNL A   1      44.640  36.915  32.926  1.00  0.00     0.173 A 
ATOM     99  C   UNL A   1      43.887  37.987  30.910  1.00  0.00     0.173 A 
ATOM    100  F   UNL A   1      45.010  35.822  33.609  1.00  0.00    -0.203 F 
ATOM    101  C   UNL A   1      44.586  38.137  33.591  1.00  0.00     0.198 A 
ATOM    102  C   UNL A   1      43.864  39.212  31.570  1.00  0.00     0.198 A 
ATOM    103  F   UNL A   1      43.540  37.947  29.615  1.00  0.00    -0.203 F 
ATOM    104  F   UNL A   1      44.892  38.202  34.895  1.00  0.00    -0.200 F 
ATOM    105  C   UNL A   1      44.206  39.286  32.912  1.00  0.00     0.200 A 
ATOM    106  F   UNL A   1      43.510  40.323  30.907  1.00  0.00    -0.200 F 
ATOM    107  F   UNL A   1      44.163  40.461  33.552  1.00  0.00    -0.200 F 
ENDBRANCH  74  97
ENDBRANCH  48  49
ENDBRANCH  41  43
ENDBRANCH  40  41
ENDBRANCH  39  40
ENDBRANCH  38  39
ENDBRANCH  37  38
ENDBRANCH  36  37
ENDBRANCH  35  36
ENDBRANCH  34  35
ENDBRANCH   1  34
TORSDOF 24
ENDMDL
MODEL 2
REMARK VINA RESULT:     -10.2      0.697      6.706
REMARK SMILES CC(C)Cc1ccc(-c2cc(Cl)cc3c2O[C@@H](C(F)(F)F)C(C(=O)OCCOCCOCCOCCOC(=O)c2ccc(-c4c5nc(c(-c6c(F)c(F)c(F)c(F)c6F)c6ccc([nH]6)c(-c6c(F)c(F)c(F)c(F)c6F)c6nc(c(-c7c(F)c(F)c(F)c(F)c7F)c7ccc4[nH]7)C=C6)C=C5)cc2)=C3)cc1
REMARK SMILES IDX 30 1 29 2 28 3 27 4 26 5 25 6 23 7 24 8 22 9 9 10 10 11
REMARK SMILES IDX 15 12 11 13 14 14 16 15 12 16 13 17 103 18 17 19 8 20 5 21
REMARK SMILES IDX 6 22 105 23 7 24 104 25 4 26 2 27 1 28 3 29 18 30 19 31
REMARK SMILES IDX 20 32 21 33 31 34 32 35 33 36 34 37 35 38 36 39 37 40 38 41
REMARK SMILES IDX 39 42 40 43 41 44 102 45 42 46 101 47 43 48 44 49 45 50
REMARK SMILES IDX 95 51 46 52 100 53 94 54 96 55 47 56 99 57 93 58 92 59 48 61
REMARK SMILES IDX 80 62 60 63 79 64 61 65 64 66 78 67 97 68 62 69 63 70 77 72
REMARK SMILES IDX 98 73 65 74 49 75 50 76 58 77 51 78 52 79 56 80 59 81 53 82
REMARK SMILES IDX 54 83 57 84 55 85 81 86 82 87 90 88 83 89 84 90 88 91 91 92
REMARK SMILES IDX 85 93 86 94 89 95 87 96 66 97 67 98 75 99 68 100 69 101
REMARK SMILES IDX 73 102 76 103 70 104 71 105 74 106 72 107
REMARK H PARENT 96 60 64 71
REMARK Flexibility Score: inf
ROOT
ATOM      1  C   UNL A   1      41.752  20.586  26.139  1.00  0.00     0.188 C 
ENDROOT
BRANCH   1   2
ATOM      2  C   UNL A   1      40.334  20.867  26.651  1.00  0.00     0.188 C 
BRANCH   2   3
ATOM      3  O   UNL A   1      39.305  20.497  25.736  1.00  0.00    -0.376 OA
BRANCH   3   4
ATOM      4  C   UNL A   1      38.351  21.496  25.380  1.00  0.00     0.202 C 
BRANCH   4   5
ATOM      5  C   UNL A   1      36.873  21.086  25.395  1.00  0.00     0.261 C 
BRANCH   5   6
ATOM      6  O   UNL A   1      36.189  21.639  24.249  1.00  0.00    -0.460 OA
BRANCH   6   7
ATOM      7  C   UNL A   1      34.932  22.062  24.466  1.00  0.00     0.338 C 
ATOM      8  O   UNL A   1      33.924  21.485  24.077  1.00  0.00    -0.246 OA
BRANCH   7   9
ATOM      9  C   UNL A   1      34.873  23.214  25.400  1.00  0.00     0.087 C 
ATOM     10  C   UNL A   1      32.006  26.083  24.523  1.00  0.00     0.026 A 
ATOM     11  C   UNL A   1      31.811  26.079  23.123  1.00  0.00     0.033 A 
ATOM     12  C   UNL A   1      33.024  25.236  25.006  1.00  0.00     0.135 A 
ATOM     13  C   UNL A   1      32.774  25.547  22.266  1.00  0.00     0.042 A 
ATOM     14  C   UNL A   1      34.094  24.918  24.157  1.00  0.00     0.019 A 
ATOM     15  O   UNL A   1      32.867  24.536  26.198  1.00  0.00    -0.475 OA
ATOM     16  Cl  UNL A   1      32.519  25.579  20.568  1.00  0.00    -0.084 Cl
ATOM     17  C   UNL A   1      33.969  25.063  22.779  1.00  0.00     0.032 A 
ATOM     18  C   UNL A   1      35.302  24.312  24.754  1.00  0.00     0.027 C 
ATOM     19  C   UNL A   1      33.878  23.483  26.516  1.00  0.00     0.316 C 
BRANCH  10  20
ATOM     20  C   UNL A   1      31.618  27.373  25.187  1.00  0.00    -0.015 A 
ATOM     21  C   UNL A   1      31.875  29.891  26.531  1.00  0.00    -0.048 A 
ATOM     22  C   UNL A   1      31.694  29.831  25.144  1.00  0.00     0.004 A 
ATOM     23  C   UNL A   1      31.833  28.695  27.252  1.00  0.00     0.004 A 
ATOM     24  C   UNL A   1      31.563  28.593  24.484  1.00  0.00     0.009 A 
ATOM     25  C   UNL A   1      31.695  27.462  26.592  1.00  0.00     0.009 A 
BRANCH  21  26
ATOM     26  C   UNL A   1      32.149  31.206  27.233  1.00  0.00     0.038 C 
BRANCH  26  27
ATOM     27  C   UNL A   1      33.527  31.284  27.915  1.00  0.00    -0.013 C 
ATOM     28  C   UNL A   1      34.578  30.455  27.173  1.00  0.00     0.008 C 
ATOM     29  C   UNL A   1      34.001  32.739  28.001  1.00  0.00     0.008 C 
ENDBRANCH  26  27
ENDBRANCH  21  26
ENDBRANCH  10  20
BRANCH  19  30
ATOM     30  C   UNL A   1      33.347  22.269  27.321  1.00  0.00     0.430 C 
ATOM     31  F   UNL A   1      34.354  21.370  27.499  1.00  0.00    -0.167 F 
ATOM     32  F   UNL A   1      32.940  22.637  28.559  1.00  0.00    -0.167 F 
ATOM     33  F   UNL A   1      32.336  21.589  26.763  1.00  0.00    -0.167 F 
ENDBRANCH  19  30
ENDBRANCH   7   9
ENDBRANCH   6   7
ENDBRANCH   5   6
ENDBRANCH   4   5
ENDBRANCH   3   4
ENDBRANCH   2   3
ENDBRANCH   1   2
BRANCH   1  34
ATOM     34  O   UNL A   1      41.899  19.283  25.606  1.00  0.00    -0.377 OA
BRANCH  34  35
ATOM     35  C   UNL A   1      43.167  18.653  25.751  1.00  0.00     0.188 C 
BRANCH  35  36
ATOM     36  C   UNL A   1      44.383  19.061  24.887  1.00  0.00     0.188 C 
BRANCH  36  37
ATOM     37  O   UNL A   1      44.874  20.376  25.136  1.00  0.00    -0.376 OA
BRANCH  37  38
ATOM     38  C   UNL A   1      44.902  21.277  24.039  1.00  0.00     0.202 C 
BRANCH  38  39
ATOM     39  C   UNL A   1      44.315  22.657  24.358  1.00  0.00     0.261 C 
BRANCH  39  40
ATOM     40  O   UNL A   1      44.952  23.340  25.448  1.00  0.00    -0.460 OA
BRANCH  40  41
ATOM     41  C   UNL A   1      45.841  24.303  25.127  1.00  0.00     0.338 C 
ATOM     42  O   UNL A   1      46.718  24.251  24.282  1.00  0.00    -0.246 OA
BRANCH  41  43
ATOM     43  C   UNL A   1      45.457  25.533  25.846  1.00  0.00     0.060 A 
ATOM     44  C   UNL A   1      44.696  26.493  25.169  1.00  0.00     0.016 A 
ATOM     45  C   UNL A   1      45.831  25.728  27.178  1.00  0.00     0.016 A 
ATOM     46  C   UNL A   1      44.348  27.681  25.810  1.00  0.00     0.010 A 
ATOM     47  C   UNL A   1      45.498  26.926  27.814  1.00  0.00     0.010 A 
ATOM     48  C   UNL A   1      44.792  27.920  27.117  1.00  0.00    -0.014 A 
BRANCH  48  49
ATOM     49  C   UNL A   1      44.720  29.293  27.668  1.00  0.00     0.031 A 
ATOM     50  C   UNL A   1      43.473  29.688  28.410  1.00  0.00     0.074 A 
ATOM     51  C   UNL A   1      45.734  30.162  27.529  1.00  0.00     0.049 A 
ATOM     52  N   UNL A   1      43.162  30.828  28.972  1.00  0.00    -0.248 NA
ATOM     53  C   UNL A   1      42.433  28.653  28.530  1.00  0.00     0.031 C 
ATOM     54  C   UNL A   1      46.999  29.888  26.853  1.00  0.00     0.029 A 
ATOM     55  N   UNL A   1      45.849  31.465  27.950  1.00  0.00    -0.354 N 
ATOM     56  C   UNL A   1      41.897  30.645  29.513  1.00  0.00     0.074 A 
ATOM     57  C   UNL A   1      41.480  29.300  29.183  1.00  0.00     0.031 C 
ATOM     58  C   UNL A   1      47.760  30.997  26.891  1.00  0.00     0.029 A 
ATOM     59  C   UNL A   1      47.027  32.060  27.576  1.00  0.00     0.049 A 
ATOM     60  H   UNL A   1      45.152  31.926  28.471  1.00  0.00     0.167 HD
ATOM     61  C   UNL A   1      41.151  31.518  30.230  1.00  0.00     0.037 A 
ATOM     62  C   UNL A   1      47.450  33.327  27.756  1.00  0.00     0.037 A 
ATOM     63  C   UNL A   1      41.561  32.859  30.546  1.00  0.00     0.049 A 
ATOM     64  C   UNL A   1      46.574  34.301  28.503  1.00  0.00     0.074 A 
ATOM     65  C   UNL A   1      40.886  33.816  31.281  1.00  0.00     0.029 A 
ATOM     66  N   UNL A   1      42.752  33.435  30.133  1.00  0.00    -0.354 N 
ATOM     67  N   UNL A   1      45.398  34.109  29.051  1.00  0.00    -0.248 NA
ATOM     68  C   UNL A   1      47.091  35.668  28.664  1.00  0.00     0.031 C 
ATOM     69  C   UNL A   1      41.647  34.990  31.271  1.00  0.00     0.029 A 
ATOM     70  C   UNL A   1      42.821  34.746  30.575  1.00  0.00     0.049 A 
ATOM     71  H   UNL A   1      43.446  32.980  29.603  1.00  0.00     0.167 HD
ATOM     72  C   UNL A   1      45.049  35.317  29.644  1.00  0.00     0.074 A 
ATOM     73  C   UNL A   1      46.144  36.233  29.400  1.00  0.00     0.031 C 
ATOM     74  C   UNL A   1      43.924  35.640  30.329  1.00  0.00     0.037 A 
BRANCH  61  75
ATOM     75  C   UNL A   1      39.804  31.050  30.693  1.00  0.00     0.064 A 
ATOM     76  C   UNL A   1      38.624  31.452  30.049  1.00  0.00     0.173 A 
ATOM     77  C   UNL A   1      39.693  30.180  31.787  1.00  0.00     0.173 A 
ATOM     78  F   UNL A   1      38.676  32.299  29.011  1.00  0.00    -0.203 F 
ATOM     79  C   UNL A   1      37.380  31.019  30.500  1.00  0.00     0.198 A 
ATOM     80  C   UNL A   1      38.449  29.726  32.218  1.00  0.00     0.198 A 
ATOM     81  F   UNL A   1      40.790  29.768  32.439  1.00  0.00    -0.203 F 
ATOM     82  F   UNL A   1      36.263  31.455  29.901  1.00  0.00    -0.200 F 
ATOM     83  C   UNL A   1      37.294  30.152  31.580  1.00  0.00     0.200 A 
ATOM     84  F   UNL A   1      38.368  28.883  33.256  1.00  0.00    -0.200 F 
ATOM     85  F   UNL A   1      36.096  29.734  32.011  1.00  0.00    -0.200 F 
ENDBRANCH  61  75
BRANCH  62  86
ATOM     86  C   UNL A   1      48.766  33.755  27.214  1.00  0.00     0.064 A 
ATOM     87  C   UNL A   1      48.862  34.419  25.983  1.00  0.00     0.173 A 
ATOM     88  C   UNL A   1      49.957  33.484  27.902  1.00  0.00     0.173 A 
ATOM     89  F   UNL A   1      47.753  34.675  25.272  1.00  0.00    -0.203 F 
ATOM     90  C   UNL A   1      50.100  34.776  25.452  1.00  0.00     0.198 A 
ATOM     91  C   UNL A   1      51.192  33.867  27.384  1.00  0.00     0.198 A 
ATOM     92  F   UNL A   1      49.921  32.846  29.082  1.00  0.00    -0.203 F 
ATOM     93  F   UNL A   1      50.167  35.364  24.249  1.00  0.00    -0.200 F 
ATOM     94  C   UNL A   1      51.264  34.505  26.156  1.00  0.00     0.200 A 
ATOM     95  F   UNL A   1      52.314  33.610  28.071  1.00  0.00    -0.200 F 
ATOM     96  F   UNL A   1      52.454  34.848  25.645  1.00  0.00    -0.200 F 
ENDBRANCH  62  86
BRANCH  74  97
ATOM     97  C   UNL A   1      43.834  37.027  30.897  1.00  0.00     0.064 A 
ATOM     98  C   UNL A   1      44.170  37.303  32.230  1.00  0.00     0.173 A 
ATOM     99  C   UNL A   1      43.447  38.102  30.082  1.00  0.00     0.173 A 
ATOM    100  F   UNL A   1      44.534  36.309  33.053  1.00  0.00    -0.203 F 
ATOM    101  C   UNL A   1      44.096  38.599  32.733  1.00  0.00     0.198 A 
ATOM    102  C   UNL A   1      43.404  39.402  30.579  1.00  0.00     0.198 A 
ATOM    103  F   UNL A   1      43.124  37.894  28.796  1.00  0.00    -0.203 F 
ATOM    104  F   UNL A   1      44.377  38.832  34.023  1.00  0.00    -0.200 F 
ATOM    105  C   UNL A   1      43.721  39.648  31.906  1.00  0.00     0.200 A 
ATOM    106  F   UNL A   1      43.056  40.415  29.774  1.00  0.00    -0.200 F 
ATOM    107  F   UNL A   1      43.659  40.895  32.391  1.00  0.00    -0.200 F 
ENDBRANCH  74  97
ENDBRANCH  48  49
ENDBRANCH  41  43
ENDBRANCH  40  41
ENDBRANCH  39  40
ENDBRANCH  38  39
ENDBRANCH  37  38
ENDBRANCH  36  37
ENDBRANCH  35  36
ENDBRANCH  34  35
ENDBRANCH   1  34
TORSDOF 24
ENDMDL
MODEL 3
REMARK VINA RESULT:     -10.2      4.114     10.117
REMARK SMILES CC(C)Cc1ccc(-c2cc(Cl)cc3c2O[C@@H](C(F)(F)F)C(C(=O)OCCOCCOCCOCCOC(=O)c2ccc(-c4c5nc(c(-c6c(F)c(F)c(F)c(F)c6F)c6ccc([nH]6)c(-c6c(F)c(F)c(F)c(F)c6F)c6nc(c(-c7c(F)c(F)c(F)c(F)c7F)c7ccc4[nH]7)C=C6)C=C5)cc2)=C3)cc1
REMARK SMILES IDX 30 1 29 2 28 3 27 4 26 5 25 6 23 7 24 8 22 9 9 10 10 11
REMARK SMILES IDX 15 12 11 13 14 14 16 15 12 16 13 17 103 18 17 19 8 20 5 21
REMARK SMILES IDX 6 22 105 23 7 24 104 25 4 26 2 27 1 28 3 29 18 30 19 31
REMARK SMILES IDX 20 32 21 33 31 34 32 35 33 36 34 37 35 38 36 39 37 40 38 41
REMARK SMILES IDX 39 42 40 43 41 44 102 45 42 46 101 47 43 48 44 49 45 50
REMARK SMILES IDX 95 51 46 52 100 53 94 54 96 55 47 56 99 57 93 58 92 59 48 61
REMARK SMILES IDX 80 62 60 63 79 64 61 65 64 66 78 67 97 68 62 69 63 70 77 72
REMARK SMILES IDX 98 73 65 74 49 75 50 76 58 77 51 78 52 79 56 80 59 81 53 82
REMARK SMILES IDX 54 83 57 84 55 85 81 86 82 87 90 88 83 89 84 90 88 91 91 92
REMARK SMILES IDX 85 93 86 94 89 95 87 96 66 97 67 98 75 99 68 100 69 101
REMARK SMILES IDX 73 102 76 103 70 104 71 105 74 106 72 107
REMARK H PARENT 96 60 64 71
REMARK Flexibility Score: inf
ROOT
ATOM      1  C   UNL A   1      36.647  29.851  29.374  1.00  0.00     0.188 C 
ENDROOT
BRANCH   1   2
ATOM      2  C   UNL A   1      36.261  30.276  27.952  1.00  0.00     0.188 C 
BRANCH   2   3
ATOM      3  O   UNL A   1      35.365  29.376  27.304  1.00  0.00    -0.376 OA
BRANCH   3   4
ATOM      4  C   UNL A   1      34.043  29.840  27.039  1.00  0.00     0.202 C 
BRANCH   4   5
ATOM      5  C   UNL A   1      33.296  29.189  25.869  1.00  0.00     0.261 C 
BRANCH   5   6
ATOM      6  O   UNL A   1      32.349  28.213  26.361  1.00  0.00    -0.460 OA
BRANCH   6   7
ATOM      7  C   UNL A   1      31.910  27.319  25.459  1.00  0.00     0.338 C 
ATOM      8  O   UNL A   1      30.799  27.335  24.945  1.00  0.00    -0.246 OA
BRANCH   7   9
ATOM      9  C   UNL A   1      32.982  26.404  24.996  1.00  0.00     0.087 C 
ATOM     10  C   UNL A   1      31.838  22.458  24.412  1.00  0.00     0.026 A 
ATOM     11  C   UNL A   1      30.777  22.183  25.304  1.00  0.00     0.033 A 
ATOM     12  C   UNL A   1      32.432  23.731  24.532  1.00  0.00     0.135 A 
ATOM     13  C   UNL A   1      30.568  22.972  26.434  1.00  0.00     0.042 A 
ATOM     14  C   UNL A   1      32.383  24.381  25.774  1.00  0.00     0.019 A 
ATOM     15  O   UNL A   1      32.844  24.438  23.407  1.00  0.00    -0.475 OA
ATOM     16  Cl  UNL A   1      29.285  22.598  27.512  1.00  0.00    -0.084 Cl
ATOM     17  C   UNL A   1      31.441  24.010  26.729  1.00  0.00     0.032 A 
ATOM     18  C   UNL A   1      33.270  25.543  25.988  1.00  0.00     0.027 C 
ATOM     19  C   UNL A   1      33.236  25.866  23.598  1.00  0.00     0.316 C 
BRANCH  10  20
ATOM     20  C   UNL A   1      32.586  21.235  23.962  1.00  0.00    -0.015 A 
ATOM     21  C   UNL A   1      33.381  18.489  23.763  1.00  0.00    -0.048 A 
ATOM     22  C   UNL A   1      32.501  19.053  22.832  1.00  0.00     0.004 A 
ATOM     23  C   UNL A   1      33.932  19.326  24.736  1.00  0.00     0.004 A 
ATOM     24  C   UNL A   1      32.114  20.405  22.927  1.00  0.00     0.009 A 
ATOM     25  C   UNL A   1      33.551  20.675  24.825  1.00  0.00     0.009 A 
BRANCH  21  26
ATOM     26  C   UNL A   1      33.698  17.007  23.749  1.00  0.00     0.038 C 
BRANCH  26  27
ATOM     27  C   UNL A   1      33.829  16.374  25.146  1.00  0.00    -0.013 C 
ATOM     28  C   UNL A   1      32.814  15.248  25.358  1.00  0.00     0.008 C 
ATOM     29  C   UNL A   1      35.244  15.823  25.355  1.00  0.00     0.008 C 
ENDBRANCH  26  27
ENDBRANCH  21  26
ENDBRANCH  10  20
BRANCH  19  30
ATOM     30  C   UNL A   1      32.945  26.804  22.398  1.00  0.00     0.430 C 
ATOM     31  F   UNL A   1      33.531  28.013  22.618  1.00  0.00    -0.167 F 
ATOM     32  F   UNL A   1      33.483  26.322  21.252  1.00  0.00    -0.167 F 
ATOM     33  F   UNL A   1      31.653  27.058  22.148  1.00  0.00    -0.167 F 
ENDBRANCH  19  30
ENDBRANCH   7   9
ENDBRANCH   6   7
ENDBRANCH   5   6
ENDBRANCH   4   5
ENDBRANCH   3   4
ENDBRANCH   2   3
ENDBRANCH   1   2
BRANCH   1  34
ATOM     34  O   UNL A   1      38.047  29.799  29.574  1.00  0.00    -0.377 OA
BRANCH  34  35
ATOM     35  C   UNL A   1      38.792  28.886  28.776  1.00  0.00     0.188 C 
BRANCH  35  36
ATOM     36  C   UNL A   1      39.236  27.506  29.316  1.00  0.00     0.188 C 
BRANCH  36  37
ATOM     37  O   UNL A   1      40.568  27.134  28.969  1.00  0.00    -0.376 OA
BRANCH  37  38
ATOM     38  C   UNL A   1      40.722  26.107  28.000  1.00  0.00     0.202 C 
BRANCH  38  39
ATOM     39  C   UNL A   1      42.085  25.405  28.056  1.00  0.00     0.261 C 
BRANCH  39  40
ATOM     40  O   UNL A   1      42.460  24.732  26.845  1.00  0.00    -0.460 OA
BRANCH  40  41
ATOM     41  C   UNL A   1      43.613  24.031  26.869  1.00  0.00     0.338 C 
ATOM     42  O   UNL A   1      43.744  22.820  26.916  1.00  0.00    -0.246 OA
BRANCH  41  43
ATOM     43  C   UNL A   1      44.722  24.974  26.633  1.00  0.00     0.060 A 
ATOM     44  C   UNL A   1      45.635  25.206  27.669  1.00  0.00     0.016 A 
ATOM     45  C   UNL A   1      44.868  25.610  25.397  1.00  0.00     0.016 A 
ATOM     46  C   UNL A   1      46.673  26.120  27.487  1.00  0.00     0.010 A 
ATOM     47  C   UNL A   1      45.896  26.539  25.222  1.00  0.00     0.010 A 
ATOM     48  C   UNL A   1      46.775  26.824  26.280  1.00  0.00    -0.014 A 
BRANCH  48  49
ATOM     49  C   UNL A   1      47.648  28.018  26.209  1.00  0.00     0.031 A 
ATOM     50  C   UNL A   1      47.020  29.363  26.454  1.00  0.00     0.074 A 
ATOM     51  C   UNL A   1      48.961  27.917  25.949  1.00  0.00     0.049 A 
ATOM     52  N   UNL A   1      47.563  30.553  26.436  1.00  0.00    -0.248 NA
ATOM     53  C   UNL A   1      45.580  29.362  26.758  1.00  0.00     0.031 C 
ATOM     54  C   UNL A   1      49.686  26.671  25.718  1.00  0.00     0.029 A 
ATOM     55  N   UNL A   1      49.919  28.894  25.828  1.00  0.00    -0.354 N 
ATOM     56  C   UNL A   1      46.534  31.438  26.729  1.00  0.00     0.074 A 
ATOM     57  C   UNL A   1      45.328  30.655  26.884  1.00  0.00     0.031 C 
ATOM     58  C   UNL A   1      50.976  26.959  25.467  1.00  0.00     0.029 A 
ATOM     59  C   UNL A   1      51.160  28.409  25.501  1.00  0.00     0.049 A 
ATOM     60  H   UNL A   1      49.732  29.852  25.963  1.00  0.00     0.167 HD
ATOM     61  C   UNL A   1      46.591  32.783  26.865  1.00  0.00     0.037 A 
ATOM     62  C   UNL A   1      52.306  29.070  25.244  1.00  0.00     0.037 A 
ATOM     63  C   UNL A   1      47.788  33.561  26.696  1.00  0.00     0.049 A 
ATOM     64  C   UNL A   1      52.330  30.575  25.340  1.00  0.00     0.074 A 
ATOM     65  C   UNL A   1      47.955  34.928  26.830  1.00  0.00     0.029 A 
ATOM     66  N   UNL A   1      49.023  33.038  26.345  1.00  0.00    -0.354 N 
ATOM     67  N   UNL A   1      51.364  31.403  25.661  1.00  0.00    -0.248 NA
ATOM     68  C   UNL A   1      53.610  31.237  25.045  1.00  0.00     0.031 C 
ATOM     69  C   UNL A   1      49.281  35.238  26.510  1.00  0.00     0.029 A 
ATOM     70  C   UNL A   1      49.953  34.058  26.231  1.00  0.00     0.049 A 
ATOM     71  H   UNL A   1      49.211  32.082  26.199  1.00  0.00     0.167 HD
ATOM     72  C   UNL A   1      51.924  32.675  25.635  1.00  0.00     0.074 A 
ATOM     73  C   UNL A   1      53.318  32.509  25.279  1.00  0.00     0.031 C 
ATOM     74  C   UNL A   1      51.339  33.872  25.883  1.00  0.00     0.037 A 
BRANCH  61  75
ATOM     75  C   UNL A   1      45.311  33.495  27.185  1.00  0.00     0.064 A 
ATOM     76  C   UNL A   1      44.848  33.620  28.504  1.00  0.00     0.173 A 
ATOM     77  C   UNL A   1      44.544  34.069  26.162  1.00  0.00     0.173 A 
ATOM     78  F   UNL A   1      45.536  33.071  29.516  1.00  0.00    -0.203 F 
ATOM     79  C   UNL A   1      43.650  34.272  28.783  1.00  0.00     0.198 A 
ATOM     80  C   UNL A   1      43.360  34.745  26.447  1.00  0.00     0.198 A 
ATOM     81  F   UNL A   1      44.940  33.975  24.884  1.00  0.00    -0.203 F 
ATOM     82  F   UNL A   1      43.202  34.337  30.045  1.00  0.00    -0.200 F 
ATOM     83  C   UNL A   1      42.911  34.839  27.755  1.00  0.00     0.200 A 
ATOM     84  F   UNL A   1      42.651  35.299  25.454  1.00  0.00    -0.200 F 
ATOM     85  F   UNL A   1      41.759  35.469  28.026  1.00  0.00    -0.200 F 
ENDBRANCH  61  75
BRANCH  62  86
ATOM     86  C   UNL A   1      53.529  28.317  24.862  1.00  0.00     0.064 A 
ATOM     87  C   UNL A   1      54.445  27.885  25.831  1.00  0.00     0.173 A 
ATOM     88  C   UNL A   1      53.820  28.039  23.519  1.00  0.00     0.173 A 
ATOM     89  F   UNL A   1      54.226  28.153  27.127  1.00  0.00    -0.203 F 
ATOM     90  C   UNL A   1      55.616  27.221  25.469  1.00  0.00     0.198 A 
ATOM     91  C   UNL A   1      54.978  27.351  23.160  1.00  0.00     0.198 A 
ATOM     92  F   UNL A   1      52.979  28.436  22.553  1.00  0.00    -0.203 F 
ATOM     93  F   UNL A   1      56.500  26.864  26.411  1.00  0.00    -0.200 F 
ATOM     94  C   UNL A   1      55.879  26.950  24.134  1.00  0.00     0.200 A 
ATOM     95  F   UNL A   1      55.224  27.084  21.870  1.00  0.00    -0.200 F 
ATOM     96  F   UNL A   1      57.005  26.313  23.787  1.00  0.00    -0.200 F 
ENDBRANCH  62  86
BRANCH  74  97
ATOM     97  C   UNL A   1      52.208  35.095  25.817  1.00  0.00     0.064 A 
ATOM     98  C   UNL A   1      52.410  35.793  24.618  1.00  0.00     0.173 A 
ATOM     99  C   UNL A   1      52.812  35.598  26.980  1.00  0.00     0.173 A 
ATOM    100  F   UNL A   1      51.864  35.347  23.477  1.00  0.00    -0.203 F 
ATOM    101  C   UNL A   1      53.206  36.935  24.580  1.00  0.00     0.198 A 
ATOM    102  C   UNL A   1      53.582  36.757  26.945  1.00  0.00     0.198 A 
ATOM    103  F   UNL A   1      52.644  34.973  28.155  1.00  0.00    -0.203 F 
ATOM    104  F   UNL A   1      53.423  37.560  23.415  1.00  0.00    -0.200 F 
ATOM    105  C   UNL A   1      53.785  37.421  25.744  1.00  0.00     0.200 A 
ATOM    106  F   UNL A   1      54.128  37.232  28.073  1.00  0.00    -0.200 F 
ATOM    107  F   UNL A   1      54.544  38.524  25.706  1.00  0.00    -0.200 F 
ENDBRANCH  74  97
ENDBRANCH  48  49
ENDBRANCH  41  43
ENDBRANCH  40  41
ENDBRANCH  39  40
ENDBRANCH  38  39
ENDBRANCH  37  38
ENDBRANCH  36  37
ENDBRANCH  35  36
ENDBRANCH  34  35
ENDBRANCH   1  34
TORSDOF 24
ENDMDL
