MODEL 1
REMARK VINA RESULT:     -10.2      0.000      0.000
REMARK SMILES Cn1cc(S(=O)(=O)N[C@@H]2C=C[C@@H](C(=O)OCCOCCOCCOCCOC(=O)c3ccc(-c4c5nc(c(-c6c(F)c(F)c(F)c(F)c6F)c6ccc([nH]6)c(-c6c(F)c(F)c(F)c(F)c6F)c6nc(c(-c7c(F)c(F)c(F)c(F)c7F)c7ccc4[nH]7)C=C6)C=C5)cc3)C2)cc1C(N)=O
REMARK SMILES IDX 20 1 19 2 18 3 17 4 16 5 15 6 13 7 14 8 12 9 9 10 10 11
REMARK SMILES IDX 93 12 11 13 8 14 5 16 6 17 7 18 4 19 1 20 2 21 3 22 95 23
REMARK SMILES IDX 94 24 96 25 97 26 98 27 21 30 22 31 23 32 24 33 25 34 26 35
REMARK SMILES IDX 27 36 28 37 29 38 30 39 31 40 92 41 32 42 91 43 33 44 34 45
REMARK SMILES IDX 35 46 85 47 36 48 90 49 84 50 86 51 37 52 89 53 83 54 82 55
REMARK SMILES IDX 38 57 70 58 50 59 69 60 51 61 54 62 68 63 87 64 52 65 53 66
REMARK SMILES IDX 67 68 88 69 55 70 39 71 40 72 48 73 41 74 42 75 46 76 49 77
REMARK SMILES IDX 43 78 44 79 47 80 45 81 71 82 72 83 80 84 73 85 74 86 78 87
REMARK SMILES IDX 81 88 75 89 76 90 79 91 77 92 56 93 57 94 65 95 58 96 59 97
REMARK SMILES IDX 63 98 66 99 60 100 61 101 64 102 62 103
REMARK H PARENT 8 15 97 28 97 29 86 56 54 67
REMARK Flexibility Score: inf
ROOT
ATOM      1  C   UNL A   1      34.608  29.568  27.335  1.00  0.00     0.188 C 
ENDROOT
BRANCH   1   2
ATOM      2  C   UNL A   1      33.277  29.312  26.611  1.00  0.00     0.188 C 
BRANCH   2   3
ATOM      3  O   UNL A   1      32.077  29.244  27.370  1.00  0.00    -0.376 OA
BRANCH   3   4
ATOM      4  C   UNL A   1      31.364  28.009  27.442  1.00  0.00     0.202 C 
BRANCH   4   5
ATOM      5  C   UNL A   1      31.859  26.822  26.606  1.00  0.00     0.261 C 
BRANCH   5   6
ATOM      6  O   UNL A   1      31.074  25.625  26.781  1.00  0.00    -0.463 OA
BRANCH   6   7
ATOM      7  C   UNL A   1      31.716  24.454  26.563  1.00  0.00     0.312 C 
ATOM      8  O   UNL A   1      32.135  23.712  27.448  1.00  0.00    -0.252 OA
BRANCH   7   9
ATOM      9  C   UNL A   1      31.959  24.132  25.099  1.00  0.00     0.123 C 
ATOM     10  C   UNL A   1      33.431  23.567  23.248  1.00  0.00     0.093 C 
ATOM     11  C   UNL A   1      32.853  22.348  23.888  1.00  0.00    -0.011 C 
ATOM     12  C   UNL A   1      33.238  24.587  24.386  1.00  0.00     0.043 C 
ATOM     13  C   UNL A   1      32.036  22.648  24.906  1.00  0.00    -0.015 C 
BRANCH  10  14
ATOM     14  N   UNL A   1      32.638  24.034  22.095  1.00  0.00    -0.204 NA
ATOM     15  H   UNL A   1      32.891  23.440  21.306  1.00  0.00     0.142 HD
BRANCH  14  16
ATOM     16  S   UNL A   1      32.769  25.628  21.564  1.00  0.00     0.242 S 
ATOM     17  O   UNL A   1      32.330  25.684  20.189  1.00  0.00    -0.207 OA
ATOM     18  O   UNL A   1      34.070  26.094  21.985  1.00  0.00    -0.207 OA
BRANCH  16  19
ATOM     19  C   UNL A   1      31.656  26.591  22.460  1.00  0.00     0.100 A 
ATOM     20  C   UNL A   1      30.489  29.644  23.986  1.00  0.00     0.150 C 
ATOM     21  N   UNL A   1      30.643  28.317  23.425  1.00  0.00    -0.345 N 
ATOM     22  C   UNL A   1      31.846  27.871  22.925  1.00  0.00     0.107 A 
ATOM     23  C   UNL A   1      29.660  27.355  23.239  1.00  0.00     0.107 A 
ATOM     24  C   UNL A   1      30.326  26.225  22.771  1.00  0.00     0.055 A 
BRANCH  23  25
ATOM     25  C   UNL A   1      28.237  27.531  23.465  1.00  0.00     0.265 C 
ATOM     26  N   UNL A   1      27.593  26.468  24.033  1.00  0.00    -0.364 N 
ATOM     27  O   UNL A   1      27.585  28.520  23.149  1.00  0.00    -0.268 OA
ATOM     28  H   UNL A   1      28.101  25.666  24.293  1.00  0.00     0.160 HD
ATOM     29  H   UNL A   1      26.620  26.503  24.181  1.00  0.00     0.160 HD
ENDBRANCH  23  25
ENDBRANCH  16  19
ENDBRANCH  14  16
ENDBRANCH  10  14
ENDBRANCH   7   9
ENDBRANCH   6   7
ENDBRANCH   5   6
ENDBRANCH   4   5
ENDBRANCH   3   4
ENDBRANCH   2   3
ENDBRANCH   1   2
BRANCH   1  30
ATOM     30  O   UNL A   1      34.993  30.929  27.389  1.00  0.00    -0.377 OA
BRANCH  30  31
ATOM     31  C   UNL A   1      34.119  31.804  28.098  1.00  0.00     0.188 C 
BRANCH  31  32
ATOM     32  C   UNL A   1      34.739  32.702  29.183  1.00  0.00     0.188 C 
BRANCH  32  33
ATOM     33  O   UNL A   1      34.488  34.090  28.958  1.00  0.00    -0.376 OA
BRANCH  33  34
ATOM     34  C   UNL A   1      33.129  34.515  29.059  1.00  0.00     0.202 C 
BRANCH  34  35
ATOM     35  C   UNL A   1      32.943  35.987  29.464  1.00  0.00     0.261 C 
BRANCH  35  36
ATOM     36  O   UNL A   1      33.393  36.324  30.791  1.00  0.00    -0.460 OA
BRANCH  36  37
ATOM     37  C   UNL A   1      32.941  35.577  31.819  1.00  0.00     0.338 C 
ATOM     38  O   UNL A   1      31.784  35.345  32.114  1.00  0.00    -0.246 OA
BRANCH  37  39
ATOM     39  C   UNL A   1      34.102  34.910  32.439  1.00  0.00     0.060 A 
ATOM     40  C   UNL A   1      35.362  35.511  32.320  1.00  0.00     0.016 A 
ATOM     41  C   UNL A   1      33.958  33.691  33.107  1.00  0.00     0.016 A 
ATOM     42  C   UNL A   1      36.491  34.870  32.830  1.00  0.00     0.010 A 
ATOM     43  C   UNL A   1      35.091  33.041  33.601  1.00  0.00     0.010 A 
ATOM     44  C   UNL A   1      36.366  33.611  33.432  1.00  0.00    -0.014 A 
BRANCH  44  45
ATOM     45  C   UNL A   1      37.572  32.793  33.701  1.00  0.00     0.031 A 
ATOM     46  C   UNL A   1      38.339  33.053  34.967  1.00  0.00     0.074 A 
ATOM     47  C   UNL A   1      37.986  31.849  32.841  1.00  0.00     0.049 A 
ATOM     48  N   UNL A   1      39.456  32.519  35.389  1.00  0.00    -0.248 NA
ATOM     49  C   UNL A   1      37.767  34.055  35.882  1.00  0.00     0.031 C 
ATOM     50  C   UNL A   1      37.311  31.479  31.599  1.00  0.00     0.029 A 
ATOM     51  N   UNL A   1      39.092  31.036  32.879  1.00  0.00    -0.354 N 
ATOM     52  C   UNL A   1      39.719  33.118  36.613  1.00  0.00     0.074 A 
ATOM     53  C   UNL A   1      38.661  34.074  36.858  1.00  0.00     0.031 C 
ATOM     54  C   UNL A   1      38.029  30.524  30.981  1.00  0.00     0.029 A 
ATOM     55  C   UNL A   1      39.227  30.238  31.771  1.00  0.00     0.049 A 
ATOM     56  H   UNL A   1      39.728  31.028  33.631  1.00  0.00     0.167 HD
ATOM     57  C   UNL A   1      40.748  32.889  37.462  1.00  0.00     0.037 A 
ATOM     58  C   UNL A   1      40.220  29.395  31.425  1.00  0.00     0.037 A 
ATOM     59  C   UNL A   1      41.806  31.947  37.217  1.00  0.00     0.049 A 
ATOM     60  C   UNL A   1      41.401  29.220  32.347  1.00  0.00     0.074 A 
ATOM     61  C   UNL A   1      42.882  31.627  38.026  1.00  0.00     0.029 A 
ATOM     62  N   UNL A   1      41.926  31.182  36.067  1.00  0.00    -0.354 N 
ATOM     63  N   UNL A   1      41.626  29.764  33.518  1.00  0.00    -0.248 NA
ATOM     64  C   UNL A   1      42.469  28.315  31.895  1.00  0.00     0.031 C 
ATOM     65  C   UNL A   1      43.678  30.700  37.345  1.00  0.00     0.029 A 
ATOM     66  C   UNL A   1      43.074  30.411  36.132  1.00  0.00     0.049 A 
ATOM     67  H   UNL A   1      41.289  31.185  35.316  1.00  0.00     0.167 HD
ATOM     68  C   UNL A   1      42.843  29.251  33.952  1.00  0.00     0.074 A 
ATOM     69  C   UNL A   1      43.305  28.345  32.924  1.00  0.00     0.031 C 
ATOM     70  C   UNL A   1      43.516  29.508  35.101  1.00  0.00     0.037 A 
BRANCH  57  71
ATOM     71  C   UNL A   1      40.789  33.691  38.725  1.00  0.00     0.064 A 
ATOM     72  C   UNL A   1      40.026  33.335  39.846  1.00  0.00     0.173 A 
ATOM     73  C   UNL A   1      41.620  34.817  38.824  1.00  0.00     0.173 A 
ATOM     74  F   UNL A   1      39.202  32.277  39.794  1.00  0.00    -0.203 F 
ATOM     75  C   UNL A   1      40.076  34.090  41.015  1.00  0.00     0.198 A 
ATOM     76  C   UNL A   1      41.685  35.556  40.003  1.00  0.00     0.198 A 
ATOM     77  F   UNL A   1      42.368  35.200  37.780  1.00  0.00    -0.203 F 
ATOM     78  F   UNL A   1      39.306  33.756  42.060  1.00  0.00    -0.200 F 
ATOM     79  C   UNL A   1      40.910  35.195  41.094  1.00  0.00     0.200 A 
ATOM     80  F   UNL A   1      42.496  36.620  40.080  1.00  0.00    -0.200 F 
ATOM     81  F   UNL A   1      40.960  35.919  42.221  1.00  0.00    -0.200 F 
ENDBRANCH  57  71
BRANCH  58  82
ATOM     82  C   UNL A   1      40.159  28.664  30.134  1.00  0.00     0.064 A 
ATOM     83  C   UNL A   1      39.510  27.425  30.034  1.00  0.00     0.173 A 
ATOM     84  C   UNL A   1      40.773  29.175  28.980  1.00  0.00     0.173 A 
ATOM     85  F   UNL A   1      38.935  26.884  31.117  1.00  0.00    -0.203 F 
ATOM     86  C   UNL A   1      39.490  26.719  28.834  1.00  0.00     0.198 A 
ATOM     87  C   UNL A   1      40.731  28.478  27.775  1.00  0.00     0.198 A 
ATOM     88  F   UNL A   1      41.413  30.352  29.025  1.00  0.00    -0.203 F 
ATOM     89  F   UNL A   1      38.900  25.517  28.776  1.00  0.00    -0.200 F 
ATOM     90  C   UNL A   1      40.095  27.248  27.703  1.00  0.00     0.200 A 
ATOM     91  F   UNL A   1      41.311  28.996  26.683  1.00  0.00    -0.200 F 
ATOM     92  F   UNL A   1      40.076  26.567  26.550  1.00  0.00    -0.200 F 
ENDBRANCH  58  82
BRANCH  70  93
ATOM     93  C   UNL A   1      44.809  28.782  35.324  1.00  0.00     0.064 A 
ATOM     94  C   UNL A   1      44.845  27.523  35.941  1.00  0.00     0.173 A 
ATOM     95  C   UNL A   1      46.017  29.322  34.858  1.00  0.00     0.173 A 
ATOM     96  F   UNL A   1      43.718  26.971  36.414  1.00  0.00    -0.203 F 
ATOM     97  C   UNL A   1      46.047  26.837  36.095  1.00  0.00     0.198 A 
ATOM     98  C   UNL A   1      47.213  28.623  34.991  1.00  0.00     0.198 A 
ATOM     99  F   UNL A   1      46.033  30.520  34.255  1.00  0.00    -0.203 F 
ATOM    100  F   UNL A   1      46.064  25.650  36.716  1.00  0.00    -0.200 F 
ATOM    101  C   UNL A   1      47.228  27.384  35.613  1.00  0.00     0.200 A 
ATOM    102  F   UNL A   1      48.351  29.147  34.515  1.00  0.00    -0.200 F 
ATOM    103  F   UNL A   1      48.382  26.717  35.752  1.00  0.00    -0.200 F 
ENDBRANCH  70  93
ENDBRANCH  44  45
ENDBRANCH  37  39
ENDBRANCH  36  37
ENDBRANCH  35  36
ENDBRANCH  34  35
ENDBRANCH  33  34
ENDBRANCH  32  33
ENDBRANCH  31  32
ENDBRANCH  30  31
ENDBRANCH   1  30
TORSDOF 24
ENDMDL
MODEL 2
REMARK VINA RESULT:     -10.0      6.428     11.757
REMARK SMILES Cn1cc(S(=O)(=O)N[C@@H]2C=C[C@@H](C(=O)OCCOCCOCCOCCOC(=O)c3ccc(-c4c5nc(c(-c6c(F)c(F)c(F)c(F)c6F)c6ccc([nH]6)c(-c6c(F)c(F)c(F)c(F)c6F)c6nc(c(-c7c(F)c(F)c(F)c(F)c7F)c7ccc4[nH]7)C=C6)C=C5)cc3)C2)cc1C(N)=O
REMARK SMILES IDX 20 1 19 2 18 3 17 4 16 5 15 6 13 7 14 8 12 9 9 10 10 11
REMARK SMILES IDX 93 12 11 13 8 14 5 16 6 17 7 18 4 19 1 20 2 21 3 22 95 23
REMARK SMILES IDX 94 24 96 25 97 26 98 27 21 30 22 31 23 32 24 33 25 34 26 35
REMARK SMILES IDX 27 36 28 37 29 38 30 39 31 40 92 41 32 42 91 43 33 44 34 45
REMARK SMILES IDX 35 46 85 47 36 48 90 49 84 50 86 51 37 52 89 53 83 54 82 55
REMARK SMILES IDX 38 57 70 58 50 59 69 60 51 61 54 62 68 63 87 64 52 65 53 66
REMARK SMILES IDX 67 68 88 69 55 70 39 71 40 72 48 73 41 74 42 75 46 76 49 77
REMARK SMILES IDX 43 78 44 79 47 80 45 81 71 82 72 83 80 84 73 85 74 86 78 87
REMARK SMILES IDX 81 88 75 89 76 90 79 91 77 92 56 93 57 94 65 95 58 96 59 97
REMARK SMILES IDX 63 98 66 99 60 100 61 101 64 102 62 103
REMARK H PARENT 8 15 97 28 97 29 86 56 54 67
REMARK Flexibility Score: inf
ROOT
ATOM      1  C   UNL A   1      37.546  22.788  25.770  1.00  0.00     0.188 C 
ENDROOT
BRANCH   1   2
ATOM      2  C   UNL A   1      37.018  22.637  24.335  1.00  0.00     0.188 C 
BRANCH   2   3
ATOM      3  O   UNL A   1      35.857  21.849  24.103  1.00  0.00    -0.376 OA
BRANCH   3   4
ATOM      4  C   UNL A   1      35.300  21.091  25.176  1.00  0.00     0.202 C 
BRANCH   4   5
ATOM      5  C   UNL A   1      34.240  20.029  24.857  1.00  0.00     0.261 C 
BRANCH   5   6
ATOM      6  O   UNL A   1      33.159  20.520  24.037  1.00  0.00    -0.463 OA
BRANCH   6   7
ATOM      7  C   UNL A   1      32.281  21.351  24.645  1.00  0.00     0.312 C 
ATOM      8  O   UNL A   1      31.434  20.995  25.462  1.00  0.00    -0.252 OA
BRANCH   7   9
ATOM      9  C   UNL A   1      32.361  22.796  24.187  1.00  0.00     0.123 C 
ATOM     10  C   UNL A   1      32.024  24.536  22.523  1.00  0.00     0.093 C 
ATOM     11  C   UNL A   1      30.856  24.419  23.446  1.00  0.00    -0.011 C 
ATOM     12  C   UNL A   1      32.671  23.153  22.729  1.00  0.00     0.043 C 
ATOM     13  C   UNL A   1      31.034  23.467  24.371  1.00  0.00    -0.015 C 
BRANCH  10  14
ATOM     14  N   UNL A   1      32.998  25.552  22.964  1.00  0.00    -0.204 NA
ATOM     15  H   UNL A   1      33.135  25.412  23.965  1.00  0.00     0.142 HD
BRANCH  14  16
ATOM     16  S   UNL A   1      32.675  27.191  22.743  1.00  0.00     0.242 S 
ATOM     17  O   UNL A   1      31.382  27.315  22.112  1.00  0.00    -0.207 OA
ATOM     18  O   UNL A   1      33.873  27.772  22.184  1.00  0.00    -0.207 OA
BRANCH  16  19
ATOM     19  C   UNL A   1      32.522  27.928  24.294  1.00  0.00     0.100 A 
ATOM     20  C   UNL A   1      31.393  28.102  27.714  1.00  0.00     0.150 C 
ATOM     21  N   UNL A   1      32.045  28.284  26.434  1.00  0.00    -0.345 N 
ATOM     22  C   UNL A   1      31.722  27.519  25.335  1.00  0.00     0.107 A 
ATOM     23  C   UNL A   1      33.087  29.149  26.127  1.00  0.00     0.107 A 
ATOM     24  C   UNL A   1      33.282  29.027  24.754  1.00  0.00     0.055 A 
BRANCH  23  25
ATOM     25  C   UNL A   1      33.820  29.974  27.070  1.00  0.00     0.265 C 
ATOM     26  N   UNL A   1      34.671  29.305  27.904  1.00  0.00    -0.364 N 
ATOM     27  O   UNL A   1      33.697  31.187  27.197  1.00  0.00    -0.268 OA
ATOM     28  H   UNL A   1      34.781  28.330  27.816  1.00  0.00     0.160 HD
ATOM     29  H   UNL A   1      35.172  29.796  28.594  1.00  0.00     0.160 HD
ENDBRANCH  23  25
ENDBRANCH  16  19
ENDBRANCH  14  16
ENDBRANCH  10  14
ENDBRANCH   7   9
ENDBRANCH   6   7
ENDBRANCH   5   6
ENDBRANCH   4   5
ENDBRANCH   3   4
ENDBRANCH   2   3
ENDBRANCH   1   2
BRANCH   1  30
ATOM     30  O   UNL A   1      38.684  21.998  26.060  1.00  0.00    -0.377 OA
BRANCH  30  31
ATOM     31  C   UNL A   1      39.812  22.687  26.594  1.00  0.00     0.188 C 
BRANCH  31  32
ATOM     32  C   UNL A   1      41.107  21.881  26.796  1.00  0.00     0.188 C 
BRANCH  32  33
ATOM     33  O   UNL A   1      40.868  20.586  27.350  1.00  0.00    -0.376 OA
BRANCH  33  34
ATOM     34  C   UNL A   1      41.921  19.632  27.216  1.00  0.00     0.202 C 
BRANCH  34  35
ATOM     35  C   UNL A   1      42.396  19.396  25.773  1.00  0.00     0.261 C 
BRANCH  35  36
ATOM     36  O   UNL A   1      43.815  19.204  25.613  1.00  0.00    -0.460 OA
BRANCH  36  37
ATOM     37  C   UNL A   1      44.399  19.714  24.509  1.00  0.00     0.338 C 
ATOM     38  O   UNL A   1      44.451  19.216  23.400  1.00  0.00    -0.246 OA
BRANCH  37  39
ATOM     39  C   UNL A   1      44.818  21.096  24.815  1.00  0.00     0.060 A 
ATOM     40  C   UNL A   1      45.356  21.367  26.079  1.00  0.00     0.016 A 
ATOM     41  C   UNL A   1      44.657  22.119  23.878  1.00  0.00     0.016 A 
ATOM     42  C   UNL A   1      45.693  22.675  26.427  1.00  0.00     0.010 A 
ATOM     43  C   UNL A   1      44.976  23.431  24.233  1.00  0.00     0.010 A 
ATOM     44  C   UNL A   1      45.461  23.719  25.522  1.00  0.00    -0.014 A 
BRANCH  44  45
ATOM     45  C   UNL A   1      45.526  25.127  25.979  1.00  0.00     0.031 A 
ATOM     46  C   UNL A   1      46.852  25.833  25.919  1.00  0.00     0.074 A 
ATOM     47  C   UNL A   1      44.441  25.766  26.446  1.00  0.00     0.049 A 
ATOM     48  N   UNL A   1      47.175  27.035  26.323  1.00  0.00    -0.248 NA
ATOM     49  C   UNL A   1      47.967  25.077  25.325  1.00  0.00     0.031 C 
ATOM     50  C   UNL A   1      43.094  25.202  26.521  1.00  0.00     0.029 A 
ATOM     51  N   UNL A   1      44.307  27.031  26.961  1.00  0.00    -0.354 N 
ATOM     52  C   UNL A   1      48.525  27.178  26.032  1.00  0.00     0.074 A 
ATOM     53  C   UNL A   1      48.969  25.934  25.441  1.00  0.00     0.031 C 
ATOM     54  C   UNL A   1      42.273  26.114  27.072  1.00  0.00     0.029 A 
ATOM     55  C   UNL A   1      43.042  27.310  27.412  1.00  0.00     0.049 A 
ATOM     56  H   UNL A   1      45.050  27.676  27.003  1.00  0.00     0.167 HD
ATOM     57  C   UNL A   1      49.323  28.252  26.233  1.00  0.00     0.037 A 
ATOM     58  C   UNL A   1      42.571  28.399  28.052  1.00  0.00     0.037 A 
ATOM     59  C   UNL A   1      48.887  29.485  26.829  1.00  0.00     0.049 A 
ATOM     60  C   UNL A   1      43.500  29.550  28.344  1.00  0.00     0.074 A 
ATOM     61  C   UNL A   1      49.615  30.640  27.056  1.00  0.00     0.029 A 
ATOM     62  N   UNL A   1      47.606  29.718  27.305  1.00  0.00    -0.354 N 
ATOM     63  N   UNL A   1      44.767  29.692  28.036  1.00  0.00    -0.248 NA
ATOM     64  C   UNL A   1      42.934  30.693  29.078  1.00  0.00     0.031 C 
ATOM     65  C   UNL A   1      48.785  31.556  27.711  1.00  0.00     0.029 A 
ATOM     66  C   UNL A   1      47.530  30.988  27.851  1.00  0.00     0.049 A 
ATOM     67  H   UNL A   1      46.860  29.076  27.259  1.00  0.00     0.167 HD
ATOM     68  C   UNL A   1      45.140  30.943  28.513  1.00  0.00     0.074 A 
ATOM     69  C   UNL A   1      43.965  31.525  29.125  1.00  0.00     0.031 C 
ATOM     70  C   UNL A   1      46.349  31.554  28.450  1.00  0.00     0.037 A 
BRANCH  57  71
ATOM     71  C   UNL A   1      50.759  28.128  25.826  1.00  0.00     0.064 A 
ATOM     72  C   UNL A   1      51.154  28.248  24.486  1.00  0.00     0.173 A 
ATOM     73  C   UNL A   1      51.754  27.910  26.790  1.00  0.00     0.173 A 
ATOM     74  F   UNL A   1      50.237  28.438  23.525  1.00  0.00    -0.203 F 
ATOM     75  C   UNL A   1      52.493  28.132  24.122  1.00  0.00     0.198 A 
ATOM     76  C   UNL A   1      53.095  27.818  26.425  1.00  0.00     0.198 A 
ATOM     77  F   UNL A   1      51.426  27.787  28.084  1.00  0.00    -0.203 F 
ATOM     78  F   UNL A   1      52.845  28.208  22.831  1.00  0.00    -0.200 F 
ATOM     79  C   UNL A   1      53.462  27.924  25.093  1.00  0.00     0.200 A 
ATOM     80  F   UNL A   1      54.030  27.624  27.365  1.00  0.00    -0.200 F 
ATOM     81  F   UNL A   1      54.752  27.817  24.742  1.00  0.00    -0.200 F 
ENDBRANCH  57  71
BRANCH  58  82
ATOM     82  C   UNL A   1      41.151  28.450  28.486  1.00  0.00     0.064 A 
ATOM     83  C   UNL A   1      40.156  28.965  27.643  1.00  0.00     0.173 A 
ATOM     84  C   UNL A   1      40.765  28.011  29.761  1.00  0.00     0.173 A 
ATOM     85  F   UNL A   1      40.482  29.424  26.427  1.00  0.00    -0.203 F 
ATOM     86  C   UNL A   1      38.831  29.054  28.066  1.00  0.00     0.198 A 
ATOM     87  C   UNL A   1      39.436  28.078  30.173  1.00  0.00     0.198 A 
ATOM     88  F   UNL A   1      41.680  27.517  30.607  1.00  0.00    -0.203 F 
ATOM     89  F   UNL A   1      37.907  29.590  27.257  1.00  0.00    -0.200 F 
ATOM     90  C   UNL A   1      38.471  28.605  29.328  1.00  0.00     0.200 A 
ATOM     91  F   UNL A   1      39.090  27.636  31.390  1.00  0.00    -0.200 F 
ATOM     92  F   UNL A   1      37.197  28.691  29.733  1.00  0.00    -0.200 F 
ENDBRANCH  58  82
BRANCH  70  93
ATOM     93  C   UNL A   1      46.460  32.933  29.030  1.00  0.00     0.064 A 
ATOM     94  C   UNL A   1      46.865  33.138  30.357  1.00  0.00     0.173 A 
ATOM     95  C   UNL A   1      46.220  34.060  28.231  1.00  0.00     0.173 A 
ATOM     96  F   UNL A   1      47.092  32.092  31.163  1.00  0.00    -0.203 F 
ATOM     97  C   UNL A   1      47.013  34.426  30.866  1.00  0.00     0.198 A 
ATOM     98  C   UNL A   1      46.394  35.346  28.736  1.00  0.00     0.198 A 
ATOM     99  F   UNL A   1      45.838  33.915  26.954  1.00  0.00    -0.203 F 
ATOM    100  F   UNL A   1      47.369  34.601  32.146  1.00  0.00    -0.200 F 
ATOM    101  C   UNL A   1      46.786  35.527  30.054  1.00  0.00     0.200 A 
ATOM    102  F   UNL A   1      46.186  36.409  27.947  1.00  0.00    -0.200 F 
ATOM    103  F   UNL A   1      46.941  36.765  30.544  1.00  0.00    -0.200 F 
ENDBRANCH  70  93
ENDBRANCH  44  45
ENDBRANCH  37  39
ENDBRANCH  36  37
ENDBRANCH  35  36
ENDBRANCH  34  35
ENDBRANCH  33  34
ENDBRANCH  32  33
ENDBRANCH  31  32
ENDBRANCH  30  31
ENDBRANCH   1  30
TORSDOF 24
ENDMDL
MODEL 3
REMARK VINA RESULT:     -10.0      1.613      3.489
REMARK SMILES Cn1cc(S(=O)(=O)N[C@@H]2C=C[C@@H](C(=O)OCCOCCOCCOCCOC(=O)c3ccc(-c4c5nc(c(-c6c(F)c(F)c(F)c(F)c6F)c6ccc([nH]6)c(-c6c(F)c(F)c(F)c(F)c6F)c6nc(c(-c7c(F)c(F)c(F)c(F)c7F)c7ccc4[nH]7)C=C6)C=C5)cc3)C2)cc1C(N)=O
REMARK SMILES IDX 20 1 19 2 18 3 17 4 16 5 15 6 13 7 14 8 12 9 9 10 10 11
REMARK SMILES IDX 93 12 11 13 8 14 5 16 6 17 7 18 4 19 1 20 2 21 3 22 95 23
REMARK SMILES IDX 94 24 96 25 97 26 98 27 21 30 22 31 23 32 24 33 25 34 26 35
REMARK SMILES IDX 27 36 28 37 29 38 30 39 31 40 92 41 32 42 91 43 33 44 34 45
REMARK SMILES IDX 35 46 85 47 36 48 90 49 84 50 86 51 37 52 89 53 83 54 82 55
REMARK SMILES IDX 38 57 70 58 50 59 69 60 51 61 54 62 68 63 87 64 52 65 53 66
REMARK SMILES IDX 67 68 88 69 55 70 39 71 40 72 48 73 41 74 42 75 46 76 49 77
REMARK SMILES IDX 43 78 44 79 47 80 45 81 71 82 72 83 80 84 73 85 74 86 78 87
REMARK SMILES IDX 81 88 75 89 76 90 79 91 77 92 56 93 57 94 65 95 58 96 59 97
REMARK SMILES IDX 63 98 66 99 60 100 61 101 64 102 62 103
REMARK H PARENT 8 15 97 28 97 29 86 56 54 67
REMARK Flexibility Score: inf
ROOT
ATOM      1  C   UNL A   1      36.227  30.614  27.921  1.00  0.00     0.188 C 
ENDROOT
BRANCH   1   2
ATOM      2  C   UNL A   1      34.716  30.638  27.644  1.00  0.00     0.188 C 
BRANCH   2   3
ATOM      3  O   UNL A   1      34.043  29.417  27.364  1.00  0.00    -0.376 OA
BRANCH   3   4
ATOM      4  C   UNL A   1      32.748  29.454  26.765  1.00  0.00     0.202 C 
BRANCH   4   5
ATOM      5  C   UNL A   1      32.640  29.707  25.256  1.00  0.00     0.261 C 
BRANCH   5   6
ATOM      6  O   UNL A   1      31.306  29.532  24.735  1.00  0.00    -0.463 OA
BRANCH   6   7
ATOM      7  C   UNL A   1      31.188  28.716  23.662  1.00  0.00     0.312 C 
ATOM      8  O   UNL A   1      31.315  29.075  22.493  1.00  0.00    -0.252 OA
BRANCH   7   9
ATOM      9  C   UNL A   1      30.805  27.285  23.998  1.00  0.00     0.123 C 
ATOM     10  C   UNL A   1      29.698  25.640  25.404  1.00  0.00     0.093 C 
ATOM     11  C   UNL A   1      28.820  26.091  24.284  1.00  0.00    -0.011 C 
ATOM     12  C   UNL A   1      30.700  26.810  25.451  1.00  0.00     0.043 C 
ATOM     13  C   UNL A   1      29.422  26.994  23.500  1.00  0.00    -0.015 C 
BRANCH  10  14
ATOM     14  N   UNL A   1      30.459  24.419  25.075  1.00  0.00    -0.204 NA
ATOM     15  H   UNL A   1      29.912  23.912  24.379  1.00  0.00     0.142 HD
BRANCH  14  16
ATOM     16  S   UNL A   1      30.852  23.312  26.284  1.00  0.00     0.242 S 
ATOM     17  O   UNL A   1      29.681  22.514  26.563  1.00  0.00    -0.207 OA
ATOM     18  O   UNL A   1      31.550  24.055  27.307  1.00  0.00    -0.207 OA
BRANCH  16  19
ATOM     19  C   UNL A   1      32.033  22.224  25.659  1.00  0.00     0.100 A 
ATOM     20  C   UNL A   1      35.396  21.113  24.979  1.00  0.00     0.150 C 
ATOM     21  N   UNL A   1      33.967  21.244  25.170  1.00  0.00    -0.345 N 
ATOM     22  C   UNL A   1      33.387  22.435  25.552  1.00  0.00     0.107 A 
ATOM     23  C   UNL A   1      33.003  20.250  25.080  1.00  0.00     0.107 A 
ATOM     24  C   UNL A   1      31.781  20.897  25.242  1.00  0.00     0.055 A 
BRANCH  23  25
ATOM     25  C   UNL A   1      33.252  18.832  24.887  1.00  0.00     0.265 C 
ATOM     26  N   UNL A   1      34.551  18.489  24.640  1.00  0.00    -0.364 N 
ATOM     27  O   UNL A   1      32.395  17.956  24.885  1.00  0.00    -0.268 OA
ATOM     28  H   UNL A   1      35.251  19.181  24.637  1.00  0.00     0.160 HD
ATOM     29  H   UNL A   1      34.787  17.549  24.462  1.00  0.00     0.160 HD
ENDBRANCH  23  25
ENDBRANCH  16  19
ENDBRANCH  14  16
ENDBRANCH  10  14
ENDBRANCH   7   9
ENDBRANCH   6   7
ENDBRANCH   5   6
ENDBRANCH   4   5
ENDBRANCH   3   4
ENDBRANCH   2   3
ENDBRANCH   1   2
BRANCH   1  30
ATOM     30  O   UNL A   1      36.775  31.867  28.285  1.00  0.00    -0.377 OA
BRANCH  30  31
ATOM     31  C   UNL A   1      35.974  33.013  28.001  1.00  0.00     0.188 C 
BRANCH  31  32
ATOM     32  C   UNL A   1      35.550  33.895  29.189  1.00  0.00     0.188 C 
BRANCH  32  33
ATOM     33  O   UNL A   1      34.802  35.042  28.781  1.00  0.00    -0.376 OA
BRANCH  33  34
ATOM     34  C   UNL A   1      33.392  34.991  28.995  1.00  0.00     0.202 C 
BRANCH  34  35
ATOM     35  C   UNL A   1      32.796  36.241  29.663  1.00  0.00     0.261 C 
BRANCH  35  36
ATOM     36  O   UNL A   1      33.211  36.471  31.023  1.00  0.00    -0.460 OA
BRANCH  36  37
ATOM     37  C   UNL A   1      32.748  35.635  31.974  1.00  0.00     0.338 C 
ATOM     38  O   UNL A   1      31.589  35.339  32.201  1.00  0.00    -0.246 OA
BRANCH  37  39
ATOM     39  C   UNL A   1      33.908  34.969  32.597  1.00  0.00     0.060 A 
ATOM     40  C   UNL A   1      35.161  35.590  32.512  1.00  0.00     0.016 A 
ATOM     41  C   UNL A   1      33.771  33.732  33.233  1.00  0.00     0.016 A 
ATOM     42  C   UNL A   1      36.291  34.953  33.025  1.00  0.00     0.010 A 
ATOM     43  C   UNL A   1      34.905  33.086  33.728  1.00  0.00     0.010 A 
ATOM     44  C   UNL A   1      36.174  33.678  33.594  1.00  0.00    -0.014 A 
BRANCH  44  45
ATOM     45  C   UNL A   1      37.388  32.871  33.861  1.00  0.00     0.031 A 
ATOM     46  C   UNL A   1      38.164  33.149  35.119  1.00  0.00     0.074 A 
ATOM     47  C   UNL A   1      37.801  31.918  33.009  1.00  0.00     0.049 A 
ATOM     48  N   UNL A   1      39.288  32.627  35.537  1.00  0.00    -0.248 NA
ATOM     49  C   UNL A   1      37.593  34.158  36.026  1.00  0.00     0.031 C 
ATOM     50  C   UNL A   1      37.118  31.531  31.776  1.00  0.00     0.029 A 
ATOM     51  N   UNL A   1      38.912  31.113  33.047  1.00  0.00    -0.354 N 
ATOM     52  C   UNL A   1      39.557  33.242  36.752  1.00  0.00     0.074 A 
ATOM     53  C   UNL A   1      38.495  34.194  36.994  1.00  0.00     0.031 C 
ATOM     54  C   UNL A   1      37.837  30.573  31.164  1.00  0.00     0.029 A 
ATOM     55  C   UNL A   1      39.043  30.304  31.947  1.00  0.00     0.049 A 
ATOM     56  H   UNL A   1      39.554  31.117  33.794  1.00  0.00     0.167 HD
ATOM     57  C   UNL A   1      40.595  33.028  37.594  1.00  0.00     0.037 A 
ATOM     58  C   UNL A   1      40.038  29.463  31.603  1.00  0.00     0.037 A 
ATOM     59  C   UNL A   1      41.656  32.090  37.351  1.00  0.00     0.049 A 
ATOM     60  C   UNL A   1      41.227  29.305  32.516  1.00  0.00     0.074 A 
ATOM     61  C   UNL A   1      42.741  31.786  38.155  1.00  0.00     0.029 A 
ATOM     62  N   UNL A   1      41.771  31.313  36.209  1.00  0.00    -0.354 N 
ATOM     63  N   UNL A   1      41.459  29.864  33.679  1.00  0.00    -0.248 NA
ATOM     64  C   UNL A   1      42.297  28.401  32.066  1.00  0.00     0.031 C 
ATOM     65  C   UNL A   1      43.537  30.856  37.478  1.00  0.00     0.029 A 
ATOM     66  C   UNL A   1      42.925  30.549  36.273  1.00  0.00     0.049 A 
ATOM     67  H   UNL A   1      41.128  31.303  35.464  1.00  0.00     0.167 HD
ATOM     68  C   UNL A   1      42.682  29.364  34.109  1.00  0.00     0.074 A 
ATOM     69  C   UNL A   1      43.142  28.448  33.087  1.00  0.00     0.031 C 
ATOM     70  C   UNL A   1      43.363  29.638  35.249  1.00  0.00     0.037 A 
BRANCH  57  71
ATOM     71  C   UNL A   1      40.641  33.845  38.848  1.00  0.00     0.064 A 
ATOM     72  C   UNL A   1      39.967  33.444  40.011  1.00  0.00     0.173 A 
ATOM     73  C   UNL A   1      41.388  35.032  38.895  1.00  0.00     0.173 A 
ATOM     74  F   UNL A   1      39.224  32.328  40.009  1.00  0.00    -0.203 F 
ATOM     75  C   UNL A   1      40.021  34.214  41.170  1.00  0.00     0.198 A 
ATOM     76  C   UNL A   1      41.459  35.786  40.063  1.00  0.00     0.198 A 
ATOM     77  F   UNL A   1      42.050  35.458  37.809  1.00  0.00    -0.203 F 
ATOM     78  F   UNL A   1      39.335  33.835  42.257  1.00  0.00    -0.200 F 
ATOM     79  C   UNL A   1      40.772  35.379  41.197  1.00  0.00     0.200 A 
ATOM     80  F   UNL A   1      42.190  36.908  40.090  1.00  0.00    -0.200 F 
ATOM     81  F   UNL A   1      40.826  36.118  42.315  1.00  0.00    -0.200 F 
ENDBRANCH  57  71
BRANCH  58  82
ATOM     82  C   UNL A   1      39.971  28.716  30.320  1.00  0.00     0.064 A 
ATOM     83  C   UNL A   1      39.375  27.449  30.251  1.00  0.00     0.173 A 
ATOM     84  C   UNL A   1      40.526  29.242  29.144  1.00  0.00     0.173 A 
ATOM     85  F   UNL A   1      38.858  26.894  31.356  1.00  0.00    -0.203 F 
ATOM     86  C   UNL A   1      39.351  26.730  29.058  1.00  0.00     0.198 A 
ATOM     87  C   UNL A   1      40.479  28.532  27.947  1.00  0.00     0.198 A 
ATOM     88  F   UNL A   1      41.113  30.447  29.159  1.00  0.00    -0.203 F 
ATOM     89  F   UNL A   1      38.814  25.503  29.030  1.00  0.00    -0.200 F 
ATOM     90  C   UNL A   1      39.897  27.274  27.905  1.00  0.00     0.200 A 
ATOM     91  F   UNL A   1      41.002  29.065  26.833  1.00  0.00    -0.200 F 
ATOM     92  F   UNL A   1      39.874  26.582  26.759  1.00  0.00    -0.200 F 
ENDBRANCH  58  82
BRANCH  70  93
ATOM     93  C   UNL A   1      44.663  28.922  35.469  1.00  0.00     0.064 A 
ATOM     94  C   UNL A   1      45.887  29.497  35.101  1.00  0.00     0.173 A 
ATOM     95  C   UNL A   1      44.687  27.676  36.114  1.00  0.00     0.173 A 
ATOM     96  F   UNL A   1      45.914  30.680  34.470  1.00  0.00    -0.203 F 
ATOM     97  C   UNL A   1      47.089  28.844  35.358  1.00  0.00     0.198 A 
ATOM     98  C   UNL A   1      45.892  27.037  36.392  1.00  0.00     0.198 A 
ATOM     99  F   UNL A   1      43.543  27.089  36.492  1.00  0.00    -0.203 F 
ATOM    100  F   UNL A   1      48.247  29.395  34.969  1.00  0.00    -0.200 F 
ATOM    101  C   UNL A   1      47.091  27.619  36.011  1.00  0.00     0.200 A 
ATOM    102  F   UNL A   1      45.892  25.860  37.034  1.00  0.00    -0.200 F 
ATOM    103  F   UNL A   1      48.251  26.998  36.268  1.00  0.00    -0.200 F 
ENDBRANCH  70  93
ENDBRANCH  44  45
ENDBRANCH  37  39
ENDBRANCH  36  37
ENDBRANCH  35  36
ENDBRANCH  34  35
ENDBRANCH  33  34
ENDBRANCH  32  33
ENDBRANCH  31  32
ENDBRANCH  30  31
ENDBRANCH   1  30
TORSDOF 24
ENDMDL
