MODEL 1
REMARK VINA RESULT:     -10.9      0.000      0.000
REMARK SMILES C[N@H+]1CCO[C@H](c2noc(-c3ccccc3C(=O)OCCOCCOCCOCCOC(=O)c3ccc(-c4c5nc(c(-c6c(F)c(F)c(F)c(F)c6F)c6ccc([nH]6)c(-c6c(F)c(F)c(F)c(F)c6F)c6nc(c(-c7c(F)c(F)c(F)c(F)c7F)c7ccc4[nH]7)C=C6)C=C5)cc3)n2)C1
REMARK SMILES IDX 25 1 24 2 23 3 22 4 21 5 20 6 19 7 17 8 18 9 16 10 11 11
REMARK SMILES IDX 12 12 13 13 15 14 14 15 10 16 7 17 8 18 97 19 9 20 6 21 1 22
REMARK SMILES IDX 2 23 3 24 98 25 4 27 5 28 26 29 27 30 28 31 29 32 30 33
REMARK SMILES IDX 31 34 32 35 33 36 34 37 35 38 96 39 36 40 95 41 37 42 38 43
REMARK SMILES IDX 39 44 89 45 40 46 94 47 88 48 90 49 41 50 93 51 87 52 86 53
REMARK SMILES IDX 42 55 74 56 54 57 73 58 55 59 58 60 72 61 91 62 56 63 57 64
REMARK SMILES IDX 71 66 92 67 59 68 43 69 44 70 52 71 45 72 46 73 50 74 53 75
REMARK SMILES IDX 47 76 48 77 51 78 49 79 75 80 76 81 84 82 77 83 78 84 82 85
REMARK SMILES IDX 85 86 79 87 80 88 83 89 81 90 60 91 61 92 69 93 62 94 63 95
REMARK SMILES IDX 67 96 70 97 64 98 65 99 68 100 66 101
REMARK H PARENT 2 26 90 54 58 65
REMARK Flexibility Score: inf
ROOT
ATOM      1  O   UNL A   1      35.671  32.992  27.759  1.00  0.00    -0.377 OA
ENDROOT
BRANCH   1   2
ATOM      2  C   UNL A   1      34.878  31.816  27.810  1.00  0.00     0.188 C 
BRANCH   2   3
ATOM      3  C   UNL A   1      35.559  30.434  27.679  1.00  0.00     0.188 C 
BRANCH   3   4
ATOM      4  O   UNL A   1      34.655  29.350  27.574  1.00  0.00    -0.376 OA
BRANCH   4   5
ATOM      5  C   UNL A   1      33.282  29.589  27.331  1.00  0.00     0.202 C 
BRANCH   5   6
ATOM      6  C   UNL A   1      32.415  28.543  26.620  1.00  0.00     0.261 C 
BRANCH   6   7
ATOM      7  O   UNL A   1      33.012  27.255  26.483  1.00  0.00    -0.460 OA
BRANCH   7   8
ATOM      8  C   UNL A   1      33.535  26.916  25.287  1.00  0.00     0.339 C 
ATOM      9  O   UNL A   1      34.232  27.618  24.577  1.00  0.00    -0.246 OA
BRANCH   8  10
ATOM     10  C   UNL A   1      33.336  25.455  25.078  1.00  0.00     0.072 A 
ATOM     11  C   UNL A   1      32.213  24.892  24.436  1.00  0.00     0.054 A 
ATOM     12  C   UNL A   1      32.130  23.491  24.342  1.00  0.00     0.015 A 
ATOM     13  C   UNL A   1      33.106  22.670  24.915  1.00  0.00     0.001 A 
ATOM     14  C   UNL A   1      34.308  24.621  25.659  1.00  0.00     0.016 A 
ATOM     15  C   UNL A   1      34.183  23.235  25.591  1.00  0.00     0.001 A 
BRANCH  11  16
ATOM     16  C   UNL A   1      31.128  25.714  23.922  1.00  0.00     0.258 A 
ATOM     17  C   UNL A   1      29.856  27.280  23.377  1.00  0.00     0.206 A 
ATOM     18  N   UNL A   1      29.002  26.338  23.803  1.00  0.00    -0.059 NA
ATOM     19  N   UNL A   1      31.170  26.885  23.334  1.00  0.00    -0.189 NA
ATOM     20  O   UNL A   1      29.853  25.296  24.191  1.00  0.00    -0.334 OA
BRANCH  17  21
ATOM     21  C   UNL A   1      29.431  28.676  23.027  1.00  0.00     0.245 C 
ATOM     22  C   UNL A   1      27.415  31.085  23.589  1.00  0.00     0.332 C 
ATOM     23  N   UNL A   1      27.341  30.089  22.524  1.00  0.00    -0.333 N 
ATOM     24  C   UNL A   1      28.042  30.515  21.299  1.00  0.00     0.290 C 
ATOM     25  C   UNL A   1      27.882  28.776  22.950  1.00  0.00     0.303 C 
ATOM     26  H   UNL A   1      26.346  29.993  22.318  1.00  0.00     0.348 HD
ATOM     27  C   UNL A   1      29.565  30.409  21.418  1.00  0.00     0.222 C 
ATOM     28  O   UNL A   1      29.996  29.090  21.757  1.00  0.00    -0.358 OA
ENDBRANCH  17  21
ENDBRANCH  11  16
ENDBRANCH   8  10
ENDBRANCH   7   8
ENDBRANCH   6   7
ENDBRANCH   5   6
ENDBRANCH   4   5
ENDBRANCH   3   4
ENDBRANCH   2   3
ENDBRANCH   1   2
BRANCH   1  29
ATOM     29  C   UNL A   1      35.301  34.144  28.514  1.00  0.00     0.188 C 
BRANCH  29  30
ATOM     30  C   UNL A   1      34.020  34.177  29.382  1.00  0.00     0.188 C 
BRANCH  30  31
ATOM     31  O   UNL A   1      33.955  35.247  30.306  1.00  0.00    -0.376 OA
BRANCH  31  32
ATOM     32  C   UNL A   1      33.638  34.951  31.653  1.00  0.00     0.202 C 
BRANCH  32  33
ATOM     33  C   UNL A   1      34.772  34.438  32.552  1.00  0.00     0.261 C 
BRANCH  33  34
ATOM     34  O   UNL A   1      35.470  33.270  32.095  1.00  0.00    -0.460 OA
BRANCH  34  35
ATOM     35  C   UNL A   1      36.277  32.644  32.976  1.00  0.00     0.338 C 
ATOM     36  O   UNL A   1      36.143  32.582  34.189  1.00  0.00    -0.246 OA
BRANCH  35  37
ATOM     37  C   UNL A   1      37.285  31.890  32.205  1.00  0.00     0.060 A 
ATOM     38  C   UNL A   1      38.209  31.084  32.882  1.00  0.00     0.016 A 
ATOM     39  C   UNL A   1      37.317  31.987  30.812  1.00  0.00     0.016 A 
ATOM     40  C   UNL A   1      39.195  30.401  32.167  1.00  0.00     0.010 A 
ATOM     41  C   UNL A   1      38.318  31.320  30.100  1.00  0.00     0.010 A 
ATOM     42  C   UNL A   1      39.282  30.553  30.776  1.00  0.00    -0.014 A 
BRANCH  42  43
ATOM     43  C   UNL A   1      40.482  30.067  30.052  1.00  0.00     0.031 A 
ATOM     44  C   UNL A   1      41.629  31.012  29.846  1.00  0.00     0.074 A 
ATOM     45  C   UNL A   1      40.562  28.815  29.573  1.00  0.00     0.049 A 
ATOM     46  N   UNL A   1      42.749  30.826  29.197  1.00  0.00    -0.248 NA
ATOM     47  C   UNL A   1      41.483  32.351  30.434  1.00  0.00     0.031 C 
ATOM     48  C   UNL A   1      39.512  27.814  29.689  1.00  0.00     0.029 A 
ATOM     49  N   UNL A   1      41.563  28.181  28.873  1.00  0.00    -0.354 N 
ATOM     50  C   UNL A   1      43.431  32.029  29.279  1.00  0.00     0.074 A 
ATOM     51  C   UNL A   1      42.591  32.947  30.020  1.00  0.00     0.031 C 
ATOM     52  C   UNL A   1      39.924  26.693  29.075  1.00  0.00     0.029 A 
ATOM     53  C   UNL A   1      41.253  26.893  28.516  1.00  0.00     0.049 A 
ATOM     54  H   UNL A   1      42.421  28.611  28.650  1.00  0.00     0.167 HD
ATOM     55  C   UNL A   1      44.651  32.341  28.781  1.00  0.00     0.037 A 
ATOM     56  C   UNL A   1      41.936  25.973  27.805  1.00  0.00     0.037 A 
ATOM     57  C   UNL A   1      45.479  31.429  28.035  1.00  0.00     0.049 A 
ATOM     58  C   UNL A   1      43.277  26.350  27.239  1.00  0.00     0.074 A 
ATOM     59  C   UNL A   1      46.739  31.648  27.505  1.00  0.00     0.029 A 
ATOM     60  N   UNL A   1      45.127  30.130  27.698  1.00  0.00    -0.354 N 
ATOM     61  N   UNL A   1      43.930  27.479  27.351  1.00  0.00    -0.248 NA
ATOM     62  C   UNL A   1      43.967  25.332  26.434  1.00  0.00     0.031 C 
ATOM     63  C   UNL A   1      47.122  30.505  26.797  1.00  0.00     0.029 A 
ATOM     64  C   UNL A   1      46.134  29.545  26.946  1.00  0.00     0.049 A 
ATOM     65  H   UNL A   1      44.286  29.687  27.957  1.00  0.00     0.167 HD
ATOM     66  C   UNL A   1      45.112  27.306  26.648  1.00  0.00     0.074 A 
ATOM     67  C   UNL A   1      45.100  25.951  26.137  1.00  0.00     0.031 C 
ATOM     68  C   UNL A   1      46.114  28.195  26.440  1.00  0.00     0.037 A 
BRANCH  55  69
ATOM     69  C   UNL A   1      45.141  33.742  28.994  1.00  0.00     0.064 A 
ATOM     70  C   UNL A   1      44.853  34.774  28.088  1.00  0.00     0.173 A 
ATOM     71  C   UNL A   1      45.900  34.059  30.131  1.00  0.00     0.173 A 
ATOM     72  F   UNL A   1      44.148  34.520  26.977  1.00  0.00    -0.203 F 
ATOM     73  C   UNL A   1      45.333  36.064  28.297  1.00  0.00     0.198 A 
ATOM     74  C   UNL A   1      46.347  35.358  30.355  1.00  0.00     0.198 A 
ATOM     75  F   UNL A   1      46.205  33.110  31.029  1.00  0.00    -0.203 F 
ATOM     76  F   UNL A   1      45.094  37.021  27.389  1.00  0.00    -0.200 F 
ATOM     77  C   UNL A   1      46.071  36.357  29.434  1.00  0.00     0.200 A 
ATOM     78  F   UNL A   1      47.049  35.642  31.461  1.00  0.00    -0.200 F 
ATOM     79  F   UNL A   1      46.524  37.602  29.638  1.00  0.00    -0.200 F 
ENDBRANCH  55  69
BRANCH  56  80
ATOM     80  C   UNL A   1      41.371  24.611  27.585  1.00  0.00     0.064 A 
ATOM     81  C   UNL A   1      41.916  23.489  28.230  1.00  0.00     0.173 A 
ATOM     82  C   UNL A   1      40.282  24.395  26.727  1.00  0.00     0.173 A 
ATOM     83  F   UNL A   1      42.971  23.632  29.046  1.00  0.00    -0.203 F 
ATOM     84  C   UNL A   1      41.405  22.210  28.012  1.00  0.00     0.198 A 
ATOM     85  C   UNL A   1      39.745  23.122  26.544  1.00  0.00     0.198 A 
ATOM     86  F   UNL A   1      39.715  25.428  26.088  1.00  0.00    -0.203 F 
ATOM     87  F   UNL A   1      41.976  21.152  28.605  1.00  0.00    -0.200 F 
ATOM     88  C   UNL A   1      40.314  22.028  27.178  1.00  0.00     0.200 A 
ATOM     89  F   UNL A   1      38.669  22.957  25.762  1.00  0.00    -0.200 F 
ATOM     90  F   UNL A   1      39.809  20.803  26.985  1.00  0.00    -0.200 F 
ENDBRANCH  56  80
BRANCH  68  91
ATOM     91  C   UNL A   1      47.300  27.717  25.652  1.00  0.00     0.064 A 
ATOM     92  C   UNL A   1      47.332  27.776  24.250  1.00  0.00     0.173 A 
ATOM     93  C   UNL A   1      48.431  27.216  26.314  1.00  0.00     0.173 A 
ATOM     94  F   UNL A   1      46.269  28.230  23.569  1.00  0.00    -0.203 F 
ATOM     95  C   UNL A   1      48.439  27.320  23.541  1.00  0.00     0.198 A 
ATOM     96  C   UNL A   1      49.550  26.796  25.603  1.00  0.00     0.198 A 
ATOM     97  F   UNL A   1      48.453  27.142  27.654  1.00  0.00    -0.203 F 
ATOM     98  F   UNL A   1      48.424  27.329  22.201  1.00  0.00    -0.200 F 
ATOM     99  C   UNL A   1      49.550  26.838  24.218  1.00  0.00     0.200 A 
ATOM    100  F   UNL A   1      50.627  26.344  26.260  1.00  0.00    -0.200 F 
ATOM    101  F   UNL A   1      50.616  26.405  23.533  1.00  0.00    -0.200 F 
ENDBRANCH  68  91
ENDBRANCH  42  43
ENDBRANCH  35  37
ENDBRANCH  34  35
ENDBRANCH  33  34
ENDBRANCH  32  33
ENDBRANCH  31  32
ENDBRANCH  30  31
ENDBRANCH  29  30
ENDBRANCH   1  29
TORSDOF 22
ENDMDL
MODEL 2
REMARK VINA RESULT:     -10.7      5.475     10.879
REMARK SMILES C[N@H+]1CCO[C@H](c2noc(-c3ccccc3C(=O)OCCOCCOCCOCCOC(=O)c3ccc(-c4c5nc(c(-c6c(F)c(F)c(F)c(F)c6F)c6ccc([nH]6)c(-c6c(F)c(F)c(F)c(F)c6F)c6nc(c(-c7c(F)c(F)c(F)c(F)c7F)c7ccc4[nH]7)C=C6)C=C5)cc3)n2)C1
REMARK SMILES IDX 25 1 24 2 23 3 22 4 21 5 20 6 19 7 17 8 18 9 16 10 11 11
REMARK SMILES IDX 12 12 13 13 15 14 14 15 10 16 7 17 8 18 97 19 9 20 6 21 1 22
REMARK SMILES IDX 2 23 3 24 98 25 4 27 5 28 26 29 27 30 28 31 29 32 30 33
REMARK SMILES IDX 31 34 32 35 33 36 34 37 35 38 96 39 36 40 95 41 37 42 38 43
REMARK SMILES IDX 39 44 89 45 40 46 94 47 88 48 90 49 41 50 93 51 87 52 86 53
REMARK SMILES IDX 42 55 74 56 54 57 73 58 55 59 58 60 72 61 91 62 56 63 57 64
REMARK SMILES IDX 71 66 92 67 59 68 43 69 44 70 52 71 45 72 46 73 50 74 53 75
REMARK SMILES IDX 47 76 48 77 51 78 49 79 75 80 76 81 84 82 77 83 78 84 82 85
REMARK SMILES IDX 85 86 79 87 80 88 83 89 81 90 60 91 61 92 69 93 62 94 63 95
REMARK SMILES IDX 67 96 70 97 64 98 65 99 68 100 66 101
REMARK H PARENT 2 26 90 54 58 65
REMARK Flexibility Score: inf
ROOT
ATOM      1  O   UNL A   1      40.407  20.138  27.099  1.00  0.00    -0.377 OA
ENDROOT
BRANCH   1   2
ATOM      2  C   UNL A   1      39.812  21.048  26.186  1.00  0.00     0.188 C 
BRANCH   2   3
ATOM      3  C   UNL A   1      39.562  22.510  26.624  1.00  0.00     0.188 C 
BRANCH   3   4
ATOM      4  O   UNL A   1      38.427  23.108  26.028  1.00  0.00    -0.376 OA
BRANCH   4   5
ATOM      5  C   UNL A   1      37.440  22.303  25.411  1.00  0.00     0.202 C 
BRANCH   5   6
ATOM      6  C   UNL A   1      35.979  22.356  25.873  1.00  0.00     0.261 C 
BRANCH   6   7
ATOM      7  O   UNL A   1      35.458  23.667  26.083  1.00  0.00    -0.460 OA
BRANCH   7   8
ATOM      8  C   UNL A   1      34.945  24.329  25.026  1.00  0.00     0.339 C 
ATOM      9  O   UNL A   1      35.286  24.209  23.863  1.00  0.00    -0.246 OA
BRANCH   8  10
ATOM     10  C   UNL A   1      33.719  25.049  25.465  1.00  0.00     0.072 A 
ATOM     11  C   UNL A   1      32.406  24.571  25.271  1.00  0.00     0.054 A 
ATOM     12  C   UNL A   1      31.332  25.373  25.697  1.00  0.00     0.015 A 
ATOM     13  C   UNL A   1      31.552  26.637  26.253  1.00  0.00     0.001 A 
ATOM     14  C   UNL A   1      33.929  26.326  26.016  1.00  0.00     0.016 A 
ATOM     15  C   UNL A   1      32.849  27.122  26.392  1.00  0.00     0.001 A 
BRANCH  11  16
ATOM     16  C   UNL A   1      32.139  23.308  24.601  1.00  0.00     0.258 A 
ATOM     17  C   UNL A   1      32.104  21.313  23.975  1.00  0.00     0.206 A 
ATOM     18  N   UNL A   1      32.062  21.989  22.817  1.00  0.00    -0.059 NA
ATOM     19  N   UNL A   1      32.040  22.099  25.100  1.00  0.00    -0.189 NA
ATOM     20  O   UNL A   1      32.108  23.326  23.233  1.00  0.00    -0.334 OA
BRANCH  17  21
ATOM     21  C   UNL A   1      32.266  19.824  24.052  1.00  0.00     0.245 C 
ATOM     22  C   UNL A   1      32.867  17.284  25.889  1.00  0.00     0.332 C 
ATOM     23  N   UNL A   1      33.800  18.003  25.027  1.00  0.00    -0.333 N 
ATOM     24  C   UNL A   1      33.852  17.451  23.661  1.00  0.00     0.290 C 
ATOM     25  C   UNL A   1      33.483  19.449  24.944  1.00  0.00     0.303 C 
ATOM     26  H   UNL A   1      34.714  17.884  25.466  1.00  0.00     0.348 HD
ATOM     27  C   UNL A   1      32.634  17.837  22.817  1.00  0.00     0.222 C 
ATOM     28  O   UNL A   1      32.453  19.251  22.733  1.00  0.00    -0.358 OA
ENDBRANCH  17  21
ENDBRANCH  11  16
ENDBRANCH   8  10
ENDBRANCH   7   8
ENDBRANCH   6   7
ENDBRANCH   5   6
ENDBRANCH   4   5
ENDBRANCH   3   4
ENDBRANCH   2   3
ENDBRANCH   1   2
BRANCH   1  29
ATOM     29  C   UNL A   1      41.703  19.603  26.840  1.00  0.00     0.188 C 
BRANCH  29  30
ATOM     30  C   UNL A   1      42.532  20.027  25.604  1.00  0.00     0.188 C 
BRANCH  30  31
ATOM     31  O   UNL A   1      43.827  19.459  25.532  1.00  0.00    -0.376 OA
BRANCH  31  32
ATOM     32  C   UNL A   1      44.941  20.304  25.748  1.00  0.00     0.202 C 
BRANCH  32  33
ATOM     33  C   UNL A   1      44.923  21.688  25.082  1.00  0.00     0.261 C 
BRANCH  33  34
ATOM     34  O   UNL A   1      44.440  22.776  25.885  1.00  0.00    -0.460 OA
BRANCH  34  35
ATOM     35  C   UNL A   1      44.454  24.006  25.335  1.00  0.00     0.338 C 
ATOM     36  O   UNL A   1      44.863  24.319  24.226  1.00  0.00    -0.246 OA
BRANCH  35  37
ATOM     37  C   UNL A   1      43.727  24.913  26.244  1.00  0.00     0.060 A 
ATOM     38  C   UNL A   1      44.000  26.287  26.212  1.00  0.00     0.016 A 
ATOM     39  C   UNL A   1      42.779  24.401  27.133  1.00  0.00     0.016 A 
ATOM     40  C   UNL A   1      43.350  27.148  27.099  1.00  0.00     0.010 A 
ATOM     41  C   UNL A   1      42.146  25.261  28.034  1.00  0.00     0.010 A 
ATOM     42  C   UNL A   1      42.454  26.633  28.046  1.00  0.00    -0.014 A 
BRANCH  42  43
ATOM     43  C   UNL A   1      41.984  27.488  29.163  1.00  0.00     0.031 A 
ATOM     44  C   UNL A   1      42.747  27.469  30.454  1.00  0.00     0.074 A 
ATOM     45  C   UNL A   1      40.894  28.265  29.049  1.00  0.00     0.049 A 
ATOM     46  N   UNL A   1      42.489  28.087  31.577  1.00  0.00    -0.248 NA
ATOM     47  C   UNL A   1      43.950  26.625  30.486  1.00  0.00     0.031 C 
ATOM     48  C   UNL A   1      40.059  28.355  27.861  1.00  0.00     0.029 A 
ATOM     49  N   UNL A   1      40.292  29.109  29.955  1.00  0.00    -0.354 N 
ATOM     50  C   UNL A   1      43.484  27.690  32.457  1.00  0.00     0.074 A 
ATOM     51  C   UNL A   1      44.337  26.760  31.745  1.00  0.00     0.031 C 
ATOM     52  C   UNL A   1      39.049  29.202  28.114  1.00  0.00     0.029 A 
ATOM     53  C   UNL A   1      39.154  29.708  29.475  1.00  0.00     0.049 A 
ATOM     54  H   UNL A   1      40.644  29.268  30.860  1.00  0.00     0.167 HD
ATOM     55  C   UNL A   1      43.670  28.069  33.743  1.00  0.00     0.037 A 
ATOM     56  C   UNL A   1      38.276  30.550  30.053  1.00  0.00     0.037 A 
ATOM     57  C   UNL A   1      42.813  28.985  34.451  1.00  0.00     0.049 A 
ATOM     58  C   UNL A   1      38.487  30.936  31.491  1.00  0.00     0.074 A 
ATOM     59  C   UNL A   1      42.932  29.444  35.752  1.00  0.00     0.029 A 
ATOM     60  N   UNL A   1      41.671  29.573  33.924  1.00  0.00    -0.354 N 
ATOM     61  N   UNL A   1      39.449  30.583  32.305  1.00  0.00    -0.248 NA
ATOM     62  C   UNL A   1      37.482  31.822  32.095  1.00  0.00     0.031 C 
ATOM     63  C   UNL A   1      41.829  30.258  36.031  1.00  0.00     0.029 A 
ATOM     64  C   UNL A   1      41.062  30.368  34.883  1.00  0.00     0.049 A 
ATOM     65  H   UNL A   1      41.343  29.445  33.004  1.00  0.00     0.167 HD
ATOM     66  C   UNL A   1      39.178  31.214  33.510  1.00  0.00     0.074 A 
ATOM     67  C   UNL A   1      37.976  31.995  33.312  1.00  0.00     0.031 C 
ATOM     68  C   UNL A   1      39.863  31.143  34.678  1.00  0.00     0.037 A 
BRANCH  55  69
ATOM     69  C   UNL A   1      44.823  27.455  34.479  1.00  0.00     0.064 A 
ATOM     70  C   UNL A   1      46.089  28.059  34.511  1.00  0.00     0.173 A 
ATOM     71  C   UNL A   1      44.654  26.248  35.175  1.00  0.00     0.173 A 
ATOM     72  F   UNL A   1      46.308  29.203  33.847  1.00  0.00    -0.203 F 
ATOM     73  C   UNL A   1      47.150  27.462  35.187  1.00  0.00     0.198 A 
ATOM     74  C   UNL A   1      45.708  25.673  35.879  1.00  0.00     0.198 A 
ATOM     75  F   UNL A   1      43.465  25.627  35.176  1.00  0.00    -0.203 F 
ATOM     76  F   UNL A   1      48.364  28.029  35.155  1.00  0.00    -0.200 F 
ATOM     77  C   UNL A   1      46.957  26.276  35.877  1.00  0.00     0.200 A 
ATOM     78  F   UNL A   1      45.515  24.533  36.557  1.00  0.00    -0.200 F 
ATOM     79  F   UNL A   1      47.977  25.707  36.534  1.00  0.00    -0.200 F 
ENDBRANCH  55  69
BRANCH  56  80
ATOM     80  C   UNL A   1      37.118  31.088  29.282  1.00  0.00     0.064 A 
ATOM     81  C   UNL A   1      36.013  30.278  28.977  1.00  0.00     0.173 A 
ATOM     82  C   UNL A   1      37.087  32.417  28.831  1.00  0.00     0.173 A 
ATOM     83  F   UNL A   1      35.995  28.994  29.365  1.00  0.00    -0.203 F 
ATOM     84  C   UNL A   1      34.936  30.770  28.239  1.00  0.00     0.198 A 
ATOM     85  C   UNL A   1      35.992  32.919  28.132  1.00  0.00     0.198 A 
ATOM     86  F   UNL A   1      38.111  33.240  29.098  1.00  0.00    -0.203 F 
ATOM     87  F   UNL A   1      33.917  29.960  27.922  1.00  0.00    -0.200 F 
ATOM     88  C   UNL A   1      34.922  32.093  27.826  1.00  0.00     0.200 A 
ATOM     89  F   UNL A   1      35.969  34.208  27.764  1.00  0.00    -0.200 F 
ATOM     90  F   UNL A   1      33.879  32.572  27.136  1.00  0.00    -0.200 F 
ENDBRANCH  56  80
BRANCH  68  91
ATOM     91  C   UNL A   1      39.347  31.962  35.824  1.00  0.00     0.064 A 
ATOM     92  C   UNL A   1      39.776  33.280  36.047  1.00  0.00     0.173 A 
ATOM     93  C   UNL A   1      38.389  31.428  36.699  1.00  0.00     0.173 A 
ATOM     94  F   UNL A   1      40.704  33.831  35.251  1.00  0.00    -0.203 F 
ATOM     95  C   UNL A   1      39.289  34.018  37.122  1.00  0.00     0.198 A 
ATOM     96  C   UNL A   1      37.877  32.182  37.750  1.00  0.00     0.198 A 
ATOM     97  F   UNL A   1      37.942  30.174  36.529  1.00  0.00    -0.203 F 
ATOM     98  F   UNL A   1      39.758  35.253  37.351  1.00  0.00    -0.200 F 
ATOM     99  C   UNL A   1      38.335  33.472  37.967  1.00  0.00     0.200 A 
ATOM    100  F   UNL A   1      36.944  31.657  38.556  1.00  0.00    -0.200 F 
ATOM    101  F   UNL A   1      37.864  34.188  38.997  1.00  0.00    -0.200 F 
ENDBRANCH  68  91
ENDBRANCH  42  43
ENDBRANCH  35  37
ENDBRANCH  34  35
ENDBRANCH  33  34
ENDBRANCH  32  33
ENDBRANCH  31  32
ENDBRANCH  30  31
ENDBRANCH  29  30
ENDBRANCH   1  29
TORSDOF 22
ENDMDL
MODEL 3
REMARK VINA RESULT:     -10.7      1.309      3.439
REMARK SMILES C[N@H+]1CCO[C@H](c2noc(-c3ccccc3C(=O)OCCOCCOCCOCCOC(=O)c3ccc(-c4c5nc(c(-c6c(F)c(F)c(F)c(F)c6F)c6ccc([nH]6)c(-c6c(F)c(F)c(F)c(F)c6F)c6nc(c(-c7c(F)c(F)c(F)c(F)c7F)c7ccc4[nH]7)C=C6)C=C5)cc3)n2)C1
REMARK SMILES IDX 25 1 24 2 23 3 22 4 21 5 20 6 19 7 17 8 18 9 16 10 11 11
REMARK SMILES IDX 12 12 13 13 15 14 14 15 10 16 7 17 8 18 97 19 9 20 6 21 1 22
REMARK SMILES IDX 2 23 3 24 98 25 4 27 5 28 26 29 27 30 28 31 29 32 30 33
REMARK SMILES IDX 31 34 32 35 33 36 34 37 35 38 96 39 36 40 95 41 37 42 38 43
REMARK SMILES IDX 39 44 89 45 40 46 94 47 88 48 90 49 41 50 93 51 87 52 86 53
REMARK SMILES IDX 42 55 74 56 54 57 73 58 55 59 58 60 72 61 91 62 56 63 57 64
REMARK SMILES IDX 71 66 92 67 59 68 43 69 44 70 52 71 45 72 46 73 50 74 53 75
REMARK SMILES IDX 47 76 48 77 51 78 49 79 75 80 76 81 84 82 77 83 78 84 82 85
REMARK SMILES IDX 85 86 79 87 80 88 83 89 81 90 60 91 61 92 69 93 62 94 63 95
REMARK SMILES IDX 67 96 70 97 64 98 65 99 68 100 66 101
REMARK H PARENT 2 26 90 54 58 65
REMARK Flexibility Score: inf
ROOT
ATOM      1  O   UNL A   1      35.728  33.045  27.670  1.00  0.00    -0.377 OA
ENDROOT
BRANCH   1   2
ATOM      2  C   UNL A   1      35.096  31.782  27.816  1.00  0.00     0.188 C 
BRANCH   2   3
ATOM      3  C   UNL A   1      35.922  30.491  27.614  1.00  0.00     0.188 C 
BRANCH   3   4
ATOM      4  O   UNL A   1      35.142  29.323  27.443  1.00  0.00    -0.376 OA
BRANCH   4   5
ATOM      5  C   UNL A   1      33.779  29.426  27.080  1.00  0.00     0.202 C 
BRANCH   5   6
ATOM      6  C   UNL A   1      32.806  28.268  27.335  1.00  0.00     0.261 C 
BRANCH   6   7
ATOM      7  O   UNL A   1      32.675  27.340  26.259  1.00  0.00    -0.460 OA
BRANCH   7   8
ATOM      8  C   UNL A   1      31.442  26.889  25.951  1.00  0.00     0.339 C 
ATOM      9  O   UNL A   1      30.690  26.278  26.690  1.00  0.00    -0.246 OA
BRANCH   8  10
ATOM     10  C   UNL A   1      31.035  27.470  24.643  1.00  0.00     0.072 A 
ATOM     11  C   UNL A   1      31.150  26.798  23.408  1.00  0.00     0.054 A 
ATOM     12  C   UNL A   1      30.768  27.480  22.238  1.00  0.00     0.015 A 
ATOM     13  C   UNL A   1      30.334  28.808  22.286  1.00  0.00     0.001 A 
ATOM     14  C   UNL A   1      30.608  28.809  24.680  1.00  0.00     0.016 A 
ATOM     15  C   UNL A   1      30.275  29.479  23.504  1.00  0.00     0.001 A 
BRANCH  11  16
ATOM     16  C   UNL A   1      31.696  25.454  23.311  1.00  0.00     0.258 A 
ATOM     17  C   UNL A   1      32.662  23.630  23.645  1.00  0.00     0.206 A 
ATOM     18  N   UNL A   1      32.951  23.889  22.361  1.00  0.00    -0.059 NA
ATOM     19  N   UNL A   1      31.796  24.522  24.228  1.00  0.00    -0.189 NA
ATOM     20  O   UNL A   1      32.324  25.122  22.141  1.00  0.00    -0.334 OA
BRANCH  17  21
ATOM     21  C   UNL A   1      33.273  22.494  24.411  1.00  0.00     0.245 C 
ATOM     22  C   UNL A   1      33.171  19.388  25.135  1.00  0.00     0.332 C 
ATOM     23  N   UNL A   1      32.650  20.504  25.918  1.00  0.00    -0.333 N 
ATOM     24  C   UNL A   1      33.640  21.040  26.871  1.00  0.00     0.290 C 
ATOM     25  C   UNL A   1      32.169  21.612  25.059  1.00  0.00     0.303 C 
ATOM     26  H   UNL A   1      31.864  20.119  26.442  1.00  0.00     0.348 HD
ATOM     27  C   UNL A   1      34.714  21.897  26.193  1.00  0.00     0.222 C 
ATOM     28  O   UNL A   1      34.158  22.983  25.451  1.00  0.00    -0.358 OA
ENDBRANCH  17  21
ENDBRANCH  11  16
ENDBRANCH   8  10
ENDBRANCH   7   8
ENDBRANCH   6   7
ENDBRANCH   5   6
ENDBRANCH   4   5
ENDBRANCH   3   4
ENDBRANCH   2   3
ENDBRANCH   1   2
BRANCH   1  29
ATOM     29  C   UNL A   1      35.263  34.172  28.409  1.00  0.00     0.188 C 
BRANCH  29  30
ATOM     30  C   UNL A   1      33.993  34.106  29.290  1.00  0.00     0.188 C 
BRANCH  30  31
ATOM     31  O   UNL A   1      33.856  35.167  30.218  1.00  0.00    -0.376 OA
BRANCH  31  32
ATOM     32  C   UNL A   1      33.630  34.843  31.577  1.00  0.00     0.202 C 
BRANCH  32  33
ATOM     33  C   UNL A   1      34.843  34.410  32.414  1.00  0.00     0.261 C 
BRANCH  33  34
ATOM     34  O   UNL A   1      35.391  33.116  32.121  1.00  0.00    -0.460 OA
BRANCH  34  35
ATOM     35  C   UNL A   1      36.307  32.622  32.977  1.00  0.00     0.338 C 
ATOM     36  O   UNL A   1      36.271  32.648  34.199  1.00  0.00    -0.246 OA
BRANCH  35  37
ATOM     37  C   UNL A   1      37.308  31.879  32.186  1.00  0.00     0.060 A 
ATOM     38  C   UNL A   1      38.228  31.051  32.841  1.00  0.00     0.016 A 
ATOM     39  C   UNL A   1      37.338  32.010  30.796  1.00  0.00     0.016 A 
ATOM     40  C   UNL A   1      39.208  30.378  32.106  1.00  0.00     0.010 A 
ATOM     41  C   UNL A   1      38.332  31.354  30.065  1.00  0.00     0.010 A 
ATOM     42  C   UNL A   1      39.292  30.564  30.720  1.00  0.00    -0.014 A 
BRANCH  42  43
ATOM     43  C   UNL A   1      40.488  30.088  29.981  1.00  0.00     0.031 A 
ATOM     44  C   UNL A   1      41.615  31.049  29.743  1.00  0.00     0.074 A 
ATOM     45  C   UNL A   1      40.579  28.831  29.516  1.00  0.00     0.049 A 
ATOM     46  N   UNL A   1      42.727  30.871  29.077  1.00  0.00    -0.248 NA
ATOM     47  C   UNL A   1      41.458  32.392  30.317  1.00  0.00     0.031 C 
ATOM     48  C   UNL A   1      39.547  27.815  29.663  1.00  0.00     0.029 A 
ATOM     49  N   UNL A   1      41.578  28.204  28.807  1.00  0.00    -0.354 N 
ATOM     50  C   UNL A   1      43.392  32.086  29.132  1.00  0.00     0.074 A 
ATOM     51  C   UNL A   1      42.549  33.000  29.877  1.00  0.00     0.031 C 
ATOM     52  C   UNL A   1      39.967  26.694  29.056  1.00  0.00     0.029 A 
ATOM     53  C   UNL A   1      41.283  26.907  28.472  1.00  0.00     0.049 A 
ATOM     54  H   UNL A   1      42.425  28.645  28.564  1.00  0.00     0.167 HD
ATOM     55  C   UNL A   1      44.597  32.410  28.609  1.00  0.00     0.037 A 
ATOM     56  C   UNL A   1      41.967  25.990  27.760  1.00  0.00     0.037 A 
ATOM     57  C   UNL A   1      45.427  31.503  27.860  1.00  0.00     0.049 A 
ATOM     58  C   UNL A   1      43.292  26.380  27.166  1.00  0.00     0.074 A 
ATOM     59  C   UNL A   1      46.674  31.735  27.306  1.00  0.00     0.029 A 
ATOM     60  N   UNL A   1      45.089  30.193  27.546  1.00  0.00    -0.354 N 
ATOM     61  N   UNL A   1      43.929  27.520  27.252  1.00  0.00    -0.248 NA
ATOM     62  C   UNL A   1      43.985  25.363  26.362  1.00  0.00     0.031 C 
ATOM     63  C   UNL A   1      47.062  30.589  26.605  1.00  0.00     0.029 A 
ATOM     64  C   UNL A   1      46.093  29.615  26.783  1.00  0.00     0.049 A 
ATOM     65  H   UNL A   1      44.260  29.741  27.825  1.00  0.00     0.167 HD
ATOM     66  C   UNL A   1      45.102  27.357  26.531  1.00  0.00     0.074 A 
ATOM     67  C   UNL A   1      45.102  25.996  26.038  1.00  0.00     0.031 C 
ATOM     68  C   UNL A   1      46.085  28.259  26.295  1.00  0.00     0.037 A 
BRANCH  55  69
ATOM     69  C   UNL A   1      45.068  33.822  28.796  1.00  0.00     0.064 A 
ATOM     70  C   UNL A   1      45.889  34.194  29.871  1.00  0.00     0.173 A 
ATOM     71  C   UNL A   1      44.703  34.816  27.875  1.00  0.00     0.173 A 
ATOM     72  F   UNL A   1      46.252  33.286  30.789  1.00  0.00    -0.203 F 
ATOM     73  C   UNL A   1      46.301  35.514  30.034  1.00  0.00     0.198 A 
ATOM     74  C   UNL A   1      45.147  36.127  28.022  1.00  0.00     0.198 A 
ATOM     75  F   UNL A   1      43.919  34.515  26.829  1.00  0.00    -0.203 F 
ATOM     76  F   UNL A   1      47.038  35.857  31.101  1.00  0.00    -0.200 F 
ATOM     77  C   UNL A   1      45.937  36.477  29.106  1.00  0.00     0.200 A 
ATOM     78  F   UNL A   1      44.804  37.053  27.115  1.00  0.00    -0.200 F 
ATOM     79  F   UNL A   1      46.342  37.745  29.259  1.00  0.00    -0.200 F 
ENDBRANCH  55  69
BRANCH  56  80
ATOM     80  C   UNL A   1      41.421  24.615  27.567  1.00  0.00     0.064 A 
ATOM     81  C   UNL A   1      42.001  23.510  28.209  1.00  0.00     0.173 A 
ATOM     82  C   UNL A   1      40.315  24.373  26.738  1.00  0.00     0.173 A 
ATOM     83  F   UNL A   1      43.072  23.678  28.997  1.00  0.00    -0.203 F 
ATOM     84  C   UNL A   1      41.506  22.220  28.016  1.00  0.00     0.198 A 
ATOM     85  C   UNL A   1      39.795  23.089  26.581  1.00  0.00     0.198 A 
ATOM     86  F   UNL A   1      39.715  25.390  26.103  1.00  0.00    -0.203 F 
ATOM     87  F   UNL A   1      42.110  21.178  28.604  1.00  0.00    -0.200 F 
ATOM     88  C   UNL A   1      40.398  22.012  27.210  1.00  0.00     0.200 A 
ATOM     89  F   UNL A   1      38.703  22.899  25.827  1.00  0.00    -0.200 F 
ATOM     90  F   UNL A   1      39.910  20.776  27.041  1.00  0.00    -0.200 F 
ENDBRANCH  56  80
BRANCH  68  91
ATOM     91  C   UNL A   1      47.265  27.790  25.493  1.00  0.00     0.064 A 
ATOM     92  C   UNL A   1      47.269  27.825  24.090  1.00  0.00     0.173 A 
ATOM     93  C   UNL A   1      48.418  27.321  26.141  1.00  0.00     0.173 A 
ATOM     94  F   UNL A   1      46.186  28.247  23.422  1.00  0.00    -0.203 F 
ATOM     95  C   UNL A   1      48.372  27.377  23.367  1.00  0.00     0.198 A 
ATOM     96  C   UNL A   1      49.531  26.909  25.416  1.00  0.00     0.198 A 
ATOM     97  F   UNL A   1      48.467  27.270  27.482  1.00  0.00    -0.203 F 
ATOM     98  F   UNL A   1      48.331  27.363  22.027  1.00  0.00    -0.200 F 
ATOM     99  C   UNL A   1      49.504  26.928  24.030  1.00  0.00     0.200 A 
ATOM    100  F   UNL A   1      50.629  26.490  26.059  1.00  0.00    -0.200 F 
ATOM    101  F   UNL A   1      50.565  26.503  23.332  1.00  0.00    -0.200 F 
ENDBRANCH  68  91
ENDBRANCH  42  43
ENDBRANCH  35  37
ENDBRANCH  34  35
ENDBRANCH  33  34
ENDBRANCH  32  33
ENDBRANCH  31  32
ENDBRANCH  30  31
ENDBRANCH  29  30
ENDBRANCH   1  29
TORSDOF 22
ENDMDL
