MODEL 1
REMARK VINA RESULT:     -10.5      0.000      0.000
REMARK SMILES Cc1ccc(CN(CC(=O)OCCOCCOCCOCCOC(=O)c2ccc(-c3c4nc(c(-c5c(F)c(F)c(F)c(F)c5F)c5ccc([nH]5)c(-c5c(F)c(F)c(F)c(F)c5F)c5nc(c(-c6c(F)c(F)c(F)c(F)c6F)c6ccc3[nH]6)C=C5)C=C4)cc2)C(=O)c2cc3c(s2)CCOC3)cc1
REMARK SMILES IDX 16 1 15 2 14 3 13 4 12 5 11 6 9 7 10 8 8 9 7 10 6 11 5 12
REMARK SMILES IDX 1 13 2 14 3 15 101 16 4 17 100 18 89 19 90 20 91 21 92 22
REMARK SMILES IDX 95 23 93 24 94 25 99 26 96 27 98 28 97 29 17 30 18 31 19 32
REMARK SMILES IDX 20 33 21 34 22 35 23 36 24 37 25 38 26 39 27 40 88 41 28 42
REMARK SMILES IDX 87 43 29 44 30 45 31 46 81 47 32 48 86 49 80 50 82 51 33 52
REMARK SMILES IDX 85 53 79 54 78 55 34 57 66 58 46 59 65 60 47 61 50 62 64 63
REMARK SMILES IDX 83 64 48 65 49 66 63 68 84 69 51 70 35 71 36 72 44 73 37 74
REMARK SMILES IDX 38 75 42 76 45 77 39 78 40 79 43 80 41 81 67 82 68 83 76 84
REMARK SMILES IDX 69 85 70 86 74 87 77 88 71 89 72 90 75 91 73 92 52 93 53 94
REMARK SMILES IDX 61 95 54 96 55 97 59 98 62 99 56 100 57 101 60 102 58 103
REMARK H PARENT 82 56 50 67
REMARK Flexibility Score: inf
ROOT
ATOM      1  C   UNL A   1      33.184  29.872  26.062  1.00  0.00     0.188 C 
ENDROOT
BRANCH   1   2
ATOM      2  C   UNL A   1      32.690  28.602  25.363  1.00  0.00     0.188 C 
BRANCH   2   3
ATOM      3  O   UNL A   1      31.293  28.484  25.119  1.00  0.00    -0.376 OA
BRANCH   3   4
ATOM      4  C   UNL A   1      30.914  28.341  23.733  1.00  0.00     0.202 C 
BRANCH   4   5
ATOM      5  C   UNL A   1      31.931  27.848  22.697  1.00  0.00     0.261 C 
BRANCH   5   6
ATOM      6  O   UNL A   1      31.480  26.730  21.938  1.00  0.00    -0.462 OA
BRANCH   6   7
ATOM      7  C   UNL A   1      32.402  25.751  21.776  1.00  0.00     0.325 C 
ATOM      8  O   UNL A   1      33.274  25.734  20.920  1.00  0.00    -0.250 OA
BRANCH   7   9
ATOM      9  C   UNL A   1      32.194  24.689  22.833  1.00  0.00     0.242 C 
BRANCH   9  10
ATOM     10  N   UNL A   1      33.341  24.423  23.714  1.00  0.00    -0.323 N 
BRANCH  10  11
ATOM     11  C   UNL A   1      33.333  25.147  25.018  1.00  0.00     0.156 C 
BRANCH  11  12
ATOM     12  C   UNL A   1      32.308  24.584  25.952  1.00  0.00    -0.029 A 
ATOM     13  C   UNL A   1      28.928  22.421  27.352  1.00  0.00     0.044 C 
ATOM     14  C   UNL A   1      30.145  23.228  27.034  1.00  0.00    -0.051 A 
ATOM     15  C   UNL A   1      29.977  24.512  26.509  1.00  0.00     0.004 A 
ATOM     16  C   UNL A   1      31.428  22.678  27.138  1.00  0.00     0.004 A 
ATOM     17  C   UNL A   1      31.061  25.204  26.002  1.00  0.00     0.006 A 
ATOM     18  C   UNL A   1      32.517  23.359  26.601  1.00  0.00     0.006 A 
ENDBRANCH  11  12
ENDBRANCH  10  11
BRANCH  10  19
ATOM     19  C   UNL A   1      34.330  23.417  23.446  1.00  0.00     0.264 C 
ATOM     20  O   UNL A   1      35.339  23.710  22.804  1.00  0.00    -0.268 OA
BRANCH  19  21
ATOM     21  C   UNL A   1      34.028  21.991  23.709  1.00  0.00     0.093 A 
ATOM     22  C   UNL A   1      34.744  21.117  24.519  1.00  0.00     0.032 A 
ATOM     23  S   UNL A   1      32.481  21.267  23.444  1.00  0.00    -0.135 S 
ATOM     24  C   UNL A   1      34.331  19.778  24.418  1.00  0.00    -0.008 A 
ATOM     25  C   UNL A   1      32.992  19.789  24.137  1.00  0.00     0.013 A 
ATOM     26  C   UNL A   1      35.090  18.528  24.755  1.00  0.00     0.196 C 
ATOM     27  C   UNL A   1      32.179  18.585  24.474  1.00  0.00     0.075 C 
ATOM     28  O   UNL A   1      34.240  17.411  25.072  1.00  0.00    -0.376 OA
ATOM     29  C   UNL A   1      33.073  17.354  24.225  1.00  0.00     0.166 C 
ENDBRANCH  19  21
ENDBRANCH  10  19
ENDBRANCH   9  10
ENDBRANCH   7   9
ENDBRANCH   6   7
ENDBRANCH   5   6
ENDBRANCH   4   5
ENDBRANCH   3   4
ENDBRANCH   2   3
ENDBRANCH   1   2
BRANCH   1  30
ATOM     30  O   UNL A   1      34.310  29.700  26.908  1.00  0.00    -0.377 OA
BRANCH  30  31
ATOM     31  C   UNL A   1      34.501  30.859  27.700  1.00  0.00     0.188 C 
BRANCH  31  32
ATOM     32  C   UNL A   1      33.363  31.850  27.630  1.00  0.00     0.188 C 
BRANCH  32  33
ATOM     33  O   UNL A   1      33.827  33.037  28.276  1.00  0.00    -0.376 OA
BRANCH  33  34
ATOM     34  C   UNL A   1      33.082  34.204  27.953  1.00  0.00     0.202 C 
BRANCH  34  35
ATOM     35  C   UNL A   1      32.781  35.049  29.199  1.00  0.00     0.261 C 
BRANCH  35  36
ATOM     36  O   UNL A   1      34.045  35.425  29.799  1.00  0.00    -0.460 OA
BRANCH  36  37
ATOM     37  C   UNL A   1      34.284  34.942  31.057  1.00  0.00     0.338 C 
ATOM     38  O   UNL A   1      34.096  35.546  32.086  1.00  0.00    -0.246 OA
BRANCH  37  39
ATOM     39  C   UNL A   1      35.087  33.671  30.975  1.00  0.00     0.060 A 
ATOM     40  C   UNL A   1      34.806  32.611  31.861  1.00  0.00     0.016 A 
ATOM     41  C   UNL A   1      36.278  33.642  30.252  1.00  0.00     0.016 A 
ATOM     42  C   UNL A   1      35.764  31.606  32.122  1.00  0.00     0.010 A 
ATOM     43  C   UNL A   1      37.237  32.677  30.551  1.00  0.00     0.010 A 
ATOM     44  C   UNL A   1      37.019  31.663  31.511  1.00  0.00    -0.014 A 
BRANCH  44  45
ATOM     45  C   UNL A   1      38.228  30.894  31.931  1.00  0.00     0.031 A 
ATOM     46  C   UNL A   1      38.634  29.650  31.148  1.00  0.00     0.074 A 
ATOM     47  C   UNL A   1      39.169  31.523  32.690  1.00  0.00     0.049 A 
ATOM     48  N   UNL A   1      39.744  28.979  31.259  1.00  0.00    -0.248 NA
ATOM     49  C   UNL A   1      37.772  29.059  30.122  1.00  0.00     0.031 C 
ATOM     50  C   UNL A   1      40.593  31.304  32.513  1.00  0.00     0.029 A 
ATOM     51  N   UNL A   1      39.153  32.619  33.565  1.00  0.00    -0.354 N 
ATOM     52  C   UNL A   1      39.900  28.191  30.130  1.00  0.00     0.074 A 
ATOM     53  C   UNL A   1      38.585  28.167  29.541  1.00  0.00     0.031 C 
ATOM     54  C   UNL A   1      41.320  32.232  33.141  1.00  0.00     0.029 A 
ATOM     55  C   UNL A   1      40.448  32.793  34.110  1.00  0.00     0.049 A 
ATOM     56  H   UNL A   1      38.368  33.178  33.768  1.00  0.00     0.167 HD
ATOM     57  C   UNL A   1      41.145  27.771  29.723  1.00  0.00     0.037 A 
ATOM     58  C   UNL A   1      40.715  32.648  35.438  1.00  0.00     0.037 A 
ATOM     59  C   UNL A   1      42.221  28.063  30.712  1.00  0.00     0.049 A 
ATOM     60  C   UNL A   1      41.571  31.385  35.679  1.00  0.00     0.074 A 
ATOM     61  C   UNL A   1      43.556  28.429  30.622  1.00  0.00     0.029 A 
ATOM     62  N   UNL A   1      41.949  28.063  32.092  1.00  0.00    -0.354 N 
ATOM     63  N   UNL A   1      41.806  30.498  34.730  1.00  0.00    -0.248 NA
ATOM     64  C   UNL A   1      42.301  31.021  36.886  1.00  0.00     0.031 C 
ATOM     65  C   UNL A   1      43.990  28.870  31.912  1.00  0.00     0.029 A 
ATOM     66  C   UNL A   1      42.988  28.596  32.836  1.00  0.00     0.049 A 
ATOM     67  H   UNL A   1      41.114  27.721  32.485  1.00  0.00     0.167 HD
ATOM     68  C   UNL A   1      42.660  29.522  35.114  1.00  0.00     0.074 A 
ATOM     69  C   UNL A   1      42.936  29.892  36.495  1.00  0.00     0.031 C 
ATOM     70  C   UNL A   1      43.024  28.476  34.302  1.00  0.00     0.037 A 
BRANCH  57  71
ATOM     71  C   UNL A   1      41.463  27.232  28.300  1.00  0.00     0.064 A 
ATOM     72  C   UNL A   1      41.597  25.842  28.055  1.00  0.00     0.173 A 
ATOM     73  C   UNL A   1      41.760  28.030  27.167  1.00  0.00     0.173 A 
ATOM     74  F   UNL A   1      41.316  24.945  29.009  1.00  0.00    -0.203 F 
ATOM     75  C   UNL A   1      42.024  25.312  26.823  1.00  0.00     0.198 A 
ATOM     76  C   UNL A   1      42.101  27.494  25.910  1.00  0.00     0.198 A 
ATOM     77  F   UNL A   1      41.801  29.365  27.235  1.00  0.00    -0.203 F 
ATOM     78  F   UNL A   1      42.216  23.991  26.694  1.00  0.00    -0.200 F 
ATOM     79  C   UNL A   1      42.259  26.136  25.744  1.00  0.00     0.200 A 
ATOM     80  F   UNL A   1      42.305  28.314  24.868  1.00  0.00    -0.200 F 
ATOM     81  F   UNL A   1      42.644  25.631  24.562  1.00  0.00    -0.200 F 
ENDBRANCH  57  71
BRANCH  58  82
ATOM     82  C   UNL A   1      39.737  33.489  36.215  1.00  0.00     0.064 A 
ATOM     83  C   UNL A   1      38.882  32.716  37.053  1.00  0.00     0.173 A 
ATOM     84  C   UNL A   1      40.200  34.700  36.762  1.00  0.00     0.173 A 
ATOM     85  F   UNL A   1      38.352  31.574  36.585  1.00  0.00    -0.203 F 
ATOM     86  C   UNL A   1      38.780  32.969  38.427  1.00  0.00     0.198 A 
ATOM     87  C   UNL A   1      40.087  34.953  38.140  1.00  0.00     0.198 A 
ATOM     88  F   UNL A   1      40.971  35.511  36.024  1.00  0.00    -0.203 F 
ATOM     89  F   UNL A   1      38.167  32.086  39.233  1.00  0.00    -0.200 F 
ATOM     90  C   UNL A   1      39.436  34.055  38.977  1.00  0.00     0.200 A 
ATOM     91  F   UNL A   1      40.741  35.991  38.684  1.00  0.00    -0.200 F 
ATOM     92  F   UNL A   1      39.513  34.191  40.310  1.00  0.00    -0.200 F 
ENDBRANCH  58  82
BRANCH  70  93
ATOM     93  C   UNL A   1      43.470  27.135  34.837  1.00  0.00     0.064 A 
ATOM     94  C   UNL A   1      44.772  26.927  35.312  1.00  0.00     0.173 A 
ATOM     95  C   UNL A   1      42.544  26.099  35.125  1.00  0.00     0.173 A 
ATOM     96  F   UNL A   1      45.705  27.887  35.239  1.00  0.00    -0.203 F 
ATOM     97  C   UNL A   1      45.142  25.750  35.957  1.00  0.00     0.198 A 
ATOM     98  C   UNL A   1      42.900  24.956  35.833  1.00  0.00     0.198 A 
ATOM     99  F   UNL A   1      41.254  26.168  34.771  1.00  0.00    -0.203 F 
ATOM    100  F   UNL A   1      46.412  25.587  36.349  1.00  0.00    -0.200 F 
ATOM    101  C   UNL A   1      44.204  24.773  36.230  1.00  0.00     0.200 A 
ATOM    102  F   UNL A   1      41.962  24.052  36.149  1.00  0.00    -0.200 F 
ATOM    103  F   UNL A   1      44.555  23.666  36.897  1.00  0.00    -0.200 F 
ENDBRANCH  70  93
ENDBRANCH  44  45
ENDBRANCH  37  39
ENDBRANCH  36  37
ENDBRANCH  35  36
ENDBRANCH  34  35
ENDBRANCH  33  34
ENDBRANCH  32  33
ENDBRANCH  31  32
ENDBRANCH  30  31
ENDBRANCH   1  30
TORSDOF 25
ENDMDL
MODEL 2
REMARK VINA RESULT:     -10.5      2.101      4.205
REMARK SMILES Cc1ccc(CN(CC(=O)OCCOCCOCCOCCOC(=O)c2ccc(-c3c4nc(c(-c5c(F)c(F)c(F)c(F)c5F)c5ccc([nH]5)c(-c5c(F)c(F)c(F)c(F)c5F)c5nc(c(-c6c(F)c(F)c(F)c(F)c6F)c6ccc3[nH]6)C=C5)C=C4)cc2)C(=O)c2cc3c(s2)CCOC3)cc1
REMARK SMILES IDX 16 1 15 2 14 3 13 4 12 5 11 6 9 7 10 8 8 9 7 10 6 11 5 12
REMARK SMILES IDX 1 13 2 14 3 15 101 16 4 17 100 18 89 19 90 20 91 21 92 22
REMARK SMILES IDX 95 23 93 24 94 25 99 26 96 27 98 28 97 29 17 30 18 31 19 32
REMARK SMILES IDX 20 33 21 34 22 35 23 36 24 37 25 38 26 39 27 40 88 41 28 42
REMARK SMILES IDX 87 43 29 44 30 45 31 46 81 47 32 48 86 49 80 50 82 51 33 52
REMARK SMILES IDX 85 53 79 54 78 55 34 57 66 58 46 59 65 60 47 61 50 62 64 63
REMARK SMILES IDX 83 64 48 65 49 66 63 68 84 69 51 70 35 71 36 72 44 73 37 74
REMARK SMILES IDX 38 75 42 76 45 77 39 78 40 79 43 80 41 81 67 82 68 83 76 84
REMARK SMILES IDX 69 85 70 86 74 87 77 88 71 89 72 90 75 91 73 92 52 93 53 94
REMARK SMILES IDX 61 95 54 96 55 97 59 98 62 99 56 100 57 101 60 102 58 103
REMARK H PARENT 82 56 50 67
REMARK Flexibility Score: inf
ROOT
ATOM      1  C   UNL A   1      34.106  30.371  27.174  1.00  0.00     0.188 C 
ENDROOT
BRANCH   1   2
ATOM      2  C   UNL A   1      33.492  29.091  26.600  1.00  0.00     0.188 C 
BRANCH   2   3
ATOM      3  O   UNL A   1      32.077  28.950  26.669  1.00  0.00    -0.376 OA
BRANCH   3   4
ATOM      4  C   UNL A   1      31.602  27.861  27.488  1.00  0.00     0.202 C 
BRANCH   4   5
ATOM      5  C   UNL A   1      30.856  26.680  26.857  1.00  0.00     0.261 C 
BRANCH   5   6
ATOM      6  O   UNL A   1      31.591  25.460  26.879  1.00  0.00    -0.462 OA
BRANCH   6   7
ATOM      7  C   UNL A   1      30.881  24.369  26.506  1.00  0.00     0.325 C 
ATOM      8  O   UNL A   1      29.787  24.050  26.948  1.00  0.00    -0.250 OA
BRANCH   7   9
ATOM      9  C   UNL A   1      31.648  23.613  25.443  1.00  0.00     0.242 C 
BRANCH   9  10
ATOM     10  N   UNL A   1      32.476  24.430  24.542  1.00  0.00    -0.323 N 
BRANCH  10  11
ATOM     11  C   UNL A   1      33.913  24.553  24.923  1.00  0.00     0.156 C 
BRANCH  11  12
ATOM     12  C   UNL A   1      34.669  23.297  24.627  1.00  0.00    -0.029 A 
ATOM     13  C   UNL A   1      37.662  20.286  24.830  1.00  0.00     0.044 C 
ATOM     14  C   UNL A   1      36.530  21.241  24.632  1.00  0.00    -0.051 A 
ATOM     15  C   UNL A   1      36.747  22.382  23.855  1.00  0.00     0.004 A 
ATOM     16  C   UNL A   1      35.313  21.074  25.303  1.00  0.00     0.004 A 
ATOM     17  C   UNL A   1      35.804  23.391  23.823  1.00  0.00     0.006 A 
ATOM     18  C   UNL A   1      34.375  22.101  25.298  1.00  0.00     0.006 A 
ENDBRANCH  11  12
ENDBRANCH  10  11
BRANCH  10  19
ATOM     19  C   UNL A   1      32.009  24.947  23.287  1.00  0.00     0.264 C 
ATOM     20  O   UNL A   1      32.395  24.437  22.236  1.00  0.00    -0.268 OA
BRANCH  19  21
ATOM     21  C   UNL A   1      31.277  26.235  23.242  1.00  0.00     0.093 A 
ATOM     22  C   UNL A   1      29.932  26.446  23.520  1.00  0.00     0.032 A 
ATOM     23  S   UNL A   1      32.045  27.783  23.295  1.00  0.00    -0.135 S 
ATOM     24  C   UNL A   1      29.480  27.738  23.200  1.00  0.00    -0.008 A 
ATOM     25  C   UNL A   1      30.538  28.589  23.370  1.00  0.00     0.013 A 
ATOM     26  C   UNL A   1      28.080  28.210  22.934  1.00  0.00     0.196 C 
ATOM     27  C   UNL A   1      30.263  30.034  23.612  1.00  0.00     0.075 C 
ATOM     28  O   UNL A   1      27.890  29.612  23.193  1.00  0.00    -0.376 OA
ATOM     29  C   UNL A   1      29.022  30.403  22.774  1.00  0.00     0.166 C 
ENDBRANCH  19  21
ENDBRANCH  10  19
ENDBRANCH   9  10
ENDBRANCH   7   9
ENDBRANCH   6   7
ENDBRANCH   5   6
ENDBRANCH   4   5
ENDBRANCH   3   4
ENDBRANCH   2   3
ENDBRANCH   1   2
BRANCH   1  30
ATOM     30  O   UNL A   1      35.141  30.173  28.126  1.00  0.00    -0.377 OA
BRANCH  30  31
ATOM     31  C   UNL A   1      35.575  31.422  28.635  1.00  0.00     0.188 C 
BRANCH  31  32
ATOM     32  C   UNL A   1      34.738  32.596  28.186  1.00  0.00     0.188 C 
BRANCH  32  33
ATOM     33  O   UNL A   1      35.083  33.685  29.045  1.00  0.00    -0.376 OA
BRANCH  33  34
ATOM     34  C   UNL A   1      34.466  34.918  28.700  1.00  0.00     0.202 C 
BRANCH  34  35
ATOM     35  C   UNL A   1      33.145  35.124  29.455  1.00  0.00     0.261 C 
BRANCH  35  36
ATOM     36  O   UNL A   1      33.444  35.805  30.699  1.00  0.00    -0.460 OA
BRANCH  36  37
ATOM     37  C   UNL A   1      33.124  35.134  31.848  1.00  0.00     0.338 C 
ATOM     38  O   UNL A   1      32.010  35.007  32.295  1.00  0.00    -0.246 OA
BRANCH  37  39
ATOM     39  C   UNL A   1      34.374  34.830  32.630  1.00  0.00     0.060 A 
ATOM     40  C   UNL A   1      35.618  35.309  32.168  1.00  0.00     0.016 A 
ATOM     41  C   UNL A   1      34.360  33.849  33.618  1.00  0.00     0.016 A 
ATOM     42  C   UNL A   1      36.829  34.718  32.592  1.00  0.00     0.010 A 
ATOM     43  C   UNL A   1      35.553  33.236  33.993  1.00  0.00     0.010 A 
ATOM     44  C   UNL A   1      36.805  33.629  33.467  1.00  0.00    -0.014 A 
BRANCH  44  45
ATOM     45  C   UNL A   1      37.943  32.701  33.733  1.00  0.00     0.031 A 
ATOM     46  C   UNL A   1      38.020  31.375  32.984  1.00  0.00     0.074 A 
ATOM     47  C   UNL A   1      39.084  33.209  34.279  1.00  0.00     0.049 A 
ATOM     48  N   UNL A   1      39.023  30.545  32.955  1.00  0.00    -0.248 NA
ATOM     49  C   UNL A   1      36.915  30.880  32.159  1.00  0.00     0.031 C 
ATOM     50  C   UNL A   1      40.408  32.762  33.883  1.00  0.00     0.029 A 
ATOM     51  N   UNL A   1      39.382  34.332  35.065  1.00  0.00    -0.354 N 
ATOM     52  C   UNL A   1      38.862  29.692  31.875  1.00  0.00     0.074 A 
ATOM     53  C   UNL A   1      37.475  29.847  31.516  1.00  0.00     0.031 C 
ATOM     54  C   UNL A   1      41.361  33.593  34.315  1.00  0.00     0.029 A 
ATOM     55  C   UNL A   1      40.763  34.326  35.373  1.00  0.00     0.049 A 
ATOM     56  H   UNL A   1      38.735  35.014  35.355  1.00  0.00     0.167 HD
ATOM     57  C   UNL A   1      39.941  29.066  31.298  1.00  0.00     0.037 A 
ATOM     58  C   UNL A   1      41.235  34.200  36.645  1.00  0.00     0.037 A 
ATOM     59  C   UNL A   1      41.205  29.230  32.070  1.00  0.00     0.049 A 
ATOM     60  C   UNL A   1      41.926  32.832  36.829  1.00  0.00     0.074 A 
ATOM     61  C   UNL A   1      42.542  29.380  31.735  1.00  0.00     0.029 A 
ATOM     62  N   UNL A   1      41.182  29.334  33.474  1.00  0.00    -0.354 N 
ATOM     63  N   UNL A   1      41.860  31.877  35.919  1.00  0.00    -0.248 NA
ATOM     64  C   UNL A   1      42.795  32.412  37.921  1.00  0.00     0.031 C 
ATOM     65  C   UNL A   1      43.255  29.804  32.900  1.00  0.00     0.029 A 
ATOM     66  C   UNL A   1      42.401  29.732  33.995  1.00  0.00     0.049 A 
ATOM     67  H   UNL A   1      40.387  29.145  34.023  1.00  0.00     0.167 HD
ATOM     68  C   UNL A   1      42.616  30.798  36.224  1.00  0.00     0.074 A 
ATOM     69  C   UNL A   1      43.180  31.182  37.510  1.00  0.00     0.031 C 
ATOM     70  C   UNL A   1      42.676  29.673  35.439  1.00  0.00     0.037 A 
BRANCH  57  71
ATOM     71  C   UNL A   1      39.923  28.421  29.884  1.00  0.00     0.064 A 
ATOM     72  C   UNL A   1      39.346  27.145  29.667  1.00  0.00     0.173 A 
ATOM     73  C   UNL A   1      40.555  28.950  28.730  1.00  0.00     0.173 A 
ATOM     74  F   UNL A   1      38.676  26.518  30.642  1.00  0.00    -0.203 F 
ATOM     75  C   UNL A   1      39.430  26.455  28.442  1.00  0.00     0.198 A 
ATOM     76  C   UNL A   1      40.562  28.299  27.482  1.00  0.00     0.198 A 
ATOM     77  F   UNL A   1      41.254  30.091  28.771  1.00  0.00    -0.203 F 
ATOM     78  F   UNL A   1      38.939  25.212  28.339  1.00  0.00    -0.200 F 
ATOM     79  C   UNL A   1      40.022  27.040  27.343  1.00  0.00     0.200 A 
ATOM     80  F   UNL A   1      41.125  28.896  26.421  1.00  0.00    -0.200 F 
ATOM     81  F   UNL A   1      40.083  26.394  26.169  1.00  0.00    -0.200 F 
ENDBRANCH  57  71
BRANCH  58  82
ATOM     82  C   UNL A   1      40.541  35.217  37.512  1.00  0.00     0.064 A 
ATOM     83  C   UNL A   1      39.845  34.631  38.609  1.00  0.00     0.173 A 
ATOM     84  C   UNL A   1      41.220  36.418  37.789  1.00  0.00     0.173 A 
ATOM     85  F   UNL A   1      39.125  33.513  38.414  1.00  0.00    -0.203 F 
ATOM     86  C   UNL A   1      40.090  35.029  39.929  1.00  0.00     0.198 A 
ATOM     87  C   UNL A   1      41.456  36.819  39.116  1.00  0.00     0.198 A 
ATOM     88  F   UNL A   1      41.862  37.062  36.804  1.00  0.00    -0.203 F 
ATOM     89  F   UNL A   1      39.611  34.304  40.953  1.00  0.00    -0.200 F 
ATOM     90  C   UNL A   1      40.947  36.086  40.181  1.00  0.00     0.200 A 
ATOM     91  F   UNL A   1      42.304  37.827  39.369  1.00  0.00    -0.200 F 
ATOM     92  F   UNL A   1      41.346  36.345  41.436  1.00  0.00    -0.200 F 
ENDBRANCH  58  82
BRANCH  70  93
ATOM     93  C   UNL A   1      43.008  28.304  35.986  1.00  0.00     0.064 A 
ATOM     94  C   UNL A   1      44.332  27.898  36.200  1.00  0.00     0.173 A 
ATOM     95  C   UNL A   1      42.014  27.461  36.548  1.00  0.00     0.173 A 
ATOM     96  F   UNL A   1      45.367  28.675  35.853  1.00  0.00    -0.203 F 
ATOM     97  C   UNL A   1      44.641  26.708  36.855  1.00  0.00     0.198 A 
ATOM     98  C   UNL A   1      42.329  26.312  37.264  1.00  0.00     0.198 A 
ATOM     99  F   UNL A   1      40.706  27.735  36.461  1.00  0.00    -0.203 F 
ATOM    100  F   UNL A   1      45.923  26.348  36.990  1.00  0.00    -0.200 F 
ATOM    101  C   UNL A   1      43.642  25.925  37.399  1.00  0.00     0.200 A 
ATOM    102  F   UNL A   1      41.350  25.602  37.844  1.00  0.00    -0.200 F 
ATOM    103  F   UNL A   1      43.948  24.810  38.074  1.00  0.00    -0.200 F 
ENDBRANCH  70  93
ENDBRANCH  44  45
ENDBRANCH  37  39
ENDBRANCH  36  37
ENDBRANCH  35  36
ENDBRANCH  34  35
ENDBRANCH  33  34
ENDBRANCH  32  33
ENDBRANCH  31  32
ENDBRANCH  30  31
ENDBRANCH   1  30
TORSDOF 25
ENDMDL
MODEL 3
REMARK VINA RESULT:     -10.4      1.503      3.029
REMARK SMILES Cc1ccc(CN(CC(=O)OCCOCCOCCOCCOC(=O)c2ccc(-c3c4nc(c(-c5c(F)c(F)c(F)c(F)c5F)c5ccc([nH]5)c(-c5c(F)c(F)c(F)c(F)c5F)c5nc(c(-c6c(F)c(F)c(F)c(F)c6F)c6ccc3[nH]6)C=C5)C=C4)cc2)C(=O)c2cc3c(s2)CCOC3)cc1
REMARK SMILES IDX 16 1 15 2 14 3 13 4 12 5 11 6 9 7 10 8 8 9 7 10 6 11 5 12
REMARK SMILES IDX 1 13 2 14 3 15 101 16 4 17 100 18 89 19 90 20 91 21 92 22
REMARK SMILES IDX 95 23 93 24 94 25 99 26 96 27 98 28 97 29 17 30 18 31 19 32
REMARK SMILES IDX 20 33 21 34 22 35 23 36 24 37 25 38 26 39 27 40 88 41 28 42
REMARK SMILES IDX 87 43 29 44 30 45 31 46 81 47 32 48 86 49 80 50 82 51 33 52
REMARK SMILES IDX 85 53 79 54 78 55 34 57 66 58 46 59 65 60 47 61 50 62 64 63
REMARK SMILES IDX 83 64 48 65 49 66 63 68 84 69 51 70 35 71 36 72 44 73 37 74
REMARK SMILES IDX 38 75 42 76 45 77 39 78 40 79 43 80 41 81 67 82 68 83 76 84
REMARK SMILES IDX 69 85 70 86 74 87 77 88 71 89 72 90 75 91 73 92 52 93 53 94
REMARK SMILES IDX 61 95 54 96 55 97 59 98 62 99 56 100 57 101 60 102 58 103
REMARK H PARENT 82 56 50 67
REMARK Flexibility Score: inf
ROOT
ATOM      1  C   UNL A   1      31.015  27.777  24.853  1.00  0.00     0.188 C 
ENDROOT
BRANCH   1   2
ATOM      2  C   UNL A   1      31.624  27.744  23.449  1.00  0.00     0.188 C 
BRANCH   2   3
ATOM      3  O   UNL A   1      31.015  26.891  22.486  1.00  0.00    -0.376 OA
BRANCH   3   4
ATOM      4  C   UNL A   1      31.831  26.566  21.340  1.00  0.00     0.202 C 
BRANCH   4   5
ATOM      5  C   UNL A   1      32.894  25.465  21.429  1.00  0.00     0.261 C 
BRANCH   5   6
ATOM      6  O   UNL A   1      32.455  24.300  22.123  1.00  0.00    -0.462 OA
BRANCH   6   7
ATOM      7  C   UNL A   1      33.423  23.379  22.343  1.00  0.00     0.325 C 
ATOM      8  O   UNL A   1      34.599  23.498  22.033  1.00  0.00    -0.250 OA
BRANCH   7   9
ATOM      9  C   UNL A   1      32.822  22.182  23.047  1.00  0.00     0.242 C 
BRANCH   9  10
ATOM     10  N   UNL A   1      32.989  22.144  24.508  1.00  0.00    -0.323 N 
BRANCH  10  11
ATOM     11  C   UNL A   1      32.157  21.135  25.225  1.00  0.00     0.156 C 
BRANCH  11  12
ATOM     12  C   UNL A   1      32.456  19.744  24.759  1.00  0.00    -0.029 A 
ATOM     13  C   UNL A   1      34.405  16.510  22.809  1.00  0.00     0.044 C 
ATOM     14  C   UNL A   1      33.602  17.523  23.558  1.00  0.00    -0.051 A 
ATOM     15  C   UNL A   1      32.695  18.315  22.848  1.00  0.00     0.004 A 
ATOM     16  C   UNL A   1      33.831  17.770  24.917  1.00  0.00     0.004 A 
ATOM     17  C   UNL A   1      32.096  19.401  23.456  1.00  0.00     0.006 A 
ATOM     18  C   UNL A   1      33.253  18.881  25.524  1.00  0.00     0.006 A 
ENDBRANCH  11  12
ENDBRANCH  10  11
BRANCH  10  19
ATOM     19  C   UNL A   1      33.993  22.890  25.211  1.00  0.00     0.264 C 
ATOM     20  O   UNL A   1      33.787  24.069  25.501  1.00  0.00    -0.268 OA
BRANCH  19  21
ATOM     21  C   UNL A   1      35.359  22.336  25.362  1.00  0.00     0.093 A 
ATOM     22  C   UNL A   1      35.917  21.275  24.658  1.00  0.00     0.032 A 
ATOM     23  S   UNL A   1      36.671  23.189  26.097  1.00  0.00    -0.135 S 
ATOM     24  C   UNL A   1      37.160  20.851  25.158  1.00  0.00    -0.008 A 
ATOM     25  C   UNL A   1      37.778  21.950  25.690  1.00  0.00     0.013 A 
ATOM     26  C   UNL A   1      37.845  19.527  24.985  1.00  0.00     0.196 C 
ATOM     27  C   UNL A   1      39.263  21.944  25.820  1.00  0.00     0.075 C 
ATOM     28  O   UNL A   1      39.275  19.601  25.120  1.00  0.00    -0.376 OA
ATOM     29  C   UNL A   1      39.679  20.502  26.172  1.00  0.00     0.166 C 
ENDBRANCH  19  21
ENDBRANCH  10  19
ENDBRANCH   9  10
ENDBRANCH   7   9
ENDBRANCH   6   7
ENDBRANCH   5   6
ENDBRANCH   4   5
ENDBRANCH   3   4
ENDBRANCH   2   3
ENDBRANCH   1   2
BRANCH   1  30
ATOM     30  O   UNL A   1      31.754  27.090  25.851  1.00  0.00    -0.377 OA
BRANCH  30  31
ATOM     31  C   UNL A   1      31.742  27.831  27.059  1.00  0.00     0.188 C 
BRANCH  31  32
ATOM     32  C   UNL A   1      31.546  29.317  26.869  1.00  0.00     0.188 C 
BRANCH  32  33
ATOM     33  O   UNL A   1      32.597  29.955  27.598  1.00  0.00    -0.376 OA
BRANCH  33  34
ATOM     34  C   UNL A   1      32.804  31.317  27.249  1.00  0.00     0.202 C 
BRANCH  34  35
ATOM     35  C   UNL A   1      34.238  31.771  27.553  1.00  0.00     0.261 C 
BRANCH  35  36
ATOM     36  O   UNL A   1      34.220  33.208  27.744  1.00  0.00    -0.460 OA
BRANCH  36  37
ATOM     37  C   UNL A   1      33.900  33.647  28.999  1.00  0.00     0.338 C 
ATOM     38  O   UNL A   1      32.935  34.317  29.280  1.00  0.00    -0.246 OA
BRANCH  37  39
ATOM     39  C   UNL A   1      35.064  33.433  29.931  1.00  0.00     0.060 A 
ATOM     40  C   UNL A   1      36.359  33.817  29.526  1.00  0.00     0.016 A 
ATOM     41  C   UNL A   1      34.928  32.602  31.040  1.00  0.00     0.016 A 
ATOM     42  C   UNL A   1      37.507  33.268  30.140  1.00  0.00     0.010 A 
ATOM     43  C   UNL A   1      36.062  32.025  31.607  1.00  0.00     0.010 A 
ATOM     44  C   UNL A   1      37.368  32.315  31.152  1.00  0.00    -0.014 A 
BRANCH  44  45
ATOM     45  C   UNL A   1      38.447  31.412  31.651  1.00  0.00     0.031 A 
ATOM     46  C   UNL A   1      38.739  30.111  30.909  1.00  0.00     0.074 A 
ATOM     47  C   UNL A   1      39.414  31.935  32.455  1.00  0.00     0.049 A 
ATOM     48  N   UNL A   1      39.749  29.312  31.093  1.00  0.00    -0.248 NA
ATOM     49  C   UNL A   1      37.869  29.611  29.842  1.00  0.00     0.031 C 
ATOM     50  C   UNL A   1      40.808  31.539  32.364  1.00  0.00     0.029 A 
ATOM     51  N   UNL A   1      39.485  33.042  33.314  1.00  0.00    -0.354 N 
ATOM     52  C   UNL A   1      39.869  28.487  29.986  1.00  0.00     0.074 A 
ATOM     53  C   UNL A   1      38.596  28.614  29.322  1.00  0.00     0.031 C 
ATOM     54  C   UNL A   1      41.608  32.382  33.022  1.00  0.00     0.029 A 
ATOM     55  C   UNL A   1      40.759  33.067  33.931  1.00  0.00     0.049 A 
ATOM     56  H   UNL A   1      38.766  33.697  33.463  1.00  0.00     0.167 HD
ATOM     57  C   UNL A   1      41.073  27.909  29.658  1.00  0.00     0.037 A 
ATOM     58  C   UNL A   1      40.932  32.916  35.274  1.00  0.00     0.037 A 
ATOM     59  C   UNL A   1      42.120  28.087  30.703  1.00  0.00     0.049 A 
ATOM     60  C   UNL A   1      41.609  31.563  35.581  1.00  0.00     0.074 A 
ATOM     61  C   UNL A   1      43.492  28.284  30.686  1.00  0.00     0.029 A 
ATOM     62  N   UNL A   1      41.773  28.147  32.065  1.00  0.00    -0.354 N 
ATOM     63  N   UNL A   1      41.786  30.635  34.658  1.00  0.00    -0.248 NA
ATOM     64  C   UNL A   1      42.220  31.135  36.832  1.00  0.00     0.031 C 
ATOM     65  C   UNL A   1      43.905  28.693  31.993  1.00  0.00     0.029 A 
ATOM     66  C   UNL A   1      42.826  28.564  32.861  1.00  0.00     0.049 A 
ATOM     67  H   UNL A   1      40.881  27.919  32.413  1.00  0.00     0.167 HD
ATOM     68  C   UNL A   1      42.488  29.569  35.104  1.00  0.00     0.074 A 
ATOM     69  C   UNL A   1      42.731  29.929  36.494  1.00  0.00     0.031 C 
ATOM     70  C   UNL A   1      42.765  28.469  34.328  1.00  0.00     0.037 A 
BRANCH  57  71
ATOM     71  C   UNL A   1      41.400  27.307  28.262  1.00  0.00     0.064 A 
ATOM     72  C   UNL A   1      41.281  25.916  28.018  1.00  0.00     0.173 A 
ATOM     73  C   UNL A   1      41.945  28.022  27.166  1.00  0.00     0.173 A 
ATOM     74  F   UNL A   1      40.749  25.099  28.936  1.00  0.00    -0.203 F 
ATOM     75  C   UNL A   1      41.700  25.302  26.822  1.00  0.00     0.198 A 
ATOM     76  C   UNL A   1      42.282  27.419  25.938  1.00  0.00     0.198 A 
ATOM     77  F   UNL A   1      42.240  29.324  27.250  1.00  0.00    -0.203 F 
ATOM     78  F   UNL A   1      41.640  23.968  26.698  1.00  0.00    -0.200 F 
ATOM     79  C   UNL A   1      42.184  26.056  25.775  1.00  0.00     0.200 A 
ATOM     80  F   UNL A   1      42.731  28.175  24.925  1.00  0.00    -0.200 F 
ATOM     81  F   UNL A   1      42.563  25.475  24.626  1.00  0.00    -0.200 F 
ENDBRANCH  57  71
BRANCH  58  82
ATOM     82  C   UNL A   1      40.024  33.886  35.981  1.00  0.00     0.064 A 
ATOM     83  C   UNL A   1      39.068  33.243  36.820  1.00  0.00     0.173 A 
ATOM     84  C   UNL A   1      40.593  35.067  36.494  1.00  0.00     0.173 A 
ATOM     85  F   UNL A   1      38.436  32.142  36.381  1.00  0.00    -0.203 F 
ATOM     86  C   UNL A   1      38.951  33.566  38.179  1.00  0.00     0.198 A 
ATOM     87  C   UNL A   1      40.466  35.391  37.856  1.00  0.00     0.198 A 
ATOM     88  F   UNL A   1      41.466  35.761  35.751  1.00  0.00    -0.203 F 
ATOM     89  F   UNL A   1      38.226  32.787  38.998  1.00  0.00    -0.200 F 
ATOM     90  C   UNL A   1      39.701  34.602  38.706  1.00  0.00     0.200 A 
ATOM     91  F   UNL A   1      41.208  36.379  38.380  1.00  0.00    -0.200 F 
ATOM     92  F   UNL A   1      39.751  34.788  40.035  1.00  0.00    -0.200 F 
ENDBRANCH  58  82
BRANCH  70  93
ATOM     93  C   UNL A   1      43.011  27.095  34.906  1.00  0.00     0.064 A 
ATOM     94  C   UNL A   1      41.988  26.140  34.996  1.00  0.00     0.173 A 
ATOM     95  C   UNL A   1      44.321  26.609  35.149  1.00  0.00     0.173 A 
ATOM     96  F   UNL A   1      40.727  26.431  34.647  1.00  0.00    -0.203 F 
ATOM     97  C   UNL A   1      42.241  24.823  35.371  1.00  0.00     0.198 A 
ATOM     98  C   UNL A   1      44.578  25.276  35.452  1.00  0.00     0.198 A 
ATOM     99  F   UNL A   1      45.406  27.390  35.064  1.00  0.00    -0.203 F 
ATOM    100  F   UNL A   1      41.220  23.966  35.485  1.00  0.00    -0.200 F 
ATOM    101  C   UNL A   1      43.535  24.389  35.584  1.00  0.00     0.200 A 
ATOM    102  F   UNL A   1      45.845  24.858  35.587  1.00  0.00    -0.200 F 
ATOM    103  F   UNL A   1      43.777  23.108  35.893  1.00  0.00    -0.200 F 
ENDBRANCH  70  93
ENDBRANCH  44  45
ENDBRANCH  37  39
ENDBRANCH  36  37
ENDBRANCH  35  36
ENDBRANCH  34  35
ENDBRANCH  33  34
ENDBRANCH  32  33
ENDBRANCH  31  32
ENDBRANCH  30  31
ENDBRANCH   1  30
TORSDOF 25
ENDMDL
