MODEL 1
REMARK VINA RESULT:     -10.9      0.000      0.000
REMARK SMILES C[C@H](Nc1ccc2c(c1)Cc1ccccc1-2)[C@@H](C)C(=O)OCCOCCOCCOCCOC(=O)c1ccc(-c2c3nc(c(-c4c(F)c(F)c(F)c(F)c4F)c4ccc([nH]4)c(-c4c(F)c(F)c(F)c(F)c4F)c4nc(c(-c5c(F)c(F)c(F)c(F)c5F)c5ccc2[nH]5)C=C4)C=C3)cc1
REMARK SMILES IDX 26 1 25 2 24 3 23 4 22 5 21 6 19 7 20 8 17 9 18 10 2 11 1 12
REMARK SMILES IDX 3 13 4 15 5 16 9 17 6 18 8 19 7 20 10 21 16 22 11 23 15 24
REMARK SMILES IDX 12 25 14 26 13 27 27 28 28 29 29 30 30 31 31 32 32 33 33 34
REMARK SMILES IDX 34 35 35 36 36 37 37 38 98 39 38 40 97 41 39 42 40 43 41 44
REMARK SMILES IDX 91 45 42 46 96 47 90 48 92 49 43 50 95 51 89 52 88 53 44 55
REMARK SMILES IDX 76 56 56 57 75 58 57 59 60 60 74 61 93 62 58 63 59 64 73 66
REMARK SMILES IDX 94 67 61 68 45 69 46 70 54 71 47 72 48 73 52 74 55 75 49 76
REMARK SMILES IDX 50 77 53 78 51 79 77 80 78 81 86 82 79 83 80 84 84 85 87 86
REMARK SMILES IDX 81 87 82 88 85 89 83 90 62 91 63 92 71 93 64 94 65 95 69 96
REMARK SMILES IDX 72 97 66 98 67 99 70 100 68 101
REMARK H PARENT 3 14 92 54 60 65
REMARK Flexibility Score: inf
ROOT
ATOM      1  C   UNL A   1      34.134  30.464  26.720  1.00  0.00     0.188 C 
ENDROOT
BRANCH   1   2
ATOM      2  C   UNL A   1      34.165  28.939  26.983  1.00  0.00     0.188 C 
BRANCH   2   3
ATOM      3  O   UNL A   1      33.092  28.314  27.674  1.00  0.00    -0.376 OA
BRANCH   3   4
ATOM      4  C   UNL A   1      31.772  28.560  27.238  1.00  0.00     0.202 C 
BRANCH   4   5
ATOM      5  C   UNL A   1      31.403  28.251  25.770  1.00  0.00     0.261 C 
BRANCH   5   6
ATOM      6  O   UNL A   1      30.996  26.905  25.394  1.00  0.00    -0.463 OA
BRANCH   6   7
ATOM      7  C   UNL A   1      31.629  26.341  24.328  1.00  0.00     0.310 C 
ATOM      8  O   UNL A   1      31.076  25.563  23.556  1.00  0.00    -0.252 OA
BRANCH   7   9
ATOM      9  C   UNL A   1      33.145  26.619  24.236  1.00  0.00     0.118 C 
ATOM     10  C   UNL A   1      33.388  27.027  22.782  1.00  0.00     0.022 C 
BRANCH   9  11
ATOM     11  C   UNL A   1      34.163  25.555  24.758  1.00  0.00     0.090 C 
ATOM     12  C   UNL A   1      34.777  24.731  23.611  1.00  0.00     0.031 C 
BRANCH  11  13
ATOM     13  N   UNL A   1      33.554  24.643  25.777  1.00  0.00    -0.382 N 
ATOM     14  H   UNL A   1      33.116  25.038  26.565  1.00  0.00     0.160 HD
BRANCH  13  15
ATOM     15  C   UNL A   1      33.586  23.253  25.650  1.00  0.00     0.035 A 
ATOM     16  C   UNL A   1      34.564  22.494  26.333  1.00  0.00     0.026 A 
ATOM     17  C   UNL A   1      32.750  22.605  24.731  1.00  0.00     0.030 A 
ATOM     18  C   UNL A   1      34.812  21.150  26.026  1.00  0.00     0.011 A 
ATOM     19  C   UNL A   1      32.972  21.259  24.458  1.00  0.00    -0.034 A 
ATOM     20  C   UNL A   1      34.032  20.548  25.060  1.00  0.00    -0.014 A 
ATOM     21  C   UNL A   1      32.209  20.349  23.515  1.00  0.00     0.072 C 
ATOM     22  C   UNL A   1      34.075  19.209  24.511  1.00  0.00    -0.015 A 
ATOM     23  C   UNL A   1      32.983  19.048  23.632  1.00  0.00    -0.036 A 
ATOM     24  C   UNL A   1      34.978  18.176  24.703  1.00  0.00     0.009 A 
ATOM     25  C   UNL A   1      32.735  17.841  23.000  1.00  0.00     0.005 A 
ATOM     26  C   UNL A   1      34.749  16.960  24.052  1.00  0.00     0.001 A 
ATOM     27  C   UNL A   1      33.626  16.788  23.224  1.00  0.00     0.000 A 
ENDBRANCH  13  15
ENDBRANCH  11  13
ENDBRANCH   9  11
ENDBRANCH   7   9
ENDBRANCH   6   7
ENDBRANCH   5   6
ENDBRANCH   4   5
ENDBRANCH   3   4
ENDBRANCH   2   3
ENDBRANCH   1   2
BRANCH   1  28
ATOM     28  O   UNL A   1      34.838  31.233  27.673  1.00  0.00    -0.377 OA
BRANCH  28  29
ATOM     29  C   UNL A   1      34.022  31.928  28.593  1.00  0.00     0.188 C 
BRANCH  29  30
ATOM     30  C   UNL A   1      34.367  33.414  28.766  1.00  0.00     0.188 C 
BRANCH  30  31
ATOM     31  O   UNL A   1      33.742  34.009  29.899  1.00  0.00    -0.376 OA
BRANCH  31  32
ATOM     32  C   UNL A   1      34.545  34.505  30.959  1.00  0.00     0.202 C 
BRANCH  32  33
ATOM     33  C   UNL A   1      34.429  33.795  32.319  1.00  0.00     0.261 C 
BRANCH  33  34
ATOM     34  O   UNL A   1      34.948  32.458  32.384  1.00  0.00    -0.460 OA
BRANCH  34  35
ATOM     35  C   UNL A   1      36.084  32.272  33.086  1.00  0.00     0.338 C 
ATOM     36  O   UNL A   1      36.257  32.490  34.276  1.00  0.00    -0.246 OA
BRANCH  35  37
ATOM     37  C   UNL A   1      37.041  31.536  32.234  1.00  0.00     0.060 A 
ATOM     38  C   UNL A   1      38.170  30.977  32.845  1.00  0.00     0.016 A 
ATOM     39  C   UNL A   1      36.829  31.377  30.862  1.00  0.00     0.016 A 
ATOM     40  C   UNL A   1      39.105  30.284  32.084  1.00  0.00     0.010 A 
ATOM     41  C   UNL A   1      37.790  30.713  30.090  1.00  0.00     0.010 A 
ATOM     42  C   UNL A   1      38.949  30.197  30.695  1.00  0.00    -0.014 A 
BRANCH  42  43
ATOM     43  C   UNL A   1      40.117  29.758  29.896  1.00  0.00     0.031 A 
ATOM     44  C   UNL A   1      41.263  30.719  29.727  1.00  0.00     0.074 A 
ATOM     45  C   UNL A   1      40.210  28.499  29.438  1.00  0.00     0.049 A 
ATOM     46  N   UNL A   1      42.431  30.533  29.168  1.00  0.00    -0.248 NA
ATOM     47  C   UNL A   1      41.065  32.072  30.272  1.00  0.00     0.031 C 
ATOM     48  C   UNL A   1      39.183  27.469  29.585  1.00  0.00     0.029 A 
ATOM     49  N   UNL A   1      41.229  27.868  28.769  1.00  0.00    -0.354 N 
ATOM     50  C   UNL A   1      43.106  31.739  29.299  1.00  0.00     0.074 A 
ATOM     51  C   UNL A   1      42.206  32.663  29.953  1.00  0.00     0.031 C 
ATOM     52  C   UNL A   1      39.629  26.330  29.028  1.00  0.00     0.029 A 
ATOM     53  C   UNL A   1      40.959  26.557  28.465  1.00  0.00     0.049 A 
ATOM     54  H   UNL A   1      42.074  28.313  28.531  1.00  0.00     0.167 HD
ATOM     55  C   UNL A   1      44.370  32.046  28.920  1.00  0.00     0.037 A 
ATOM     56  C   UNL A   1      41.702  25.651  27.801  1.00  0.00     0.037 A 
ATOM     57  C   UNL A   1      45.257  31.124  28.260  1.00  0.00     0.049 A 
ATOM     58  C   UNL A   1      43.081  26.038  27.330  1.00  0.00     0.074 A 
ATOM     59  C   UNL A   1      46.558  31.331  27.835  1.00  0.00     0.029 A 
ATOM     60  N   UNL A   1      44.927  29.820  27.917  1.00  0.00    -0.354 N 
ATOM     61  N   UNL A   1      43.724  27.172  27.480  1.00  0.00    -0.248 NA
ATOM     62  C   UNL A   1      43.843  25.011  26.607  1.00  0.00     0.031 C 
ATOM     63  C   UNL A   1      46.991  30.176  27.176  1.00  0.00     0.029 A 
ATOM     64  C   UNL A   1      45.991  29.220  27.259  1.00  0.00     0.049 A 
ATOM     65  H   UNL A   1      44.067  29.385  28.112  1.00  0.00     0.167 HD
ATOM     66  C   UNL A   1      44.974  26.984  26.903  1.00  0.00     0.074 A 
ATOM     67  C   UNL A   1      45.005  25.620  26.420  1.00  0.00     0.031 C 
ATOM     68  C   UNL A   1      46.004  27.860  26.782  1.00  0.00     0.037 A 
BRANCH  55  69
ATOM     69  C   UNL A   1      44.849  33.447  29.173  1.00  0.00     0.064 A 
ATOM     70  C   UNL A   1      45.530  33.799  30.349  1.00  0.00     0.173 A 
ATOM     71  C   UNL A   1      44.640  34.450  28.214  1.00  0.00     0.173 A 
ATOM     72  F   UNL A   1      45.741  32.885  31.309  1.00  0.00    -0.203 F 
ATOM     73  C   UNL A   1      45.957  35.108  30.567  1.00  0.00     0.198 A 
ATOM     74  C   UNL A   1      45.098  35.748  28.420  1.00  0.00     0.198 A 
ATOM     75  F   UNL A   1      43.994  34.169  27.072  1.00  0.00    -0.203 F 
ATOM     76  F   UNL A   1      46.555  35.433  31.722  1.00  0.00    -0.200 F 
ATOM     77  C   UNL A   1      45.748  36.078  29.599  1.00  0.00     0.200 A 
ATOM     78  F   UNL A   1      44.906  36.682  27.477  1.00  0.00    -0.200 F 
ATOM     79  F   UNL A   1      46.165  37.336  29.806  1.00  0.00    -0.200 F 
ENDBRANCH  55  69
BRANCH  56  80
ATOM     80  C   UNL A   1      41.161  24.289  27.540  1.00  0.00     0.064 A 
ATOM     81  C   UNL A   1      41.719  23.152  28.140  1.00  0.00     0.173 A 
ATOM     82  C   UNL A   1      40.087  24.097  26.658  1.00  0.00     0.173 A 
ATOM     83  F   UNL A   1      42.764  23.276  28.971  1.00  0.00    -0.203 F 
ATOM     84  C   UNL A   1      41.240  21.875  27.849  1.00  0.00     0.198 A 
ATOM     85  C   UNL A   1      39.587  22.824  26.395  1.00  0.00     0.198 A 
ATOM     86  F   UNL A   1      39.517  25.151  26.054  1.00  0.00    -0.203 F 
ATOM     87  F   UNL A   1      41.830  20.801  28.391  1.00  0.00    -0.200 F 
ATOM     88  C   UNL A   1      40.171  21.713  26.981  1.00  0.00     0.200 A 
ATOM     89  F   UNL A   1      38.544  22.675  25.566  1.00  0.00    -0.200 F 
ATOM     90  F   UNL A   1      39.710  20.485  26.704  1.00  0.00    -0.200 F 
ENDBRANCH  56  80
BRANCH  68  91
ATOM     91  C   UNL A   1      47.267  27.349  26.142  1.00  0.00     0.064 A 
ATOM     92  C   UNL A   1      48.342  26.863  26.902  1.00  0.00     0.173 A 
ATOM     93  C   UNL A   1      47.400  27.345  24.744  1.00  0.00     0.173 A 
ATOM     94  F   UNL A   1      48.273  26.852  28.242  1.00  0.00    -0.203 F 
ATOM     95  C   UNL A   1      49.523  26.447  26.290  1.00  0.00     0.198 A 
ATOM     96  C   UNL A   1      48.565  26.887  24.134  1.00  0.00     0.198 A 
ATOM     97  F   UNL A   1      46.400  27.783  23.966  1.00  0.00    -0.203 F 
ATOM     98  F   UNL A   1      50.565  26.064  27.041  1.00  0.00    -0.200 F 
ATOM     99  C   UNL A   1      49.632  26.455  24.908  1.00  0.00     0.200 A 
ATOM    100  F   UNL A   1      48.660  26.877  22.797  1.00  0.00    -0.200 F 
ATOM    101  F   UNL A   1      50.769  26.058  24.321  1.00  0.00    -0.200 F 
ENDBRANCH  68  91
ENDBRANCH  42  43
ENDBRANCH  35  37
ENDBRANCH  34  35
ENDBRANCH  33  34
ENDBRANCH  32  33
ENDBRANCH  31  32
ENDBRANCH  30  31
ENDBRANCH  29  30
ENDBRANCH  28  29
ENDBRANCH   1  28
TORSDOF 23
ENDMDL
MODEL 2
REMARK VINA RESULT:     -10.5      4.853      7.027
REMARK SMILES C[C@H](Nc1ccc2c(c1)Cc1ccccc1-2)[C@@H](C)C(=O)OCCOCCOCCOCCOC(=O)c1ccc(-c2c3nc(c(-c4c(F)c(F)c(F)c(F)c4F)c4ccc([nH]4)c(-c4c(F)c(F)c(F)c(F)c4F)c4nc(c(-c5c(F)c(F)c(F)c(F)c5F)c5ccc2[nH]5)C=C4)C=C3)cc1
REMARK SMILES IDX 26 1 25 2 24 3 23 4 22 5 21 6 19 7 20 8 17 9 18 10 2 11 1 12
REMARK SMILES IDX 3 13 4 15 5 16 9 17 6 18 8 19 7 20 10 21 16 22 11 23 15 24
REMARK SMILES IDX 12 25 14 26 13 27 27 28 28 29 29 30 30 31 31 32 32 33 33 34
REMARK SMILES IDX 34 35 35 36 36 37 37 38 98 39 38 40 97 41 39 42 40 43 41 44
REMARK SMILES IDX 91 45 42 46 96 47 90 48 92 49 43 50 95 51 89 52 88 53 44 55
REMARK SMILES IDX 76 56 56 57 75 58 57 59 60 60 74 61 93 62 58 63 59 64 73 66
REMARK SMILES IDX 94 67 61 68 45 69 46 70 54 71 47 72 48 73 52 74 55 75 49 76
REMARK SMILES IDX 50 77 53 78 51 79 77 80 78 81 86 82 79 83 80 84 84 85 87 86
REMARK SMILES IDX 81 87 82 88 85 89 83 90 62 91 63 92 71 93 64 94 65 95 69 96
REMARK SMILES IDX 72 97 66 98 67 99 70 100 68 101
REMARK H PARENT 3 14 92 54 60 65
REMARK Flexibility Score: inf
ROOT
ATOM      1  C   UNL A   1      34.606  30.808  27.767  1.00  0.00     0.188 C 
ENDROOT
BRANCH   1   2
ATOM      2  C   UNL A   1      33.167  31.089  27.267  1.00  0.00     0.188 C 
BRANCH   2   3
ATOM      3  O   UNL A   1      32.376  30.031  26.746  1.00  0.00    -0.376 OA
BRANCH   3   4
ATOM      4  C   UNL A   1      32.525  29.679  25.387  1.00  0.00     0.202 C 
BRANCH   4   5
ATOM      5  C   UNL A   1      31.379  28.917  24.686  1.00  0.00     0.261 C 
BRANCH   5   6
ATOM      6  O   UNL A   1      31.141  27.516  25.005  1.00  0.00    -0.463 OA
BRANCH   6   7
ATOM      7  C   UNL A   1      31.657  26.590  24.148  1.00  0.00     0.310 C 
ATOM      8  O   UNL A   1      30.960  25.898  23.412  1.00  0.00    -0.252 OA
BRANCH   7   9
ATOM      9  C   UNL A   1      33.177  26.348  24.272  1.00  0.00     0.118 C 
ATOM     10  C   UNL A   1      33.602  25.784  22.915  1.00  0.00     0.022 C 
BRANCH   9  11
ATOM     11  C   UNL A   1      33.738  25.535  25.482  1.00  0.00     0.090 C 
ATOM     12  C   UNL A   1      35.017  24.760  25.114  1.00  0.00     0.031 C 
BRANCH  11  13
ATOM     13  N   UNL A   1      32.719  24.602  26.058  1.00  0.00    -0.382 N 
ATOM     14  H   UNL A   1      32.011  24.971  26.634  1.00  0.00     0.160 HD
BRANCH  13  15
ATOM     15  C   UNL A   1      32.736  23.229  25.806  1.00  0.00     0.035 A 
ATOM     16  C   UNL A   1      33.400  22.348  26.691  1.00  0.00     0.026 A 
ATOM     17  C   UNL A   1      32.230  22.722  24.603  1.00  0.00     0.030 A 
ATOM     18  C   UNL A   1      33.682  21.020  26.347  1.00  0.00     0.011 A 
ATOM     19  C   UNL A   1      32.477  21.390  24.282  1.00  0.00    -0.034 A 
ATOM     20  C   UNL A   1      33.246  20.557  25.122  1.00  0.00    -0.014 A 
ATOM     21  C   UNL A   1      32.036  20.618  23.053  1.00  0.00     0.072 C 
ATOM     22  C   UNL A   1      33.416  19.270  24.483  1.00  0.00    -0.015 A 
ATOM     23  C   UNL A   1      32.675  19.261  23.283  1.00  0.00    -0.036 A 
ATOM     24  C   UNL A   1      34.162  18.163  24.855  1.00  0.00     0.009 A 
ATOM     25  C   UNL A   1      32.605  18.131  22.485  1.00  0.00     0.005 A 
ATOM     26  C   UNL A   1      34.116  17.024  24.044  1.00  0.00     0.001 A 
ATOM     27  C   UNL A   1      33.327  17.003  22.880  1.00  0.00     0.000 A 
ENDBRANCH  13  15
ENDBRANCH  11  13
ENDBRANCH   9  11
ENDBRANCH   7   9
ENDBRANCH   6   7
ENDBRANCH   5   6
ENDBRANCH   4   5
ENDBRANCH   3   4
ENDBRANCH   2   3
ENDBRANCH   1   2
BRANCH   1  28
ATOM     28  O   UNL A   1      35.036  31.661  28.809  1.00  0.00    -0.377 OA
BRANCH  28  29
ATOM     29  C   UNL A   1      35.970  32.645  28.420  1.00  0.00     0.188 C 
BRANCH  29  30
ATOM     30  C   UNL A   1      35.362  34.016  28.092  1.00  0.00     0.188 C 
BRANCH  30  31
ATOM     31  O   UNL A   1      34.403  34.451  29.053  1.00  0.00    -0.376 OA
BRANCH  31  32
ATOM     32  C   UNL A   1      33.566  35.557  28.752  1.00  0.00     0.202 C 
BRANCH  32  33
ATOM     33  C   UNL A   1      32.657  36.074  29.880  1.00  0.00     0.261 C 
BRANCH  33  34
ATOM     34  O   UNL A   1      33.284  36.291  31.154  1.00  0.00    -0.460 OA
BRANCH  34  35
ATOM     35  C   UNL A   1      32.938  35.461  32.159  1.00  0.00     0.338 C 
ATOM     36  O   UNL A   1      31.808  35.124  32.478  1.00  0.00    -0.246 OA
BRANCH  35  37
ATOM     37  C   UNL A   1      34.167  34.829  32.682  1.00  0.00     0.060 A 
ATOM     38  C   UNL A   1      35.387  35.479  32.458  1.00  0.00     0.016 A 
ATOM     39  C   UNL A   1      34.127  33.628  33.397  1.00  0.00     0.016 A 
ATOM     40  C   UNL A   1      36.573  34.918  32.921  1.00  0.00     0.010 A 
ATOM     41  C   UNL A   1      35.324  33.045  33.830  1.00  0.00     0.010 A 
ATOM     42  C   UNL A   1      36.553  33.672  33.559  1.00  0.00    -0.014 A 
BRANCH  42  43
ATOM     43  C   UNL A   1      37.844  32.963  33.727  1.00  0.00     0.031 A 
ATOM     44  C   UNL A   1      38.626  33.202  34.990  1.00  0.00     0.074 A 
ATOM     45  C   UNL A   1      38.249  32.041  32.838  1.00  0.00     0.049 A 
ATOM     46  N   UNL A   1      39.720  32.624  35.415  1.00  0.00    -0.248 NA
ATOM     47  C   UNL A   1      38.093  34.226  35.902  1.00  0.00     0.031 C 
ATOM     48  C   UNL A   1      37.548  31.693  31.604  1.00  0.00     0.029 A 
ATOM     49  N   UNL A   1      39.345  31.214  32.850  1.00  0.00    -0.354 N 
ATOM     50  C   UNL A   1      40.002  33.210  36.642  1.00  0.00     0.074 A 
ATOM     51  C   UNL A   1      38.990  34.216  36.877  1.00  0.00     0.031 C 
ATOM     52  C   UNL A   1      38.229  30.717  30.979  1.00  0.00     0.029 A 
ATOM     53  C   UNL A   1      39.424  30.390  31.755  1.00  0.00     0.049 A 
ATOM     54  H   UNL A   1      40.011  31.213  33.575  1.00  0.00     0.167 HD
ATOM     55  C   UNL A   1      41.008  32.925  37.503  1.00  0.00     0.037 A 
ATOM     56  C   UNL A   1      40.360  29.482  31.421  1.00  0.00     0.037 A 
ATOM     57  C   UNL A   1      42.019  31.929  37.257  1.00  0.00     0.049 A 
ATOM     58  C   UNL A   1      41.508  29.231  32.366  1.00  0.00     0.074 A 
ATOM     59  C   UNL A   1      43.081  31.560  38.063  1.00  0.00     0.029 A 
ATOM     60  N   UNL A   1      42.099  31.152  36.109  1.00  0.00    -0.354 N 
ATOM     61  N   UNL A   1      41.756  29.769  33.537  1.00  0.00    -0.248 NA
ATOM     62  C   UNL A   1      42.503  28.233  31.946  1.00  0.00     0.031 C 
ATOM     63  C   UNL A   1      43.841  30.608  37.375  1.00  0.00     0.029 A 
ATOM     64  C   UNL A   1      43.210  30.325  36.175  1.00  0.00     0.049 A 
ATOM     65  H   UNL A   1      41.461  31.184  35.361  1.00  0.00     0.167 HD
ATOM     66  C   UNL A   1      42.909  29.153  34.007  1.00  0.00     0.074 A 
ATOM     67  C   UNL A   1      43.299  28.186  33.003  1.00  0.00     0.031 C 
ATOM     68  C   UNL A   1      43.586  29.368  35.164  1.00  0.00     0.037 A 
BRANCH  55  69
ATOM     69  C   UNL A   1      41.086  33.731  38.768  1.00  0.00     0.064 A 
ATOM     70  C   UNL A   1      40.343  33.396  39.911  1.00  0.00     0.173 A 
ATOM     71  C   UNL A   1      41.935  34.846  38.845  1.00  0.00     0.173 A 
ATOM     72  F   UNL A   1      39.501  32.351  39.888  1.00  0.00    -0.203 F 
ATOM     73  C   UNL A   1      40.424  34.164  41.071  1.00  0.00     0.198 A 
ATOM     74  C   UNL A   1      42.040  35.590  40.016  1.00  0.00     0.198 A 
ATOM     75  F   UNL A   1      42.668  35.212  37.782  1.00  0.00    -0.203 F 
ATOM     76  F   UNL A   1      39.663  33.858  42.130  1.00  0.00    -0.200 F 
ATOM     77  C   UNL A   1      41.279  35.255  41.125  1.00  0.00     0.200 A 
ATOM     78  F   UNL A   1      42.877  36.637  40.070  1.00  0.00    -0.200 F 
ATOM     79  F   UNL A   1      41.362  35.989  42.244  1.00  0.00    -0.200 F 
ENDBRANCH  55  69
BRANCH  56  80
ATOM     80  C   UNL A   1      40.256  28.742  30.134  1.00  0.00     0.064 A 
ATOM     81  C   UNL A   1      39.578  27.518  30.045  1.00  0.00     0.173 A 
ATOM     82  C   UNL A   1      40.862  29.234  28.968  1.00  0.00     0.173 A 
ATOM     83  F   UNL A   1      39.004  26.989  31.136  1.00  0.00    -0.203 F 
ATOM     84  C   UNL A   1      39.530  26.806  28.848  1.00  0.00     0.198 A 
ATOM     85  C   UNL A   1      40.784  28.538  27.764  1.00  0.00     0.198 A 
ATOM     86  F   UNL A   1      41.527  30.399  28.997  1.00  0.00    -0.203 F 
ATOM     87  F   UNL A   1      38.925  25.611  28.806  1.00  0.00    -0.200 F 
ATOM     88  C   UNL A   1      40.128  27.319  27.707  1.00  0.00     0.200 A 
ATOM     89  F   UNL A   1      41.352  29.046  26.661  1.00  0.00    -0.200 F 
ATOM     90  F   UNL A   1      40.080  26.634  26.556  1.00  0.00    -0.200 F 
ENDBRANCH  56  80
BRANCH  68  91
ATOM     91  C   UNL A   1      44.792  28.505  35.423  1.00  0.00     0.064 A 
ATOM     92  C   UNL A   1      46.092  28.929  35.108  1.00  0.00     0.173 A 
ATOM     93  C   UNL A   1      44.640  27.233  35.998  1.00  0.00     0.173 A 
ATOM     94  F   UNL A   1      46.294  30.131  34.549  1.00  0.00    -0.203 F 
ATOM     95  C   UNL A   1      47.187  28.091  35.306  1.00  0.00     0.198 A 
ATOM     96  C   UNL A   1      45.742  26.415  36.235  1.00  0.00     0.198 A 
ATOM     97  F   UNL A   1      43.423  26.781  36.334  1.00  0.00    -0.203 F 
ATOM     98  F   UNL A   1      48.409  28.487  34.923  1.00  0.00    -0.200 F 
ATOM     99  C   UNL A   1      47.012  26.837  35.873  1.00  0.00     0.200 A 
ATOM    100  F   UNL A   1      45.572  25.212  36.802  1.00  0.00    -0.200 F 
ATOM    101  F   UNL A   1      48.066  26.031  36.059  1.00  0.00    -0.200 F 
ENDBRANCH  68  91
ENDBRANCH  42  43
ENDBRANCH  35  37
ENDBRANCH  34  35
ENDBRANCH  33  34
ENDBRANCH  32  33
ENDBRANCH  31  32
ENDBRANCH  30  31
ENDBRANCH  29  30
ENDBRANCH  28  29
ENDBRANCH   1  28
TORSDOF 23
ENDMDL
MODEL 3
REMARK VINA RESULT:     -10.0      4.175      9.720
REMARK SMILES C[C@H](Nc1ccc2c(c1)Cc1ccccc1-2)[C@@H](C)C(=O)OCCOCCOCCOCCOC(=O)c1ccc(-c2c3nc(c(-c4c(F)c(F)c(F)c(F)c4F)c4ccc([nH]4)c(-c4c(F)c(F)c(F)c(F)c4F)c4nc(c(-c5c(F)c(F)c(F)c(F)c5F)c5ccc2[nH]5)C=C4)C=C3)cc1
REMARK SMILES IDX 26 1 25 2 24 3 23 4 22 5 21 6 19 7 20 8 17 9 18 10 2 11 1 12
REMARK SMILES IDX 3 13 4 15 5 16 9 17 6 18 8 19 7 20 10 21 16 22 11 23 15 24
REMARK SMILES IDX 12 25 14 26 13 27 27 28 28 29 29 30 30 31 31 32 32 33 33 34
REMARK SMILES IDX 34 35 35 36 36 37 37 38 98 39 38 40 97 41 39 42 40 43 41 44
REMARK SMILES IDX 91 45 42 46 96 47 90 48 92 49 43 50 95 51 89 52 88 53 44 55
REMARK SMILES IDX 76 56 56 57 75 58 57 59 60 60 74 61 93 62 58 63 59 64 73 66
REMARK SMILES IDX 94 67 61 68 45 69 46 70 54 71 47 72 48 73 52 74 55 75 49 76
REMARK SMILES IDX 50 77 53 78 51 79 77 80 78 81 86 82 79 83 80 84 84 85 87 86
REMARK SMILES IDX 81 87 82 88 85 89 83 90 62 91 63 92 71 93 64 94 65 95 69 96
REMARK SMILES IDX 72 97 66 98 67 99 70 100 68 101
REMARK H PARENT 3 14 92 54 60 65
REMARK Flexibility Score: inf
ROOT
ATOM      1  C   UNL A   1      43.567  36.042  32.035  1.00  0.00     0.188 C 
ENDROOT
BRANCH   1   2
ATOM      2  C   UNL A   1      42.629  35.372  33.069  1.00  0.00     0.188 C 
BRANCH   2   3
ATOM      3  O   UNL A   1      41.539  34.575  32.630  1.00  0.00    -0.376 OA
BRANCH   3   4
ATOM      4  C   UNL A   1      40.317  34.652  33.335  1.00  0.00     0.202 C 
BRANCH   4   5
ATOM      5  C   UNL A   1      39.543  33.348  33.625  1.00  0.00     0.261 C 
BRANCH   5   6
ATOM      6  O   UNL A   1      38.272  33.098  32.959  1.00  0.00    -0.463 OA
BRANCH   6   7
ATOM      7  C   UNL A   1      37.426  34.158  32.822  1.00  0.00     0.310 C 
ATOM      8  O   UNL A   1      37.217  34.967  33.721  1.00  0.00    -0.252 OA
BRANCH   7   9
ATOM      9  C   UNL A   1      36.616  34.192  31.508  1.00  0.00     0.118 C 
ATOM     10  C   UNL A   1      35.411  33.285  31.759  1.00  0.00     0.022 C 
BRANCH   9  11
ATOM     11  C   UNL A   1      37.330  33.910  30.148  1.00  0.00     0.090 C 
ATOM     12  C   UNL A   1      38.676  34.651  30.037  1.00  0.00     0.031 C 
BRANCH  11  13
ATOM     13  N   UNL A   1      36.462  34.244  28.975  1.00  0.00    -0.382 N 
ATOM     14  H   UNL A   1      36.459  35.168  28.635  1.00  0.00     0.160 HD
BRANCH  13  15
ATOM     15  C   UNL A   1      35.657  33.292  28.347  1.00  0.00     0.035 A 
ATOM     16  C   UNL A   1      34.268  33.516  28.198  1.00  0.00     0.026 A 
ATOM     17  C   UNL A   1      36.181  32.043  27.991  1.00  0.00     0.030 A 
ATOM     18  C   UNL A   1      33.384  32.492  27.834  1.00  0.00     0.011 A 
ATOM     19  C   UNL A   1      35.304  31.039  27.590  1.00  0.00    -0.034 A 
ATOM     20  C   UNL A   1      33.908  31.244  27.564  1.00  0.00    -0.014 A 
ATOM     21  C   UNL A   1      35.626  29.622  27.158  1.00  0.00     0.072 C 
ATOM     22  C   UNL A   1      33.255  30.002  27.208  1.00  0.00    -0.015 A 
ATOM     23  C   UNL A   1      34.245  29.040  26.916  1.00  0.00    -0.036 A 
ATOM     24  C   UNL A   1      31.912  29.667  27.145  1.00  0.00     0.009 A 
ATOM     25  C   UNL A   1      33.911  27.766  26.488  1.00  0.00     0.005 A 
ATOM     26  C   UNL A   1      31.565  28.376  26.735  1.00  0.00     0.001 A 
ATOM     27  C   UNL A   1      32.557  27.441  26.390  1.00  0.00     0.000 A 
ENDBRANCH  13  15
ENDBRANCH  11  13
ENDBRANCH   9  11
ENDBRANCH   7   9
ENDBRANCH   6   7
ENDBRANCH   5   6
ENDBRANCH   4   5
ENDBRANCH   3   4
ENDBRANCH   2   3
ENDBRANCH   1   2
BRANCH   1  28
ATOM     28  O   UNL A   1      43.079  36.021  30.709  1.00  0.00    -0.377 OA
BRANCH  28  29
ATOM     29  C   UNL A   1      43.900  36.677  29.766  1.00  0.00     0.188 C 
BRANCH  29  30
ATOM     30  C   UNL A   1      43.765  38.206  29.748  1.00  0.00     0.188 C 
BRANCH  30  31
ATOM     31  O   UNL A   1      45.014  38.880  29.619  1.00  0.00    -0.376 OA
BRANCH  31  32
ATOM     32  C   UNL A   1      46.201  38.237  30.055  1.00  0.00     0.202 C 
BRANCH  32  33
ATOM     33  C   UNL A   1      47.417  38.296  29.114  1.00  0.00     0.261 C 
BRANCH  33  34
ATOM     34  O   UNL A   1      47.674  37.119  28.333  1.00  0.00    -0.460 OA
BRANCH  34  35
ATOM     35  C   UNL A   1      48.150  36.039  28.986  1.00  0.00     0.338 C 
ATOM     36  O   UNL A   1      49.109  36.001  29.743  1.00  0.00    -0.246 OA
BRANCH  35  37
ATOM     37  C   UNL A   1      47.181  34.935  28.826  1.00  0.00     0.060 A 
ATOM     38  C   UNL A   1      47.224  33.883  29.749  1.00  0.00     0.016 A 
ATOM     39  C   UNL A   1      46.230  34.938  27.801  1.00  0.00     0.016 A 
ATOM     40  C   UNL A   1      46.340  32.816  29.634  1.00  0.00     0.010 A 
ATOM     41  C   UNL A   1      45.366  33.845  27.663  1.00  0.00     0.010 A 
ATOM     42  C   UNL A   1      45.445  32.764  28.558  1.00  0.00    -0.014 A 
BRANCH  42  43
ATOM     43  C   UNL A   1      44.771  31.473  28.283  1.00  0.00     0.031 A 
ATOM     44  C   UNL A   1      45.473  30.480  27.397  1.00  0.00     0.074 A 
ATOM     45  C   UNL A   1      43.625  31.143  28.902  1.00  0.00     0.049 A 
ATOM     46  N   UNL A   1      45.142  29.250  27.096  1.00  0.00    -0.248 NA
ATOM     47  C   UNL A   1      46.725  30.936  26.773  1.00  0.00     0.031 C 
ATOM     48  C   UNL A   1      42.882  32.006  29.818  1.00  0.00     0.029 A 
ATOM     49  N   UNL A   1      42.896  29.981  28.866  1.00  0.00    -0.354 N 
ATOM     50  C   UNL A   1      46.145  28.787  26.255  1.00  0.00     0.074 A 
ATOM     51  C   UNL A   1      47.076  29.877  26.059  1.00  0.00     0.031 C 
ATOM     52  C   UNL A   1      41.804  31.339  30.263  1.00  0.00     0.029 A 
ATOM     53  C   UNL A   1      41.768  30.014  29.646  1.00  0.00     0.049 A 
ATOM     54  H   UNL A   1      43.159  29.197  28.331  1.00  0.00     0.167 HD
ATOM     55  C   UNL A   1      46.285  27.557  25.706  1.00  0.00     0.037 A 
ATOM     56  C   UNL A   1      40.814  29.081  29.831  1.00  0.00     0.037 A 
ATOM     57  C   UNL A   1      45.349  26.479  25.897  1.00  0.00     0.049 A 
ATOM     58  C   UNL A   1      40.960  27.742  29.154  1.00  0.00     0.074 A 
ATOM     59  C   UNL A   1      45.397  25.193  25.389  1.00  0.00     0.029 A 
ATOM     60  N   UNL A   1      44.186  26.569  26.650  1.00  0.00    -0.354 N 
ATOM     61  N   UNL A   1      41.923  27.299  28.381  1.00  0.00    -0.248 NA
ATOM     62  C   UNL A   1      39.887  26.764  29.387  1.00  0.00     0.031 C 
ATOM     63  C   UNL A   1      44.231  24.526  25.778  1.00  0.00     0.029 A 
ATOM     64  C   UNL A   1      43.493  25.368  26.595  1.00  0.00     0.049 A 
ATOM     65  H   UNL A   1      43.897  27.366  27.149  1.00  0.00     0.167 HD
ATOM     66  C   UNL A   1      41.592  25.987  28.065  1.00  0.00     0.074 A 
ATOM     67  C   UNL A   1      40.349  25.700  28.749  1.00  0.00     0.031 C 
ATOM     68  C   UNL A   1      42.254  25.100  27.280  1.00  0.00     0.037 A 
BRANCH  55  69
ATOM     69  C   UNL A   1      47.471  27.327  24.814  1.00  0.00     0.064 A 
ATOM     70  C   UNL A   1      47.483  27.735  23.471  1.00  0.00     0.173 A 
ATOM     71  C   UNL A   1      48.625  26.707  25.317  1.00  0.00     0.173 A 
ATOM     72  F   UNL A   1      46.400  28.317  22.931  1.00  0.00    -0.203 F 
ATOM     73  C   UNL A   1      48.592  27.503  22.659  1.00  0.00     0.198 A 
ATOM     74  C   UNL A   1      49.744  26.508  24.513  1.00  0.00     0.198 A 
ATOM     75  F   UNL A   1      48.669  26.296  26.594  1.00  0.00    -0.203 F 
ATOM     76  F   UNL A   1      48.558  27.851  21.365  1.00  0.00    -0.200 F 
ATOM     77  C   UNL A   1      49.724  26.898  23.183  1.00  0.00     0.200 A 
ATOM     78  F   UNL A   1      50.842  25.933  25.026  1.00  0.00    -0.200 F 
ATOM     79  F   UNL A   1      50.793  26.681  22.403  1.00  0.00    -0.200 F 
ENDBRANCH  55  69
BRANCH  56  80
ATOM     80  C   UNL A   1      39.637  29.377  30.692  1.00  0.00     0.064 A 
ATOM     81  C   UNL A   1      38.371  29.620  30.142  1.00  0.00     0.173 A 
ATOM     82  C   UNL A   1      39.765  29.451  32.088  1.00  0.00     0.173 A 
ATOM     83  F   UNL A   1      38.199  29.588  28.813  1.00  0.00    -0.203 F 
ATOM     84  C   UNL A   1      37.285  29.949  30.952  1.00  0.00     0.198 A 
ATOM     85  C   UNL A   1      38.671  29.745  32.898  1.00  0.00     0.198 A 
ATOM     86  F   UNL A   1      40.955  29.230  32.666  1.00  0.00    -0.203 F 
ATOM     87  F   UNL A   1      36.099  30.233  30.396  1.00  0.00    -0.200 F 
ATOM     88  C   UNL A   1      37.434  30.006  32.330  1.00  0.00     0.200 A 
ATOM     89  F   UNL A   1      38.819  29.784  34.230  1.00  0.00    -0.200 F 
ATOM     90  F   UNL A   1      36.389  30.319  33.108  1.00  0.00    -0.200 F 
ENDBRANCH  56  80
BRANCH  68  91
ATOM     91  C   UNL A   1      41.667  23.719  27.161  1.00  0.00     0.064 A 
ATOM     92  C   UNL A   1      42.268  22.601  27.759  1.00  0.00     0.173 A 
ATOM     93  C   UNL A   1      40.482  23.514  26.436  1.00  0.00     0.173 A 
ATOM     94  F   UNL A   1      43.405  22.736  28.457  1.00  0.00    -0.203 F 
ATOM     95  C   UNL A   1      41.736  21.324  27.589  1.00  0.00     0.198 A 
ATOM     96  C   UNL A   1      39.930  22.243  26.304  1.00  0.00     0.198 A 
ATOM     97  F   UNL A   1      39.856  24.547  25.855  1.00  0.00    -0.203 F 
ATOM     98  F   UNL A   1      42.372  20.262  28.103  1.00  0.00    -0.200 F 
ATOM     99  C   UNL A   1      40.567  21.146  26.866  1.00  0.00     0.200 A 
ATOM    100  F   UNL A   1      38.788  22.077  25.621  1.00  0.00    -0.200 F 
ATOM    101  F   UNL A   1      40.059  19.918  26.700  1.00  0.00    -0.200 F 
ENDBRANCH  68  91
ENDBRANCH  42  43
ENDBRANCH  35  37
ENDBRANCH  34  35
ENDBRANCH  33  34
ENDBRANCH  32  33
ENDBRANCH  31  32
ENDBRANCH  30  31
ENDBRANCH  29  30
ENDBRANCH  28  29
ENDBRANCH   1  28
TORSDOF 23
ENDMDL
