MODEL 1
REMARK VINA RESULT:      -9.3      0.000      0.000
REMARK SMILES O=C(CNC(=O)N1CC(OCCOCCOCCOCCOC(=O)c2ccc(-c3c4nc(c(-c5c(F)c(F)c(F)c(F)c5F)c5ccc([nH]5)c(-c5c(F)c(F)c(F)c(F)c5F)c5nc(c(-c6c(F)c(F)c(F)c(F)c6F)c6ccc3[nH]6)C=C5)C=C4)cc2)=Nc2ccccc21)N[C@H](C(=O)[O-])c1ccccc1
REMARK SMILES IDX 15 1 14 2 13 3 12 4 11 5 10 6 9 7 7 8 8 9 94 10 89 11 93 12
REMARK SMILES IDX 88 13 90 14 92 15 91 16 5 17 4 18 6 20 3 21 2 22 1 23 95 24
REMARK SMILES IDX 96 26 100 27 101 28 105 29 102 30 104 31 103 32 97 33 98 34
REMARK SMILES IDX 99 35 16 36 17 37 18 38 19 39 20 40 21 41 22 42 23 43 24 44
REMARK SMILES IDX 25 45 26 46 87 47 27 48 86 49 28 50 29 51 30 52 80 53 31 54
REMARK SMILES IDX 85 55 79 56 81 57 32 58 84 59 78 60 77 61 33 63 65 64 45 65
REMARK SMILES IDX 64 66 46 67 49 68 63 69 82 70 47 71 48 72 62 74 83 75 50 76
REMARK SMILES IDX 34 77 35 78 43 79 36 80 37 81 41 82 44 83 38 84 39 85 42 86
REMARK SMILES IDX 40 87 66 88 67 89 75 90 68 91 69 92 73 93 76 94 70 95 71 96
REMARK SMILES IDX 74 97 72 98 51 99 52 100 60 101 53 102 54 103 58 104 61 105
REMARK SMILES IDX 55 106 56 107 59 108 57 109
REMARK H PARENT 4 19 95 25 81 62 49 73
REMARK Flexibility Score: inf
ROOT
ATOM      1  C   UNL A   1      38.582  28.260  29.247  1.00  0.00     0.188 C 
ENDROOT
BRANCH   1   2
ATOM      2  C   UNL A   1      39.949  28.338  29.928  1.00  0.00     0.188 C 
BRANCH   2   3
ATOM      3  O   UNL A   1      41.102  27.729  29.357  1.00  0.00    -0.376 OA
BRANCH   3   4
ATOM      4  C   UNL A   1      41.021  27.021  28.133  1.00  0.00     0.201 C 
BRANCH   4   5
ATOM      5  C   UNL A   1      41.841  25.723  28.033  1.00  0.00     0.259 C 
BRANCH   5   6
ATOM      6  O   UNL A   1      42.683  25.594  26.869  1.00  0.00    -0.477 OA
BRANCH   6   7
ATOM      7  C   UNL A   1      42.693  24.381  26.262  1.00  0.00     0.209 C 
ATOM      8  N   UNL A   1      41.618  22.208  26.616  1.00  0.00    -0.283 N 
ATOM      9  C   UNL A   1      41.386  23.635  26.367  1.00  0.00     0.224 C 
ATOM     10  C   UNL A   1      42.745  21.647  25.917  1.00  0.00     0.072 A 
ATOM     11  C   UNL A   1      43.756  22.525  25.443  1.00  0.00     0.091 A 
ATOM     12  C   UNL A   1      42.912  20.275  25.709  1.00  0.00     0.029 A 
ATOM     13  N   UNL A   1      43.749  23.905  25.696  1.00  0.00    -0.214 NA
ATOM     14  C   UNL A   1      44.938  22.012  24.901  1.00  0.00     0.030 A 
ATOM     15  C   UNL A   1      44.106  19.774  25.173  1.00  0.00     0.002 A 
ATOM     16  C   UNL A   1      45.126  20.640  24.788  1.00  0.00     0.002 A 
BRANCH   8  17
ATOM     17  C   UNL A   1      40.625  21.547  27.296  1.00  0.00     0.322 C 
ATOM     18  N   UNL A   1      39.347  21.519  26.846  1.00  0.00    -0.329 N 
ATOM     19  H   UNL A   1      38.677  21.270  27.522  1.00  0.00     0.165 HD
ATOM     20  O   UNL A   1      40.862  20.854  28.289  1.00  0.00    -0.248 OA
BRANCH  18  21
ATOM     21  C   UNL A   1      38.807  21.797  25.525  1.00  0.00     0.218 C 
BRANCH  21  22
ATOM     22  C   UNL A   1      37.417  22.447  25.480  1.00  0.00     0.240 C 
ATOM     23  O   UNL A   1      37.298  23.650  25.248  1.00  0.00    -0.273 OA
ATOM     24  N   UNL A   1      36.318  21.623  25.575  1.00  0.00    -0.342 N 
ATOM     25  H   UNL A   1      36.427  20.669  25.792  1.00  0.00     0.164 HD
BRANCH  24  26
ATOM     26  C   UNL A   1      34.976  22.186  25.352  1.00  0.00     0.158 C 
BRANCH  26  27
ATOM     27  C   UNL A   1      34.066  21.257  24.542  1.00  0.00    -0.020 A 
ATOM     28  C   UNL A   1      33.118  21.783  23.644  1.00  0.00     0.006 A 
ATOM     29  C   UNL A   1      34.044  19.866  24.756  1.00  0.00     0.006 A 
ATOM     30  C   UNL A   1      32.214  20.955  22.971  1.00  0.00     0.000 A 
ATOM     31  C   UNL A   1      33.143  19.036  24.080  1.00  0.00     0.000 A 
ATOM     32  C   UNL A   1      32.230  19.581  23.186  1.00  0.00     0.000 A 
ENDBRANCH  26  27
BRANCH  26  33
ATOM     33  C   UNL A   1      34.352  22.701  26.670  1.00  0.00     0.068 C 
ATOM     34  O   UNL A   1      33.707  23.732  26.808  1.00  0.00    -0.548 OA
ATOM     35  O   UNL A   1      34.489  21.871  27.729  1.00  0.00    -0.548 OA
ENDBRANCH  26  33
ENDBRANCH  24  26
ENDBRANCH  21  22
ENDBRANCH  18  21
ENDBRANCH   8  17
ENDBRANCH   6   7
ENDBRANCH   5   6
ENDBRANCH   4   5
ENDBRANCH   3   4
ENDBRANCH   2   3
ENDBRANCH   1   2
BRANCH   1  36
ATOM     36  O   UNL A   1      37.869  29.482  29.195  1.00  0.00    -0.377 OA
BRANCH  36  37
ATOM     37  C   UNL A   1      37.148  29.731  27.999  1.00  0.00     0.188 C 
BRANCH  37  38
ATOM     38  C   UNL A   1      35.625  29.876  28.153  1.00  0.00     0.188 C 
BRANCH  38  39
ATOM     39  O   UNL A   1      34.974  30.968  27.506  1.00  0.00    -0.376 OA
BRANCH  39  40
ATOM     40  C   UNL A   1      34.969  32.248  28.134  1.00  0.00     0.202 C 
BRANCH  40  41
ATOM     41  C   UNL A   1      34.811  32.229  29.652  1.00  0.00     0.261 C 
BRANCH  41  42
ATOM     42  O   UNL A   1      35.669  33.235  30.222  1.00  0.00    -0.460 OA
BRANCH  42  43
ATOM     43  C   UNL A   1      35.555  33.411  31.557  1.00  0.00     0.338 C 
ATOM     44  O   UNL A   1      34.585  33.802  32.176  1.00  0.00    -0.246 OA
BRANCH  43  45
ATOM     45  C   UNL A   1      36.742  32.814  32.193  1.00  0.00     0.060 A 
ATOM     46  C   UNL A   1      36.539  32.007  33.318  1.00  0.00     0.016 A 
ATOM     47  C   UNL A   1      38.028  33.049  31.711  1.00  0.00     0.016 A 
ATOM     48  C   UNL A   1      37.632  31.459  33.989  1.00  0.00     0.010 A 
ATOM     49  C   UNL A   1      39.126  32.513  32.394  1.00  0.00     0.010 A 
ATOM     50  C   UNL A   1      38.933  31.749  33.560  1.00  0.00    -0.014 A 
BRANCH  50  51
ATOM     51  C   UNL A   1      40.071  31.449  34.465  1.00  0.00     0.031 A 
ATOM     52  C   UNL A   1      40.392  32.438  35.553  1.00  0.00     0.074 A 
ATOM     53  C   UNL A   1      40.766  30.302  34.373  1.00  0.00     0.049 A 
ATOM     54  N   UNL A   1      41.303  32.380  36.492  1.00  0.00    -0.248 NA
ATOM     55  C   UNL A   1      39.579  33.665  35.581  1.00  0.00     0.031 C 
ATOM     56  C   UNL A   1      40.548  29.256  33.376  1.00  0.00     0.029 A 
ATOM     57  N   UNL A   1      41.798  29.824  35.143  1.00  0.00    -0.354 N 
ATOM     58  C   UNL A   1      41.173  33.560  37.214  1.00  0.00     0.074 A 
ATOM     59  C   UNL A   1      40.131  34.335  36.580  1.00  0.00     0.031 C 
ATOM     60  C   UNL A   1      41.419  28.255  33.598  1.00  0.00     0.029 A 
ATOM     61  C   UNL A   1      42.263  28.595  34.744  1.00  0.00     0.049 A 
ATOM     62  H   UNL A   1      42.170  30.317  35.910  1.00  0.00     0.167 HD
ATOM     63  C   UNL A   1      41.846  33.956  38.319  1.00  0.00     0.037 A 
ATOM     64  C   UNL A   1      43.257  27.837  35.249  1.00  0.00     0.037 A 
ATOM     65  C   UNL A   1      42.865  33.179  38.968  1.00  0.00     0.049 A 
ATOM     66  C   UNL A   1      44.017  28.315  36.461  1.00  0.00     0.074 A 
ATOM     67  C   UNL A   1      43.570  33.472  40.122  1.00  0.00     0.029 A 
ATOM     68  N   UNL A   1      43.328  31.952  38.517  1.00  0.00    -0.354 N 
ATOM     69  N   UNL A   1      43.851  29.407  37.167  1.00  0.00    -0.248 NA
ATOM     70  C   UNL A   1      45.102  27.449  36.948  1.00  0.00     0.031 C 
ATOM     71  C   UNL A   1      44.490  32.442  40.345  1.00  0.00     0.029 A 
ATOM     72  C   UNL A   1      44.328  31.488  39.354  1.00  0.00     0.049 A 
ATOM     73  H   UNL A   1      42.993  31.482  37.719  1.00  0.00     0.167 HD
ATOM     74  C   UNL A   1      44.791  29.350  38.189  1.00  0.00     0.074 A 
ATOM     75  C   UNL A   1      45.514  28.107  38.023  1.00  0.00     0.031 C 
ATOM     76  C   UNL A   1      45.037  30.248  39.175  1.00  0.00     0.037 A 
BRANCH  63  77
ATOM     77  C   UNL A   1      41.502  35.299  38.890  1.00  0.00     0.064 A 
ATOM     78  C   UNL A   1      42.303  36.426  38.655  1.00  0.00     0.173 A 
ATOM     79  C   UNL A   1      40.347  35.462  39.669  1.00  0.00     0.173 A 
ATOM     80  F   UNL A   1      43.426  36.315  37.931  1.00  0.00    -0.203 F 
ATOM     81  C   UNL A   1      41.976  37.662  39.203  1.00  0.00     0.198 A 
ATOM     82  C   UNL A   1      40.007  36.707  40.192  1.00  0.00     0.198 A 
ATOM     83  F   UNL A   1      39.546  34.416  39.922  1.00  0.00    -0.203 F 
ATOM     84  F   UNL A   1      42.782  38.715  39.007  1.00  0.00    -0.200 F 
ATOM     85  C   UNL A   1      40.825  37.803  39.965  1.00  0.00     0.200 A 
ATOM     86  F   UNL A   1      38.891  36.844  40.921  1.00  0.00    -0.200 F 
ATOM     87  F   UNL A   1      40.510  38.996  40.489  1.00  0.00    -0.200 F 
ENDBRANCH  63  77
BRANCH  64  88
ATOM     88  C   UNL A   1      43.596  26.535  34.615  1.00  0.00     0.064 A 
ATOM     89  C   UNL A   1      44.510  26.462  33.555  1.00  0.00     0.173 A 
ATOM     90  C   UNL A   1      42.989  25.344  35.038  1.00  0.00     0.173 A 
ATOM     91  F   UNL A   1      45.094  27.580  33.097  1.00  0.00    -0.203 F 
ATOM     92  C   UNL A   1      44.792  25.249  32.930  1.00  0.00     0.198 A 
ATOM     93  C   UNL A   1      43.290  24.127  34.427  1.00  0.00     0.198 A 
ATOM     94  F   UNL A   1      42.102  25.361  36.043  1.00  0.00    -0.203 F 
ATOM     95  F   UNL A   1      45.634  25.214  31.888  1.00  0.00    -0.200 F 
ATOM     96  C   UNL A   1      44.186  24.082  33.369  1.00  0.00     0.200 A 
ATOM     97  F   UNL A   1      42.707  23.000  34.859  1.00  0.00    -0.200 F 
ATOM     98  F   UNL A   1      44.455  22.916  32.766  1.00  0.00    -0.200 F 
ENDBRANCH  64  88
BRANCH  76  99
ATOM     99  C   UNL A   1      46.119  29.917  40.160  1.00  0.00     0.064 A 
ATOM    100  C   UNL A   1      45.859  29.142  41.299  1.00  0.00     0.173 A 
ATOM    101  C   UNL A   1      47.440  30.330  39.932  1.00  0.00     0.173 A 
ATOM    102  F   UNL A   1      44.609  28.734  41.566  1.00  0.00    -0.203 F 
ATOM    103  C   UNL A   1      46.880  28.809  42.186  1.00  0.00     0.198 A 
ATOM    104  C   UNL A   1      48.463  29.972  40.807  1.00  0.00     0.198 A 
ATOM    105  F   UNL A   1      47.744  31.066  38.852  1.00  0.00    -0.203 F 
ATOM    106  F   UNL A   1      46.601  28.099  43.288  1.00  0.00    -0.200 F 
ATOM    107  C   UNL A   1      48.181  29.217  41.935  1.00  0.00     0.200 A 
ATOM    108  F   UNL A   1      49.722  30.356  40.557  1.00  0.00    -0.200 F 
ATOM    109  F   UNL A   1      49.163  28.886  42.785  1.00  0.00    -0.200 F 
ENDBRANCH  76  99
ENDBRANCH  50  51
ENDBRANCH  43  45
ENDBRANCH  42  43
ENDBRANCH  41  42
ENDBRANCH  40  41
ENDBRANCH  39  40
ENDBRANCH  38  39
ENDBRANCH  37  38
ENDBRANCH  36  37
ENDBRANCH   1  36
TORSDOF 25
ENDMDL
MODEL 2
REMARK VINA RESULT:      -9.3     11.085     15.640
REMARK SMILES O=C(CNC(=O)N1CC(OCCOCCOCCOCCOC(=O)c2ccc(-c3c4nc(c(-c5c(F)c(F)c(F)c(F)c5F)c5ccc([nH]5)c(-c5c(F)c(F)c(F)c(F)c5F)c5nc(c(-c6c(F)c(F)c(F)c(F)c6F)c6ccc3[nH]6)C=C5)C=C4)cc2)=Nc2ccccc21)N[C@H](C(=O)[O-])c1ccccc1
REMARK SMILES IDX 15 1 14 2 13 3 12 4 11 5 10 6 9 7 7 8 8 9 94 10 89 11 93 12
REMARK SMILES IDX 88 13 90 14 92 15 91 16 5 17 4 18 6 20 3 21 2 22 1 23 95 24
REMARK SMILES IDX 96 26 100 27 101 28 105 29 102 30 104 31 103 32 97 33 98 34
REMARK SMILES IDX 99 35 16 36 17 37 18 38 19 39 20 40 21 41 22 42 23 43 24 44
REMARK SMILES IDX 25 45 26 46 87 47 27 48 86 49 28 50 29 51 30 52 80 53 31 54
REMARK SMILES IDX 85 55 79 56 81 57 32 58 84 59 78 60 77 61 33 63 65 64 45 65
REMARK SMILES IDX 64 66 46 67 49 68 63 69 82 70 47 71 48 72 62 74 83 75 50 76
REMARK SMILES IDX 34 77 35 78 43 79 36 80 37 81 41 82 44 83 38 84 39 85 42 86
REMARK SMILES IDX 40 87 66 88 67 89 75 90 68 91 69 92 73 93 76 94 70 95 71 96
REMARK SMILES IDX 74 97 72 98 51 99 52 100 60 101 53 102 54 103 58 104 61 105
REMARK SMILES IDX 55 106 56 107 59 108 57 109
REMARK H PARENT 4 19 95 25 81 62 49 73
REMARK Flexibility Score: inf
ROOT
ATOM      1  C   UNL A   1      45.075  42.328  29.072  1.00  0.00     0.188 C 
ENDROOT
BRANCH   1   2
ATOM      2  C   UNL A   1      44.943  43.721  28.455  1.00  0.00     0.188 C 
BRANCH   2   3
ATOM      3  O   UNL A   1      46.049  44.616  28.393  1.00  0.00    -0.376 OA
BRANCH   3   4
ATOM      4  C   UNL A   1      46.294  45.392  27.235  1.00  0.00     0.201 C 
BRANCH   4   5
ATOM      5  C   UNL A   1      45.578  44.953  25.947  1.00  0.00     0.259 C 
BRANCH   5   6
ATOM      6  O   UNL A   1      46.344  44.128  25.045  1.00  0.00    -0.477 OA
BRANCH   6   7
ATOM      7  C   UNL A   1      45.653  43.514  24.053  1.00  0.00     0.209 C 
ATOM      8  N   UNL A   1      46.130  42.716  21.786  1.00  0.00    -0.283 N 
ATOM      9  C   UNL A   1      46.494  42.594  23.202  1.00  0.00     0.224 C 
ATOM     10  C   UNL A   1      44.724  42.890  21.534  1.00  0.00     0.072 A 
ATOM     11  C   UNL A   1      43.898  43.364  22.588  1.00  0.00     0.091 A 
ATOM     12  C   UNL A   1      44.131  42.647  20.291  1.00  0.00     0.029 A 
ATOM     13  N   UNL A   1      44.403  43.749  23.839  1.00  0.00    -0.214 NA
ATOM     14  C   UNL A   1      42.562  43.694  22.344  1.00  0.00     0.030 A 
ATOM     15  C   UNL A   1      42.794  42.992  20.058  1.00  0.00     0.002 A 
ATOM     16  C   UNL A   1      42.015  43.533  21.076  1.00  0.00     0.002 A 
BRANCH   8  17
ATOM     17  C   UNL A   1      47.128  42.436  20.884  1.00  0.00     0.322 C 
ATOM     18  N   UNL A   1      47.718  43.408  20.148  1.00  0.00    -0.329 N 
ATOM     19  H   UNL A   1      48.206  43.087  19.355  1.00  0.00     0.165 HD
ATOM     20  O   UNL A   1      47.613  41.308  20.776  1.00  0.00    -0.248 OA
BRANCH  18  21
ATOM     21  C   UNL A   1      47.749  44.849  20.341  1.00  0.00     0.218 C 
BRANCH  21  22
ATOM     22  C   UNL A   1      47.213  45.703  19.184  1.00  0.00     0.240 C 
ATOM     23  O   UNL A   1      47.877  45.850  18.157  1.00  0.00    -0.273 OA
ATOM     24  N   UNL A   1      45.926  46.184  19.280  1.00  0.00    -0.342 N 
ATOM     25  H   UNL A   1      45.419  46.086  20.119  1.00  0.00     0.164 HD
BRANCH  24  26
ATOM     26  C   UNL A   1      45.317  46.847  18.115  1.00  0.00     0.158 C 
BRANCH  26  27
ATOM     27  C   UNL A   1      44.026  46.168  17.649  1.00  0.00    -0.020 A 
ATOM     28  C   UNL A   1      42.777  46.573  18.158  1.00  0.00     0.006 A 
ATOM     29  C   UNL A   1      44.040  45.038  16.809  1.00  0.00     0.006 A 
ATOM     30  C   UNL A   1      41.599  45.899  17.819  1.00  0.00     0.000 A 
ATOM     31  C   UNL A   1      42.862  44.367  16.467  1.00  0.00     0.000 A 
ATOM     32  C   UNL A   1      41.641  44.799  16.970  1.00  0.00     0.000 A 
ENDBRANCH  26  27
BRANCH  26  33
ATOM     33  C   UNL A   1      45.192  48.373  18.335  1.00  0.00     0.068 C 
ATOM     34  O   UNL A   1      45.329  48.961  19.400  1.00  0.00    -0.548 OA
ATOM     35  O   UNL A   1      44.987  49.097  17.212  1.00  0.00    -0.548 OA
ENDBRANCH  26  33
ENDBRANCH  24  26
ENDBRANCH  21  22
ENDBRANCH  18  21
ENDBRANCH   8  17
ENDBRANCH   6   7
ENDBRANCH   5   6
ENDBRANCH   4   5
ENDBRANCH   3   4
ENDBRANCH   2   3
ENDBRANCH   1   2
BRANCH   1  36
ATOM     36  O   UNL A   1      44.489  41.283  28.317  1.00  0.00    -0.377 OA
BRANCH  36  37
ATOM     37  C   UNL A   1      44.699  41.336  26.915  1.00  0.00     0.188 C 
BRANCH  37  38
ATOM     38  C   UNL A   1      45.887  40.518  26.384  1.00  0.00     0.188 C 
BRANCH  38  39
ATOM     39  O   UNL A   1      45.820  39.094  26.448  1.00  0.00    -0.376 OA
BRANCH  39  40
ATOM     40  C   UNL A   1      46.845  38.319  25.829  1.00  0.00     0.202 C 
BRANCH  40  41
ATOM     41  C   UNL A   1      46.806  36.824  26.136  1.00  0.00     0.261 C 
BRANCH  41  42
ATOM     42  O   UNL A   1      45.459  36.455  26.485  1.00  0.00    -0.460 OA
BRANCH  42  43
ATOM     43  C   UNL A   1      45.220  35.127  26.565  1.00  0.00     0.338 C 
ATOM     44  O   UNL A   1      45.793  34.231  25.977  1.00  0.00    -0.246 OA
BRANCH  43  45
ATOM     45  C   UNL A   1      44.290  34.904  27.686  1.00  0.00     0.060 A 
ATOM     46  C   UNL A   1      43.752  36.030  28.317  1.00  0.00     0.016 A 
ATOM     47  C   UNL A   1      43.962  33.621  28.121  1.00  0.00     0.016 A 
ATOM     48  C   UNL A   1      42.907  35.876  29.416  1.00  0.00     0.010 A 
ATOM     49  C   UNL A   1      43.127  33.467  29.234  1.00  0.00     0.010 A 
ATOM     50  C   UNL A   1      42.629  34.596  29.910  1.00  0.00    -0.014 A 
BRANCH  50  51
ATOM     51  C   UNL A   1      42.020  34.464  31.258  1.00  0.00     0.031 A 
ATOM     52  C   UNL A   1      40.519  34.443  31.360  1.00  0.00     0.074 A 
ATOM     53  C   UNL A   1      42.771  34.303  32.362  1.00  0.00     0.049 A 
ATOM     54  N   UNL A   1      39.755  34.292  32.412  1.00  0.00    -0.248 NA
ATOM     55  C   UNL A   1      39.776  34.623  30.101  1.00  0.00     0.031 C 
ATOM     56  C   UNL A   1      44.232  34.291  32.399  1.00  0.00     0.029 A 
ATOM     57  N   UNL A   1      42.398  34.109  33.669  1.00  0.00    -0.354 N 
ATOM     58  C   UNL A   1      38.450  34.365  31.942  1.00  0.00     0.074 A 
ATOM     59  C   UNL A   1      38.521  34.619  30.521  1.00  0.00     0.031 C 
ATOM     60  C   UNL A   1      44.632  34.095  33.668  1.00  0.00     0.029 A 
ATOM     61  C   UNL A   1      43.458  33.981  34.533  1.00  0.00     0.049 A 
ATOM     62  H   UNL A   1      41.458  34.066  33.960  1.00  0.00     0.167 HD
ATOM     63  C   UNL A   1      37.293  34.213  32.628  1.00  0.00     0.037 A 
ATOM     64  C   UNL A   1      43.472  33.794  35.868  1.00  0.00     0.037 A 
ATOM     65  C   UNL A   1      37.215  33.936  34.035  1.00  0.00     0.049 A 
ATOM     66  C   UNL A   1      42.169  33.663  36.616  1.00  0.00     0.074 A 
ATOM     67  C   UNL A   1      36.091  33.716  34.811  1.00  0.00     0.029 A 
ATOM     68  N   UNL A   1      38.310  33.842  34.880  1.00  0.00    -0.354 N 
ATOM     69  N   UNL A   1      40.942  33.681  36.155  1.00  0.00    -0.248 NA
ATOM     70  C   UNL A   1      42.255  33.481  38.074  1.00  0.00     0.031 C 
ATOM     71  C   UNL A   1      36.503  33.532  36.134  1.00  0.00     0.029 A 
ATOM     72  C   UNL A   1      37.887  33.595  36.175  1.00  0.00     0.049 A 
ATOM     73  H   UNL A   1      39.249  33.937  34.600  1.00  0.00     0.167 HD
ATOM     74  C   UNL A   1      40.115  33.492  37.256  1.00  0.00     0.074 A 
ATOM     75  C   UNL A   1      40.979  33.344  38.408  1.00  0.00     0.031 C 
ATOM     76  C   UNL A   1      38.761  33.449  37.310  1.00  0.00     0.037 A 
BRANCH  63  77
ATOM     77  C   UNL A   1      36.014  34.354  31.857  1.00  0.00     0.064 A 
ATOM     78  C   UNL A   1      35.148  35.439  32.061  1.00  0.00     0.173 A 
ATOM     79  C   UNL A   1      35.659  33.399  30.894  1.00  0.00     0.173 A 
ATOM     80  F   UNL A   1      35.437  36.368  32.984  1.00  0.00    -0.203 F 
ATOM     81  C   UNL A   1      33.959  35.547  31.346  1.00  0.00     0.198 A 
ATOM     82  C   UNL A   1      34.483  33.526  30.161  1.00  0.00     0.198 A 
ATOM     83  F   UNL A   1      36.453  32.343  30.661  1.00  0.00    -0.203 F 
ATOM     84  F   UNL A   1      33.123  36.565  31.592  1.00  0.00    -0.200 F 
ATOM     85  C   UNL A   1      33.630  34.595  30.393  1.00  0.00     0.200 A 
ATOM     86  F   UNL A   1      34.169  32.610  29.234  1.00  0.00    -0.200 F 
ATOM     87  F   UNL A   1      32.486  34.703  29.704  1.00  0.00    -0.200 F 
ENDBRANCH  63  77
BRANCH  64  88
ATOM     88  C   UNL A   1      44.766  33.714  36.595  1.00  0.00     0.064 A 
ATOM     89  C   UNL A   1      45.410  34.869  37.059  1.00  0.00     0.173 A 
ATOM     90  C   UNL A   1      45.400  32.481  36.813  1.00  0.00     0.173 A 
ATOM     91  F   UNL A   1      44.857  36.073  36.848  1.00  0.00    -0.203 F 
ATOM     92  C   UNL A   1      46.646  34.798  37.698  1.00  0.00     0.198 A 
ATOM     93  C   UNL A   1      46.625  32.409  37.474  1.00  0.00     0.198 A 
ATOM     94  F   UNL A   1      44.830  31.347  36.383  1.00  0.00    -0.203 F 
ATOM     95  F   UNL A   1      47.262  35.921  38.090  1.00  0.00    -0.200 F 
ATOM     96  C   UNL A   1      47.251  33.567  37.910  1.00  0.00     0.200 A 
ATOM     97  F   UNL A   1      47.203  31.218  37.682  1.00  0.00    -0.200 F 
ATOM     98  F   UNL A   1      48.440  33.499  38.522  1.00  0.00    -0.200 F 
ENDBRANCH  64  88
BRANCH  76  99
ATOM     99  C   UNL A   1      38.128  33.219  38.650  1.00  0.00     0.064 A 
ATOM    100  C   UNL A   1      38.096  34.224  39.627  1.00  0.00     0.173 A 
ATOM    101  C   UNL A   1      37.495  32.000  38.940  1.00  0.00     0.173 A 
ATOM    102  F   UNL A   1      38.697  35.402  39.402  1.00  0.00    -0.203 F 
ATOM    103  C   UNL A   1      37.471  34.011  40.853  1.00  0.00     0.198 A 
ATOM    104  C   UNL A   1      36.848  31.800  40.157  1.00  0.00     0.198 A 
ATOM    105  F   UNL A   1      37.489  31.008  38.036  1.00  0.00    -0.203 F 
ATOM    106  F   UNL A   1      37.486  34.974  41.785  1.00  0.00    -0.200 F 
ATOM    107  C   UNL A   1      36.841  32.804  41.114  1.00  0.00     0.200 A 
ATOM    108  F   UNL A   1      36.229  30.638  40.402  1.00  0.00    -0.200 F 
ATOM    109  F   UNL A   1      36.231  32.605  42.291  1.00  0.00    -0.200 F 
ENDBRANCH  76  99
ENDBRANCH  50  51
ENDBRANCH  43  45
ENDBRANCH  42  43
ENDBRANCH  41  42
ENDBRANCH  40  41
ENDBRANCH  39  40
ENDBRANCH  38  39
ENDBRANCH  37  38
ENDBRANCH  36  37
ENDBRANCH   1  36
TORSDOF 25
ENDMDL
MODEL 3
REMARK VINA RESULT:      -9.2      5.747     13.311
REMARK SMILES O=C(CNC(=O)N1CC(OCCOCCOCCOCCOC(=O)c2ccc(-c3c4nc(c(-c5c(F)c(F)c(F)c(F)c5F)c5ccc([nH]5)c(-c5c(F)c(F)c(F)c(F)c5F)c5nc(c(-c6c(F)c(F)c(F)c(F)c6F)c6ccc3[nH]6)C=C5)C=C4)cc2)=Nc2ccccc21)N[C@H](C(=O)[O-])c1ccccc1
REMARK SMILES IDX 15 1 14 2 13 3 12 4 11 5 10 6 9 7 7 8 8 9 94 10 89 11 93 12
REMARK SMILES IDX 88 13 90 14 92 15 91 16 5 17 4 18 6 20 3 21 2 22 1 23 95 24
REMARK SMILES IDX 96 26 100 27 101 28 105 29 102 30 104 31 103 32 97 33 98 34
REMARK SMILES IDX 99 35 16 36 17 37 18 38 19 39 20 40 21 41 22 42 23 43 24 44
REMARK SMILES IDX 25 45 26 46 87 47 27 48 86 49 28 50 29 51 30 52 80 53 31 54
REMARK SMILES IDX 85 55 79 56 81 57 32 58 84 59 78 60 77 61 33 63 65 64 45 65
REMARK SMILES IDX 64 66 46 67 49 68 63 69 82 70 47 71 48 72 62 74 83 75 50 76
REMARK SMILES IDX 34 77 35 78 43 79 36 80 37 81 41 82 44 83 38 84 39 85 42 86
REMARK SMILES IDX 40 87 66 88 67 89 75 90 68 91 69 92 73 93 76 94 70 95 71 96
REMARK SMILES IDX 74 97 72 98 51 99 52 100 60 101 53 102 54 103 58 104 61 105
REMARK SMILES IDX 55 106 56 107 59 108 57 109
REMARK H PARENT 4 19 95 25 81 62 49 73
REMARK Flexibility Score: inf
ROOT
ATOM      1  C   UNL A   1      35.441  34.061  28.720  1.00  0.00     0.188 C 
ENDROOT
BRANCH   1   2
ATOM      2  C   UNL A   1      34.574  34.090  29.980  1.00  0.00     0.188 C 
BRANCH   2   3
ATOM      3  O   UNL A   1      33.731  35.197  30.278  1.00  0.00    -0.376 OA
BRANCH   3   4
ATOM      4  C   UNL A   1      33.609  35.685  31.602  1.00  0.00     0.201 C 
BRANCH   4   5
ATOM      5  C   UNL A   1      34.297  34.862  32.705  1.00  0.00     0.259 C 
BRANCH   5   6
ATOM      6  O   UNL A   1      35.503  35.427  33.258  1.00  0.00    -0.477 OA
BRANCH   6   7
ATOM      7  C   UNL A   1      36.610  34.646  33.218  1.00  0.00     0.209 C 
ATOM      8  N   UNL A   1      38.349  33.945  34.796  1.00  0.00    -0.283 N 
ATOM      9  C   UNL A   1      36.908  33.942  34.519  1.00  0.00     0.224 C 
ATOM     10  C   UNL A   1      39.188  33.768  33.640  1.00  0.00     0.072 A 
ATOM     11  C   UNL A   1      38.646  34.046  32.357  1.00  0.00     0.091 A 
ATOM     12  C   UNL A   1      40.525  33.365  33.718  1.00  0.00     0.029 A 
ATOM     13  N   UNL A   1      37.357  34.566  32.170  1.00  0.00    -0.214 NA
ATOM     14  C   UNL A   1      39.469  34.038  31.227  1.00  0.00     0.030 A 
ATOM     15  C   UNL A   1      41.340  33.370  32.579  1.00  0.00     0.002 A 
ATOM     16  C   UNL A   1      40.819  33.725  31.338  1.00  0.00     0.002 A 
BRANCH   8  17
ATOM     17  C   UNL A   1      38.706  33.899  36.121  1.00  0.00     0.322 C 
ATOM     18  N   UNL A   1      38.376  32.851  36.914  1.00  0.00    -0.329 N 
ATOM     19  H   UNL A   1      38.428  33.031  37.880  1.00  0.00     0.165 HD
ATOM     20  O   UNL A   1      39.437  34.751  36.632  1.00  0.00    -0.248 OA
BRANCH  18  21
ATOM     21  C   UNL A   1      37.958  31.502  36.567  1.00  0.00     0.218 C 
BRANCH  21  22
ATOM     22  C   UNL A   1      38.969  30.657  35.780  1.00  0.00     0.240 C 
ATOM     23  O   UNL A   1      38.650  30.140  34.708  1.00  0.00    -0.273 OA
ATOM     24  N   UNL A   1      40.265  30.606  36.241  1.00  0.00    -0.342 N 
ATOM     25  H   UNL A   1      40.498  30.996  37.115  1.00  0.00     0.164 HD
BRANCH  24  26
ATOM     26  C   UNL A   1      41.298  29.960  35.415  1.00  0.00     0.158 C 
BRANCH  26  27
ATOM     27  C   UNL A   1      42.609  30.752  35.372  1.00  0.00    -0.020 A 
ATOM     28  C   UNL A   1      42.799  31.871  36.204  1.00  0.00     0.006 A 
ATOM     29  C   UNL A   1      43.610  30.483  34.419  1.00  0.00     0.006 A 
ATOM     30  C   UNL A   1      43.949  32.663  36.107  1.00  0.00     0.000 A 
ATOM     31  C   UNL A   1      44.760  31.272  34.325  1.00  0.00     0.000 A 
ATOM     32  C   UNL A   1      44.931  32.361  35.171  1.00  0.00     0.000 A 
ENDBRANCH  26  27
BRANCH  26  33
ATOM     33  C   UNL A   1      41.466  28.467  35.785  1.00  0.00     0.068 C 
ATOM     34  O   UNL A   1      41.670  28.022  36.907  1.00  0.00    -0.548 OA
ATOM     35  O   UNL A   1      41.289  27.602  34.761  1.00  0.00    -0.548 OA
ENDBRANCH  26  33
ENDBRANCH  24  26
ENDBRANCH  21  22
ENDBRANCH  18  21
ENDBRANCH   8  17
ENDBRANCH   6   7
ENDBRANCH   5   6
ENDBRANCH   4   5
ENDBRANCH   3   4
ENDBRANCH   2   3
ENDBRANCH   1   2
BRANCH   1  36
ATOM     36  O   UNL A   1      34.926  33.278  27.658  1.00  0.00    -0.377 OA
BRANCH  36  37
ATOM     37  C   UNL A   1      33.967  32.298  28.018  1.00  0.00     0.188 C 
BRANCH  37  38
ATOM     38  C   UNL A   1      34.047  30.969  27.248  1.00  0.00     0.188 C 
BRANCH  38  39
ATOM     39  O   UNL A   1      34.799  29.896  27.813  1.00  0.00    -0.376 OA
BRANCH  39  40
ATOM     40  C   UNL A   1      35.563  30.125  28.995  1.00  0.00     0.202 C 
BRANCH  40  41
ATOM     41  C   UNL A   1      36.878  29.355  29.081  1.00  0.00     0.261 C 
BRANCH  41  42
ATOM     42  O   UNL A   1      37.213  29.160  30.467  1.00  0.00    -0.460 OA
BRANCH  42  43
ATOM     43  C   UNL A   1      37.737  30.234  31.097  1.00  0.00     0.338 C 
ATOM     44  O   UNL A   1      37.175  31.003  31.853  1.00  0.00    -0.246 OA
BRANCH  43  45
ATOM     45  C   UNL A   1      39.199  30.197  30.911  1.00  0.00     0.060 A 
ATOM     46  C   UNL A   1      39.709  30.646  29.688  1.00  0.00     0.016 A 
ATOM     47  C   UNL A   1      40.051  29.719  31.904  1.00  0.00     0.016 A 
ATOM     48  C   UNL A   1      41.079  30.584  29.440  1.00  0.00     0.010 A 
ATOM     49  C   UNL A   1      41.426  29.641  31.648  1.00  0.00     0.010 A 
ATOM     50  C   UNL A   1      41.940  30.036  30.400  1.00  0.00    -0.014 A 
BRANCH  50  51
ATOM     51  C   UNL A   1      43.320  29.667  29.998  1.00  0.00     0.031 A 
ATOM     52  C   UNL A   1      43.524  28.364  29.272  1.00  0.00     0.074 A 
ATOM     53  C   UNL A   1      44.364  30.488  30.211  1.00  0.00     0.049 A 
ATOM     54  N   UNL A   1      44.620  27.845  28.780  1.00  0.00    -0.248 NA
ATOM     55  C   UNL A   1      42.326  27.529  29.080  1.00  0.00     0.031 C 
ATOM     56  C   UNL A   1      44.301  31.781  30.888  1.00  0.00     0.029 A 
ATOM     57  N   UNL A   1      45.686  30.352  29.865  1.00  0.00    -0.354 N 
ATOM     58  C   UNL A   1      44.244  26.626  28.229  1.00  0.00     0.074 A 
ATOM     59  C   UNL A   1      42.831  26.460  28.485  1.00  0.00     0.031 C 
ATOM     60  C   UNL A   1      45.532  32.323  30.906  1.00  0.00     0.029 A 
ATOM     61  C   UNL A   1      46.470  31.411  30.252  1.00  0.00     0.049 A 
ATOM     62  H   UNL A   1      46.039  29.568  29.385  1.00  0.00     0.167 HD
ATOM     63  C   UNL A   1      45.001  25.733  27.551  1.00  0.00     0.037 A 
ATOM     64  C   UNL A   1      47.794  31.614  30.095  1.00  0.00     0.037 A 
ATOM     65  C   UNL A   1      46.400  25.904  27.271  1.00  0.00     0.049 A 
ATOM     66  C   UNL A   1      48.624  30.587  29.366  1.00  0.00     0.074 A 
ATOM     67  C   UNL A   1      47.242  25.078  26.548  1.00  0.00     0.029 A 
ATOM     68  N   UNL A   1      47.164  26.976  27.704  1.00  0.00    -0.354 N 
ATOM     69  N   UNL A   1      48.249  29.464  28.803  1.00  0.00    -0.248 NA
ATOM     70  C   UNL A   1      50.065  30.861  29.248  1.00  0.00     0.031 C 
ATOM     71  C   UNL A   1      48.527  25.630  26.580  1.00  0.00     0.029 A 
ATOM     72  C   UNL A   1      48.475  26.819  27.288  1.00  0.00     0.049 A 
ATOM     73  H   UNL A   1      46.824  27.735  28.231  1.00  0.00     0.167 HD
ATOM     74  C   UNL A   1      49.397  28.910  28.248  1.00  0.00     0.074 A 
ATOM     75  C   UNL A   1      50.480  29.829  28.526  1.00  0.00     0.031 C 
ATOM     76  C   UNL A   1      49.542  27.745  27.572  1.00  0.00     0.037 A 
BRANCH  63  77
ATOM     77  C   UNL A   1      44.326  24.483  27.071  1.00  0.00     0.064 A 
ATOM     78  C   UNL A   1      43.863  23.507  27.966  1.00  0.00     0.173 A 
ATOM     79  C   UNL A   1      44.127  24.267  25.700  1.00  0.00     0.173 A 
ATOM     80  F   UNL A   1      44.045  23.662  29.286  1.00  0.00    -0.203 F 
ATOM     81  C   UNL A   1      43.249  22.347  27.504  1.00  0.00     0.198 A 
ATOM     82  C   UNL A   1      43.488  23.118  25.243  1.00  0.00     0.198 A 
ATOM     83  F   UNL A   1      44.551  25.170  24.803  1.00  0.00    -0.203 F 
ATOM     84  F   UNL A   1      42.859  21.405  28.374  1.00  0.00    -0.200 F 
ATOM     85  C   UNL A   1      43.056  22.156  26.144  1.00  0.00     0.200 A 
ATOM     86  F   UNL A   1      43.294  22.938  23.928  1.00  0.00    -0.200 F 
ATOM     87  F   UNL A   1      42.463  21.040  25.701  1.00  0.00    -0.200 F 
ENDBRANCH  63  77
BRANCH  64  88
ATOM     88  C   UNL A   1      48.427  32.846  30.635  1.00  0.00     0.064 A 
ATOM     89  C   UNL A   1      48.860  32.915  31.966  1.00  0.00     0.173 A 
ATOM     90  C   UNL A   1      48.585  33.989  29.837  1.00  0.00     0.173 A 
ATOM     91  F   UNL A   1      48.703  31.857  32.775  1.00  0.00    -0.203 F 
ATOM     92  C   UNL A   1      49.409  34.085  32.485  1.00  0.00     0.198 A 
ATOM     93  C   UNL A   1      49.157  35.151  30.351  1.00  0.00     0.198 A 
ATOM     94  F   UNL A   1      48.181  33.977  28.559  1.00  0.00    -0.203 F 
ATOM     95  F   UNL A   1      49.771  34.140  33.774  1.00  0.00    -0.200 F 
ATOM     96  C   UNL A   1      49.563  35.202  31.676  1.00  0.00     0.200 A 
ATOM     97  F   UNL A   1      49.309  36.226  29.563  1.00  0.00    -0.200 F 
ATOM     98  F   UNL A   1      50.089  36.327  32.175  1.00  0.00    -0.200 F 
ENDBRANCH  64  88
BRANCH  76  99
ATOM     99  C   UNL A   1      50.913  27.399  27.072  1.00  0.00     0.064 A 
ATOM    100  C   UNL A   1      51.849  26.749  27.890  1.00  0.00     0.173 A 
ATOM    101  C   UNL A   1      51.276  27.668  25.743  1.00  0.00     0.173 A 
ATOM    102  F   UNL A   1      51.553  26.482  29.171  1.00  0.00    -0.203 F 
ATOM    103  C   UNL A   1      53.105  26.400  27.402  1.00  0.00     0.198 A 
ATOM    104  C   UNL A   1      52.524  27.292  25.251  1.00  0.00     0.198 A 
ATOM    105  F   UNL A   1      50.415  28.281  24.916  1.00  0.00    -0.203 F 
ATOM    106  F   UNL A   1      53.996  25.812  28.213  1.00  0.00    -0.200 F 
ATOM    107  C   UNL A   1      53.438  26.664  26.082  1.00  0.00     0.200 A 
ATOM    108  F   UNL A   1      52.840  27.537  23.972  1.00  0.00    -0.200 F 
ATOM    109  F   UNL A   1      54.644  26.316  25.613  1.00  0.00    -0.200 F 
ENDBRANCH  76  99
ENDBRANCH  50  51
ENDBRANCH  43  45
ENDBRANCH  42  43
ENDBRANCH  41  42
ENDBRANCH  40  41
ENDBRANCH  39  40
ENDBRANCH  38  39
ENDBRANCH  37  38
ENDBRANCH  36  37
ENDBRANCH   1  36
TORSDOF 25
ENDMDL
