MODEL 1
REMARK VINA RESULT:      -7.6      0.000      0.000
REMARK SMILES Cc1cc(OC(F)(F)F)cc2c1O[C@H](C(F)(F)F)C(C(=O)OCCOCCOCCOCCOC(=O)c1ccc(-c3c4nc(c(-c5c(F)c(F)c(F)c(F)c5F)c5ccc([nH]5)c(-c5c(F)c(F)c(F)c(F)c5F)c5nc(c(-c6c(F)c(F)c(F)c(F)c6F)c6ccc3[nH]6)C=C5)C=C4)cc1)=C2
REMARK SMILES IDX 28 1 27 2 26 3 25 4 24 5 23 6 22 7 20 8 21 9 19 10 1 11 2 12
REMARK SMILES IDX 3 13 12 14 4 15 11 16 13 17 10 18 100 19 14 20 5 21 6 22
REMARK SMILES IDX 7 23 8 24 9 25 15 26 16 27 17 28 18 29 29 30 30 31 31 32
REMARK SMILES IDX 32 33 33 34 34 35 35 36 36 37 37 38 38 39 99 40 39 41 98 42
REMARK SMILES IDX 40 43 41 44 42 45 92 46 43 47 97 48 91 49 93 50 44 51 96 52
REMARK SMILES IDX 90 53 89 54 45 56 77 57 57 58 76 59 58 60 61 61 75 62 94 63
REMARK SMILES IDX 59 64 60 65 74 67 95 68 62 69 46 70 47 71 55 72 48 73 49 74
REMARK SMILES IDX 53 75 56 76 50 77 51 78 54 79 52 80 78 81 79 82 87 83 80 84
REMARK SMILES IDX 81 85 85 86 88 87 82 88 83 89 86 90 84 91 63 92 64 93 72 94
REMARK SMILES IDX 65 95 66 96 70 97 73 98 67 99 68 100 71 101 69 102
REMARK H PARENT 93 55 61 66
REMARK Flexibility Score: inf
ROOT
ATOM      1  O   UNL A   1      35.611  34.151  29.032  1.00  0.00    -0.377 OA
ENDROOT
BRANCH   1   2
ATOM      2  C   UNL A   1      35.190  33.305  27.974  1.00  0.00     0.188 C 
BRANCH   2   3
ATOM      3  C   UNL A   1      36.002  31.997  27.891  1.00  0.00     0.188 C 
BRANCH   3   4
ATOM      4  O   UNL A   1      37.204  31.992  28.636  1.00  0.00    -0.376 OA
BRANCH   4   5
ATOM      5  C   UNL A   1      37.451  31.081  29.694  1.00  0.00     0.202 C 
BRANCH   5   6
ATOM      6  C   UNL A   1      38.213  29.744  29.600  1.00  0.00     0.261 C 
BRANCH   6   7
ATOM      7  O   UNL A   1      39.571  29.775  29.172  1.00  0.00    -0.460 OA
BRANCH   7   8
ATOM      8  C   UNL A   1      39.857  29.189  27.996  1.00  0.00     0.338 C 
ATOM      9  O   UNL A   1      39.343  29.423  26.917  1.00  0.00    -0.246 OA
BRANCH   8  10
ATOM     10  C   UNL A   1      41.035  28.322  28.208  1.00  0.00     0.087 C 
ATOM     11  C   UNL A   1      44.236  24.534  29.450  1.00  0.00     0.048 C 
ATOM     12  C   UNL A   1      44.300  25.755  28.574  1.00  0.00    -0.005 A 
ATOM     13  C   UNL A   1      45.441  25.987  27.784  1.00  0.00     0.054 A 
ATOM     14  C   UNL A   1      43.239  26.670  28.535  1.00  0.00     0.131 A 
ATOM     15  C   UNL A   1      45.523  27.113  26.965  1.00  0.00     0.130 A 
ATOM     16  C   UNL A   1      43.299  27.774  27.683  1.00  0.00     0.021 A 
ATOM     17  O   UNL A   1      42.173  26.416  29.351  1.00  0.00    -0.475 OA
ATOM     18  C   UNL A   1      44.454  28.011  26.931  1.00  0.00     0.058 A 
ATOM     19  C   UNL A   1      42.138  28.628  27.514  1.00  0.00     0.027 C 
ATOM     20  C   UNL A   1      40.965  27.212  29.223  1.00  0.00     0.316 C 
BRANCH  15  21
ATOM     21  O   UNL A   1      46.565  27.452  26.151  1.00  0.00    -0.406 OA
BRANCH  21  22
ATOM     22  C   UNL A   1      46.707  26.739  24.935  1.00  0.00     0.573 C 
ATOM     23  F   UNL A   1      45.654  25.921  24.730  1.00  0.00    -0.132 F 
ATOM     24  F   UNL A   1      46.838  27.579  23.887  1.00  0.00    -0.132 F 
ATOM     25  F   UNL A   1      47.822  25.979  25.007  1.00  0.00    -0.132 F 
ENDBRANCH  21  22
ENDBRANCH  15  21
BRANCH  20  26
ATOM     26  C   UNL A   1      39.791  26.260  28.960  1.00  0.00     0.430 C 
ATOM     27  F   UNL A   1      38.854  26.351  29.935  1.00  0.00    -0.167 F 
ATOM     28  F   UNL A   1      39.163  26.538  27.794  1.00  0.00    -0.167 F 
ATOM     29  F   UNL A   1      40.195  24.970  28.904  1.00  0.00    -0.167 F 
ENDBRANCH  20  26
ENDBRANCH   8  10
ENDBRANCH   7   8
ENDBRANCH   6   7
ENDBRANCH   5   6
ENDBRANCH   4   5
ENDBRANCH   3   4
ENDBRANCH   2   3
ENDBRANCH   1   2
BRANCH   1  30
ATOM     30  C   UNL A   1      34.767  34.234  30.180  1.00  0.00     0.188 C 
BRANCH  30  31
ATOM     31  C   UNL A   1      34.397  32.973  30.999  1.00  0.00     0.188 C 
BRANCH  31  32
ATOM     32  O   UNL A   1      35.345  32.636  32.001  1.00  0.00    -0.376 OA
BRANCH  32  33
ATOM     33  C   UNL A   1      36.200  33.644  32.509  1.00  0.00     0.202 C 
BRANCH  33  34
ATOM     34  C   UNL A   1      36.800  33.408  33.901  1.00  0.00     0.261 C 
BRANCH  34  35
ATOM     35  O   UNL A   1      36.874  32.042  34.331  1.00  0.00    -0.460 OA
BRANCH  35  36
ATOM     36  C   UNL A   1      37.706  31.755  35.351  1.00  0.00     0.338 C 
ATOM     37  O   UNL A   1      37.512  31.932  36.543  1.00  0.00    -0.246 OA
BRANCH  36  38
ATOM     38  C   UNL A   1      38.855  31.023  34.786  1.00  0.00     0.060 A 
ATOM     39  C   UNL A   1      40.121  31.159  35.373  1.00  0.00     0.016 A 
ATOM     40  C   UNL A   1      38.671  30.205  33.670  1.00  0.00     0.016 A 
ATOM     41  C   UNL A   1      41.218  30.499  34.822  1.00  0.00     0.010 A 
ATOM     42  C   UNL A   1      39.775  29.576  33.097  1.00  0.00     0.010 A 
ATOM     43  C   UNL A   1      41.056  29.750  33.649  1.00  0.00    -0.014 A 
BRANCH  43  44
ATOM     44  C   UNL A   1      42.238  29.358  32.851  1.00  0.00     0.031 A 
ATOM     45  C   UNL A   1      42.999  28.138  33.288  1.00  0.00     0.074 A 
ATOM     46  C   UNL A   1      42.640  30.072  31.788  1.00  0.00     0.049 A 
ATOM     47  N   UNL A   1      44.131  27.659  32.842  1.00  0.00    -0.248 NA
ATOM     48  C   UNL A   1      42.400  27.351  34.380  1.00  0.00     0.031 C 
ATOM     49  C   UNL A   1      41.948  31.233  31.239  1.00  0.00     0.029 A 
ATOM     50  N   UNL A   1      43.750  29.928  30.993  1.00  0.00    -0.354 N 
ATOM     51  C   UNL A   1      44.379  26.522  33.599  1.00  0.00     0.074 A 
ATOM     52  C   UNL A   1      43.298  26.392  34.548  1.00  0.00     0.031 C 
ATOM     53  C   UNL A   1      42.662  31.714  30.205  1.00  0.00     0.029 A 
ATOM     54  C   UNL A   1      43.880  30.918  30.051  1.00  0.00     0.049 A 
ATOM     55  H   UNL A   1      44.391  29.187  31.089  1.00  0.00     0.167 HD
ATOM     56  C   UNL A   1      45.416  25.659  33.502  1.00  0.00     0.037 A 
ATOM     57  C   UNL A   1      44.885  31.164  29.187  1.00  0.00     0.037 A 
ATOM     58  C   UNL A   1      46.499  25.806  32.567  1.00  0.00     0.049 A 
ATOM     59  C   UNL A   1      46.083  30.247  29.171  1.00  0.00     0.074 A 
ATOM     60  C   UNL A   1      47.603  24.992  32.395  1.00  0.00     0.029 A 
ATOM     61  N   UNL A   1      46.616  26.842  31.654  1.00  0.00    -0.354 N 
ATOM     62  N   UNL A   1      46.315  29.170  29.883  1.00  0.00    -0.248 NA
ATOM     63  C   UNL A   1      47.162  30.580  28.229  1.00  0.00     0.031 C 
ATOM     64  C   UNL A   1      48.419  25.566  31.418  1.00  0.00     0.029 A 
ATOM     65  C   UNL A   1      47.789  26.701  30.930  1.00  0.00     0.049 A 
ATOM     66  H   UNL A   1      45.964  27.570  31.536  1.00  0.00     0.167 HD
ATOM     67  C   UNL A   1      47.542  28.680  29.454  1.00  0.00     0.074 A 
ATOM     68  C   UNL A   1      48.002  29.571  28.409  1.00  0.00     0.031 C 
ATOM     69  C   UNL A   1      48.227  27.591  29.884  1.00  0.00     0.037 A 
BRANCH  56  70
ATOM     70  C   UNL A   1      45.446  24.491  34.443  1.00  0.00     0.064 A 
ATOM     71  C   UNL A   1      44.882  23.254  34.096  1.00  0.00     0.173 A 
ATOM     72  C   UNL A   1      46.105  24.590  35.677  1.00  0.00     0.173 A 
ATOM     73  F   UNL A   1      44.222  23.114  32.937  1.00  0.00    -0.203 F 
ATOM     74  C   UNL A   1      44.974  22.161  34.953  1.00  0.00     0.198 A 
ATOM     75  C   UNL A   1      46.222  23.487  36.518  1.00  0.00     0.198 A 
ATOM     76  F   UNL A   1      46.658  25.752  36.059  1.00  0.00    -0.203 F 
ATOM     77  F   UNL A   1      44.402  20.998  34.616  1.00  0.00    -0.200 F 
ATOM     78  C   UNL A   1      45.655  22.275  36.156  1.00  0.00     0.200 A 
ATOM     79  F   UNL A   1      46.891  23.595  37.673  1.00  0.00    -0.200 F 
ATOM     80  F   UNL A   1      45.763  21.214  36.969  1.00  0.00    -0.200 F 
ENDBRANCH  56  70
BRANCH  57  81
ATOM     81  C   UNL A   1      44.804  32.329  28.267  1.00  0.00     0.064 A 
ATOM     82  C   UNL A   1      45.276  33.589  28.659  1.00  0.00     0.173 A 
ATOM     83  C   UNL A   1      44.254  32.210  26.982  1.00  0.00     0.173 A 
ATOM     84  F   UNL A   1      45.784  33.761  29.888  1.00  0.00    -0.203 F 
ATOM     85  C   UNL A   1      45.193  34.687  27.805  1.00  0.00     0.198 A 
ATOM     86  C   UNL A   1      44.200  33.302  26.117  1.00  0.00     0.198 A 
ATOM     87  F   UNL A   1      43.782  31.028  26.559  1.00  0.00    -0.203 F 
ATOM     88  F   UNL A   1      45.614  35.889  28.222  1.00  0.00    -0.200 F 
ATOM     89  C   UNL A   1      44.664  34.541  26.532  1.00  0.00     0.200 A 
ATOM     90  F   UNL A   1      43.699  33.153  24.884  1.00  0.00    -0.200 F 
ATOM     91  F   UNL A   1      44.594  35.595  25.707  1.00  0.00    -0.200 F 
ENDBRANCH  57  81
BRANCH  69  92
ATOM     92  C   UNL A   1      49.528  27.268  29.205  1.00  0.00     0.064 A 
ATOM     93  C   UNL A   1      50.734  27.874  29.588  1.00  0.00     0.173 A 
ATOM     94  C   UNL A   1      49.580  26.284  28.204  1.00  0.00     0.173 A 
ATOM     95  F   UNL A   1      50.738  28.826  30.532  1.00  0.00    -0.203 F 
ATOM     96  C   UNL A   1      51.936  27.527  28.977  1.00  0.00     0.198 A 
ATOM     97  C   UNL A   1      50.788  25.912  27.622  1.00  0.00     0.198 A 
ATOM     98  F   UNL A   1      48.457  25.661  27.809  1.00  0.00    -0.203 F 
ATOM     99  F   UNL A   1      53.067  28.153  29.327  1.00  0.00    -0.200 F 
ATOM    100  C   UNL A   1      51.964  26.539  28.003  1.00  0.00     0.200 A 
ATOM    101  F   UNL A   1      50.815  24.942  26.698  1.00  0.00    -0.200 F 
ATOM    102  F   UNL A   1      53.124  26.195  27.429  1.00  0.00    -0.200 F 
ENDBRANCH  69  92
ENDBRANCH  43  44
ENDBRANCH  36  38
ENDBRANCH  35  36
ENDBRANCH  34  35
ENDBRANCH  33  34
ENDBRANCH  32  33
ENDBRANCH  31  32
ENDBRANCH  30  31
ENDBRANCH   1  30
TORSDOF 23
ENDMDL
MODEL 2
REMARK VINA RESULT:      -7.2      4.402      8.669
REMARK SMILES Cc1cc(OC(F)(F)F)cc2c1O[C@H](C(F)(F)F)C(C(=O)OCCOCCOCCOCCOC(=O)c1ccc(-c3c4nc(c(-c5c(F)c(F)c(F)c(F)c5F)c5ccc([nH]5)c(-c5c(F)c(F)c(F)c(F)c5F)c5nc(c(-c6c(F)c(F)c(F)c(F)c6F)c6ccc3[nH]6)C=C5)C=C4)cc1)=C2
REMARK SMILES IDX 28 1 27 2 26 3 25 4 24 5 23 6 22 7 20 8 21 9 19 10 1 11 2 12
REMARK SMILES IDX 3 13 12 14 4 15 11 16 13 17 10 18 100 19 14 20 5 21 6 22
REMARK SMILES IDX 7 23 8 24 9 25 15 26 16 27 17 28 18 29 29 30 30 31 31 32
REMARK SMILES IDX 32 33 33 34 34 35 35 36 36 37 37 38 38 39 99 40 39 41 98 42
REMARK SMILES IDX 40 43 41 44 42 45 92 46 43 47 97 48 91 49 93 50 44 51 96 52
REMARK SMILES IDX 90 53 89 54 45 56 77 57 57 58 76 59 58 60 61 61 75 62 94 63
REMARK SMILES IDX 59 64 60 65 74 67 95 68 62 69 46 70 47 71 55 72 48 73 49 74
REMARK SMILES IDX 53 75 56 76 50 77 51 78 54 79 52 80 78 81 79 82 87 83 80 84
REMARK SMILES IDX 81 85 85 86 88 87 82 88 83 89 86 90 84 91 63 92 64 93 72 94
REMARK SMILES IDX 65 95 66 96 70 97 73 98 67 99 68 100 71 101 69 102
REMARK H PARENT 93 55 61 66
REMARK Flexibility Score: inf
ROOT
ATOM      1  O   UNL A   1      34.420  34.950  28.254  1.00  0.00    -0.377 OA
ENDROOT
BRANCH   1   2
ATOM      2  C   UNL A   1      35.052  33.686  28.389  1.00  0.00     0.188 C 
BRANCH   2   3
ATOM      3  C   UNL A   1      34.056  32.509  28.354  1.00  0.00     0.188 C 
BRANCH   3   4
ATOM      4  O   UNL A   1      34.641  31.235  28.170  1.00  0.00    -0.376 OA
BRANCH   4   5
ATOM      5  C   UNL A   1      34.322  30.391  27.077  1.00  0.00     0.202 C 
BRANCH   5   6
ATOM      6  C   UNL A   1      34.513  28.863  27.006  1.00  0.00     0.261 C 
BRANCH   6   7
ATOM      7  O   UNL A   1      33.400  28.033  27.324  1.00  0.00    -0.460 OA
BRANCH   7   8
ATOM      8  C   UNL A   1      32.357  28.054  26.476  1.00  0.00     0.338 C 
ATOM      9  O   UNL A   1      31.499  28.914  26.391  1.00  0.00    -0.246 OA
BRANCH   8  10
ATOM     10  C   UNL A   1      32.528  26.926  25.535  1.00  0.00     0.087 C 
ATOM     11  C   UNL A   1      33.163  23.971  21.412  1.00  0.00     0.048 C 
ATOM     12  C   UNL A   1      33.278  23.783  22.900  1.00  0.00    -0.005 A 
ATOM     13  C   UNL A   1      33.743  22.560  23.415  1.00  0.00     0.054 A 
ATOM     14  C   UNL A   1      32.924  24.812  23.785  1.00  0.00     0.131 A 
ATOM     15  C   UNL A   1      33.858  22.363  24.791  1.00  0.00     0.130 A 
ATOM     16  C   UNL A   1      33.080  24.634  25.161  1.00  0.00     0.021 A 
ATOM     17  O   UNL A   1      32.442  25.965  23.233  1.00  0.00    -0.475 OA
ATOM     18  C   UNL A   1      33.509  23.400  25.659  1.00  0.00     0.058 A 
ATOM     19  C   UNL A   1      32.876  25.749  26.067  1.00  0.00     0.027 C 
ATOM     20  C   UNL A   1      32.237  27.132  24.072  1.00  0.00     0.316 C 
BRANCH  15  21
ATOM     21  O   UNL A   1      34.296  21.232  25.417  1.00  0.00    -0.406 OA
BRANCH  21  22
ATOM     22  C   UNL A   1      33.674  20.006  25.069  1.00  0.00     0.573 C 
ATOM     23  F   UNL A   1      32.660  20.209  24.202  1.00  0.00    -0.132 F 
ATOM     24  F   UNL A   1      34.562  19.143  24.532  1.00  0.00    -0.132 F 
ATOM     25  F   UNL A   1      33.165  19.446  26.188  1.00  0.00    -0.132 F 
ENDBRANCH  21  22
ENDBRANCH  15  21
BRANCH  20  26
ATOM     26  C   UNL A   1      33.044  28.294  23.478  1.00  0.00     0.430 C 
ATOM     27  F   UNL A   1      32.455  29.486  23.738  1.00  0.00    -0.167 F 
ATOM     28  F   UNL A   1      34.293  28.360  23.995  1.00  0.00    -0.167 F 
ATOM     29  F   UNL A   1      33.166  28.185  22.136  1.00  0.00    -0.167 F 
ENDBRANCH  20  26
ENDBRANCH   8  10
ENDBRANCH   7   8
ENDBRANCH   6   7
ENDBRANCH   5   6
ENDBRANCH   4   5
ENDBRANCH   3   4
ENDBRANCH   2   3
ENDBRANCH   1   2
BRANCH   1  30
ATOM     30  C   UNL A   1      33.251  35.185  29.038  1.00  0.00     0.188 C 
BRANCH  30  31
ATOM     31  C   UNL A   1      33.273  36.158  30.242  1.00  0.00     0.188 C 
BRANCH  31  32
ATOM     32  O   UNL A   1      32.810  35.584  31.456  1.00  0.00    -0.376 OA
BRANCH  32  33
ATOM     33  C   UNL A   1      33.511  34.487  32.013  1.00  0.00     0.202 C 
BRANCH  33  34
ATOM     34  C   UNL A   1      34.994  34.705  32.339  1.00  0.00     0.261 C 
BRANCH  34  35
ATOM     35  O   UNL A   1      35.924  33.890  31.614  1.00  0.00    -0.460 OA
BRANCH  35  36
ATOM     36  C   UNL A   1      36.248  32.693  32.143  1.00  0.00     0.338 C 
ATOM     37  O   UNL A   1      35.538  31.955  32.804  1.00  0.00    -0.246 OA
BRANCH  36  38
ATOM     38  C   UNL A   1      37.590  32.342  31.640  1.00  0.00     0.060 A 
ATOM     39  C   UNL A   1      37.850  32.393  30.263  1.00  0.00     0.016 A 
ATOM     40  C   UNL A   1      38.586  31.960  32.540  1.00  0.00     0.016 A 
ATOM     41  C   UNL A   1      39.104  32.027  29.777  1.00  0.00     0.010 A 
ATOM     42  C   UNL A   1      39.828  31.558  32.051  1.00  0.00     0.010 A 
ATOM     43  C   UNL A   1      40.078  31.555  30.667  1.00  0.00    -0.014 A 
BRANCH  43  44
ATOM     44  C   UNL A   1      41.257  30.824  30.155  1.00  0.00     0.031 A 
ATOM     45  C   UNL A   1      42.560  31.570  30.078  1.00  0.00     0.074 A 
ATOM     46  C   UNL A   1      41.174  29.548  29.749  1.00  0.00     0.049 A 
ATOM     47  N   UNL A   1      43.699  31.203  29.554  1.00  0.00    -0.248 NA
ATOM     48  C   UNL A   1      42.575  32.918  30.673  1.00  0.00     0.031 C 
ATOM     49  C   UNL A   1      39.983  28.709  29.834  1.00  0.00     0.029 A 
ATOM     50  N   UNL A   1      42.117  28.742  29.161  1.00  0.00    -0.354 N 
ATOM     51  C   UNL A   1      44.563  32.271  29.754  1.00  0.00     0.074 A 
ATOM     52  C   UNL A   1      43.815  33.311  30.421  1.00  0.00     0.031 C 
ATOM     53  C   UNL A   1      40.259  27.508  29.295  1.00  0.00     0.029 A 
ATOM     54  C   UNL A   1      41.633  27.512  28.791  1.00  0.00     0.049 A 
ATOM     55  H   UNL A   1      43.051  29.019  29.019  1.00  0.00     0.167 HD
ATOM     56  C   UNL A   1      45.869  32.370  29.412  1.00  0.00     0.037 A 
ATOM     57  C   UNL A   1      42.227  26.521  28.098  1.00  0.00     0.037 A 
ATOM     58  C   UNL A   1      46.601  31.338  28.730  1.00  0.00     0.049 A 
ATOM     59  C   UNL A   1      43.652  26.697  27.635  1.00  0.00     0.074 A 
ATOM     60  C   UNL A   1      47.925  31.343  28.332  1.00  0.00     0.029 A 
ATOM     61  N   UNL A   1      46.067  30.120  28.337  1.00  0.00    -0.354 N 
ATOM     62  N   UNL A   1      44.470  27.705  27.828  1.00  0.00    -0.248 NA
ATOM     63  C   UNL A   1      44.240  25.595  26.858  1.00  0.00     0.031 C 
ATOM     64  C   UNL A   1      48.177  30.153  27.646  1.00  0.00     0.029 A 
ATOM     65  C   UNL A   1      47.030  29.374  27.678  1.00  0.00     0.049 A 
ATOM     66  H   UNL A   1      45.141  29.829  28.502  1.00  0.00     0.167 HD
ATOM     67  C   UNL A   1      45.672  27.347  27.229  1.00  0.00     0.074 A 
ATOM     68  C   UNL A   1      45.482  26.022  26.677  1.00  0.00     0.031 C 
ATOM     69  C   UNL A   1      46.828  28.051  27.144  1.00  0.00     0.037 A 
BRANCH  56  70
ATOM     70  C   UNL A   1      46.586  33.643  29.751  1.00  0.00     0.064 A 
ATOM     71  C   UNL A   1      46.604  34.734  28.868  1.00  0.00     0.173 A 
ATOM     72  C   UNL A   1      47.204  33.799  31.001  1.00  0.00     0.173 A 
ATOM     73  F   UNL A   1      46.046  34.628  27.653  1.00  0.00    -0.203 F 
ATOM     74  C   UNL A   1      47.219  35.932  29.223  1.00  0.00     0.198 A 
ATOM     75  C   UNL A   1      47.791  35.007  31.364  1.00  0.00     0.198 A 
ATOM     76  F   UNL A   1      47.219  32.785  31.880  1.00  0.00    -0.203 F 
ATOM     77  F   UNL A   1      47.251  36.949  28.353  1.00  0.00    -0.200 F 
ATOM     78  C   UNL A   1      47.799  36.071  30.475  1.00  0.00     0.200 A 
ATOM     79  F   UNL A   1      48.339  35.146  32.578  1.00  0.00    -0.200 F 
ATOM     80  F   UNL A   1      48.370  37.233  30.824  1.00  0.00    -0.200 F 
ENDBRANCH  56  70
BRANCH  57  81
ATOM     81  C   UNL A   1      41.477  25.273  27.796  1.00  0.00     0.064 A 
ATOM     82  C   UNL A   1      40.425  25.272  26.869  1.00  0.00     0.173 A 
ATOM     83  C   UNL A   1      41.791  24.059  28.425  1.00  0.00     0.173 A 
ATOM     84  F   UNL A   1      40.067  26.414  26.263  1.00  0.00    -0.203 F 
ATOM     85  C   UNL A   1      39.711  24.109  26.591  1.00  0.00     0.198 A 
ATOM     86  C   UNL A   1      41.097  22.889  28.122  1.00  0.00     0.198 A 
ATOM     87  F   UNL A   1      42.785  24.006  29.325  1.00  0.00    -0.203 F 
ATOM     88  F   UNL A   1      38.683  24.147  25.733  1.00  0.00    -0.200 F 
ATOM     89  C   UNL A   1      40.053  22.916  27.211  1.00  0.00     0.200 A 
ATOM     90  F   UNL A   1      41.440  21.737  28.715  1.00  0.00    -0.200 F 
ATOM     91  F   UNL A   1      39.373  21.796  26.934  1.00  0.00    -0.200 F 
ENDBRANCH  57  81
BRANCH  69  92
ATOM     92  C   UNL A   1      47.999  27.395  26.467  1.00  0.00     0.064 A 
ATOM     93  C   UNL A   1      48.217  27.514  25.086  1.00  0.00     0.173 A 
ATOM     94  C   UNL A   1      48.955  26.698  27.223  1.00  0.00     0.173 A 
ATOM     95  F   UNL A   1      47.331  28.163  24.318  1.00  0.00    -0.203 F 
ATOM     96  C   UNL A   1      49.334  26.938  24.486  1.00  0.00     0.198 A 
ATOM     97  C   UNL A   1      50.089  26.155  26.625  1.00  0.00     0.198 A 
ATOM     98  F   UNL A   1      48.803  26.565  28.551  1.00  0.00    -0.203 F 
ATOM     99  F   UNL A   1      49.497  27.025  23.159  1.00  0.00    -0.200 F 
ATOM    100  C   UNL A   1      50.273  26.269  25.256  1.00  0.00     0.200 A 
ATOM    101  F   UNL A   1      51.006  25.529  27.375  1.00  0.00    -0.200 F 
ATOM    102  F   UNL A   1      51.355  25.730  24.678  1.00  0.00    -0.200 F 
ENDBRANCH  69  92
ENDBRANCH  43  44
ENDBRANCH  36  38
ENDBRANCH  35  36
ENDBRANCH  34  35
ENDBRANCH  33  34
ENDBRANCH  32  33
ENDBRANCH  31  32
ENDBRANCH  30  31
ENDBRANCH   1  30
TORSDOF 23
ENDMDL
MODEL 3
REMARK VINA RESULT:      -6.7      4.998     12.352
REMARK SMILES Cc1cc(OC(F)(F)F)cc2c1O[C@H](C(F)(F)F)C(C(=O)OCCOCCOCCOCCOC(=O)c1ccc(-c3c4nc(c(-c5c(F)c(F)c(F)c(F)c5F)c5ccc([nH]5)c(-c5c(F)c(F)c(F)c(F)c5F)c5nc(c(-c6c(F)c(F)c(F)c(F)c6F)c6ccc3[nH]6)C=C5)C=C4)cc1)=C2
REMARK SMILES IDX 28 1 27 2 26 3 25 4 24 5 23 6 22 7 20 8 21 9 19 10 1 11 2 12
REMARK SMILES IDX 3 13 12 14 4 15 11 16 13 17 10 18 100 19 14 20 5 21 6 22
REMARK SMILES IDX 7 23 8 24 9 25 15 26 16 27 17 28 18 29 29 30 30 31 31 32
REMARK SMILES IDX 32 33 33 34 34 35 35 36 36 37 37 38 38 39 99 40 39 41 98 42
REMARK SMILES IDX 40 43 41 44 42 45 92 46 43 47 97 48 91 49 93 50 44 51 96 52
REMARK SMILES IDX 90 53 89 54 45 56 77 57 57 58 76 59 58 60 61 61 75 62 94 63
REMARK SMILES IDX 59 64 60 65 74 67 95 68 62 69 46 70 47 71 55 72 48 73 49 74
REMARK SMILES IDX 53 75 56 76 50 77 51 78 54 79 52 80 78 81 79 82 87 83 80 84
REMARK SMILES IDX 81 85 85 86 88 87 82 88 83 89 86 90 84 91 63 92 64 93 72 94
REMARK SMILES IDX 65 95 66 96 70 97 73 98 67 99 68 100 71 101 69 102
REMARK H PARENT 93 55 61 66
REMARK Flexibility Score: inf
ROOT
ATOM      1  O   UNL A   1      53.872  23.547  34.655  1.00  0.00    -0.377 OA
ENDROOT
BRANCH   1   2
ATOM      2  C   UNL A   1      53.535  22.283  34.104  1.00  0.00     0.188 C 
BRANCH   2   3
ATOM      3  C   UNL A   1      52.306  22.342  33.174  1.00  0.00     0.188 C 
BRANCH   3   4
ATOM      4  O   UNL A   1      51.756  21.085  32.830  1.00  0.00    -0.376 OA
BRANCH   4   5
ATOM      5  C   UNL A   1      50.749  20.448  33.597  1.00  0.00     0.202 C 
BRANCH   5   6
ATOM      6  C   UNL A   1      49.460  21.094  34.144  1.00  0.00     0.261 C 
BRANCH   6   7
ATOM      7  O   UNL A   1      49.451  21.528  35.500  1.00  0.00    -0.460 OA
BRANCH   7   8
ATOM      8  C   UNL A   1      48.521  20.992  36.310  1.00  0.00     0.338 C 
ATOM      9  O   UNL A   1      48.675  20.073  37.093  1.00  0.00    -0.246 OA
BRANCH   8  10
ATOM     10  C   UNL A   1      47.310  21.834  36.211  1.00  0.00     0.087 C 
ATOM     11  C   UNL A   1      42.647  23.708  35.275  1.00  0.00     0.048 C 
ATOM     12  C   UNL A   1      43.804  24.090  36.157  1.00  0.00    -0.005 A 
ATOM     13  C   UNL A   1      43.671  25.163  37.056  1.00  0.00     0.054 A 
ATOM     14  C   UNL A   1      45.017  23.390  36.096  1.00  0.00     0.131 A 
ATOM     15  C   UNL A   1      44.731  25.535  37.884  1.00  0.00     0.130 A 
ATOM     16  C   UNL A   1      46.064  23.731  36.954  1.00  0.00     0.021 A 
ATOM     17  O   UNL A   1      45.104  22.381  35.178  1.00  0.00    -0.475 OA
ATOM     18  C   UNL A   1      45.931  24.823  37.815  1.00  0.00     0.058 A 
ATOM     19  C   UNL A   1      47.256  22.906  37.011  1.00  0.00     0.027 C 
ATOM     20  C   UNL A   1      46.256  21.497  35.190  1.00  0.00     0.316 C 
BRANCH  15  21
ATOM     21  O   UNL A   1      44.733  26.550  38.796  1.00  0.00    -0.406 OA
BRANCH  21  22
ATOM     22  C   UNL A   1      45.381  27.757  38.434  1.00  0.00     0.573 C 
ATOM     23  F   UNL A   1      46.073  27.607  37.285  1.00  0.00    -0.132 F 
ATOM     24  F   UNL A   1      44.497  28.767  38.301  1.00  0.00    -0.132 F 
ATOM     25  F   UNL A   1      46.255  28.088  39.410  1.00  0.00    -0.132 F 
ENDBRANCH  21  22
ENDBRANCH  15  21
BRANCH  20  26
ATOM     26  C   UNL A   1      45.750  20.056  35.333  1.00  0.00     0.430 C 
ATOM     27  F   UNL A   1      46.591  19.176  34.737  1.00  0.00    -0.167 F 
ATOM     28  F   UNL A   1      45.653  19.679  36.630  1.00  0.00    -0.167 F 
ATOM     29  F   UNL A   1      44.530  19.895  34.773  1.00  0.00    -0.167 F 
ENDBRANCH  20  26
ENDBRANCH   8  10
ENDBRANCH   7   8
ENDBRANCH   6   7
ENDBRANCH   5   6
ENDBRANCH   4   5
ENDBRANCH   3   4
ENDBRANCH   2   3
ENDBRANCH   1   2
BRANCH   1  30
ATOM     30  C   UNL A   1      52.802  24.454  34.918  1.00  0.00     0.188 C 
BRANCH  30  31
ATOM     31  C   UNL A   1      53.053  25.977  35.046  1.00  0.00     0.188 C 
BRANCH  31  32
ATOM     32  O   UNL A   1      52.813  26.704  33.851  1.00  0.00    -0.376 OA
BRANCH  32  33
ATOM     33  C   UNL A   1      51.717  26.342  33.030  1.00  0.00     0.202 C 
BRANCH  33  34
ATOM     34  C   UNL A   1      50.476  27.241  33.094  1.00  0.00     0.261 C 
BRANCH  34  35
ATOM     35  O   UNL A   1      49.216  26.567  33.202  1.00  0.00    -0.460 OA
BRANCH  35  36
ATOM     36  C   UNL A   1      48.614  26.561  34.408  1.00  0.00     0.338 C 
ATOM     37  O   UNL A   1      49.114  26.293  35.488  1.00  0.00    -0.246 OA
BRANCH  36  38
ATOM     38  C   UNL A   1      47.255  27.102  34.221  1.00  0.00     0.060 A 
ATOM     39  C   UNL A   1      46.147  26.252  34.348  1.00  0.00     0.016 A 
ATOM     40  C   UNL A   1      47.086  28.453  33.916  1.00  0.00     0.016 A 
ATOM     41  C   UNL A   1      44.861  26.749  34.137  1.00  0.00     0.010 A 
ATOM     42  C   UNL A   1      45.804  28.940  33.668  1.00  0.00     0.010 A 
ATOM     43  C   UNL A   1      44.693  28.082  33.741  1.00  0.00    -0.014 A 
BRANCH  43  44
ATOM     44  C   UNL A   1      43.407  28.525  33.160  1.00  0.00     0.031 A 
ATOM     45  C   UNL A   1      43.111  28.131  31.740  1.00  0.00     0.074 A 
ATOM     46  C   UNL A   1      42.538  29.273  33.858  1.00  0.00     0.049 A 
ATOM     47  N   UNL A   1      42.125  28.494  30.964  1.00  0.00    -0.248 NA
ATOM     48  C   UNL A   1      44.064  27.200  31.110  1.00  0.00     0.031 C 
ATOM     49  C   UNL A   1      42.690  29.662  35.256  1.00  0.00     0.029 A 
ATOM     50  N   UNL A   1      41.358  29.855  33.468  1.00  0.00    -0.354 N 
ATOM     51  C   UNL A   1      42.338  27.840  29.758  1.00  0.00     0.074 A 
ATOM     52  C   UNL A   1      43.560  27.079  29.891  1.00  0.00     0.031 C 
ATOM     53  C   UNL A   1      41.650  30.441  35.604  1.00  0.00     0.029 A 
ATOM     54  C   UNL A   1      40.785  30.637  34.440  1.00  0.00     0.049 A 
ATOM     55  H   UNL A   1      40.960  29.725  32.577  1.00  0.00     0.167 HD
ATOM     56  C   UNL A   1      41.577  27.870  28.640  1.00  0.00     0.037 A 
ATOM     57  C   UNL A   1      39.705  31.439  34.381  1.00  0.00     0.037 A 
ATOM     58  C   UNL A   1      40.374  28.646  28.509  1.00  0.00     0.049 A 
ATOM     59  C   UNL A   1      38.931  31.538  33.089  1.00  0.00     0.074 A 
ATOM     60  C   UNL A   1      39.534  28.751  27.415  1.00  0.00     0.029 A 
ATOM     61  N   UNL A   1      39.845  29.455  29.502  1.00  0.00    -0.354 N 
ATOM     62  N   UNL A   1      39.131  30.917  31.951  1.00  0.00    -0.248 NA
ATOM     63  C   UNL A   1      37.778  32.451  33.074  1.00  0.00     0.031 C 
ATOM     64  C   UNL A   1      38.529  29.671  27.726  1.00  0.00     0.029 A 
ATOM     65  C   UNL A   1      38.701  30.085  29.038  1.00  0.00     0.049 A 
ATOM     66  H   UNL A   1      40.225  29.567  30.403  1.00  0.00     0.167 HD
ATOM     67  C   UNL A   1      38.116  31.335  31.100  1.00  0.00     0.074 A 
ATOM     68  C   UNL A   1      37.292  32.254  31.856  1.00  0.00     0.031 C 
ATOM     69  C   UNL A   1      37.885  30.988  29.808  1.00  0.00     0.037 A 
BRANCH  56  70
ATOM     70  C   UNL A   1      42.030  27.059  27.462  1.00  0.00     0.064 A 
ATOM     71  C   UNL A   1      42.969  27.556  26.546  1.00  0.00     0.173 A 
ATOM     72  C   UNL A   1      41.572  25.745  27.287  1.00  0.00     0.173 A 
ATOM     73  F   UNL A   1      43.422  28.814  26.657  1.00  0.00    -0.203 F 
ATOM     74  C   UNL A   1      43.429  26.767  25.494  1.00  0.00     0.198 A 
ATOM     75  C   UNL A   1      42.057  24.949  26.253  1.00  0.00     0.198 A 
ATOM     76  F   UNL A   1      40.671  25.223  28.133  1.00  0.00    -0.203 F 
ATOM     77  F   UNL A   1      44.302  27.272  24.613  1.00  0.00    -0.200 F 
ATOM     78  C   UNL A   1      42.982  25.461  25.357  1.00  0.00     0.200 A 
ATOM     79  F   UNL A   1      41.635  23.683  26.130  1.00  0.00    -0.200 F 
ATOM     80  F   UNL A   1      43.444  24.695  24.358  1.00  0.00    -0.200 F 
ENDBRANCH  56  70
BRANCH  57  81
ATOM     81  C   UNL A   1      39.289  32.215  35.579  1.00  0.00     0.064 A 
ATOM     82  C   UNL A   1      38.394  31.675  36.512  1.00  0.00     0.173 A 
ATOM     83  C   UNL A   1      39.774  33.510  35.817  1.00  0.00     0.173 A 
ATOM     84  F   UNL A   1      37.880  30.452  36.314  1.00  0.00    -0.203 F 
ATOM     85  C   UNL A   1      37.993  32.401  37.631  1.00  0.00     0.198 A 
ATOM     86  C   UNL A   1      39.397  34.224  36.952  1.00  0.00     0.198 A 
ATOM     87  F   UNL A   1      40.629  34.078  34.952  1.00  0.00    -0.203 F 
ATOM     88  F   UNL A   1      37.103  31.876  38.484  1.00  0.00    -0.200 F 
ATOM     89  C   UNL A   1      38.501  33.672  37.855  1.00  0.00     0.200 A 
ATOM     90  F   UNL A   1      39.900  35.447  37.171  1.00  0.00    -0.200 F 
ATOM     91  F   UNL A   1      38.123  34.367  38.937  1.00  0.00    -0.200 F 
ENDBRANCH  57  81
BRANCH  69  92
ATOM     92  C   UNL A   1      36.674  31.568  29.133  1.00  0.00     0.064 A 
ATOM     93  C   UNL A   1      35.533  30.794  28.868  1.00  0.00     0.173 A 
ATOM     94  C   UNL A   1      36.626  32.934  28.813  1.00  0.00     0.173 A 
ATOM     95  F   UNL A   1      35.529  29.482  29.147  1.00  0.00    -0.203 F 
ATOM     96  C   UNL A   1      34.403  31.361  28.285  1.00  0.00     0.198 A 
ATOM     97  C   UNL A   1      35.481  33.505  28.264  1.00  0.00     0.198 A 
ATOM     98  F   UNL A   1      37.684  33.724  29.058  1.00  0.00    -0.203 F 
ATOM     99  F   UNL A   1      33.344  30.593  27.998  1.00  0.00    -0.200 F 
ATOM    100  C   UNL A   1      34.374  32.717  27.994  1.00  0.00     0.200 A 
ATOM    101  F   UNL A   1      35.448  34.820  28.005  1.00  0.00    -0.200 F 
ATOM    102  F   UNL A   1      33.279  33.263  27.448  1.00  0.00    -0.200 F 
ENDBRANCH  69  92
ENDBRANCH  43  44
ENDBRANCH  36  38
ENDBRANCH  35  36
ENDBRANCH  34  35
ENDBRANCH  33  34
ENDBRANCH  32  33
ENDBRANCH  31  32
ENDBRANCH  30  31
ENDBRANCH   1  30
TORSDOF 23
ENDMDL
