MODEL 1
REMARK VINA RESULT:     -10.2      0.000      0.000
REMARK SMILES O=C(NCCC1=CCCCC1)C1=C(C(=O)OCCOCCOCCOCCOC(=O)c2ccc(-c3c4nc(c(-c5c(F)c(F)c(F)c(F)c5F)c5ccc([nH]5)c(-c5c(F)c(F)c(F)c(F)c5F)c5nc(c(-c6c(F)c(F)c(F)c(F)c6F)c6ccc3[nH]6)C=C5)C=C4)cc2)CCCC1
REMARK SMILES IDX 21 1 20 2 19 3 18 4 17 5 16 6 14 7 15 8 13 9 12 10 97 11
REMARK SMILES IDX 94 12 96 13 95 14 2 15 1 16 3 17 4 19 5 20 6 21 7 22 11 23
REMARK SMILES IDX 8 24 10 25 9 26 22 27 23 28 24 29 25 30 26 31 27 32 28 33
REMARK SMILES IDX 29 34 30 35 31 36 32 37 93 38 33 39 92 40 34 41 35 42 36 43
REMARK SMILES IDX 86 44 37 45 91 46 85 47 87 48 38 49 90 50 84 51 83 52 39 54
REMARK SMILES IDX 71 55 51 56 70 57 52 58 55 59 69 60 88 61 53 62 54 63 68 65
REMARK SMILES IDX 89 66 56 67 40 68 41 69 49 70 42 71 43 72 47 73 50 74 44 75
REMARK SMILES IDX 45 76 48 77 46 78 72 79 73 80 81 81 74 82 75 83 79 84 82 85
REMARK SMILES IDX 76 86 77 87 80 88 78 89 57 90 58 91 66 92 59 93 60 94 64 95
REMARK SMILES IDX 67 96 61 97 62 98 65 99 63 100
REMARK H PARENT 3 18 87 53 55 64
REMARK Flexibility Score: inf
ROOT
ATOM      1  C   UNL A   1      33.527  22.247  26.541  1.00  0.00     0.188 C 
ENDROOT
BRANCH   1   2
ATOM      2  C   UNL A   1      32.682  21.592  25.421  1.00  0.00     0.188 C 
BRANCH   2   3
ATOM      3  O   UNL A   1      32.381  22.403  24.307  1.00  0.00    -0.376 OA
BRANCH   3   4
ATOM      4  C   UNL A   1      33.291  22.628  23.253  1.00  0.00     0.202 C 
BRANCH   4   5
ATOM      5  C   UNL A   1      34.187  23.863  23.155  1.00  0.00     0.261 C 
BRANCH   5   6
ATOM      6  O   UNL A   1      33.589  25.123  23.441  1.00  0.00    -0.460 OA
BRANCH   6   7
ATOM      7  C   UNL A   1      33.072  25.790  22.387  1.00  0.00     0.334 C 
ATOM      8  O   UNL A   1      33.339  25.591  21.212  1.00  0.00    -0.247 OA
BRANCH   7   9
ATOM      9  C   UNL A   1      32.077  26.792  22.836  1.00  0.00     0.046 C 
ATOM     10  C   UNL A   1      30.900  26.474  23.417  1.00  0.00     0.027 C 
ATOM     11  C   UNL A   1      29.881  27.527  23.795  1.00  0.00     0.042 C 
ATOM     12  C   UNL A   1      32.514  28.216  22.616  1.00  0.00     0.044 C 
ATOM     13  C   UNL A   1      30.253  28.955  23.383  1.00  0.00     0.005 C 
ATOM     14  C   UNL A   1      31.751  29.200  23.495  1.00  0.00     0.005 C 
BRANCH  10  15
ATOM     15  C   UNL A   1      30.443  25.083  23.720  1.00  0.00     0.247 C 
ATOM     16  O   UNL A   1      30.049  24.350  22.815  1.00  0.00    -0.270 OA
ATOM     17  N   UNL A   1      30.355  24.664  25.014  1.00  0.00    -0.352 N 
ATOM     18  H   UNL A   1      29.950  23.775  25.142  1.00  0.00     0.163 HD
BRANCH  17  19
ATOM     19  C   UNL A   1      30.772  25.337  26.231  1.00  0.00     0.120 C 
BRANCH  19  20
ATOM     20  C   UNL A   1      32.270  25.542  26.385  1.00  0.00     0.052 C 
BRANCH  20  21
ATOM     21  C   UNL A   1      32.660  26.990  26.587  1.00  0.00    -0.072 C 
ATOM     22  C   UNL A   1      33.809  27.514  26.114  1.00  0.00    -0.028 C 
ATOM     23  C   UNL A   1      31.660  27.829  27.336  1.00  0.00     0.031 C 
ATOM     24  C   UNL A   1      34.217  28.948  26.305  1.00  0.00     0.027 C 
ATOM     25  C   UNL A   1      31.841  29.321  27.072  1.00  0.00     0.005 C 
ATOM     26  C   UNL A   1      33.299  29.728  27.249  1.00  0.00     0.004 C 
ENDBRANCH  20  21
ENDBRANCH  19  20
ENDBRANCH  17  19
ENDBRANCH  10  15
ENDBRANCH   7   9
ENDBRANCH   6   7
ENDBRANCH   5   6
ENDBRANCH   4   5
ENDBRANCH   3   4
ENDBRANCH   2   3
ENDBRANCH   1   2
BRANCH   1  27
ATOM     27  O   UNL A   1      34.847  21.815  26.828  1.00  0.00    -0.377 OA
BRANCH  27  28
ATOM     28  C   UNL A   1      35.761  21.514  25.785  1.00  0.00     0.188 C 
BRANCH  28  29
ATOM     29  C   UNL A   1      35.634  20.207  24.972  1.00  0.00     0.188 C 
BRANCH  29  30
ATOM     30  O   UNL A   1      36.830  19.458  24.874  1.00  0.00    -0.376 OA
BRANCH  30  31
ATOM     31  C   UNL A   1      38.062  20.096  25.146  1.00  0.00     0.202 C 
BRANCH  31  32
ATOM     32  C   UNL A   1      39.298  19.232  25.439  1.00  0.00     0.261 C 
BRANCH  32  33
ATOM     33  O   UNL A   1      40.162  19.675  26.495  1.00  0.00    -0.460 OA
BRANCH  33  34
ATOM     34  C   UNL A   1      41.493  19.602  26.295  1.00  0.00     0.338 C 
ATOM     35  O   UNL A   1      42.128  18.661  25.849  1.00  0.00    -0.246 OA
BRANCH  34  36
ATOM     36  C   UNL A   1      42.039  20.951  26.542  1.00  0.00     0.060 A 
ATOM     37  C   UNL A   1      42.300  21.362  27.856  1.00  0.00     0.016 A 
ATOM     38  C   UNL A   1      42.320  21.792  25.464  1.00  0.00     0.016 A 
ATOM     39  C   UNL A   1      42.823  22.632  28.097  1.00  0.00     0.010 A 
ATOM     40  C   UNL A   1      42.817  23.072  25.707  1.00  0.00     0.010 A 
ATOM     41  C   UNL A   1      43.039  23.508  27.025  1.00  0.00    -0.014 A 
BRANCH  41  42
ATOM     42  C   UNL A   1      43.286  24.944  27.282  1.00  0.00     0.031 A 
ATOM     43  C   UNL A   1      44.655  25.488  26.983  1.00  0.00     0.074 A 
ATOM     44  C   UNL A   1      42.326  25.747  27.768  1.00  0.00     0.049 A 
ATOM     45  N   UNL A   1      45.144  26.682  27.192  1.00  0.00    -0.248 NA
ATOM     46  C   UNL A   1      45.602  24.545  26.368  1.00  0.00     0.031 C 
ATOM     47  C   UNL A   1      40.950  25.347  28.046  1.00  0.00     0.029 A 
ATOM     48  N   UNL A   1      42.375  27.071  28.124  1.00  0.00    -0.354 N 
ATOM     49  C   UNL A   1      46.457  26.631  26.743  1.00  0.00     0.074 A 
ATOM     50  C   UNL A   1      46.699  25.280  26.288  1.00  0.00     0.031 C 
ATOM     51  C   UNL A   1      40.282  26.407  28.537  1.00  0.00     0.029 A 
ATOM     52  C   UNL A   1      41.198  27.543  28.646  1.00  0.00     0.049 A 
ATOM     53  H   UNL A   1      43.179  27.629  28.015  1.00  0.00     0.167 HD
ATOM     54  C   UNL A   1      47.376  27.624  26.708  1.00  0.00     0.037 A 
ATOM     55  C   UNL A   1      40.907  28.747  29.173  1.00  0.00     0.037 A 
ATOM     56  C   UNL A   1      47.133  28.961  27.185  1.00  0.00     0.049 A 
ATOM     57  C   UNL A   1      41.979  29.806  29.230  1.00  0.00     0.074 A 
ATOM     58  C   UNL A   1      47.991  30.045  27.191  1.00  0.00     0.029 A 
ATOM     59  N   UNL A   1      45.943  29.387  27.761  1.00  0.00    -0.354 N 
ATOM     60  N   UNL A   1      43.212  29.766  28.785  1.00  0.00    -0.248 NA
ATOM     61  C   UNL A   1      41.616  31.080  29.868  1.00  0.00     0.031 C 
ATOM     62  C   UNL A   1      47.344  31.108  27.832  1.00  0.00     0.029 A 
ATOM     63  C   UNL A   1      46.057  30.709  28.160  1.00  0.00     0.049 A 
ATOM     64  H   UNL A   1      45.138  28.831  27.870  1.00  0.00     0.167 HD
ATOM     65  C   UNL A   1      43.761  31.013  29.057  1.00  0.00     0.074 A 
ATOM     66  C   UNL A   1      42.721  31.792  29.698  1.00  0.00     0.031 C 
ATOM     67  C   UNL A   1      45.011  31.473  28.796  1.00  0.00     0.037 A 
BRANCH  54  68
ATOM     68  C   UNL A   1      48.739  27.276  26.177  1.00  0.00     0.064 A 
ATOM     69  C   UNL A   1      49.032  27.308  24.805  1.00  0.00     0.173 A 
ATOM     70  C   UNL A   1      49.760  26.880  27.054  1.00  0.00     0.173 A 
ATOM     71  F   UNL A   1      48.087  27.665  23.921  1.00  0.00    -0.203 F 
ATOM     72  C   UNL A   1      50.277  26.908  24.326  1.00  0.00     0.198 A 
ATOM     73  C   UNL A   1      51.017  26.518  26.575  1.00  0.00     0.198 A 
ATOM     74  F   UNL A   1      49.540  26.834  28.375  1.00  0.00    -0.203 F 
ATOM     75  F   UNL A   1      50.506  26.872  23.006  1.00  0.00    -0.200 F 
ATOM     76  C   UNL A   1      51.269  26.517  25.211  1.00  0.00     0.200 A 
ATOM     77  F   UNL A   1      51.980  26.154  27.434  1.00  0.00    -0.200 F 
ATOM     78  F   UNL A   1      52.465  26.126  24.751  1.00  0.00    -0.200 F 
ENDBRANCH  54  68
BRANCH  55  79
ATOM     79  C   UNL A   1      39.538  29.020  29.683  1.00  0.00     0.064 A 
ATOM     80  C   UNL A   1      39.210  28.769  31.023  1.00  0.00     0.173 A 
ATOM     81  C   UNL A   1      38.534  29.540  28.853  1.00  0.00     0.173 A 
ATOM     82  F   UNL A   1      40.128  28.246  31.849  1.00  0.00    -0.203 F 
ATOM     83  C   UNL A   1      37.930  29.021  31.511  1.00  0.00     0.198 A 
ATOM     84  C   UNL A   1      37.262  29.819  29.349  1.00  0.00     0.198 A 
ATOM     85  F   UNL A   1      38.794  29.791  27.562  1.00  0.00    -0.203 F 
ATOM     86  F   UNL A   1      37.634  28.737  32.786  1.00  0.00    -0.200 F 
ATOM     87  C   UNL A   1      36.959  29.554  30.676  1.00  0.00     0.200 A 
ATOM     88  F   UNL A   1      36.330  30.344  28.543  1.00  0.00    -0.200 F 
ATOM     89  F   UNL A   1      35.732  29.808  31.150  1.00  0.00    -0.200 F 
ENDBRANCH  55  79
BRANCH  67  90
ATOM     90  C   UNL A   1      45.317  32.899  29.162  1.00  0.00     0.064 A 
ATOM     91  C   UNL A   1      45.884  33.242  30.399  1.00  0.00     0.173 A 
ATOM     92  C   UNL A   1      45.084  33.933  28.240  1.00  0.00     0.173 A 
ATOM     93  F   UNL A   1      46.114  32.296  31.322  1.00  0.00    -0.203 F 
ATOM     94  C   UNL A   1      46.181  34.567  30.708  1.00  0.00     0.198 A 
ATOM     95  C   UNL A   1      45.417  35.251  28.539  1.00  0.00     0.198 A 
ATOM     96  F   UNL A   1      44.551  33.661  27.039  1.00  0.00    -0.203 F 
ATOM     97  F   UNL A   1      46.676  34.877  31.915  1.00  0.00    -0.200 F 
ATOM     98  C   UNL A   1      45.958  35.568  29.775  1.00  0.00     0.200 A 
ATOM     99  F   UNL A   1      45.216  36.214  27.629  1.00  0.00    -0.200 F 
ATOM    100  F   UNL A   1      46.256  36.841  30.069  1.00  0.00    -0.200 F 
ENDBRANCH  67  90
ENDBRANCH  41  42
ENDBRANCH  34  36
ENDBRANCH  33  34
ENDBRANCH  32  33
ENDBRANCH  31  32
ENDBRANCH  30  31
ENDBRANCH  29  30
ENDBRANCH  28  29
ENDBRANCH  27  28
ENDBRANCH   1  27
TORSDOF 24
ENDMDL
MODEL 2
REMARK VINA RESULT:     -10.2      3.552      8.693
REMARK SMILES O=C(NCCC1=CCCCC1)C1=C(C(=O)OCCOCCOCCOCCOC(=O)c2ccc(-c3c4nc(c(-c5c(F)c(F)c(F)c(F)c5F)c5ccc([nH]5)c(-c5c(F)c(F)c(F)c(F)c5F)c5nc(c(-c6c(F)c(F)c(F)c(F)c6F)c6ccc3[nH]6)C=C5)C=C4)cc2)CCCC1
REMARK SMILES IDX 21 1 20 2 19 3 18 4 17 5 16 6 14 7 15 8 13 9 12 10 97 11
REMARK SMILES IDX 94 12 96 13 95 14 2 15 1 16 3 17 4 19 5 20 6 21 7 22 11 23
REMARK SMILES IDX 8 24 10 25 9 26 22 27 23 28 24 29 25 30 26 31 27 32 28 33
REMARK SMILES IDX 29 34 30 35 31 36 32 37 93 38 33 39 92 40 34 41 35 42 36 43
REMARK SMILES IDX 86 44 37 45 91 46 85 47 87 48 38 49 90 50 84 51 83 52 39 54
REMARK SMILES IDX 71 55 51 56 70 57 52 58 55 59 69 60 88 61 53 62 54 63 68 65
REMARK SMILES IDX 89 66 56 67 40 68 41 69 49 70 42 71 43 72 47 73 50 74 44 75
REMARK SMILES IDX 45 76 48 77 46 78 72 79 73 80 81 81 74 82 75 83 79 84 82 85
REMARK SMILES IDX 76 86 77 87 80 88 78 89 57 90 58 91 66 92 59 93 60 94 64 95
REMARK SMILES IDX 67 96 61 97 62 98 65 99 63 100
REMARK H PARENT 3 18 87 53 55 64
REMARK Flexibility Score: inf
ROOT
ATOM      1  C   UNL A   1      34.450  32.551  28.065  1.00  0.00     0.188 C 
ENDROOT
BRANCH   1   2
ATOM      2  C   UNL A   1      34.132  31.049  27.864  1.00  0.00     0.188 C 
BRANCH   2   3
ATOM      3  O   UNL A   1      33.199  30.736  26.853  1.00  0.00    -0.376 OA
BRANCH   3   4
ATOM      4  C   UNL A   1      32.211  29.742  27.003  1.00  0.00     0.202 C 
BRANCH   4   5
ATOM      5  C   UNL A   1      32.513  28.243  27.033  1.00  0.00     0.261 C 
BRANCH   5   6
ATOM      6  O   UNL A   1      33.701  27.808  26.379  1.00  0.00    -0.460 OA
BRANCH   6   7
ATOM      7  C   UNL A   1      33.636  27.702  25.035  1.00  0.00     0.334 C 
ATOM      8  O   UNL A   1      33.462  28.622  24.250  1.00  0.00    -0.247 OA
BRANCH   7   9
ATOM      9  C   UNL A   1      33.854  26.300  24.607  1.00  0.00     0.046 C 
ATOM     10  C   UNL A   1      33.638  25.856  23.350  1.00  0.00     0.027 C 
ATOM     11  C   UNL A   1      33.805  24.400  22.973  1.00  0.00     0.042 C 
ATOM     12  C   UNL A   1      34.376  25.409  25.703  1.00  0.00     0.044 C 
ATOM     13  C   UNL A   1      34.143  23.470  24.143  1.00  0.00     0.005 C 
ATOM     14  C   UNL A   1      35.047  24.153  25.160  1.00  0.00     0.005 C 
BRANCH  10  15
ATOM     15  C   UNL A   1      33.183  26.707  22.208  1.00  0.00     0.247 C 
ATOM     16  O   UNL A   1      34.006  27.268  21.487  1.00  0.00    -0.270 OA
ATOM     17  N   UNL A   1      31.854  26.956  22.034  1.00  0.00    -0.352 N 
ATOM     18  H   UNL A   1      31.637  27.607  21.327  1.00  0.00     0.163 HD
BRANCH  17  19
ATOM     19  C   UNL A   1      30.713  26.402  22.739  1.00  0.00     0.120 C 
BRANCH  19  20
ATOM     20  C   UNL A   1      30.215  27.217  23.922  1.00  0.00     0.052 C 
BRANCH  20  21
ATOM     21  C   UNL A   1      29.394  28.421  23.518  1.00  0.00    -0.072 C 
ATOM     22  C   UNL A   1      28.098  28.338  23.155  1.00  0.00    -0.028 C 
ATOM     23  C   UNL A   1      30.114  29.742  23.576  1.00  0.00     0.031 C 
ATOM     24  C   UNL A   1      27.264  29.521  22.748  1.00  0.00     0.027 C 
ATOM     25  C   UNL A   1      29.152  30.923  23.665  1.00  0.00     0.005 C 
ATOM     26  C   UNL A   1      28.065  30.817  22.603  1.00  0.00     0.004 C 
ENDBRANCH  20  21
ENDBRANCH  19  20
ENDBRANCH  17  19
ENDBRANCH  10  15
ENDBRANCH   7   9
ENDBRANCH   6   7
ENDBRANCH   5   6
ENDBRANCH   4   5
ENDBRANCH   3   4
ENDBRANCH   2   3
ENDBRANCH   1   2
BRANCH   1  27
ATOM     27  O   UNL A   1      33.431  33.496  28.347  1.00  0.00    -0.377 OA
BRANCH  27  28
ATOM     28  C   UNL A   1      33.721  34.883  28.431  1.00  0.00     0.188 C 
BRANCH  28  29
ATOM     29  C   UNL A   1      33.236  35.723  29.631  1.00  0.00     0.188 C 
BRANCH  29  30
ATOM     30  O   UNL A   1      33.078  34.994  30.833  1.00  0.00    -0.376 OA
BRANCH  30  31
ATOM     31  C   UNL A   1      34.229  34.522  31.505  1.00  0.00     0.202 C 
BRANCH  31  32
ATOM     32  C   UNL A   1      34.124  33.246  32.353  1.00  0.00     0.261 C 
BRANCH  32  33
ATOM     33  O   UNL A   1      35.049  32.191  32.053  1.00  0.00    -0.460 OA
BRANCH  33  34
ATOM     34  C   UNL A   1      36.108  32.028  32.870  1.00  0.00     0.338 C 
ATOM     35  O   UNL A   1      36.175  32.280  34.062  1.00  0.00    -0.246 OA
BRANCH  34  36
ATOM     36  C   UNL A   1      37.138  31.306  32.098  1.00  0.00     0.060 A 
ATOM     37  C   UNL A   1      38.029  30.452  32.764  1.00  0.00     0.016 A 
ATOM     38  C   UNL A   1      37.196  31.454  30.711  1.00  0.00     0.016 A 
ATOM     39  C   UNL A   1      39.000  29.760  32.041  1.00  0.00     0.010 A 
ATOM     40  C   UNL A   1      38.185  30.784  29.993  1.00  0.00     0.010 A 
ATOM     41  C   UNL A   1      39.110  29.961  30.658  1.00  0.00    -0.014 A 
BRANCH  41  42
ATOM     42  C   UNL A   1      40.314  29.492  29.937  1.00  0.00     0.031 A 
ATOM     43  C   UNL A   1      41.440  30.467  29.739  1.00  0.00     0.074 A 
ATOM     44  C   UNL A   1      40.410  28.238  29.468  1.00  0.00     0.049 A 
ATOM     45  N   UNL A   1      42.560  30.329  29.079  1.00  0.00    -0.248 NA
ATOM     46  C   UNL A   1      41.270  31.784  30.372  1.00  0.00     0.031 C 
ATOM     47  C   UNL A   1      39.409  27.191  29.645  1.00  0.00     0.029 A 
ATOM     48  N   UNL A   1      41.403  27.640  28.734  1.00  0.00    -0.354 N 
ATOM     49  C   UNL A   1      43.223  31.542  29.209  1.00  0.00     0.074 A 
ATOM     50  C   UNL A   1      42.363  32.416  29.976  1.00  0.00     0.031 C 
ATOM     51  C   UNL A   1      39.837  26.074  29.029  1.00  0.00     0.029 A 
ATOM     52  C   UNL A   1      41.120  26.345  28.380  1.00  0.00     0.049 A 
ATOM     53  H   UNL A   1      42.239  28.097  28.485  1.00  0.00     0.167 HD
ATOM     54  C   UNL A   1      44.442  31.893  28.737  1.00  0.00     0.037 A 
ATOM     55  C   UNL A   1      41.811  25.491  27.601  1.00  0.00     0.037 A 
ATOM     56  C   UNL A   1      45.280  31.023  27.954  1.00  0.00     0.049 A 
ATOM     57  C   UNL A   1      43.113  25.941  26.988  1.00  0.00     0.074 A 
ATOM     58  C   UNL A   1      46.535  31.275  27.429  1.00  0.00     0.029 A 
ATOM     59  N   UNL A   1      44.934  29.735  27.565  1.00  0.00    -0.354 N 
ATOM     60  N   UNL A   1      43.751  27.078  27.130  1.00  0.00    -0.248 NA
ATOM     61  C   UNL A   1      43.791  24.983  26.102  1.00  0.00     0.031 C 
ATOM     62  C   UNL A   1      46.919  30.165  26.668  1.00  0.00     0.029 A 
ATOM     63  C   UNL A   1      45.936  29.192  26.778  1.00  0.00     0.049 A 
ATOM     64  H   UNL A   1      44.100  29.276  27.815  1.00  0.00     0.167 HD
ATOM     65  C   UNL A   1      44.916  26.963  26.382  1.00  0.00     0.074 A 
ATOM     66  C   UNL A   1      44.902  25.639  25.795  1.00  0.00     0.031 C 
ATOM     67  C   UNL A   1      45.910  27.870  26.201  1.00  0.00     0.037 A 
BRANCH  54  68
ATOM     68  C   UNL A   1      44.907  33.294  29.019  1.00  0.00     0.064 A 
ATOM     69  C   UNL A   1      44.565  34.372  28.186  1.00  0.00     0.173 A 
ATOM     70  C   UNL A   1      45.729  33.559  30.125  1.00  0.00     0.173 A 
ATOM     71  F   UNL A   1      43.794  34.172  27.107  1.00  0.00    -0.203 F 
ATOM     72  C   UNL A   1      45.068  35.649  28.421  1.00  0.00     0.198 A 
ATOM     73  C   UNL A   1      46.199  34.845  30.379  1.00  0.00     0.198 A 
ATOM     74  F   UNL A   1      46.085  32.570  30.957  1.00  0.00    -0.203 F 
ATOM     75  F   UNL A   1      44.791  36.644  27.568  1.00  0.00    -0.200 F 
ATOM     76  C   UNL A   1      45.882  35.885  29.518  1.00  0.00     0.200 A 
ATOM     77  F   UNL A   1      46.973  35.074  31.449  1.00  0.00    -0.200 F 
ATOM     78  F   UNL A   1      46.372  37.112  29.740  1.00  0.00    -0.200 F 
ENDBRANCH  54  68
BRANCH  55  79
ATOM     79  C   UNL A   1      41.288  24.121  27.361  1.00  0.00     0.064 A 
ATOM     80  C   UNL A   1      41.926  23.004  27.917  1.00  0.00     0.173 A 
ATOM     81  C   UNL A   1      40.143  23.897  26.582  1.00  0.00     0.173 A 
ATOM     82  F   UNL A   1      43.041  23.165  28.646  1.00  0.00    -0.203 F 
ATOM     83  C   UNL A   1      41.445  21.715  27.697  1.00  0.00     0.198 A 
ATOM     84  C   UNL A   1      39.646  22.611  26.386  1.00  0.00     0.198 A 
ATOM     85  F   UNL A   1      39.500  24.931  26.021  1.00  0.00    -0.203 F 
ATOM     86  F   UNL A   1      42.096  20.663  28.210  1.00  0.00    -0.200 F 
ATOM     87  C   UNL A   1      40.300  21.520  26.940  1.00  0.00     0.200 A 
ATOM     88  F   UNL A   1      38.533  22.426  25.663  1.00  0.00    -0.200 F 
ATOM     89  F   UNL A   1      39.830  20.281  26.740  1.00  0.00    -0.200 F 
ENDBRANCH  55  79
BRANCH  67  90
ATOM     90  C   UNL A   1      47.089  27.451  25.369  1.00  0.00     0.064 A 
ATOM     91  C   UNL A   1      47.202  27.798  24.014  1.00  0.00     0.173 A 
ATOM     92  C   UNL A   1      48.147  26.732  25.949  1.00  0.00     0.173 A 
ATOM     93  F   UNL A   1      46.214  28.471  23.404  1.00  0.00    -0.203 F 
ATOM     94  C   UNL A   1      48.315  27.419  23.267  1.00  0.00     0.198 A 
ATOM     95  C   UNL A   1      49.275  26.388  25.209  1.00  0.00     0.198 A 
ATOM     96  F   UNL A   1      48.096  26.381  27.243  1.00  0.00    -0.203 F 
ATOM     97  F   UNL A   1      48.378  27.718  21.962  1.00  0.00    -0.200 F 
ATOM     98  C   UNL A   1      49.355  26.725  23.867  1.00  0.00     0.200 A 
ATOM     99  F   UNL A   1      50.285  25.732  25.796  1.00  0.00    -0.200 F 
ATOM    100  F   UNL A   1      50.430  26.372  23.150  1.00  0.00    -0.200 F 
ENDBRANCH  67  90
ENDBRANCH  41  42
ENDBRANCH  34  36
ENDBRANCH  33  34
ENDBRANCH  32  33
ENDBRANCH  31  32
ENDBRANCH  30  31
ENDBRANCH  29  30
ENDBRANCH  28  29
ENDBRANCH  27  28
ENDBRANCH   1  27
TORSDOF 24
ENDMDL
MODEL 3
REMARK VINA RESULT:     -10.0      3.560      8.794
REMARK SMILES O=C(NCCC1=CCCCC1)C1=C(C(=O)OCCOCCOCCOCCOC(=O)c2ccc(-c3c4nc(c(-c5c(F)c(F)c(F)c(F)c5F)c5ccc([nH]5)c(-c5c(F)c(F)c(F)c(F)c5F)c5nc(c(-c6c(F)c(F)c(F)c(F)c6F)c6ccc3[nH]6)C=C5)C=C4)cc2)CCCC1
REMARK SMILES IDX 21 1 20 2 19 3 18 4 17 5 16 6 14 7 15 8 13 9 12 10 97 11
REMARK SMILES IDX 94 12 96 13 95 14 2 15 1 16 3 17 4 19 5 20 6 21 7 22 11 23
REMARK SMILES IDX 8 24 10 25 9 26 22 27 23 28 24 29 25 30 26 31 27 32 28 33
REMARK SMILES IDX 29 34 30 35 31 36 32 37 93 38 33 39 92 40 34 41 35 42 36 43
REMARK SMILES IDX 86 44 37 45 91 46 85 47 87 48 38 49 90 50 84 51 83 52 39 54
REMARK SMILES IDX 71 55 51 56 70 57 52 58 55 59 69 60 88 61 53 62 54 63 68 65
REMARK SMILES IDX 89 66 56 67 40 68 41 69 49 70 42 71 43 72 47 73 50 74 44 75
REMARK SMILES IDX 45 76 48 77 46 78 72 79 73 80 81 81 74 82 75 83 79 84 82 85
REMARK SMILES IDX 76 86 77 87 80 88 78 89 57 90 58 91 66 92 59 93 60 94 64 95
REMARK SMILES IDX 67 96 61 97 62 98 65 99 63 100
REMARK H PARENT 3 18 87 53 55 64
REMARK Flexibility Score: inf
ROOT
ATOM      1  C   UNL A   1      34.535  32.968  27.996  1.00  0.00     0.188 C 
ENDROOT
BRANCH   1   2
ATOM      2  C   UNL A   1      34.447  31.431  27.823  1.00  0.00     0.188 C 
BRANCH   2   3
ATOM      3  O   UNL A   1      33.542  30.962  26.848  1.00  0.00    -0.376 OA
BRANCH   3   4
ATOM      4  C   UNL A   1      32.277  30.427  27.170  1.00  0.00     0.202 C 
BRANCH   4   5
ATOM      5  C   UNL A   1      31.827  29.020  26.777  1.00  0.00     0.261 C 
BRANCH   5   6
ATOM      6  O   UNL A   1      32.417  28.452  25.611  1.00  0.00    -0.460 OA
BRANCH   6   7
ATOM      7  C   UNL A   1      31.645  28.427  24.505  1.00  0.00     0.334 C 
ATOM      8  O   UNL A   1      30.808  29.261  24.195  1.00  0.00    -0.247 OA
BRANCH   7   9
ATOM      9  C   UNL A   1      31.975  27.256  23.659  1.00  0.00     0.046 C 
ATOM     10  C   UNL A   1      31.273  26.102  23.666  1.00  0.00     0.027 C 
ATOM     11  C   UNL A   1      31.688  24.905  22.839  1.00  0.00     0.042 C 
ATOM     12  C   UNL A   1      33.159  27.479  22.755  1.00  0.00     0.044 C 
ATOM     13  C   UNL A   1      33.006  25.078  22.078  1.00  0.00     0.005 C 
ATOM     14  C   UNL A   1      33.185  26.506  21.582  1.00  0.00     0.005 C 
BRANCH  10  15
ATOM     15  C   UNL A   1      30.054  25.848  24.493  1.00  0.00     0.247 C 
ATOM     16  O   UNL A   1      28.935  26.061  24.030  1.00  0.00    -0.270 OA
ATOM     17  N   UNL A   1      30.184  25.488  25.802  1.00  0.00    -0.352 N 
ATOM     18  H   UNL A   1      29.342  25.439  26.310  1.00  0.00     0.163 HD
BRANCH  17  19
ATOM     19  C   UNL A   1      31.383  25.167  26.554  1.00  0.00     0.120 C 
BRANCH  19  20
ATOM     20  C   UNL A   1      31.593  23.691  26.852  1.00  0.00     0.052 C 
BRANCH  20  21
ATOM     21  C   UNL A   1      32.592  23.028  25.930  1.00  0.00    -0.072 C 
ATOM     22  C   UNL A   1      32.270  22.011  25.106  1.00  0.00    -0.028 C 
ATOM     23  C   UNL A   1      33.984  23.601  25.969  1.00  0.00     0.031 C 
ATOM     24  C   UNL A   1      33.247  21.337  24.184  1.00  0.00     0.027 C 
ATOM     25  C   UNL A   1      34.782  23.269  24.711  1.00  0.00     0.005 C 
ATOM     26  C   UNL A   1      34.696  21.782  24.392  1.00  0.00     0.004 C 
ENDBRANCH  20  21
ENDBRANCH  19  20
ENDBRANCH  17  19
ENDBRANCH  10  15
ENDBRANCH   7   9
ENDBRANCH   6   7
ENDBRANCH   5   6
ENDBRANCH   4   5
ENDBRANCH   3   4
ENDBRANCH   2   3
ENDBRANCH   1   2
BRANCH   1  27
ATOM     27  O   UNL A   1      33.425  33.732  28.439  1.00  0.00    -0.377 OA
BRANCH  27  28
ATOM     28  C   UNL A   1      33.526  35.136  28.614  1.00  0.00     0.188 C 
BRANCH  28  29
ATOM     29  C   UNL A   1      33.085  35.804  29.934  1.00  0.00     0.188 C 
BRANCH  29  30
ATOM     30  O   UNL A   1      33.092  34.946  31.058  1.00  0.00    -0.376 OA
BRANCH  30  31
ATOM     31  C   UNL A   1      34.326  34.429  31.517  1.00  0.00     0.202 C 
BRANCH  31  32
ATOM     32  C   UNL A   1      34.317  33.284  32.541  1.00  0.00     0.261 C 
BRANCH  32  33
ATOM     33  O   UNL A   1      35.191  32.177  32.281  1.00  0.00    -0.460 OA
BRANCH  33  34
ATOM     34  C   UNL A   1      36.288  32.043  33.053  1.00  0.00     0.338 C 
ATOM     35  O   UNL A   1      36.405  32.316  34.235  1.00  0.00    -0.246 OA
BRANCH  34  36
ATOM     36  C   UNL A   1      37.293  31.320  32.248  1.00  0.00     0.060 A 
ATOM     37  C   UNL A   1      38.149  30.402  32.871  1.00  0.00     0.016 A 
ATOM     38  C   UNL A   1      37.361  31.534  30.870  1.00  0.00     0.016 A 
ATOM     39  C   UNL A   1      39.096  29.710  32.117  1.00  0.00     0.010 A 
ATOM     40  C   UNL A   1      38.326  30.863  30.120  1.00  0.00     0.010 A 
ATOM     41  C   UNL A   1      39.217  29.974  30.746  1.00  0.00    -0.014 A 
BRANCH  41  42
ATOM     42  C   UNL A   1      40.406  29.496  30.004  1.00  0.00     0.031 A 
ATOM     43  C   UNL A   1      41.543  30.457  29.803  1.00  0.00     0.074 A 
ATOM     44  C   UNL A   1      40.477  28.246  29.520  1.00  0.00     0.049 A 
ATOM     45  N   UNL A   1      42.653  30.310  29.127  1.00  0.00    -0.248 NA
ATOM     46  C   UNL A   1      41.400  31.769  30.453  1.00  0.00     0.031 C 
ATOM     47  C   UNL A   1      39.463  27.212  29.698  1.00  0.00     0.029 A 
ATOM     48  N   UNL A   1      41.452  27.643  28.767  1.00  0.00    -0.354 N 
ATOM     49  C   UNL A   1      43.335  31.512  29.262  1.00  0.00     0.074 A 
ATOM     50  C   UNL A   1      42.498  32.389  30.050  1.00  0.00     0.031 C 
ATOM     51  C   UNL A   1      39.867  26.096  29.063  1.00  0.00     0.029 A 
ATOM     52  C   UNL A   1      41.145  26.356  28.402  1.00  0.00     0.049 A 
ATOM     53  H   UNL A   1      42.291  28.090  28.512  1.00  0.00     0.167 HD
ATOM     54  C   UNL A   1      44.553  31.851  28.779  1.00  0.00     0.037 A 
ATOM     55  C   UNL A   1      41.814  25.501  27.604  1.00  0.00     0.037 A 
ATOM     56  C   UNL A   1      45.368  30.978  27.975  1.00  0.00     0.049 A 
ATOM     57  C   UNL A   1      43.115  25.939  26.980  1.00  0.00     0.074 A 
ATOM     58  C   UNL A   1      46.620  31.217  27.438  1.00  0.00     0.029 A 
ATOM     59  N   UNL A   1      44.999  29.700  27.577  1.00  0.00    -0.354 N 
ATOM     60  N   UNL A   1      43.771  27.065  27.126  1.00  0.00    -0.248 NA
ATOM     61  C   UNL A   1      43.768  24.981  26.075  1.00  0.00     0.031 C 
ATOM     62  C   UNL A   1      46.978  30.110  26.660  1.00  0.00     0.029 A 
ATOM     63  C   UNL A   1      45.983  29.151  26.771  1.00  0.00     0.049 A 
ATOM     64  H   UNL A   1      44.161  29.249  27.832  1.00  0.00     0.167 HD
ATOM     65  C   UNL A   1      44.925  26.941  26.362  1.00  0.00     0.074 A 
ATOM     66  C   UNL A   1      44.884  25.624  25.761  1.00  0.00     0.031 C 
ATOM     67  C   UNL A   1      45.929  27.836  26.179  1.00  0.00     0.037 A 
BRANCH  54  68
ATOM     68  C   UNL A   1      45.042  33.241  29.071  1.00  0.00     0.064 A 
ATOM     69  C   UNL A   1      45.706  33.559  30.267  1.00  0.00     0.173 A 
ATOM     70  C   UNL A   1      44.821  34.278  28.152  1.00  0.00     0.173 A 
ATOM     71  F   UNL A   1      45.930  32.609  31.187  1.00  0.00    -0.203 F 
ATOM     72  C   UNL A   1      46.083  34.868  30.553  1.00  0.00     0.198 A 
ATOM     73  C   UNL A   1      45.235  35.580  28.424  1.00  0.00     0.198 A 
ATOM     74  F   UNL A   1      44.196  34.033  26.992  1.00  0.00    -0.203 F 
ATOM     75  F   UNL A   1      46.645  35.160  31.735  1.00  0.00    -0.200 F 
ATOM     76  C   UNL A   1      45.851  35.877  29.631  1.00  0.00     0.200 A 
ATOM     77  F   UNL A   1      45.022  36.550  27.525  1.00  0.00    -0.200 F 
ATOM     78  F   UNL A   1      46.208  37.138  29.909  1.00  0.00    -0.200 F 
ENDBRANCH  54  68
BRANCH  55  79
ATOM     79  C   UNL A   1      41.268  24.142  27.355  1.00  0.00     0.064 A 
ATOM     80  C   UNL A   1      40.126  23.963  26.561  1.00  0.00     0.173 A 
ATOM     81  C   UNL A   1      41.871  22.997  27.895  1.00  0.00     0.173 A 
ATOM     82  F   UNL A   1      39.497  25.030  26.045  1.00  0.00    -0.203 F 
ATOM     83  C   UNL A   1      39.606  22.693  26.322  1.00  0.00     0.198 A 
ATOM     84  C   UNL A   1      41.368  21.725  27.632  1.00  0.00     0.198 A 
ATOM     85  F   UNL A   1      42.961  23.113  28.668  1.00  0.00    -0.203 F 
ATOM     86  F   UNL A   1      38.493  22.555  25.590  1.00  0.00    -0.200 F 
ATOM     87  C   UNL A   1      40.232  21.574  26.850  1.00  0.00     0.200 A 
ATOM     88  F   UNL A   1      41.981  20.645  28.135  1.00  0.00    -0.200 F 
ATOM     89  F   UNL A   1      39.739  20.352  26.609  1.00  0.00    -0.200 F 
ENDBRANCH  55  79
BRANCH  67  90
ATOM     90  C   UNL A   1      47.092  27.409  25.327  1.00  0.00     0.064 A 
ATOM     91  C   UNL A   1      47.222  27.817  23.991  1.00  0.00     0.173 A 
ATOM     92  C   UNL A   1      48.118  26.620  25.872  1.00  0.00     0.173 A 
ATOM     93  F   UNL A   1      46.263  28.559  23.415  1.00  0.00    -0.203 F 
ATOM     94  C   UNL A   1      48.319  27.429  23.226  1.00  0.00     0.198 A 
ATOM     95  C   UNL A   1      49.232  26.266  25.116  1.00  0.00     0.198 A 
ATOM     96  F   UNL A   1      48.050  26.209  27.148  1.00  0.00    -0.203 F 
ATOM     97  F   UNL A   1      48.397  27.789  21.937  1.00  0.00    -0.200 F 
ATOM     98  C   UNL A   1      49.328  26.664  23.792  1.00  0.00     0.200 A 
ATOM     99  F   UNL A   1      50.213  25.541  25.671  1.00  0.00    -0.200 F 
ATOM    100  F   UNL A   1      50.390  26.302  23.059  1.00  0.00    -0.200 F 
ENDBRANCH  67  90
ENDBRANCH  41  42
ENDBRANCH  34  36
ENDBRANCH  33  34
ENDBRANCH  32  33
ENDBRANCH  31  32
ENDBRANCH  30  31
ENDBRANCH  29  30
ENDBRANCH  28  29
ENDBRANCH  27  28
ENDBRANCH   1  27
TORSDOF 24
ENDMDL
