MODEL 1
REMARK VINA RESULT:      -9.9      0.000      0.000
REMARK SMILES CCCN1C(=O)/C(=C\c2ccc(C(=O)OCCOCCOCCOCCOC(=O)c3ccc(-c4c5nc(c(-c6c(F)c(F)c(F)c(F)c6F)c6ccc([nH]6)c(-c6c(F)c(F)c(F)c(F)c6F)c6nc(c(-c7c(F)c(F)c(F)c(F)c7F)c7ccc4[nH]7)C=C6)C=C5)cc3)cc2)S/C1=[NH+]\c1nnc(C)s1
REMARK SMILES IDX 20 1 19 2 18 3 17 4 16 5 15 6 13 7 14 8 12 9 9 10 10 11
REMARK SMILES IDX 94 12 11 13 93 14 8 15 4 16 5 17 96 18 6 19 7 20 95 21 97 22
REMARK SMILES IDX 3 24 2 25 1 26 98 27 99 28 103 29 100 30 101 31 102 32 21 33
REMARK SMILES IDX 22 34 23 35 24 36 25 37 26 38 27 39 28 40 29 41 30 42 31 43
REMARK SMILES IDX 92 44 32 45 91 46 33 47 34 48 35 49 85 50 36 51 90 52 84 53
REMARK SMILES IDX 86 54 37 55 89 56 83 57 82 58 38 60 70 61 50 62 69 63 51 64
REMARK SMILES IDX 54 65 68 66 87 67 52 68 53 69 67 71 88 72 55 73 39 74 40 75
REMARK SMILES IDX 48 76 41 77 42 78 46 79 49 80 43 81 44 82 47 83 45 84 71 85
REMARK SMILES IDX 72 86 80 87 73 88 74 89 78 90 81 91 75 92 76 93 79 94 77 95
REMARK SMILES IDX 56 96 57 97 65 98 58 99 59 100 63 101 66 102 60 103 61 104
REMARK SMILES IDX 64 105 62 106
REMARK H PARENT 97 23 86 59 54 70
REMARK Flexibility Score: inf
ROOT
ATOM      1  C   UNL A   1      33.190  26.248  26.128  1.00  0.00     0.188 C 
ENDROOT
BRANCH   1   2
ATOM      2  C   UNL A   1      31.695  26.518  26.379  1.00  0.00     0.188 C 
BRANCH   2   3
ATOM      3  O   UNL A   1      30.839  25.555  25.781  1.00  0.00    -0.376 OA
BRANCH   3   4
ATOM      4  C   UNL A   1      30.679  25.596  24.372  1.00  0.00     0.202 C 
BRANCH   4   5
ATOM      5  C   UNL A   1      30.406  24.264  23.659  1.00  0.00     0.261 C 
BRANCH   5   6
ATOM      6  O   UNL A   1      31.466  23.308  23.736  1.00  0.00    -0.460 OA
BRANCH   6   7
ATOM      7  C   UNL A   1      31.637  22.663  24.909  1.00  0.00     0.338 C 
ATOM      8  O   UNL A   1      30.765  22.351  25.701  1.00  0.00    -0.246 OA
BRANCH   7   9
ATOM      9  C   UNL A   1      33.052  22.216  24.989  1.00  0.00     0.060 A 
ATOM     10  C   UNL A   1      35.696  21.311  25.051  1.00  0.00    -0.024 A 
ATOM     11  C   UNL A   1      35.196  21.931  23.899  1.00  0.00     0.009 A 
ATOM     12  C   UNL A   1      34.922  21.292  26.215  1.00  0.00     0.009 A 
ATOM     13  C   UNL A   1      33.876  22.388  23.871  1.00  0.00     0.016 A 
ATOM     14  C   UNL A   1      33.589  21.697  26.173  1.00  0.00     0.016 A 
BRANCH  10  15
ATOM     15  C   UNL A   1      36.931  20.526  24.956  1.00  0.00     0.031 C 
ATOM     16  N   UNL A   1      39.529  22.379  26.680  1.00  0.00    -0.219 N 
ATOM     17  C   UNL A   1      38.391  22.373  25.916  1.00  0.00     0.321 C 
ATOM     18  C   UNL A   1      40.395  21.353  26.384  1.00  0.00     0.271 C 
ATOM     19  O   UNL A   1      37.783  23.371  25.562  1.00  0.00    -0.250 OA
ATOM     20  C   UNL A   1      38.108  21.001  25.396  1.00  0.00     0.100 C 
ATOM     21  S   UNL A   1      39.543  20.065  25.531  1.00  0.00    -0.012 SA
ATOM     22  N   UNL A   1      41.656  21.432  26.659  1.00  0.00    -0.226 N 
ATOM     23  H   UNL A   1      42.013  22.150  27.231  1.00  0.00     0.268 HD
BRANCH  16  24
ATOM     24  C   UNL A   1      39.955  23.528  27.487  1.00  0.00     0.206 C 
BRANCH  24  25
ATOM     25  C   UNL A   1      40.987  24.508  26.911  1.00  0.00     0.035 C 
ATOM     26  C   UNL A   1      40.439  25.879  26.526  1.00  0.00     0.007 C 
ENDBRANCH  24  25
ENDBRANCH  16  24
BRANCH  22  27
ATOM     27  C   UNL A   1      42.466  20.484  26.126  1.00  0.00     0.345 A 
ATOM     28  N   UNL A   1      42.328  19.175  26.175  1.00  0.00     0.023 NA
ATOM     29  S   UNL A   1      43.929  20.972  25.320  1.00  0.00    -0.044 S 
ATOM     30  N   UNL A   1      43.310  18.504  25.468  1.00  0.00    -0.067 NA
ATOM     31  C   UNL A   1      44.176  19.327  24.920  1.00  0.00     0.135 A 
ATOM     32  C   UNL A   1      45.287  18.924  24.022  1.00  0.00     0.083 C 
ENDBRANCH  22  27
ENDBRANCH  10  15
ENDBRANCH   7   9
ENDBRANCH   6   7
ENDBRANCH   5   6
ENDBRANCH   4   5
ENDBRANCH   3   4
ENDBRANCH   2   3
ENDBRANCH   1   2
BRANCH   1  33
ATOM     33  O   UNL A   1      33.684  26.495  24.821  1.00  0.00    -0.377 OA
BRANCH  33  34
ATOM     34  C   UNL A   1      33.804  27.842  24.364  1.00  0.00     0.188 C 
BRANCH  34  35
ATOM     35  C   UNL A   1      32.590  28.660  23.860  1.00  0.00     0.188 C 
BRANCH  35  36
ATOM     36  O   UNL A   1      32.432  29.941  24.450  1.00  0.00    -0.376 OA
BRANCH  36  37
ATOM     37  C   UNL A   1      31.662  30.020  25.637  1.00  0.00     0.202 C 
BRANCH  37  38
ATOM     38  C   UNL A   1      32.470  30.024  26.940  1.00  0.00     0.261 C 
BRANCH  38  39
ATOM     39  O   UNL A   1      33.807  30.542  26.830  1.00  0.00    -0.460 OA
BRANCH  39  40
ATOM     40  C   UNL A   1      34.108  31.626  27.577  1.00  0.00     0.338 C 
ATOM     41  O   UNL A   1      33.397  32.585  27.817  1.00  0.00    -0.246 OA
BRANCH  40  42
ATOM     42  C   UNL A   1      35.410  31.372  28.223  1.00  0.00     0.060 A 
ATOM     43  C   UNL A   1      35.669  30.103  28.754  1.00  0.00     0.016 A 
ATOM     44  C   UNL A   1      36.370  32.384  28.293  1.00  0.00     0.016 A 
ATOM     45  C   UNL A   1      36.884  29.851  29.390  1.00  0.00     0.010 A 
ATOM     46  C   UNL A   1      37.578  32.137  28.947  1.00  0.00     0.010 A 
ATOM     47  C   UNL A   1      37.825  30.880  29.527  1.00  0.00    -0.014 A 
BRANCH  47  48
ATOM     48  C   UNL A   1      38.983  30.700  30.434  1.00  0.00     0.031 A 
ATOM     49  C   UNL A   1      40.197  29.986  29.909  1.00  0.00     0.074 A 
ATOM     50  C   UNL A   1      38.962  31.162  31.694  1.00  0.00     0.049 A 
ATOM     51  N   UNL A   1      41.313  29.681  30.519  1.00  0.00    -0.248 NA
ATOM     52  C   UNL A   1      40.135  29.550  28.506  1.00  0.00     0.031 C 
ATOM     53  C   UNL A   1      37.852  31.882  32.310  1.00  0.00     0.029 A 
ATOM     54  N   UNL A   1      39.906  31.075  32.687  1.00  0.00    -0.354 N 
ATOM     55  C   UNL A   1      42.082  29.010  29.577  1.00  0.00     0.074 A 
ATOM     56  C   UNL A   1      41.292  28.922  28.368  1.00  0.00     0.031 C 
ATOM     57  C   UNL A   1      38.169  32.153  33.588  1.00  0.00     0.029 A 
ATOM     58  C   UNL A   1      39.490  31.602  33.884  1.00  0.00     0.049 A 
ATOM     59  H   UNL A   1      40.795  30.673  32.553  1.00  0.00     0.167 HD
ATOM     60  C   UNL A   1      43.337  28.517  29.708  1.00  0.00     0.037 A 
ATOM     61  C   UNL A   1      40.099  31.611  35.085  1.00  0.00     0.037 A 
ATOM     62  C   UNL A   1      44.115  28.600  30.915  1.00  0.00     0.049 A 
ATOM     63  C   UNL A   1      41.475  31.014  35.225  1.00  0.00     0.074 A 
ATOM     64  C   UNL A   1      45.413  28.175  31.137  1.00  0.00     0.029 A 
ATOM     65  N   UNL A   1      43.657  29.129  32.114  1.00  0.00    -0.354 N 
ATOM     66  N   UNL A   1      42.222  30.431  34.318  1.00  0.00    -0.248 NA
ATOM     67  C   UNL A   1      42.097  31.086  36.555  1.00  0.00     0.031 C 
ATOM     68  C   UNL A   1      45.715  28.384  32.487  1.00  0.00     0.029 A 
ATOM     69  C   UNL A   1      44.632  29.003  33.091  1.00  0.00     0.049 A 
ATOM     70  H   UNL A   1      42.770  29.534  32.251  1.00  0.00     0.167 HD
ATOM     71  C   UNL A   1      43.404  30.083  34.959  1.00  0.00     0.074 A 
ATOM     72  C   UNL A   1      43.283  30.537  36.330  1.00  0.00     0.031 C 
ATOM     73  C   UNL A   1      44.493  29.446  34.458  1.00  0.00     0.037 A 
BRANCH  60  74
ATOM     74  C   UNL A   1      43.919  27.804  28.521  1.00  0.00     0.064 A 
ATOM     75  C   UNL A   1      43.794  26.416  28.351  1.00  0.00     0.173 A 
ATOM     76  C   UNL A   1      44.626  28.521  27.543  1.00  0.00     0.173 A 
ATOM     77  F   UNL A   1      43.142  25.679  29.262  1.00  0.00    -0.203 F 
ATOM     78  C   UNL A   1      44.391  25.768  27.271  1.00  0.00     0.198 A 
ATOM     79  C   UNL A   1      45.191  27.875  26.447  1.00  0.00     0.198 A 
ATOM     80  F   UNL A   1      44.773  29.850  27.653  1.00  0.00    -0.203 F 
ATOM     81  F   UNL A   1      44.318  24.435  27.167  1.00  0.00    -0.200 F 
ATOM     82  C   UNL A   1      45.085  26.499  26.318  1.00  0.00     0.200 A 
ATOM     83  F   UNL A   1      45.850  28.585  25.520  1.00  0.00    -0.200 F 
ATOM     84  F   UNL A   1      45.664  25.875  25.284  1.00  0.00    -0.200 F 
ENDBRANCH  60  74
BRANCH  61  85
ATOM     85  C   UNL A   1      39.392  32.196  36.255  1.00  0.00     0.064 A 
ATOM     86  C   UNL A   1      39.648  33.505  36.683  1.00  0.00     0.173 A 
ATOM     87  C   UNL A   1      38.426  31.456  36.956  1.00  0.00     0.173 A 
ATOM     88  F   UNL A   1      40.582  34.241  36.062  1.00  0.00    -0.203 F 
ATOM     89  C   UNL A   1      38.968  34.052  37.770  1.00  0.00     0.198 A 
ATOM     90  C   UNL A   1      37.727  32.014  38.024  1.00  0.00     0.198 A 
ATOM     91  F   UNL A   1      38.147  30.197  36.588  1.00  0.00    -0.203 F 
ATOM     92  F   UNL A   1      39.255  35.294  38.179  1.00  0.00    -0.200 F 
ATOM     93  C   UNL A   1      38.002  33.310  38.433  1.00  0.00     0.200 A 
ATOM     94  F   UNL A   1      36.785  31.298  38.653  1.00  0.00    -0.200 F 
ATOM     95  F   UNL A   1      37.338  33.842  39.467  1.00  0.00    -0.200 F 
ENDBRANCH  61  85
BRANCH  73  96
ATOM     96  C   UNL A   1      45.650  29.215  35.389  1.00  0.00     0.064 A 
ATOM     97  C   UNL A   1      45.758  28.046  36.158  1.00  0.00     0.173 A 
ATOM     98  C   UNL A   1      46.686  30.159  35.486  1.00  0.00     0.173 A 
ATOM     99  F   UNL A   1      44.792  27.118  36.114  1.00  0.00    -0.203 F 
ATOM    100  C   UNL A   1      46.844  27.845  37.008  1.00  0.00     0.198 A 
ATOM    101  C   UNL A   1      47.785  29.938  36.310  1.00  0.00     0.198 A 
ATOM    102  F   UNL A   1      46.639  31.290  34.767  1.00  0.00    -0.203 F 
ATOM    103  F   UNL A   1      46.899  26.744  37.771  1.00  0.00    -0.200 F 
ATOM    104  C   UNL A   1      47.860  28.786  37.077  1.00  0.00     0.200 A 
ATOM    105  F   UNL A   1      48.774  30.842  36.362  1.00  0.00    -0.200 F 
ATOM    106  F   UNL A   1      48.907  28.587  37.889  1.00  0.00    -0.200 F 
ENDBRANCH  73  96
ENDBRANCH  47  48
ENDBRANCH  40  42
ENDBRANCH  39  40
ENDBRANCH  38  39
ENDBRANCH  37  38
ENDBRANCH  36  37
ENDBRANCH  35  36
ENDBRANCH  34  35
ENDBRANCH  33  34
ENDBRANCH   1  33
TORSDOF 24
ENDMDL
MODEL 2
REMARK VINA RESULT:      -8.3      6.701     11.508
REMARK SMILES CCCN1C(=O)/C(=C\c2ccc(C(=O)OCCOCCOCCOCCOC(=O)c3ccc(-c4c5nc(c(-c6c(F)c(F)c(F)c(F)c6F)c6ccc([nH]6)c(-c6c(F)c(F)c(F)c(F)c6F)c6nc(c(-c7c(F)c(F)c(F)c(F)c7F)c7ccc4[nH]7)C=C6)C=C5)cc3)cc2)S/C1=[NH+]\c1nnc(C)s1
REMARK SMILES IDX 20 1 19 2 18 3 17 4 16 5 15 6 13 7 14 8 12 9 9 10 10 11
REMARK SMILES IDX 94 12 11 13 93 14 8 15 4 16 5 17 96 18 6 19 7 20 95 21 97 22
REMARK SMILES IDX 3 24 2 25 1 26 98 27 99 28 103 29 100 30 101 31 102 32 21 33
REMARK SMILES IDX 22 34 23 35 24 36 25 37 26 38 27 39 28 40 29 41 30 42 31 43
REMARK SMILES IDX 92 44 32 45 91 46 33 47 34 48 35 49 85 50 36 51 90 52 84 53
REMARK SMILES IDX 86 54 37 55 89 56 83 57 82 58 38 60 70 61 50 62 69 63 51 64
REMARK SMILES IDX 54 65 68 66 87 67 52 68 53 69 67 71 88 72 55 73 39 74 40 75
REMARK SMILES IDX 48 76 41 77 42 78 46 79 49 80 43 81 44 82 47 83 45 84 71 85
REMARK SMILES IDX 72 86 80 87 73 88 74 89 78 90 81 91 75 92 76 93 79 94 77 95
REMARK SMILES IDX 56 96 57 97 65 98 58 99 59 100 63 101 66 102 60 103 61 104
REMARK SMILES IDX 64 105 62 106
REMARK H PARENT 97 23 86 59 54 70
REMARK Flexibility Score: inf
ROOT
ATOM      1  C   UNL A   1      43.546  37.038  34.823  1.00  0.00     0.188 C 
ENDROOT
BRANCH   1   2
ATOM      2  C   UNL A   1      42.789  36.218  35.884  1.00  0.00     0.188 C 
BRANCH   2   3
ATOM      3  O   UNL A   1      42.222  35.019  35.372  1.00  0.00    -0.376 OA
BRANCH   3   4
ATOM      4  C   UNL A   1      40.955  35.104  34.739  1.00  0.00     0.202 C 
BRANCH   4   5
ATOM      5  C   UNL A   1      40.878  34.674  33.267  1.00  0.00     0.261 C 
BRANCH   5   6
ATOM      6  O   UNL A   1      40.017  33.564  33.005  1.00  0.00    -0.460 OA
BRANCH   6   7
ATOM      7  C   UNL A   1      38.788  33.832  32.514  1.00  0.00     0.338 C 
ATOM      8  O   UNL A   1      38.164  34.870  32.646  1.00  0.00    -0.246 OA
BRANCH   7   9
ATOM      9  C   UNL A   1      38.397  32.717  31.613  1.00  0.00     0.060 A 
ATOM     10  C   UNL A   1      37.593  30.690  29.865  1.00  0.00    -0.024 A 
ATOM     11  C   UNL A   1      38.181  31.856  29.360  1.00  0.00     0.009 A 
ATOM     12  C   UNL A   1      37.557  30.478  31.246  1.00  0.00     0.009 A 
ATOM     13  C   UNL A   1      38.587  32.867  30.235  1.00  0.00     0.016 A 
ATOM     14  C   UNL A   1      37.911  31.505  32.119  1.00  0.00     0.016 A 
BRANCH  10  15
ATOM     15  C   UNL A   1      36.854  29.813  28.950  1.00  0.00     0.031 C 
ATOM     16  N   UNL A   1      33.928  31.641  27.828  1.00  0.00    -0.219 N 
ATOM     17  C   UNL A   1      34.839  31.360  28.813  1.00  0.00     0.321 C 
ATOM     18  C   UNL A   1      33.599  30.551  27.057  1.00  0.00     0.271 C 
ATOM     19  O   UNL A   1      34.876  31.902  29.906  1.00  0.00    -0.250 OA
ATOM     20  C   UNL A   1      35.653  30.158  28.455  1.00  0.00     0.100 C 
ATOM     21  S   UNL A   1      34.834  29.301  27.211  1.00  0.00    -0.012 SA
ATOM     22  N   UNL A   1      32.486  30.499  26.401  1.00  0.00    -0.226 N 
ATOM     23  H   UNL A   1      31.913  31.293  26.297  1.00  0.00     0.268 HD
BRANCH  16  24
ATOM     24  C   UNL A   1      33.127  32.869  27.795  1.00  0.00     0.206 C 
BRANCH  24  25
ATOM     25  C   UNL A   1      33.814  34.221  28.037  1.00  0.00     0.035 C 
ATOM     26  C   UNL A   1      33.208  35.071  29.149  1.00  0.00     0.007 C 
ENDBRANCH  24  25
ENDBRANCH  16  24
BRANCH  22  27
ATOM     27  C   UNL A   1      32.141  29.303  25.862  1.00  0.00     0.345 A 
ATOM     28  N   UNL A   1      32.474  28.098  26.277  1.00  0.00     0.023 NA
ATOM     29  S   UNL A   1      31.199  29.271  24.400  1.00  0.00    -0.044 S 
ATOM     30  N   UNL A   1      31.894  27.091  25.525  1.00  0.00    -0.067 NA
ATOM     31  C   UNL A   1      31.152  27.567  24.549  1.00  0.00     0.135 A 
ATOM     32  C   UNL A   1      30.323  26.747  23.629  1.00  0.00     0.083 C 
ENDBRANCH  22  27
ENDBRANCH  10  15
ENDBRANCH   7   9
ENDBRANCH   6   7
ENDBRANCH   5   6
ENDBRANCH   4   5
ENDBRANCH   3   4
ENDBRANCH   2   3
ENDBRANCH   1   2
BRANCH   1  33
ATOM     33  O   UNL A   1      43.096  38.362  34.582  1.00  0.00    -0.377 OA
BRANCH  33  34
ATOM     34  C   UNL A   1      43.394  38.982  33.332  1.00  0.00     0.188 C 
BRANCH  34  35
ATOM     35  C   UNL A   1      44.276  40.251  33.222  1.00  0.00     0.188 C 
BRANCH  35  36
ATOM     36  O   UNL A   1      43.672  41.358  32.571  1.00  0.00    -0.376 OA
BRANCH  36  37
ATOM     37  C   UNL A   1      42.310  41.231  32.201  1.00  0.00     0.202 C 
BRANCH  37  38
ATOM     38  C   UNL A   1      41.971  41.710  30.784  1.00  0.00     0.261 C 
BRANCH  38  39
ATOM     39  O   UNL A   1      41.498  40.690  29.889  1.00  0.00    -0.460 OA
BRANCH  39  40
ATOM     40  C   UNL A   1      42.211  40.485  28.760  1.00  0.00     0.338 C 
ATOM     41  O   UNL A   1      42.537  41.312  27.927  1.00  0.00    -0.246 OA
BRANCH  40  42
ATOM     42  C   UNL A   1      42.700  39.094  28.790  1.00  0.00     0.060 A 
ATOM     43  C   UNL A   1      43.582  38.705  29.805  1.00  0.00     0.016 A 
ATOM     44  C   UNL A   1      42.279  38.179  27.822  1.00  0.00     0.016 A 
ATOM     45  C   UNL A   1      44.075  37.401  29.835  1.00  0.00     0.010 A 
ATOM     46  C   UNL A   1      42.787  36.880  27.842  1.00  0.00     0.010 A 
ATOM     47  C   UNL A   1      43.712  36.496  28.828  1.00  0.00    -0.014 A 
BRANCH  47  48
ATOM     48  C   UNL A   1      44.440  35.212  28.699  1.00  0.00     0.031 A 
ATOM     49  C   UNL A   1      45.858  35.241  28.204  1.00  0.00     0.074 A 
ATOM     50  C   UNL A   1      43.858  34.044  29.016  1.00  0.00     0.049 A 
ATOM     51  N   UNL A   1      46.683  34.251  27.977  1.00  0.00    -0.248 NA
ATOM     52  C   UNL A   1      46.416  36.571  27.916  1.00  0.00     0.031 C 
ATOM     53  C   UNL A   1      42.498  33.890  29.521  1.00  0.00     0.029 A 
ATOM     54  N   UNL A   1      44.343  32.762  28.942  1.00  0.00    -0.354 N 
ATOM     55  C   UNL A   1      47.853  34.838  27.513  1.00  0.00     0.074 A 
ATOM     56  C   UNL A   1      47.619  36.265  27.457  1.00  0.00     0.031 C 
ATOM     57  C   UNL A   1      42.246  32.580  29.691  1.00  0.00     0.029 A 
ATOM     58  C   UNL A   1      43.418  31.808  29.281  1.00  0.00     0.049 A 
ATOM     59  H   UNL A   1      45.266  32.548  28.672  1.00  0.00     0.167 HD
ATOM     60  C   UNL A   1      49.019  34.240  27.171  1.00  0.00     0.037 A 
ATOM     61  C   UNL A   1      43.502  30.464  29.238  1.00  0.00     0.037 A 
ATOM     62  C   UNL A   1      49.244  32.820  27.221  1.00  0.00     0.049 A 
ATOM     63  C   UNL A   1      44.791  29.814  28.807  1.00  0.00     0.074 A 
ATOM     64  C   UNL A   1      50.403  32.118  26.941  1.00  0.00     0.029 A 
ATOM     65  N   UNL A   1      48.279  31.880  27.556  1.00  0.00    -0.354 N 
ATOM     66  N   UNL A   1      45.914  30.374  28.424  1.00  0.00    -0.248 NA
ATOM     67  C   UNL A   1      44.828  28.344  28.814  1.00  0.00     0.031 C 
ATOM     68  C   UNL A   1      50.120  30.752  27.041  1.00  0.00     0.029 A 
ATOM     69  C   UNL A   1      48.804  30.602  27.450  1.00  0.00     0.049 A 
ATOM     70  H   UNL A   1      47.356  32.091  27.829  1.00  0.00     0.167 HD
ATOM     71  C   UNL A   1      46.793  29.331  28.160  1.00  0.00     0.074 A 
ATOM     72  C   UNL A   1      46.079  28.103  28.446  1.00  0.00     0.031 C 
ATOM     73  C   UNL A   1      48.077  29.385  27.723  1.00  0.00     0.037 A 
BRANCH  60  74
ATOM     74  C   UNL A   1      50.121  35.128  26.668  1.00  0.00     0.064 A 
ATOM     75  C   UNL A   1      51.140  35.603  27.509  1.00  0.00     0.173 A 
ATOM     76  C   UNL A   1      50.152  35.521  25.321  1.00  0.00     0.173 A 
ATOM     77  F   UNL A   1      51.151  35.271  28.809  1.00  0.00    -0.203 F 
ATOM     78  C   UNL A   1      52.120  36.471  27.032  1.00  0.00     0.198 A 
ATOM     79  C   UNL A   1      51.152  36.361  24.840  1.00  0.00     0.198 A 
ATOM     80  F   UNL A   1      49.206  35.094  24.470  1.00  0.00    -0.203 F 
ATOM     81  F   UNL A   1      53.040  36.966  27.871  1.00  0.00    -0.200 F 
ATOM     82  C   UNL A   1      52.127  36.845  25.697  1.00  0.00     0.200 A 
ATOM     83  F   UNL A   1      51.165  36.711  23.545  1.00  0.00    -0.200 F 
ATOM     84  F   UNL A   1      53.066  37.685  25.240  1.00  0.00    -0.200 F 
ENDBRANCH  60  74
BRANCH  61  85
ATOM     85  C   UNL A   1      42.313  29.648  29.600  1.00  0.00     0.064 A 
ATOM     86  C   UNL A   1      41.447  29.146  28.621  1.00  0.00     0.173 A 
ATOM     87  C   UNL A   1      42.034  29.338  30.941  1.00  0.00     0.173 A 
ATOM     88  F   UNL A   1      41.657  29.437  27.328  1.00  0.00    -0.203 F 
ATOM     89  C   UNL A   1      40.344  28.367  28.968  1.00  0.00     0.198 A 
ATOM     90  C   UNL A   1      40.948  28.537  31.283  1.00  0.00     0.198 A 
ATOM     91  F   UNL A   1      42.831  29.799  31.916  1.00  0.00    -0.203 F 
ATOM     92  F   UNL A   1      39.513  27.926  28.014  1.00  0.00    -0.200 F 
ATOM     93  C   UNL A   1      40.101  28.055  30.297  1.00  0.00     0.200 A 
ATOM     94  F   UNL A   1      40.725  28.227  32.568  1.00  0.00    -0.200 F 
ATOM     95  F   UNL A   1      39.050  27.293  30.628  1.00  0.00    -0.200 F 
ENDBRANCH  61  85
BRANCH  73  96
ATOM     96  C   UNL A   1      48.802  28.081  27.540  1.00  0.00     0.064 A 
ATOM     97  C   UNL A   1      48.826  27.415  26.305  1.00  0.00     0.173 A 
ATOM     98  C   UNL A   1      49.516  27.509  28.606  1.00  0.00     0.173 A 
ATOM     99  F   UNL A   1      48.151  27.911  25.258  1.00  0.00    -0.203 F 
ATOM    100  C   UNL A   1      49.513  26.213  26.152  1.00  0.00     0.198 A 
ATOM    101  C   UNL A   1      50.229  26.325  28.439  1.00  0.00     0.198 A 
ATOM    102  F   UNL A   1      49.534  28.107  29.806  1.00  0.00    -0.203 F 
ATOM    103  F   UNL A   1      49.479  25.569  24.977  1.00  0.00    -0.200 F 
ATOM    104  C   UNL A   1      50.220  25.673  27.216  1.00  0.00     0.200 A 
ATOM    105  F   UNL A   1      50.925  25.814  29.465  1.00  0.00    -0.200 F 
ATOM    106  F   UNL A   1      50.886  24.520  27.065  1.00  0.00    -0.200 F 
ENDBRANCH  73  96
ENDBRANCH  47  48
ENDBRANCH  40  42
ENDBRANCH  39  40
ENDBRANCH  38  39
ENDBRANCH  37  38
ENDBRANCH  36  37
ENDBRANCH  35  36
ENDBRANCH  34  35
ENDBRANCH  33  34
ENDBRANCH   1  33
TORSDOF 24
ENDMDL
MODEL 3
REMARK VINA RESULT:      -7.9      5.273     11.509
REMARK SMILES CCCN1C(=O)/C(=C\c2ccc(C(=O)OCCOCCOCCOCCOC(=O)c3ccc(-c4c5nc(c(-c6c(F)c(F)c(F)c(F)c6F)c6ccc([nH]6)c(-c6c(F)c(F)c(F)c(F)c6F)c6nc(c(-c7c(F)c(F)c(F)c(F)c7F)c7ccc4[nH]7)C=C6)C=C5)cc3)cc2)S/C1=[NH+]\c1nnc(C)s1
REMARK SMILES IDX 20 1 19 2 18 3 17 4 16 5 15 6 13 7 14 8 12 9 9 10 10 11
REMARK SMILES IDX 94 12 11 13 93 14 8 15 4 16 5 17 96 18 6 19 7 20 95 21 97 22
REMARK SMILES IDX 3 24 2 25 1 26 98 27 99 28 103 29 100 30 101 31 102 32 21 33
REMARK SMILES IDX 22 34 23 35 24 36 25 37 26 38 27 39 28 40 29 41 30 42 31 43
REMARK SMILES IDX 92 44 32 45 91 46 33 47 34 48 35 49 85 50 36 51 90 52 84 53
REMARK SMILES IDX 86 54 37 55 89 56 83 57 82 58 38 60 70 61 50 62 69 63 51 64
REMARK SMILES IDX 54 65 68 66 87 67 52 68 53 69 67 71 88 72 55 73 39 74 40 75
REMARK SMILES IDX 48 76 41 77 42 78 46 79 49 80 43 81 44 82 47 83 45 84 71 85
REMARK SMILES IDX 72 86 80 87 73 88 74 89 78 90 81 91 75 92 76 93 79 94 77 95
REMARK SMILES IDX 56 96 57 97 65 98 58 99 59 100 63 101 66 102 60 103 61 104
REMARK SMILES IDX 64 105 62 106
REMARK H PARENT 97 23 86 59 54 70
REMARK Flexibility Score: inf
ROOT
ATOM      1  C   UNL A   1      39.103  34.653  36.384  1.00  0.00     0.188 C 
ENDROOT
BRANCH   1   2
ATOM      2  C   UNL A   1      37.869  33.738  36.489  1.00  0.00     0.188 C 
BRANCH   2   3
ATOM      3  O   UNL A   1      38.040  32.484  35.841  1.00  0.00    -0.376 OA
BRANCH   3   4
ATOM      4  C   UNL A   1      38.977  31.574  36.396  1.00  0.00     0.202 C 
BRANCH   4   5
ATOM      5  C   UNL A   1      40.285  31.358  35.623  1.00  0.00     0.261 C 
BRANCH   5   6
ATOM      6  O   UNL A   1      40.260  31.787  34.260  1.00  0.00    -0.460 OA
BRANCH   6   7
ATOM      7  C   UNL A   1      40.814  30.968  33.340  1.00  0.00     0.338 C 
ATOM      8  O   UNL A   1      41.912  30.444  33.401  1.00  0.00    -0.246 OA
BRANCH   7   9
ATOM      9  C   UNL A   1      39.779  30.650  32.322  1.00  0.00     0.060 A 
ATOM     10  C   UNL A   1      37.843  29.945  30.433  1.00  0.00    -0.024 A 
ATOM     11  C   UNL A   1      37.665  29.601  31.779  1.00  0.00     0.009 A 
ATOM     12  C   UNL A   1      38.907  30.775  30.069  1.00  0.00     0.009 A 
ATOM     13  C   UNL A   1      38.631  29.958  32.723  1.00  0.00     0.016 A 
ATOM     14  C   UNL A   1      39.899  31.087  30.997  1.00  0.00     0.016 A 
BRANCH  10  15
ATOM     15  C   UNL A   1      37.034  29.269  29.414  1.00  0.00     0.031 C 
ATOM     16  N   UNL A   1      34.572  31.657  28.231  1.00  0.00    -0.219 N 
ATOM     17  C   UNL A   1      35.340  31.160  29.252  1.00  0.00     0.321 C 
ATOM     18  C   UNL A   1      34.115  30.689  27.366  1.00  0.00     0.271 C 
ATOM     19  O   UNL A   1      35.388  31.624  30.380  1.00  0.00    -0.250 OA
ATOM     20  C   UNL A   1      35.954  29.853  28.866  1.00  0.00     0.100 C 
ATOM     21  S   UNL A   1      35.095  29.230  27.515  1.00  0.00    -0.012 SA
ATOM     22  N   UNL A   1      33.064  30.877  26.637  1.00  0.00    -0.226 N 
ATOM     23  H   UNL A   1      32.651  31.765  26.551  1.00  0.00     0.268 HD
BRANCH  16  24
ATOM     24  C   UNL A   1      34.004  33.009  28.231  1.00  0.00     0.206 C 
BRANCH  24  25
ATOM     25  C   UNL A   1      34.936  34.214  28.036  1.00  0.00     0.035 C 
ATOM     26  C   UNL A   1      34.282  35.580  28.218  1.00  0.00     0.007 C 
ENDBRANCH  24  25
ENDBRANCH  16  24
BRANCH  22  27
ATOM     27  C   UNL A   1      32.556  29.795  25.995  1.00  0.00     0.345 A 
ATOM     28  N   UNL A   1      31.610  28.976  26.406  1.00  0.00     0.023 NA
ATOM     29  S   UNL A   1      33.232  29.322  24.463  1.00  0.00    -0.044 S 
ATOM     30  N   UNL A   1      31.292  28.009  25.468  1.00  0.00    -0.067 NA
ATOM     31  C   UNL A   1      32.022  28.114  24.381  1.00  0.00     0.135 A 
ATOM     32  C   UNL A   1      31.856  27.290  23.158  1.00  0.00     0.083 C 
ENDBRANCH  22  27
ENDBRANCH  10  15
ENDBRANCH   7   9
ENDBRANCH   6   7
ENDBRANCH   5   6
ENDBRANCH   4   5
ENDBRANCH   3   4
ENDBRANCH   2   3
ENDBRANCH   1   2
BRANCH   1  33
ATOM     33  O   UNL A   1      39.242  35.670  37.364  1.00  0.00    -0.377 OA
BRANCH  33  34
ATOM     34  C   UNL A   1      40.388  35.663  38.216  1.00  0.00     0.188 C 
BRANCH  34  35
ATOM     35  C   UNL A   1      40.702  34.490  39.178  1.00  0.00     0.188 C 
BRANCH  35  36
ATOM     36  O   UNL A   1      41.509  34.821  40.297  1.00  0.00    -0.376 OA
BRANCH  36  37
ATOM     37  C   UNL A   1      42.138  36.091  40.294  1.00  0.00     0.202 C 
BRANCH  37  38
ATOM     38  C   UNL A   1      43.594  36.098  39.816  1.00  0.00     0.261 C 
BRANCH  38  39
ATOM     39  O   UNL A   1      44.181  34.800  39.619  1.00  0.00    -0.460 OA
BRANCH  39  40
ATOM     40  C   UNL A   1      45.400  34.759  39.040  1.00  0.00     0.338 C 
ATOM     41  O   UNL A   1      46.469  35.067  39.537  1.00  0.00    -0.246 OA
BRANCH  40  42
ATOM     42  C   UNL A   1      45.250  34.090  37.735  1.00  0.00     0.060 A 
ATOM     43  C   UNL A   1      44.003  33.562  37.381  1.00  0.00     0.016 A 
ATOM     44  C   UNL A   1      46.337  33.995  36.863  1.00  0.00     0.016 A 
ATOM     45  C   UNL A   1      43.847  32.904  36.161  1.00  0.00     0.010 A 
ATOM     46  C   UNL A   1      46.186  33.320  35.651  1.00  0.00     0.010 A 
ATOM     47  C   UNL A   1      44.950  32.743  35.311  1.00  0.00    -0.014 A 
BRANCH  47  48
ATOM     48  C   UNL A   1      44.859  31.816  34.159  1.00  0.00     0.031 A 
ATOM     49  C   UNL A   1      44.662  32.398  32.788  1.00  0.00     0.074 A 
ATOM     50  C   UNL A   1      44.953  30.487  34.323  1.00  0.00     0.049 A 
ATOM     51  N   UNL A   1      44.522  31.791  31.637  1.00  0.00    -0.248 NA
ATOM     52  C   UNL A   1      44.608  33.865  32.709  1.00  0.00     0.031 C 
ATOM     53  C   UNL A   1      45.159  29.807  35.598  1.00  0.00     0.029 A 
ATOM     54  N   UNL A   1      44.868  29.471  33.403  1.00  0.00    -0.354 N 
ATOM     55  C   UNL A   1      44.353  32.802  30.700  1.00  0.00     0.074 A 
ATOM     56  C   UNL A   1      44.373  34.057  31.420  1.00  0.00     0.031 C 
ATOM     57  C   UNL A   1      45.163  28.480  35.384  1.00  0.00     0.029 A 
ATOM     58  C   UNL A   1      44.931  28.220  33.964  1.00  0.00     0.049 A 
ATOM     59  H   UNL A   1      44.771  29.625  32.436  1.00  0.00     0.167 HD
ATOM     60  C   UNL A   1      44.202  32.693  29.359  1.00  0.00     0.037 A 
ATOM     61  C   UNL A   1      44.791  27.007  33.395  1.00  0.00     0.037 A 
ATOM     62  C   UNL A   1      44.174  31.442  28.648  1.00  0.00     0.049 A 
ATOM     63  C   UNL A   1      44.573  26.905  31.909  1.00  0.00     0.074 A 
ATOM     64  C   UNL A   1      44.072  31.224  27.285  1.00  0.00     0.029 A 
ATOM     65  N   UNL A   1      44.227  30.192  29.249  1.00  0.00    -0.354 N 
ATOM     66  N   UNL A   1      44.471  27.862  31.018  1.00  0.00    -0.248 NA
ATOM     67  C   UNL A   1      44.461  25.551  31.346  1.00  0.00     0.031 C 
ATOM     68  C   UNL A   1      43.996  29.844  27.069  1.00  0.00     0.029 A 
ATOM     69  C   UNL A   1      44.119  29.198  28.289  1.00  0.00     0.049 A 
ATOM     70  H   UNL A   1      44.327  30.034  30.217  1.00  0.00     0.167 HD
ATOM     71  C   UNL A   1      44.300  27.231  29.792  1.00  0.00     0.074 A 
ATOM     72  C   UNL A   1      44.331  25.806  30.051  1.00  0.00     0.031 C 
ATOM     73  C   UNL A   1      44.135  27.782  28.562  1.00  0.00     0.037 A 
BRANCH  60  74
ATOM     74  C   UNL A   1      44.007  33.967  28.586  1.00  0.00     0.064 A 
ATOM     75  C   UNL A   1      45.035  34.537  27.819  1.00  0.00     0.173 A 
ATOM     76  C   UNL A   1      42.773  34.634  28.624  1.00  0.00     0.173 A 
ATOM     77  F   UNL A   1      46.239  33.950  27.759  1.00  0.00    -0.203 F 
ATOM     78  C   UNL A   1      44.848  35.749  27.156  1.00  0.00     0.198 A 
ATOM     79  C   UNL A   1      42.579  35.826  27.933  1.00  0.00     0.198 A 
ATOM     80  F   UNL A   1      41.754  34.131  29.338  1.00  0.00    -0.203 F 
ATOM     81  F   UNL A   1      45.865  36.309  26.488  1.00  0.00    -0.200 F 
ATOM     82  C   UNL A   1      43.619  36.389  27.210  1.00  0.00     0.200 A 
ATOM     83  F   UNL A   1      41.386  36.437  27.975  1.00  0.00    -0.200 F 
ATOM     84  F   UNL A   1      43.443  37.558  26.578  1.00  0.00    -0.200 F 
ENDBRANCH  60  74
BRANCH  61  85
ATOM     85  C   UNL A   1      44.836  25.793  34.251  1.00  0.00     0.064 A 
ATOM     86  C   UNL A   1      43.672  25.247  34.808  1.00  0.00     0.173 A 
ATOM     87  C   UNL A   1      46.052  25.141  34.512  1.00  0.00     0.173 A 
ATOM     88  F   UNL A   1      42.490  25.850  34.609  1.00  0.00    -0.203 F 
ATOM     89  C   UNL A   1      43.721  24.098  35.595  1.00  0.00     0.198 A 
ATOM     90  C   UNL A   1      46.096  23.977  35.276  1.00  0.00     0.198 A 
ATOM     91  F   UNL A   1      47.196  25.626  34.006  1.00  0.00    -0.203 F 
ATOM     92  F   UNL A   1      42.598  23.616  36.141  1.00  0.00    -0.200 F 
ATOM     93  C   UNL A   1      44.931  23.459  35.820  1.00  0.00     0.200 A 
ATOM     94  F   UNL A   1      47.266  23.355  35.479  1.00  0.00    -0.200 F 
ATOM     95  F   UNL A   1      44.975  22.345  36.564  1.00  0.00    -0.200 F 
ENDBRANCH  61  85
BRANCH  73  96
ATOM     96  C   UNL A   1      43.991  26.843  27.397  1.00  0.00     0.064 A 
ATOM     97  C   UNL A   1      42.732  26.463  26.905  1.00  0.00     0.173 A 
ATOM     98  C   UNL A   1      45.127  26.346  26.738  1.00  0.00     0.173 A 
ATOM     99  F   UNL A   1      41.614  26.898  27.504  1.00  0.00    -0.203 F 
ATOM    100  C   UNL A   1      42.618  25.601  25.816  1.00  0.00     0.198 A 
ATOM    101  C   UNL A   1      45.008  25.512  25.630  1.00  0.00     0.198 A 
ATOM    102  F   UNL A   1      46.355  26.683  27.160  1.00  0.00    -0.203 F 
ATOM    103  F   UNL A   1      41.406  25.212  25.397  1.00  0.00    -0.200 F 
ATOM    104  C   UNL A   1      43.755  25.133  25.175  1.00  0.00     0.200 A 
ATOM    105  F   UNL A   1      46.109  25.075  25.001  1.00  0.00    -0.200 F 
ATOM    106  F   UNL A   1      43.643  24.309  24.124  1.00  0.00    -0.200 F 
ENDBRANCH  73  96
ENDBRANCH  47  48
ENDBRANCH  40  42
ENDBRANCH  39  40
ENDBRANCH  38  39
ENDBRANCH  37  38
ENDBRANCH  36  37
ENDBRANCH  35  36
ENDBRANCH  34  35
ENDBRANCH  33  34
ENDBRANCH   1  33
TORSDOF 24
ENDMDL
