MODEL 1
REMARK VINA RESULT:     -11.7      0.000      0.000
REMARK SMILES Cc1ccc(-c2ccc(C(=O)Nc3ccc(C(=O)OCCOCCOCCOCCOC(=O)c4ccc(-c5c6nc(c(-c7c(F)c(F)c(F)c(F)c7F)c7ccc([nH]7)c(-c7c(F)c(F)c(F)c(F)c7F)c7nc(c(-c8c(F)c(F)c(F)c(F)c8F)c8ccc5[nH]8)C=C7)C=C6)cc4)c(O)c3)o2)c([N+](=O)[O-])c1
REMARK SMILES IDX 24 1 23 2 22 3 21 4 20 5 19 6 17 7 18 8 16 9 13 10 14 11
REMARK SMILES IDX 99 12 15 13 97 14 12 15 10 16 11 17 9 19 6 20 7 21 100 22
REMARK SMILES IDX 8 23 5 24 1 25 2 26 3 27 105 28 4 29 101 30 102 31 103 32
REMARK SMILES IDX 104 33 98 34 25 36 26 37 27 38 28 39 29 40 30 41 31 42 32 43
REMARK SMILES IDX 33 44 34 45 35 46 96 47 36 48 95 49 37 50 38 51 39 52 89 53
REMARK SMILES IDX 40 54 94 55 88 56 90 57 41 58 93 59 87 60 86 61 42 63 74 64
REMARK SMILES IDX 54 65 73 66 55 67 58 68 72 69 91 70 56 71 57 72 71 74 92 75
REMARK SMILES IDX 59 76 43 77 44 78 52 79 45 80 46 81 50 82 53 83 47 84 48 85
REMARK SMILES IDX 51 86 49 87 75 88 76 89 84 90 77 91 78 92 82 93 85 94 79 95
REMARK SMILES IDX 80 96 83 97 81 98 60 99 61 100 69 101 62 102 63 103 67 104
REMARK SMILES IDX 70 105 64 106 65 107 68 108 66 109
REMARK H PARENT 12 18 98 35 90 62 58 73
REMARK Flexibility Score: inf
ROOT
ATOM      1  C   UNL A   1      40.020  21.616  26.278  1.00  0.00     0.188 C 
ENDROOT
BRANCH   1   2
ATOM      2  C   UNL A   1      38.688  22.395  26.172  1.00  0.00     0.188 C 
BRANCH   2   3
ATOM      3  O   UNL A   1      37.630  21.982  25.325  1.00  0.00    -0.376 OA
BRANCH   3   4
ATOM      4  C   UNL A   1      37.053  22.955  24.474  1.00  0.00     0.202 C 
BRANCH   4   5
ATOM      5  C   UNL A   1      35.548  23.087  24.570  1.00  0.00     0.261 C 
BRANCH   5   6
ATOM      6  O   UNL A   1      35.194  24.330  23.990  1.00  0.00    -0.460 OA
BRANCH   6   7
ATOM      7  C   UNL A   1      34.414  25.056  24.795  1.00  0.00     0.341 C 
ATOM      8  O   UNL A   1      34.190  24.867  25.974  1.00  0.00    -0.246 OA
BRANCH   7   9
ATOM      9  C   UNL A   1      34.024  26.280  24.075  1.00  0.00     0.101 A 
ATOM     10  C   UNL A   1      32.922  28.486  22.876  1.00  0.00     0.045 A 
ATOM     11  C   UNL A   1      33.475  27.500  22.066  1.00  0.00     0.027 A 
ATOM     12  C   UNL A   1      33.231  28.539  24.234  1.00  0.00     0.073 A 
ATOM     13  C   UNL A   1      33.990  26.360  22.674  1.00  0.00     0.022 A 
ATOM     14  C   UNL A   1      33.779  27.420  24.836  1.00  0.00     0.132 A 
BRANCH  10  15
ATOM     15  N   UNL A   1      31.924  29.348  22.422  1.00  0.00    -0.319 N 
ATOM     16  C   UNL A   1      30.542  29.171  22.412  1.00  0.00     0.291 C 
ATOM     17  O   UNL A   1      29.898  30.116  21.947  1.00  0.00    -0.265 OA
ATOM     18  H   UNL A   1      32.241  30.205  22.056  1.00  0.00     0.170 HD
BRANCH  16  19
ATOM     19  C   UNL A   1      29.888  27.995  22.990  1.00  0.00     0.192 A 
ATOM     20  C   UNL A   1      29.879  25.942  23.826  1.00  0.00     0.142 A 
ATOM     21  C   UNL A   1      28.590  26.400  23.936  1.00  0.00     0.052 A 
ATOM     22  O   UNL A   1      30.693  26.931  23.356  1.00  0.00    -0.451 OA
ATOM     23  C   UNL A   1      28.577  27.594  23.197  1.00  0.00     0.057 A 
BRANCH  20  24
ATOM     24  C   UNL A   1      30.458  24.626  24.025  1.00  0.00     0.095 A 
ATOM     25  C   UNL A   1      32.602  20.904  24.561  1.00  0.00     0.044 C 
ATOM     26  C   UNL A   1      31.821  22.171  24.382  1.00  0.00    -0.044 A 
ATOM     27  C   UNL A   1      31.524  22.648  23.097  1.00  0.00     0.004 A 
ATOM     28  C   UNL A   1      31.389  22.895  25.493  1.00  0.00     0.089 A 
ATOM     29  C   UNL A   1      30.848  23.861  22.920  1.00  0.00     0.019 A 
ATOM     30  C   UNL A   1      30.705  24.103  25.309  1.00  0.00     0.280 A 
BRANCH  30  31
ATOM     31  N   UNL A   1      30.257  24.787  26.518  1.00  0.00     0.063 N 
ATOM     32  O   UNL A   1      29.296  24.312  27.137  1.00  0.00    -0.258 OA
ATOM     33  O   UNL A   1      30.893  25.796  26.858  1.00  0.00    -0.258 OA
ENDBRANCH  30  31
ENDBRANCH  20  24
ENDBRANCH  16  19
ENDBRANCH  10  15
BRANCH  14  34
ATOM     34  O   UNL A   1      34.021  27.492  26.180  1.00  0.00    -0.507 OA
ATOM     35  H   UNL A   1      34.867  27.270  26.517  1.00  0.00     0.293 HD
ENDBRANCH  14  34
ENDBRANCH   7   9
ENDBRANCH   6   7
ENDBRANCH   5   6
ENDBRANCH   4   5
ENDBRANCH   3   4
ENDBRANCH   2   3
ENDBRANCH   1   2
BRANCH   1  36
ATOM     36  O   UNL A   1      40.415  21.096  27.542  1.00  0.00    -0.377 OA
BRANCH  36  37
ATOM     37  C   UNL A   1      41.564  20.250  27.435  1.00  0.00     0.188 C 
BRANCH  37  38
ATOM     38  C   UNL A   1      41.893  19.951  25.986  1.00  0.00     0.188 C 
BRANCH  38  39
ATOM     39  O   UNL A   1      42.515  18.712  25.704  1.00  0.00    -0.376 OA
BRANCH  39  40
ATOM     40  C   UNL A   1      43.921  18.637  25.538  1.00  0.00     0.202 C 
BRANCH  40  41
ATOM     41  C   UNL A   1      44.450  19.267  24.247  1.00  0.00     0.261 C 
BRANCH  41  42
ATOM     42  O   UNL A   1      45.363  20.332  24.585  1.00  0.00    -0.460 OA
BRANCH  42  43
ATOM     43  C   UNL A   1      44.929  21.591  24.301  1.00  0.00     0.338 C 
ATOM     44  O   UNL A   1      44.384  21.927  23.262  1.00  0.00    -0.246 OA
BRANCH  43  45
ATOM     45  C   UNL A   1      45.538  22.557  25.271  1.00  0.00     0.060 A 
ATOM     46  C   UNL A   1      44.987  22.676  26.561  1.00  0.00     0.016 A 
ATOM     47  C   UNL A   1      46.342  23.578  24.782  1.00  0.00     0.016 A 
ATOM     48  C   UNL A   1      45.063  23.896  27.262  1.00  0.00     0.010 A 
ATOM     49  C   UNL A   1      46.346  24.793  25.446  1.00  0.00     0.010 A 
ATOM     50  C   UNL A   1      45.651  25.005  26.657  1.00  0.00    -0.014 A 
BRANCH  50  51
ATOM     51  C   UNL A   1      45.432  26.429  27.054  1.00  0.00     0.031 A 
ATOM     52  C   UNL A   1      44.032  26.995  26.925  1.00  0.00     0.074 A 
ATOM     53  C   UNL A   1      46.347  27.038  27.867  1.00  0.00     0.049 A 
ATOM     54  N   UNL A   1      43.620  28.120  27.403  1.00  0.00    -0.248 NA
ATOM     55  C   UNL A   1      42.934  26.283  26.268  1.00  0.00     0.031 C 
ATOM     56  C   UNL A   1      46.068  28.079  28.862  1.00  0.00     0.029 A 
ATOM     57  N   UNL A   1      47.721  26.798  28.083  1.00  0.00    -0.354 N 
ATOM     58  C   UNL A   1      42.231  28.108  27.473  1.00  0.00     0.074 A 
ATOM     59  C   UNL A   1      41.860  26.980  26.661  1.00  0.00     0.031 C 
ATOM     60  C   UNL A   1      47.164  28.415  29.556  1.00  0.00     0.029 A 
ATOM     61  C   UNL A   1      48.257  27.919  28.773  1.00  0.00     0.049 A 
ATOM     62  H   UNL A   1      48.220  25.996  27.805  1.00  0.00     0.167 HD
ATOM     63  C   UNL A   1      41.592  28.984  28.318  1.00  0.00     0.037 A 
ATOM     64  C   UNL A   1      49.099  28.800  28.147  1.00  0.00     0.037 A 
ATOM     65  C   UNL A   1      42.552  29.964  28.877  1.00  0.00     0.049 A 
ATOM     66  C   UNL A   1      48.416  30.149  27.901  1.00  0.00     0.074 A 
ATOM     67  C   UNL A   1      42.889  30.405  30.147  1.00  0.00     0.029 A 
ATOM     68  N   UNL A   1      43.494  30.548  28.022  1.00  0.00    -0.354 N 
ATOM     69  N   UNL A   1      47.116  30.271  27.731  1.00  0.00    -0.248 NA
ATOM     70  C   UNL A   1      49.064  31.451  28.053  1.00  0.00     0.031 C 
ATOM     71  C   UNL A   1      44.108  31.144  30.052  1.00  0.00     0.029 A 
ATOM     72  C   UNL A   1      44.481  31.213  28.716  1.00  0.00     0.049 A 
ATOM     73  H   UNL A   1      43.456  30.489  27.041  1.00  0.00     0.167 HD
ATOM     74  C   UNL A   1      46.744  31.580  27.887  1.00  0.00     0.074 A 
ATOM     75  C   UNL A   1      48.006  32.287  28.029  1.00  0.00     0.031 C 
ATOM     76  C   UNL A   1      45.454  32.028  28.002  1.00  0.00     0.037 A 
BRANCH  63  77
ATOM     77  C   UNL A   1      40.125  28.914  28.803  1.00  0.00     0.064 A 
ATOM     78  C   UNL A   1      39.056  29.312  27.955  1.00  0.00     0.173 A 
ATOM     79  C   UNL A   1      39.692  28.543  30.097  1.00  0.00     0.173 A 
ATOM     80  F   UNL A   1      39.271  29.660  26.680  1.00  0.00    -0.203 F 
ATOM     81  C   UNL A   1      37.712  29.362  28.369  1.00  0.00     0.198 A 
ATOM     82  C   UNL A   1      38.342  28.538  30.493  1.00  0.00     0.198 A 
ATOM     83  F   UNL A   1      40.548  28.199  31.061  1.00  0.00    -0.203 F 
ATOM     84  F   UNL A   1      36.768  29.799  27.522  1.00  0.00    -0.200 F 
ATOM     85  C   UNL A   1      37.353  28.962  29.636  1.00  0.00     0.200 A 
ATOM     86  F   UNL A   1      38.014  28.126  31.727  1.00  0.00    -0.200 F 
ATOM     87  F   UNL A   1      36.070  28.984  30.026  1.00  0.00    -0.200 F 
ENDBRANCH  63  77
BRANCH  64  88
ATOM     88  C   UNL A   1      50.208  28.062  27.463  1.00  0.00     0.064 A 
ATOM     89  C   UNL A   1      50.156  28.196  26.054  1.00  0.00     0.173 A 
ATOM     90  C   UNL A   1      51.484  28.056  28.050  1.00  0.00     0.173 A 
ATOM     91  F   UNL A   1      48.971  28.140  25.425  1.00  0.00    -0.203 F 
ATOM     92  C   UNL A   1      51.259  28.665  25.337  1.00  0.00     0.198 A 
ATOM     93  C   UNL A   1      52.599  28.478  27.313  1.00  0.00     0.198 A 
ATOM     94  F   UNL A   1      51.616  27.867  29.370  1.00  0.00    -0.203 F 
ATOM     95  F   UNL A   1      51.110  29.064  24.066  1.00  0.00    -0.200 F 
ATOM     96  C   UNL A   1      52.464  28.864  25.986  1.00  0.00     0.200 A 
ATOM     97  F   UNL A   1      53.779  28.655  27.927  1.00  0.00    -0.200 F 
ATOM     98  F   UNL A   1      53.466  29.501  25.360  1.00  0.00    -0.200 F 
ENDBRANCH  64  88
BRANCH  76  99
ATOM     99  C   UNL A   1      44.962  33.344  27.430  1.00  0.00     0.064 A 
ATOM    100  C   UNL A   1      44.270  33.436  26.213  1.00  0.00     0.173 A 
ATOM    101  C   UNL A   1      44.959  34.530  28.217  1.00  0.00     0.173 A 
ATOM    102  F   UNL A   1      44.094  32.369  25.424  1.00  0.00    -0.203 F 
ATOM    103  C   UNL A   1      43.667  34.623  25.795  1.00  0.00     0.198 A 
ATOM    104  C   UNL A   1      44.301  35.691  27.824  1.00  0.00     0.198 A 
ATOM    105  F   UNL A   1      45.543  34.595  29.422  1.00  0.00    -0.203 F 
ATOM    106  F   UNL A   1      43.042  34.659  24.611  1.00  0.00    -0.200 F 
ATOM    107  C   UNL A   1      43.668  35.743  26.604  1.00  0.00     0.200 A 
ATOM    108  F   UNL A   1      44.255  36.743  28.654  1.00  0.00    -0.200 F 
ATOM    109  F   UNL A   1      43.038  36.860  26.219  1.00  0.00    -0.200 F 
ENDBRANCH  76  99
ENDBRANCH  50  51
ENDBRANCH  43  45
ENDBRANCH  42  43
ENDBRANCH  41  42
ENDBRANCH  40  41
ENDBRANCH  39  40
ENDBRANCH  38  39
ENDBRANCH  37  38
ENDBRANCH  36  37
ENDBRANCH   1  36
TORSDOF 25
ENDMDL
MODEL 2
REMARK VINA RESULT:     -10.9      1.337      2.212
REMARK SMILES Cc1ccc(-c2ccc(C(=O)Nc3ccc(C(=O)OCCOCCOCCOCCOC(=O)c4ccc(-c5c6nc(c(-c7c(F)c(F)c(F)c(F)c7F)c7ccc([nH]7)c(-c7c(F)c(F)c(F)c(F)c7F)c7nc(c(-c8c(F)c(F)c(F)c(F)c8F)c8ccc5[nH]8)C=C7)C=C6)cc4)c(O)c3)o2)c([N+](=O)[O-])c1
REMARK SMILES IDX 24 1 23 2 22 3 21 4 20 5 19 6 17 7 18 8 16 9 13 10 14 11
REMARK SMILES IDX 99 12 15 13 97 14 12 15 10 16 11 17 9 19 6 20 7 21 100 22
REMARK SMILES IDX 8 23 5 24 1 25 2 26 3 27 105 28 4 29 101 30 102 31 103 32
REMARK SMILES IDX 104 33 98 34 25 36 26 37 27 38 28 39 29 40 30 41 31 42 32 43
REMARK SMILES IDX 33 44 34 45 35 46 96 47 36 48 95 49 37 50 38 51 39 52 89 53
REMARK SMILES IDX 40 54 94 55 88 56 90 57 41 58 93 59 87 60 86 61 42 63 74 64
REMARK SMILES IDX 54 65 73 66 55 67 58 68 72 69 91 70 56 71 57 72 71 74 92 75
REMARK SMILES IDX 59 76 43 77 44 78 52 79 45 80 46 81 50 82 53 83 47 84 48 85
REMARK SMILES IDX 51 86 49 87 75 88 76 89 84 90 77 91 78 92 82 93 85 94 79 95
REMARK SMILES IDX 80 96 83 97 81 98 60 99 61 100 69 101 62 102 63 103 67 104
REMARK SMILES IDX 70 105 64 106 65 107 68 108 66 109
REMARK H PARENT 12 18 98 35 90 62 58 73
REMARK Flexibility Score: inf
ROOT
ATOM      1  C   UNL A   1      39.715  20.937  26.418  1.00  0.00     0.188 C 
ENDROOT
BRANCH   1   2
ATOM      2  C   UNL A   1      38.925  22.223  26.085  1.00  0.00     0.188 C 
BRANCH   2   3
ATOM      3  O   UNL A   1      37.802  22.225  25.222  1.00  0.00    -0.376 OA
BRANCH   3   4
ATOM      4  C   UNL A   1      37.140  23.457  25.008  1.00  0.00     0.202 C 
BRANCH   4   5
ATOM      5  C   UNL A   1      35.628  23.400  25.071  1.00  0.00     0.261 C 
BRANCH   5   6
ATOM      6  O   UNL A   1      35.178  24.640  25.587  1.00  0.00    -0.460 OA
BRANCH   6   7
ATOM      7  C   UNL A   1      33.864  24.636  25.827  1.00  0.00     0.341 C 
ATOM      8  O   UNL A   1      33.137  23.670  25.941  1.00  0.00    -0.246 OA
BRANCH   7   9
ATOM      9  C   UNL A   1      33.454  26.011  26.157  1.00  0.00     0.101 A 
ATOM     10  C   UNL A   1      32.441  28.543  26.449  1.00  0.00     0.045 A 
ATOM     11  C   UNL A   1      33.801  28.400  26.191  1.00  0.00     0.027 A 
ATOM     12  C   UNL A   1      31.692  27.458  26.902  1.00  0.00     0.073 A 
ATOM     13  C   UNL A   1      34.303  27.118  25.996  1.00  0.00     0.022 A 
ATOM     14  C   UNL A   1      32.204  26.183  26.745  1.00  0.00     0.132 A 
BRANCH  10  15
ATOM     15  N   UNL A   1      31.740  29.701  26.116  1.00  0.00    -0.319 N 
ATOM     16  C   UNL A   1      31.028  30.000  24.957  1.00  0.00     0.291 C 
ATOM     17  O   UNL A   1      30.499  31.115  24.941  1.00  0.00    -0.265 OA
ATOM     18  H   UNL A   1      31.748  30.410  26.799  1.00  0.00     0.170 HD
BRANCH  16  19
ATOM     19  C   UNL A   1      30.840  29.036  23.871  1.00  0.00     0.192 A 
ATOM     20  C   UNL A   1      30.840  26.992  23.011  1.00  0.00     0.142 A 
ATOM     21  C   UNL A   1      30.374  27.819  22.019  1.00  0.00     0.052 A 
ATOM     22  O   UNL A   1      31.023  27.696  24.165  1.00  0.00    -0.451 OA
ATOM     23  C   UNL A   1      30.603  29.116  22.506  1.00  0.00     0.057 A 
BRANCH  20  24
ATOM     24  C   UNL A   1      31.238  25.596  23.000  1.00  0.00     0.095 A 
ATOM     25  C   UNL A   1      32.141  21.381  22.601  1.00  0.00     0.044 C 
ATOM     26  C   UNL A   1      31.858  22.843  22.774  1.00  0.00    -0.044 A 
ATOM     27  C   UNL A   1      30.718  23.268  23.471  1.00  0.00     0.004 A 
ATOM     28  C   UNL A   1      32.719  23.797  22.234  1.00  0.00     0.089 A 
ATOM     29  C   UNL A   1      30.412  24.630  23.586  1.00  0.00     0.019 A 
ATOM     30  C   UNL A   1      32.413  25.158  22.360  1.00  0.00     0.280 A 
BRANCH  30  31
ATOM     31  N   UNL A   1      33.379  26.096  21.797  1.00  0.00     0.063 N 
ATOM     32  O   UNL A   1      34.239  26.572  22.548  1.00  0.00    -0.258 OA
ATOM     33  O   UNL A   1      33.284  26.336  20.584  1.00  0.00    -0.258 OA
ENDBRANCH  30  31
ENDBRANCH  20  24
ENDBRANCH  16  19
ENDBRANCH  10  15
BRANCH  14  34
ATOM     34  O   UNL A   1      31.417  25.143  27.154  1.00  0.00    -0.507 OA
ATOM     35  H   UNL A   1      31.028  25.156  28.007  1.00  0.00     0.293 HD
ENDBRANCH  14  34
ENDBRANCH   7   9
ENDBRANCH   6   7
ENDBRANCH   5   6
ENDBRANCH   4   5
ENDBRANCH   3   4
ENDBRANCH   2   3
ENDBRANCH   1   2
BRANCH   1  36
ATOM     36  O   UNL A   1      40.464  20.881  27.627  1.00  0.00    -0.377 OA
BRANCH  36  37
ATOM     37  C   UNL A   1      41.486  19.883  27.576  1.00  0.00     0.188 C 
BRANCH  37  38
ATOM     38  C   UNL A   1      42.104  19.799  26.194  1.00  0.00     0.188 C 
BRANCH  38  39
ATOM     39  O   UNL A   1      42.576  18.535  25.769  1.00  0.00    -0.376 OA
BRANCH  39  40
ATOM     40  C   UNL A   1      43.959  18.327  25.536  1.00  0.00     0.202 C 
BRANCH  40  41
ATOM     41  C   UNL A   1      44.635  19.405  24.686  1.00  0.00     0.261 C 
BRANCH  41  42
ATOM     42  O   UNL A   1      44.497  20.679  25.347  1.00  0.00    -0.460 OA
BRANCH  42  43
ATOM     43  C   UNL A   1      44.678  21.774  24.558  1.00  0.00     0.338 C 
ATOM     44  O   UNL A   1      44.538  21.795  23.346  1.00  0.00    -0.246 OA
BRANCH  43  45
ATOM     45  C   UNL A   1      45.414  22.827  25.328  1.00  0.00     0.060 A 
ATOM     46  C   UNL A   1      45.189  22.951  26.713  1.00  0.00     0.016 A 
ATOM     47  C   UNL A   1      45.976  23.892  24.637  1.00  0.00     0.016 A 
ATOM     48  C   UNL A   1      45.322  24.200  27.351  1.00  0.00     0.010 A 
ATOM     49  C   UNL A   1      46.030  25.128  25.257  1.00  0.00     0.010 A 
ATOM     50  C   UNL A   1      45.638  25.329  26.598  1.00  0.00    -0.014 A 
BRANCH  50  51
ATOM     51  C   UNL A   1      45.393  26.745  27.011  1.00  0.00     0.031 A 
ATOM     52  C   UNL A   1      43.968  27.258  26.973  1.00  0.00     0.074 A 
ATOM     53  C   UNL A   1      46.335  27.387  27.766  1.00  0.00     0.049 A 
ATOM     54  N   UNL A   1      43.546  28.368  27.479  1.00  0.00    -0.248 NA
ATOM     55  C   UNL A   1      42.857  26.507  26.386  1.00  0.00     0.031 C 
ATOM     56  C   UNL A   1      46.082  28.417  28.779  1.00  0.00     0.029 A 
ATOM     57  N   UNL A   1      47.728  27.198  27.893  1.00  0.00    -0.354 N 
ATOM     58  C   UNL A   1      42.166  28.305  27.637  1.00  0.00     0.074 A 
ATOM     59  C   UNL A   1      41.785  27.164  26.848  1.00  0.00     0.031 C 
ATOM     60  C   UNL A   1      47.207  28.793  29.403  1.00  0.00     0.029 A 
ATOM     61  C   UNL A   1      48.265  28.338  28.551  1.00  0.00     0.049 A 
ATOM     62  H   UNL A   1      48.237  26.414  27.583  1.00  0.00     0.167 HD
ATOM     63  C   UNL A   1      41.551  29.158  28.523  1.00  0.00     0.037 A 
ATOM     64  C   UNL A   1      49.033  29.249  27.875  1.00  0.00     0.037 A 
ATOM     65  C   UNL A   1      42.507  30.173  29.022  1.00  0.00     0.049 A 
ATOM     66  C   UNL A   1      48.287  30.572  27.675  1.00  0.00     0.074 A 
ATOM     67  C   UNL A   1      42.909  30.626  30.269  1.00  0.00     0.029 A 
ATOM     68  N   UNL A   1      43.371  30.790  28.110  1.00  0.00    -0.354 N 
ATOM     69  N   UNL A   1      46.975  30.646  27.588  1.00  0.00    -0.248 NA
ATOM     70  C   UNL A   1      48.895  31.896  27.788  1.00  0.00     0.031 C 
ATOM     71  C   UNL A   1      44.091  31.408  30.098  1.00  0.00     0.029 A 
ATOM     72  C   UNL A   1      44.375  31.491  28.741  1.00  0.00     0.049 A 
ATOM     73  H   UNL A   1      43.273  30.729  27.133  1.00  0.00     0.167 HD
ATOM     74  C   UNL A   1      46.566  31.940  27.770  1.00  0.00     0.074 A 
ATOM     75  C   UNL A   1      47.808  32.693  27.833  1.00  0.00     0.031 C 
ATOM     76  C   UNL A   1      45.271  32.341  27.968  1.00  0.00     0.037 A 
BRANCH  63  77
ATOM     77  C   UNL A   1      40.120  29.033  29.100  1.00  0.00     0.064 A 
ATOM     78  C   UNL A   1      38.984  29.345  28.306  1.00  0.00     0.173 A 
ATOM     79  C   UNL A   1      39.786  28.693  30.432  1.00  0.00     0.173 A 
ATOM     80  F   UNL A   1      39.103  29.652  27.009  1.00  0.00    -0.203 F 
ATOM     81  C   UNL A   1      37.666  29.344  28.801  1.00  0.00     0.198 A 
ATOM     82  C   UNL A   1      38.464  28.636  30.910  1.00  0.00     0.198 A 
ATOM     83  F   UNL A   1      40.715  28.430  31.352  1.00  0.00    -0.203 F 
ATOM     84  F   UNL A   1      36.651  29.700  27.999  1.00  0.00    -0.200 F 
ATOM     85  C   UNL A   1      37.405  28.977  30.101  1.00  0.00     0.200 A 
ATOM     86  F   UNL A   1      38.233  28.257  32.177  1.00  0.00    -0.200 F 
ATOM     87  F   UNL A   1      36.149  28.951  30.570  1.00  0.00    -0.200 F 
ENDBRANCH  63  77
BRANCH  64  88
ATOM     88  C   UNL A   1      50.122  28.551  27.119  1.00  0.00     0.064 A 
ATOM     89  C   UNL A   1      51.113  28.012  27.976  1.00  0.00     0.173 A 
ATOM     90  C   UNL A   1      49.785  27.791  25.988  1.00  0.00     0.173 A 
ATOM     91  F   UNL A   1      51.530  28.722  29.037  1.00  0.00    -0.203 F 
ATOM     92  C   UNL A   1      51.459  26.661  27.912  1.00  0.00     0.198 A 
ATOM     93  C   UNL A   1      50.176  26.447  25.900  1.00  0.00     0.198 A 
ATOM     94  F   UNL A   1      48.904  28.265  25.097  1.00  0.00    -0.203 F 
ATOM     95  F   UNL A   1      52.167  26.104  28.905  1.00  0.00    -0.200 F 
ATOM     96  C   UNL A   1      50.938  25.867  26.907  1.00  0.00     0.200 A 
ATOM     97  F   UNL A   1      49.694  25.672  24.918  1.00  0.00    -0.200 F 
ATOM     98  F   UNL A   1      51.098  24.535  26.952  1.00  0.00    -0.200 F 
ENDBRANCH  64  88
BRANCH  76  99
ATOM     99  C   UNL A   1      44.695  33.638  27.431  1.00  0.00     0.064 A 
ATOM    100  C   UNL A   1      44.003  33.720  26.214  1.00  0.00     0.173 A 
ATOM    101  C   UNL A   1      44.611  34.797  28.253  1.00  0.00     0.173 A 
ATOM    102  F   UNL A   1      43.901  32.667  25.394  1.00  0.00    -0.203 F 
ATOM    103  C   UNL A   1      43.325  34.876  25.827  1.00  0.00     0.198 A 
ATOM    104  C   UNL A   1      43.880  35.924  27.889  1.00  0.00     0.198 A 
ATOM    105  F   UNL A   1      45.184  34.866  29.462  1.00  0.00    -0.203 F 
ATOM    106  F   UNL A   1      42.704  34.905  24.640  1.00  0.00    -0.200 F 
ATOM    107  C   UNL A   1      43.250  35.970  26.668  1.00  0.00     0.200 A 
ATOM    108  F   UNL A   1      43.761  36.946  28.749  1.00  0.00    -0.200 F 
ATOM    109  F   UNL A   1      42.549  37.053  26.311  1.00  0.00    -0.200 F 
ENDBRANCH  76  99
ENDBRANCH  50  51
ENDBRANCH  43  45
ENDBRANCH  42  43
ENDBRANCH  41  42
ENDBRANCH  40  41
ENDBRANCH  39  40
ENDBRANCH  38  39
ENDBRANCH  37  38
ENDBRANCH  36  37
ENDBRANCH   1  36
TORSDOF 25
ENDMDL
MODEL 3
REMARK VINA RESULT:     -10.5      3.212      8.872
REMARK SMILES Cc1ccc(-c2ccc(C(=O)Nc3ccc(C(=O)OCCOCCOCCOCCOC(=O)c4ccc(-c5c6nc(c(-c7c(F)c(F)c(F)c(F)c7F)c7ccc([nH]7)c(-c7c(F)c(F)c(F)c(F)c7F)c7nc(c(-c8c(F)c(F)c(F)c(F)c8F)c8ccc5[nH]8)C=C7)C=C6)cc4)c(O)c3)o2)c([N+](=O)[O-])c1
REMARK SMILES IDX 24 1 23 2 22 3 21 4 20 5 19 6 17 7 18 8 16 9 13 10 14 11
REMARK SMILES IDX 99 12 15 13 97 14 12 15 10 16 11 17 9 19 6 20 7 21 100 22
REMARK SMILES IDX 8 23 5 24 1 25 2 26 3 27 105 28 4 29 101 30 102 31 103 32
REMARK SMILES IDX 104 33 98 34 25 36 26 37 27 38 28 39 29 40 30 41 31 42 32 43
REMARK SMILES IDX 33 44 34 45 35 46 96 47 36 48 95 49 37 50 38 51 39 52 89 53
REMARK SMILES IDX 40 54 94 55 88 56 90 57 41 58 93 59 87 60 86 61 42 63 74 64
REMARK SMILES IDX 54 65 73 66 55 67 58 68 72 69 91 70 56 71 57 72 71 74 92 75
REMARK SMILES IDX 59 76 43 77 44 78 52 79 45 80 46 81 50 82 53 83 47 84 48 85
REMARK SMILES IDX 51 86 49 87 75 88 76 89 84 90 77 91 78 92 82 93 85 94 79 95
REMARK SMILES IDX 80 96 83 97 81 98 60 99 61 100 69 101 62 102 63 103 67 104
REMARK SMILES IDX 70 105 64 106 65 107 68 108 66 109
REMARK H PARENT 12 18 98 35 90 62 58 73
REMARK Flexibility Score: inf
ROOT
ATOM      1  C   UNL A   1      33.728  32.209  27.647  1.00  0.00     0.188 C 
ENDROOT
BRANCH   1   2
ATOM      2  C   UNL A   1      33.165  30.811  27.301  1.00  0.00     0.188 C 
BRANCH   2   3
ATOM      3  O   UNL A   1      33.550  30.102  26.136  1.00  0.00    -0.376 OA
BRANCH   3   4
ATOM      4  C   UNL A   1      34.486  29.052  26.286  1.00  0.00     0.202 C 
BRANCH   4   5
ATOM      5  C   UNL A   1      33.889  27.680  26.519  1.00  0.00     0.261 C 
BRANCH   5   6
ATOM      6  O   UNL A   1      32.781  27.546  25.646  1.00  0.00    -0.460 OA
BRANCH   6   7
ATOM      7  C   UNL A   1      31.762  26.906  26.223  1.00  0.00     0.341 C 
ATOM      8  O   UNL A   1      31.163  27.226  27.230  1.00  0.00    -0.246 OA
BRANCH   7   9
ATOM      9  C   UNL A   1      31.319  25.835  25.314  1.00  0.00     0.101 A 
ATOM     10  C   UNL A   1      30.870  23.691  23.665  1.00  0.00     0.045 A 
ATOM     11  C   UNL A   1      30.776  24.970  23.127  1.00  0.00     0.027 A 
ATOM     12  C   UNL A   1      30.829  23.502  25.046  1.00  0.00     0.073 A 
ATOM     13  C   UNL A   1      31.052  26.054  23.954  1.00  0.00     0.022 A 
ATOM     14  C   UNL A   1      31.065  24.585  25.873  1.00  0.00     0.132 A 
BRANCH  10  15
ATOM     15  N   UNL A   1      31.169  22.575  22.884  1.00  0.00    -0.319 N 
ATOM     16  C   UNL A   1      32.112  21.573  23.101  1.00  0.00     0.291 C 
ATOM     17  O   UNL A   1      32.154  20.698  22.231  1.00  0.00    -0.265 OA
ATOM     18  H   UNL A   1      30.639  22.483  22.059  1.00  0.00     0.170 HD
BRANCH  16  19
ATOM     19  C   UNL A   1      32.931  21.503  24.312  1.00  0.00     0.192 A 
ATOM     20  C   UNL A   1      34.675  22.065  25.562  1.00  0.00     0.142 A 
ATOM     21  C   UNL A   1      33.909  21.230  26.336  1.00  0.00     0.052 A 
ATOM     22  O   UNL A   1      34.044  22.323  24.379  1.00  0.00    -0.451 OA
ATOM     23  C   UNL A   1      32.949  20.712  25.452  1.00  0.00     0.057 A 
BRANCH  20  24
ATOM     24  C   UNL A   1      36.009  22.604  25.748  1.00  0.00     0.095 A 
ATOM     25  C   UNL A   1      39.936  24.122  26.756  1.00  0.00     0.044 C 
ATOM     26  C   UNL A   1      38.585  23.605  26.363  1.00  0.00    -0.044 A 
ATOM     27  C   UNL A   1      37.450  24.419  26.485  1.00  0.00     0.004 A 
ATOM     28  C   UNL A   1      38.441  22.304  25.882  1.00  0.00     0.089 A 
ATOM     29  C   UNL A   1      36.176  23.925  26.178  1.00  0.00     0.019 A 
ATOM     30  C   UNL A   1      37.165  21.820  25.568  1.00  0.00     0.280 A 
BRANCH  30  31
ATOM     31  N   UNL A   1      37.099  20.460  25.040  1.00  0.00     0.063 N 
ATOM     32  O   UNL A   1      36.010  20.047  24.621  1.00  0.00    -0.258 OA
ATOM     33  O   UNL A   1      38.157  19.813  25.027  1.00  0.00    -0.258 OA
ENDBRANCH  30  31
ENDBRANCH  20  24
ENDBRANCH  16  19
ENDBRANCH  10  15
BRANCH  14  34
ATOM     34  O   UNL A   1      31.069  24.350  27.220  1.00  0.00    -0.507 OA
ATOM     35  H   UNL A   1      30.259  24.241  27.679  1.00  0.00     0.293 HD
ENDBRANCH  14  34
ENDBRANCH   7   9
ENDBRANCH   6   7
ENDBRANCH   5   6
ENDBRANCH   4   5
ENDBRANCH   3   4
ENDBRANCH   2   3
ENDBRANCH   1   2
BRANCH   1  36
ATOM     36  O   UNL A   1      35.135  32.414  27.609  1.00  0.00    -0.377 OA
BRANCH  36  37
ATOM     37  C   UNL A   1      35.816  31.627  28.590  1.00  0.00     0.188 C 
BRANCH  37  38
ATOM     38  C   UNL A   1      35.570  32.159  29.988  1.00  0.00     0.188 C 
BRANCH  38  39
ATOM     39  O   UNL A   1      36.402  33.211  30.438  1.00  0.00    -0.376 OA
BRANCH  39  40
ATOM     40  C   UNL A   1      37.650  32.927  31.048  1.00  0.00     0.202 C 
BRANCH  40  41
ATOM     41  C   UNL A   1      37.621  31.790  32.071  1.00  0.00     0.261 C 
BRANCH  41  42
ATOM     42  O   UNL A   1      38.474  30.722  31.609  1.00  0.00    -0.460 OA
BRANCH  42  43
ATOM     43  C   UNL A   1      37.849  29.541  31.346  1.00  0.00     0.338 C 
ATOM     44  O   UNL A   1      36.673  29.306  31.571  1.00  0.00    -0.246 OA
BRANCH  43  45
ATOM     45  C   UNL A   1      38.876  28.480  31.093  1.00  0.00     0.060 A 
ATOM     46  C   UNL A   1      40.034  28.438  31.892  1.00  0.00     0.016 A 
ATOM     47  C   UNL A   1      38.876  27.829  29.866  1.00  0.00     0.016 A 
ATOM     48  C   UNL A   1      41.245  27.938  31.371  1.00  0.00     0.010 A 
ATOM     49  C   UNL A   1      40.087  27.411  29.340  1.00  0.00     0.010 A 
ATOM     50  C   UNL A   1      41.305  27.521  30.043  1.00  0.00    -0.014 A 
BRANCH  50  51
ATOM     51  C   UNL A   1      42.553  27.388  29.231  1.00  0.00     0.031 A 
ATOM     52  C   UNL A   1      43.136  26.001  29.048  1.00  0.00     0.074 A 
ATOM     53  C   UNL A   1      42.895  28.397  28.373  1.00  0.00     0.049 A 
ATOM     54  N   UNL A   1      44.075  25.674  28.225  1.00  0.00    -0.248 NA
ATOM     55  C   UNL A   1      42.651  24.823  29.768  1.00  0.00     0.031 C 
ATOM     56  C   UNL A   1      43.602  28.249  27.096  1.00  0.00     0.029 A 
ATOM     57  N   UNL A   1      42.598  29.776  28.376  1.00  0.00    -0.354 N 
ATOM     58  C   UNL A   1      44.047  24.299  28.022  1.00  0.00     0.074 A 
ATOM     59  C   UNL A   1      43.207  23.815  29.084  1.00  0.00     0.031 C 
ATOM     60  C   UNL A   1      43.717  29.416  26.449  1.00  0.00     0.029 A 
ATOM     61  C   UNL A   1      43.467  30.412  27.448  1.00  0.00     0.049 A 
ATOM     62  H   UNL A   1      41.910  30.220  28.923  1.00  0.00     0.167 HD
ATOM     63  C   UNL A   1      44.642  23.773  26.899  1.00  0.00     0.037 A 
ATOM     64  C   UNL A   1      44.489  31.219  27.874  1.00  0.00     0.037 A 
ATOM     65  C   UNL A   1      45.413  24.813  26.180  1.00  0.00     0.049 A 
ATOM     66  C   UNL A   1      45.854  30.560  27.649  1.00  0.00     0.074 A 
ATOM     67  C   UNL A   1      45.463  25.285  24.878  1.00  0.00     0.029 A 
ATOM     68  N   UNL A   1      46.217  25.687  26.920  1.00  0.00    -0.354 N 
ATOM     69  N   UNL A   1      46.024  29.254  27.643  1.00  0.00    -0.248 NA
ATOM     70  C   UNL A   1      47.053  31.261  27.192  1.00  0.00     0.031 C 
ATOM     71  C   UNL A   1      46.193  26.513  24.877  1.00  0.00     0.029 A 
ATOM     72  C   UNL A   1      46.648  26.758  26.167  1.00  0.00     0.049 A 
ATOM     73  H   UNL A   1      46.447  25.554  27.867  1.00  0.00     0.167 HD
ATOM     74  C   UNL A   1      47.232  28.942  27.078  1.00  0.00     0.074 A 
ATOM     75  C   UNL A   1      47.863  30.234  26.866  1.00  0.00     0.031 C 
ATOM     76  C   UNL A   1      47.632  27.684  26.708  1.00  0.00     0.037 A 
BRANCH  63  77
ATOM     77  C   UNL A   1      44.438  22.357  26.310  1.00  0.00     0.064 A 
ATOM     78  C   UNL A   1      45.493  21.689  25.633  1.00  0.00     0.173 A 
ATOM     79  C   UNL A   1      43.227  21.625  26.301  1.00  0.00     0.173 A 
ATOM     80  F   UNL A   1      46.724  22.213  25.573  1.00  0.00    -0.203 F 
ATOM     81  C   UNL A   1      45.343  20.445  24.993  1.00  0.00     0.198 A 
ATOM     82  C   UNL A   1      43.092  20.355  25.711  1.00  0.00     0.198 A 
ATOM     83  F   UNL A   1      42.101  22.108  26.827  1.00  0.00    -0.203 F 
ATOM     84  F   UNL A   1      46.376  19.904  24.330  1.00  0.00    -0.200 F 
ATOM     85  C   UNL A   1      44.144  19.771  25.043  1.00  0.00     0.200 A 
ATOM     86  F   UNL A   1      41.918  19.709  25.789  1.00  0.00    -0.200 F 
ATOM     87  F   UNL A   1      44.003  18.573  24.457  1.00  0.00    -0.200 F 
ENDBRANCH  63  77
BRANCH  64  88
ATOM     88  C   UNL A   1      43.979  32.232  28.851  1.00  0.00     0.064 A 
ATOM     89  C   UNL A   1      44.455  32.002  30.166  1.00  0.00     0.173 A 
ATOM     90  C   UNL A   1      43.871  33.572  28.445  1.00  0.00     0.173 A 
ATOM     91  F   UNL A   1      44.516  30.746  30.637  1.00  0.00    -0.203 F 
ATOM     92  C   UNL A   1      45.121  33.003  30.873  1.00  0.00     0.198 A 
ATOM     93  C   UNL A   1      44.498  34.585  29.186  1.00  0.00     0.198 A 
ATOM     94  F   UNL A   1      43.368  33.872  27.241  1.00  0.00    -0.203 F 
ATOM     95  F   UNL A   1      45.816  32.693  31.978  1.00  0.00    -0.200 F 
ATOM     96  C   UNL A   1      45.194  34.281  30.349  1.00  0.00     0.200 A 
ATOM     97  F   UNL A   1      44.557  35.833  28.697  1.00  0.00    -0.200 F 
ATOM     98  F   UNL A   1      45.998  35.194  30.915  1.00  0.00    -0.200 F 
ENDBRANCH  64  88
BRANCH  76  99
ATOM     99  C   UNL A   1      49.060  27.183  26.822  1.00  0.00     0.064 A 
ATOM    100  C   UNL A   1      49.593  26.663  28.010  1.00  0.00     0.173 A 
ATOM    101  C   UNL A   1      49.860  26.984  25.662  1.00  0.00     0.173 A 
ATOM    102  F   UNL A   1      48.900  26.677  29.156  1.00  0.00    -0.203 F 
ATOM    103  C   UNL A   1      50.841  26.040  28.048  1.00  0.00     0.198 A 
ATOM    104  C   UNL A   1      51.074  26.305  25.696  1.00  0.00     0.198 A 
ATOM    105  F   UNL A   1      49.475  27.387  24.443  1.00  0.00    -0.203 F 
ATOM    106  F   UNL A   1      51.312  25.587  29.217  1.00  0.00    -0.200 F 
ATOM    107  C   UNL A   1      51.573  25.847  26.892  1.00  0.00     0.200 A 
ATOM    108  F   UNL A   1      51.735  26.066  24.553  1.00  0.00    -0.200 F 
ATOM    109  F   UNL A   1      52.744  25.198  26.930  1.00  0.00    -0.200 F 
ENDBRANCH  76  99
ENDBRANCH  50  51
ENDBRANCH  43  45
ENDBRANCH  42  43
ENDBRANCH  41  42
ENDBRANCH  40  41
ENDBRANCH  39  40
ENDBRANCH  38  39
ENDBRANCH  37  38
ENDBRANCH  36  37
ENDBRANCH   1  36
TORSDOF 25
ENDMDL
