MODEL 1
REMARK VINA RESULT:     -10.8      0.000      0.000
REMARK SMILES CC1(C)C(n2c(SCC(=O)OCCOCCOCCOCCOC(=O)c3ccc(-c4c5nc(c(-c6c(F)c(F)c(F)c(F)c6F)c6ccc([nH]6)c(-c6c(F)c(F)c(F)c(F)c6F)c6nc(c(-c7c(F)c(F)c(F)c(F)c7F)c7ccc4[nH]7)C=C6)C=C5)cc3)nc3cnccc32)C1(C)C
REMARK SMILES IDX 16 1 15 2 14 3 13 4 12 5 11 6 9 7 10 8 8 9 7 10 6 11 5 12
REMARK SMILES IDX 95 13 89 14 90 15 94 16 91 17 93 18 92 19 4 20 1 21 2 22
REMARK SMILES IDX 3 23 96 24 97 25 98 26 17 27 18 28 19 29 20 30 21 31 22 32
REMARK SMILES IDX 23 33 24 34 25 35 26 36 27 37 88 38 28 39 87 40 29 41 30 42
REMARK SMILES IDX 31 43 81 44 32 45 86 46 80 47 82 48 33 49 85 50 79 51 78 52
REMARK SMILES IDX 34 54 66 55 46 56 65 57 47 58 50 59 64 60 83 61 48 62 49 63
REMARK SMILES IDX 63 65 84 66 51 67 35 68 36 69 44 70 37 71 38 72 42 73 45 74
REMARK SMILES IDX 39 75 40 76 43 77 41 78 67 79 68 80 76 81 69 82 70 83 74 84
REMARK SMILES IDX 77 85 71 86 72 87 75 88 73 89 52 90 53 91 61 92 54 93 55 94
REMARK SMILES IDX 59 95 62 96 56 97 57 98 60 99 58 100
REMARK H PARENT 82 53 50 64
REMARK Flexibility Score: inf
ROOT
ATOM      1  C   UNL A   1      31.645  30.379  26.360  1.00  0.00     0.188 C 
ENDROOT
BRANCH   1   2
ATOM      2  C   UNL A   1      31.783  29.126  25.503  1.00  0.00     0.188 C 
BRANCH   2   3
ATOM      3  O   UNL A   1      31.762  29.401  24.128  1.00  0.00    -0.376 OA
BRANCH   3   4
ATOM      4  C   UNL A   1      31.941  28.295  23.258  1.00  0.00     0.202 C 
BRANCH   4   5
ATOM      5  C   UNL A   1      30.784  27.546  22.551  1.00  0.00     0.261 C 
BRANCH   5   6
ATOM      6  O   UNL A   1      29.678  27.103  23.356  1.00  0.00    -0.463 OA
BRANCH   6   7
ATOM      7  C   UNL A   1      29.872  26.042  24.178  1.00  0.00     0.316 C 
ATOM      8  O   UNL A   1      29.363  25.960  25.294  1.00  0.00    -0.251 OA
BRANCH   7   9
ATOM      9  C   UNL A   1      30.614  24.858  23.569  1.00  0.00     0.200 C 
BRANCH   9  10
ATOM     10  S   UNL A   1      30.823  23.388  24.539  1.00  0.00    -0.076 SA
BRANCH  10  11
ATOM     11  C   UNL A   1      32.121  22.356  23.942  1.00  0.00     0.169 A 
ATOM     12  N   UNL A   1      33.502  22.270  24.213  1.00  0.00    -0.315 N 
ATOM     13  C   UNL A   1      33.782  20.902  24.264  1.00  0.00     0.072 A 
ATOM     14  N   UNL A   1      31.706  21.219  23.408  1.00  0.00    -0.221 NA
ATOM     15  C   UNL A   1      32.648  20.290  23.739  1.00  0.00     0.108 A 
ATOM     16  C   UNL A   1      34.847  20.141  24.754  1.00  0.00     0.049 A 
ATOM     17  C   UNL A   1      32.574  18.892  23.694  1.00  0.00     0.141 A 
ATOM     18  C   UNL A   1      34.682  18.762  24.676  1.00  0.00     0.113 A 
ATOM     19  N   UNL A   1      33.594  18.135  24.175  1.00  0.00    -0.262 NA
BRANCH  12  20
ATOM     20  C   UNL A   1      34.415  23.229  24.849  1.00  0.00     0.102 C 
ATOM     21  C   UNL A   1      36.842  23.702  25.669  1.00  0.00     0.014 C 
ATOM     22  C   UNL A   1      35.848  23.603  24.505  1.00  0.00    -0.007 C 
ATOM     23  C   UNL A   1      36.499  23.108  23.245  1.00  0.00     0.014 C 
ATOM     24  C   UNL A   1      34.704  24.657  24.457  1.00  0.00    -0.007 C 
ATOM     25  C   UNL A   1      34.694  25.729  25.538  1.00  0.00     0.014 C 
ATOM     26  C   UNL A   1      34.189  25.153  23.126  1.00  0.00     0.014 C 
ENDBRANCH  12  20
ENDBRANCH  10  11
ENDBRANCH   9  10
ENDBRANCH   7   9
ENDBRANCH   6   7
ENDBRANCH   5   6
ENDBRANCH   4   5
ENDBRANCH   3   4
ENDBRANCH   2   3
ENDBRANCH   1   2
BRANCH   1  27
ATOM     27  O   UNL A   1      32.757  30.959  26.974  1.00  0.00    -0.377 OA
BRANCH  27  28
ATOM     28  C   UNL A   1      33.848  30.104  27.179  1.00  0.00     0.188 C 
BRANCH  28  29
ATOM     29  C   UNL A   1      35.028  30.638  28.001  1.00  0.00     0.188 C 
BRANCH  29  30
ATOM     30  O   UNL A   1      35.575  31.836  27.481  1.00  0.00    -0.376 OA
BRANCH  30  31
ATOM     31  C   UNL A   1      35.492  33.011  28.272  1.00  0.00     0.202 C 
BRANCH  31  32
ATOM     32  C   UNL A   1      36.636  33.400  29.228  1.00  0.00     0.261 C 
BRANCH  32  33
ATOM     33  O   UNL A   1      37.863  32.662  29.075  1.00  0.00    -0.460 OA
BRANCH  33  34
ATOM     34  C   UNL A   1      38.998  33.030  29.725  1.00  0.00     0.338 C 
ATOM     35  O   UNL A   1      39.245  34.102  30.205  1.00  0.00    -0.246 OA
BRANCH  34  36
ATOM     36  C   UNL A   1      39.680  31.734  30.069  1.00  0.00     0.060 A 
ATOM     37  C   UNL A   1      41.061  31.668  30.282  1.00  0.00     0.016 A 
ATOM     38  C   UNL A   1      38.968  30.567  29.745  1.00  0.00     0.016 A 
ATOM     39  C   UNL A   1      41.735  30.486  29.966  1.00  0.00     0.010 A 
ATOM     40  C   UNL A   1      39.648  29.390  29.413  1.00  0.00     0.010 A 
ATOM     41  C   UNL A   1      41.041  29.359  29.460  1.00  0.00    -0.014 A 
BRANCH  41  42
ATOM     42  C   UNL A   1      41.806  28.102  29.326  1.00  0.00     0.031 A 
ATOM     43  C   UNL A   1      42.468  27.798  30.621  1.00  0.00     0.074 A 
ATOM     44  C   UNL A   1      41.860  27.192  28.325  1.00  0.00     0.049 A 
ATOM     45  N   UNL A   1      43.729  27.726  30.889  1.00  0.00    -0.248 NA
ATOM     46  C   UNL A   1      41.583  27.787  31.802  1.00  0.00     0.031 C 
ATOM     47  C   UNL A   1      41.065  27.145  27.097  1.00  0.00     0.029 A 
ATOM     48  N   UNL A   1      42.625  26.050  28.231  1.00  0.00    -0.354 N 
ATOM     49  C   UNL A   1      43.786  27.506  32.260  1.00  0.00     0.074 A 
ATOM     50  C   UNL A   1      42.472  27.750  32.790  1.00  0.00     0.031 C 
ATOM     51  C   UNL A   1      41.257  25.957  26.478  1.00  0.00     0.029 A 
ATOM     52  C   UNL A   1      42.237  25.175  27.216  1.00  0.00     0.049 A 
ATOM     53  H   UNL A   1      43.384  25.865  28.830  1.00  0.00     0.167 HD
ATOM     54  C   UNL A   1      44.829  26.858  32.834  1.00  0.00     0.037 A 
ATOM     55  C   UNL A   1      42.630  23.885  27.032  1.00  0.00     0.037 A 
ATOM     56  C   UNL A   1      46.008  26.910  32.017  1.00  0.00     0.049 A 
ATOM     57  C   UNL A   1      43.882  23.678  27.795  1.00  0.00     0.074 A 
ATOM     58  C   UNL A   1      46.844  27.906  31.561  1.00  0.00     0.029 A 
ATOM     59  N   UNL A   1      46.286  25.799  31.265  1.00  0.00    -0.354 N 
ATOM     60  N   UNL A   1      45.039  24.185  27.477  1.00  0.00    -0.248 NA
ATOM     61  C   UNL A   1      43.783  23.149  29.146  1.00  0.00     0.031 C 
ATOM     62  C   UNL A   1      47.313  27.460  30.291  1.00  0.00     0.029 A 
ATOM     63  C   UNL A   1      46.762  26.201  30.047  1.00  0.00     0.049 A 
ATOM     64  H   UNL A   1      46.162  24.866  31.554  1.00  0.00     0.167 HD
ATOM     65  C   UNL A   1      45.653  24.434  28.693  1.00  0.00     0.074 A 
ATOM     66  C   UNL A   1      44.899  23.659  29.669  1.00  0.00     0.031 C 
ATOM     67  C   UNL A   1      46.535  25.466  28.824  1.00  0.00     0.037 A 
BRANCH  54  68
ATOM     68  C   UNL A   1      44.619  25.829  33.913  1.00  0.00     0.064 A 
ATOM     69  C   UNL A   1      45.139  26.058  35.197  1.00  0.00     0.173 A 
ATOM     70  C   UNL A   1      44.178  24.508  33.657  1.00  0.00     0.173 A 
ATOM     71  F   UNL A   1      45.639  27.258  35.525  1.00  0.00    -0.203 F 
ATOM     72  C   UNL A   1      45.240  25.030  36.140  1.00  0.00     0.198 A 
ATOM     73  C   UNL A   1      44.218  23.505  34.620  1.00  0.00     0.198 A 
ATOM     74  F   UNL A   1      43.807  24.101  32.437  1.00  0.00    -0.203 F 
ATOM     75  F   UNL A   1      45.852  25.261  37.310  1.00  0.00    -0.200 F 
ATOM     76  C   UNL A   1      44.775  23.759  35.853  1.00  0.00     0.200 A 
ATOM     77  F   UNL A   1      43.793  22.274  34.305  1.00  0.00    -0.200 F 
ATOM     78  F   UNL A   1      44.917  22.763  36.738  1.00  0.00    -0.200 F 
ENDBRANCH  54  68
BRANCH  55  79
ATOM     79  C   UNL A   1      41.879  22.729  26.458  1.00  0.00     0.064 A 
ATOM     80  C   UNL A   1      42.538  21.560  26.025  1.00  0.00     0.173 A 
ATOM     81  C   UNL A   1      40.481  22.628  26.586  1.00  0.00     0.173 A 
ATOM     82  F   UNL A   1      43.875  21.538  25.910  1.00  0.00    -0.203 F 
ATOM     83  C   UNL A   1      41.846  20.368  25.772  1.00  0.00     0.198 A 
ATOM     84  C   UNL A   1      39.790  21.442  26.321  1.00  0.00     0.198 A 
ATOM     85  F   UNL A   1      39.757  23.648  27.065  1.00  0.00    -0.203 F 
ATOM     86  F   UNL A   1      42.520  19.259  25.432  1.00  0.00    -0.200 F 
ATOM     87  C   UNL A   1      40.473  20.308  25.932  1.00  0.00     0.200 A 
ATOM     88  F   UNL A   1      38.464  21.394  26.511  1.00  0.00    -0.200 F 
ATOM     89  F   UNL A   1      39.815  19.153  25.755  1.00  0.00    -0.200 F 
ENDBRANCH  55  79
BRANCH  67  90
ATOM     90  C   UNL A   1      47.149  26.021  27.573  1.00  0.00     0.064 A 
ATOM     91  C   UNL A   1      48.319  25.531  26.973  1.00  0.00     0.173 A 
ATOM     92  C   UNL A   1      46.442  27.026  26.893  1.00  0.00     0.173 A 
ATOM     93  F   UNL A   1      49.001  24.509  27.510  1.00  0.00    -0.203 F 
ATOM     94  C   UNL A   1      48.778  26.059  25.766  1.00  0.00     0.198 A 
ATOM     95  C   UNL A   1      46.875  27.511  25.664  1.00  0.00     0.198 A 
ATOM     96  F   UNL A   1      45.298  27.506  27.406  1.00  0.00    -0.203 F 
ATOM     97  F   UNL A   1      49.921  25.605  25.230  1.00  0.00    -0.200 F 
ATOM     98  C   UNL A   1      48.049  27.034  25.105  1.00  0.00     0.200 A 
ATOM     99  F   UNL A   1      46.143  28.425  25.014  1.00  0.00    -0.200 F 
ATOM    100  F   UNL A   1      48.464  27.501  23.919  1.00  0.00    -0.200 F 
ENDBRANCH  67  90
ENDBRANCH  41  42
ENDBRANCH  34  36
ENDBRANCH  33  34
ENDBRANCH  32  33
ENDBRANCH  31  32
ENDBRANCH  30  31
ENDBRANCH  29  30
ENDBRANCH  28  29
ENDBRANCH  27  28
ENDBRANCH   1  27
TORSDOF 23
ENDMDL
MODEL 2
REMARK VINA RESULT:     -10.7      1.473      2.685
REMARK SMILES CC1(C)C(n2c(SCC(=O)OCCOCCOCCOCCOC(=O)c3ccc(-c4c5nc(c(-c6c(F)c(F)c(F)c(F)c6F)c6ccc([nH]6)c(-c6c(F)c(F)c(F)c(F)c6F)c6nc(c(-c7c(F)c(F)c(F)c(F)c7F)c7ccc4[nH]7)C=C6)C=C5)cc3)nc3cnccc32)C1(C)C
REMARK SMILES IDX 16 1 15 2 14 3 13 4 12 5 11 6 9 7 10 8 8 9 7 10 6 11 5 12
REMARK SMILES IDX 95 13 89 14 90 15 94 16 91 17 93 18 92 19 4 20 1 21 2 22
REMARK SMILES IDX 3 23 96 24 97 25 98 26 17 27 18 28 19 29 20 30 21 31 22 32
REMARK SMILES IDX 23 33 24 34 25 35 26 36 27 37 88 38 28 39 87 40 29 41 30 42
REMARK SMILES IDX 31 43 81 44 32 45 86 46 80 47 82 48 33 49 85 50 79 51 78 52
REMARK SMILES IDX 34 54 66 55 46 56 65 57 47 58 50 59 64 60 83 61 48 62 49 63
REMARK SMILES IDX 63 65 84 66 51 67 35 68 36 69 44 70 37 71 38 72 42 73 45 74
REMARK SMILES IDX 39 75 40 76 43 77 41 78 67 79 68 80 76 81 69 82 70 83 74 84
REMARK SMILES IDX 77 85 71 86 72 87 75 88 73 89 52 90 53 91 61 92 54 93 55 94
REMARK SMILES IDX 59 95 62 96 56 97 57 98 60 99 58 100
REMARK H PARENT 82 53 50 64
REMARK Flexibility Score: inf
ROOT
ATOM      1  C   UNL A   1      33.360  30.755  26.974  1.00  0.00     0.188 C 
ENDROOT
BRANCH   1   2
ATOM      2  C   UNL A   1      33.496  29.240  26.886  1.00  0.00     0.188 C 
BRANCH   2   3
ATOM      3  O   UNL A   1      33.728  28.788  25.578  1.00  0.00    -0.376 OA
BRANCH   3   4
ATOM      4  C   UNL A   1      32.843  29.265  24.577  1.00  0.00     0.202 C 
BRANCH   4   5
ATOM      5  C   UNL A   1      31.344  28.885  24.487  1.00  0.00     0.261 C 
BRANCH   5   6
ATOM      6  O   UNL A   1      31.000  27.489  24.522  1.00  0.00    -0.463 OA
BRANCH   6   7
ATOM      7  C   UNL A   1      31.377  26.713  23.475  1.00  0.00     0.316 C 
ATOM      8  O   UNL A   1      31.295  27.085  22.306  1.00  0.00    -0.251 OA
BRANCH   7   9
ATOM      9  C   UNL A   1      32.088  25.415  23.835  1.00  0.00     0.200 C 
BRANCH   9  10
ATOM     10  S   UNL A   1      33.846  25.315  23.626  1.00  0.00    -0.076 SA
BRANCH  10  11
ATOM     11  C   UNL A   1      34.605  24.194  24.755  1.00  0.00     0.169 A 
ATOM     12  N   UNL A   1      34.697  22.789  24.822  1.00  0.00    -0.315 N 
ATOM     13  C   UNL A   1      36.008  22.525  25.224  1.00  0.00     0.072 A 
ATOM     14  N   UNL A   1      35.565  24.734  25.489  1.00  0.00    -0.221 NA
ATOM     15  C   UNL A   1      36.503  23.755  25.646  1.00  0.00     0.108 A 
ATOM     16  C   UNL A   1      36.824  21.389  25.211  1.00  0.00     0.049 A 
ATOM     17  C   UNL A   1      37.833  23.858  26.070  1.00  0.00     0.141 A 
ATOM     18  C   UNL A   1      38.132  21.588  25.641  1.00  0.00     0.113 A 
ATOM     19  N   UNL A   1      38.645  22.769  26.054  1.00  0.00    -0.262 NA
BRANCH  12  20
ATOM     20  C   UNL A   1      33.911  21.745  24.151  1.00  0.00     0.102 C 
ATOM     21  C   UNL A   1      33.460  19.191  23.897  1.00  0.00     0.014 C 
ATOM     22  C   UNL A   1      33.272  20.482  24.705  1.00  0.00    -0.007 C 
ATOM     23  C   UNL A   1      33.222  20.221  26.184  1.00  0.00     0.014 C 
ATOM     24  C   UNL A   1      32.412  21.606  24.059  1.00  0.00    -0.007 C 
ATOM     25  C   UNL A   1      31.786  21.315  22.702  1.00  0.00     0.014 C 
ATOM     26  C   UNL A   1      31.555  22.496  24.927  1.00  0.00     0.014 C 
ENDBRANCH  12  20
ENDBRANCH  10  11
ENDBRANCH   9  10
ENDBRANCH   7   9
ENDBRANCH   6   7
ENDBRANCH   5   6
ENDBRANCH   4   5
ENDBRANCH   3   4
ENDBRANCH   2   3
ENDBRANCH   1   2
BRANCH   1  27
ATOM     27  O   UNL A   1      33.729  31.446  28.130  1.00  0.00    -0.377 OA
BRANCH  27  28
ATOM     28  C   UNL A   1      33.682  32.844  28.038  1.00  0.00     0.188 C 
BRANCH  28  29
ATOM     29  C   UNL A   1      34.177  33.654  29.243  1.00  0.00     0.188 C 
BRANCH  29  30
ATOM     30  O   UNL A   1      34.553  32.847  30.344  1.00  0.00    -0.376 OA
BRANCH  30  31
ATOM     31  C   UNL A   1      35.865  32.990  30.865  1.00  0.00     0.202 C 
BRANCH  31  32
ATOM     32  C   UNL A   1      36.959  33.714  30.056  1.00  0.00     0.261 C 
BRANCH  32  33
ATOM     33  O   UNL A   1      37.934  32.869  29.418  1.00  0.00    -0.460 OA
BRANCH  33  34
ATOM     34  C   UNL A   1      37.566  31.765  28.716  1.00  0.00     0.338 C 
ATOM     35  O   UNL A   1      36.895  31.728  27.721  1.00  0.00    -0.246 OA
BRANCH  34  36
ATOM     36  C   UNL A   1      38.490  30.680  29.194  1.00  0.00     0.060 A 
ATOM     37  C   UNL A   1      39.822  30.947  29.527  1.00  0.00     0.016 A 
ATOM     38  C   UNL A   1      38.100  29.366  28.882  1.00  0.00     0.016 A 
ATOM     39  C   UNL A   1      40.777  29.945  29.343  1.00  0.00     0.010 A 
ATOM     40  C   UNL A   1      39.062  28.369  28.681  1.00  0.00     0.010 A 
ATOM     41  C   UNL A   1      40.413  28.667  28.849  1.00  0.00    -0.014 A 
BRANCH  41  42
ATOM     42  C   UNL A   1      41.455  27.620  28.857  1.00  0.00     0.031 A 
ATOM     43  C   UNL A   1      42.163  27.653  30.163  1.00  0.00     0.074 A 
ATOM     44  C   UNL A   1      41.729  26.627  27.980  1.00  0.00     0.049 A 
ATOM     45  N   UNL A   1      43.403  27.917  30.406  1.00  0.00    -0.248 NA
ATOM     46  C   UNL A   1      41.300  27.587  31.358  1.00  0.00     0.031 C 
ATOM     47  C   UNL A   1      40.976  26.234  26.788  1.00  0.00     0.029 A 
ATOM     48  N   UNL A   1      42.745  25.695  28.013  1.00  0.00    -0.354 N 
ATOM     49  C   UNL A   1      43.503  27.897  31.792  1.00  0.00     0.074 A 
ATOM     50  C   UNL A   1      42.166  27.890  32.319  1.00  0.00     0.031 C 
ATOM     51  C   UNL A   1      41.448  25.054  26.322  1.00  0.00     0.029 A 
ATOM     52  C   UNL A   1      42.581  24.629  27.129  1.00  0.00     0.049 A 
ATOM     53  H   UNL A   1      43.522  25.775  28.612  1.00  0.00     0.167 HD
ATOM     54  C   UNL A   1      44.668  27.594  32.417  1.00  0.00     0.037 A 
ATOM     55  C   UNL A   1      43.271  23.456  27.101  1.00  0.00     0.037 A 
ATOM     56  C   UNL A   1      45.805  27.816  31.571  1.00  0.00     0.049 A 
ATOM     57  C   UNL A   1      44.532  23.652  27.852  1.00  0.00     0.074 A 
ATOM     58  C   UNL A   1      46.382  28.914  30.969  1.00  0.00     0.029 A 
ATOM     59  N   UNL A   1      46.343  26.715  30.960  1.00  0.00    -0.354 N 
ATOM     60  N   UNL A   1      45.537  24.372  27.443  1.00  0.00    -0.248 NA
ATOM     61  C   UNL A   1      44.554  23.295  29.262  1.00  0.00     0.031 C 
ATOM     62  C   UNL A   1      46.952  28.430  29.756  1.00  0.00     0.029 A 
ATOM     63  C   UNL A   1      46.717  27.056  29.689  1.00  0.00     0.049 A 
ATOM     64  H   UNL A   1      46.443  25.825  31.369  1.00  0.00     0.167 HD
ATOM     65  C   UNL A   1      46.067  24.916  28.600  1.00  0.00     0.074 A 
ATOM     66  C   UNL A   1      45.514  24.118  29.686  1.00  0.00     0.031 C 
ATOM     67  C   UNL A   1      46.678  26.134  28.576  1.00  0.00     0.037 A 
BRANCH  54  68
ATOM     68  C   UNL A   1      44.702  26.695  33.624  1.00  0.00     0.064 A 
ATOM     69  C   UNL A   1      44.254  25.369  33.512  1.00  0.00     0.173 A 
ATOM     70  C   UNL A   1      44.889  27.169  34.946  1.00  0.00     0.173 A 
ATOM     71  F   UNL A   1      43.987  24.840  32.310  1.00  0.00    -0.203 F 
ATOM     72  C   UNL A   1      43.980  24.590  34.641  1.00  0.00     0.198 A 
ATOM     73  C   UNL A   1      44.680  26.370  36.064  1.00  0.00     0.198 A 
ATOM     74  F   UNL A   1      45.160  28.452  35.214  1.00  0.00    -0.203 F 
ATOM     75  F   UNL A   1      43.439  23.374  34.492  1.00  0.00    -0.200 F 
ATOM     76  C   UNL A   1      44.199  25.089  35.914  1.00  0.00     0.200 A 
ATOM     77  F   UNL A   1      44.867  26.888  37.286  1.00  0.00    -0.200 F 
ATOM     78  F   UNL A   1      43.891  24.361  36.995  1.00  0.00    -0.200 F 
ENDBRANCH  54  68
BRANCH  55  79
ATOM     79  C   UNL A   1      42.820  22.090  26.699  1.00  0.00     0.064 A 
ATOM     80  C   UNL A   1      43.528  21.326  25.750  1.00  0.00     0.173 A 
ATOM     81  C   UNL A   1      41.850  21.391  27.443  1.00  0.00     0.173 A 
ATOM     82  F   UNL A   1      44.502  21.888  25.017  1.00  0.00    -0.203 F 
ATOM     83  C   UNL A   1      43.304  19.952  25.585  1.00  0.00     0.198 A 
ATOM     84  C   UNL A   1      41.618  20.024  27.269  1.00  0.00     0.198 A 
ATOM     85  F   UNL A   1      41.171  21.993  28.428  1.00  0.00    -0.203 F 
ATOM     86  F   UNL A   1      44.051  19.248  24.722  1.00  0.00    -0.200 F 
ATOM     87  C   UNL A   1      42.356  19.300  26.354  1.00  0.00     0.200 A 
ATOM     88  F   UNL A   1      40.718  19.403  28.044  1.00  0.00    -0.200 F 
ATOM     89  F   UNL A   1      42.183  17.975  26.246  1.00  0.00    -0.200 F 
ENDBRANCH  55  79
BRANCH  67  90
ATOM     90  C   UNL A   1      47.149  26.652  27.248  1.00  0.00     0.064 A 
ATOM     91  C   UNL A   1      48.388  26.342  26.666  1.00  0.00     0.173 A 
ATOM     92  C   UNL A   1      46.242  27.404  26.486  1.00  0.00     0.173 A 
ATOM     93  F   UNL A   1      49.273  25.551  27.290  1.00  0.00    -0.203 F 
ATOM     94  C   UNL A   1      48.714  26.806  25.392  1.00  0.00     0.198 A 
ATOM     95  C   UNL A   1      46.552  27.819  25.195  1.00  0.00     0.198 A 
ATOM     96  F   UNL A   1      45.030  27.698  26.981  1.00  0.00    -0.203 F 
ATOM     97  F   UNL A   1      49.920  26.533  24.870  1.00  0.00    -0.200 F 
ATOM     98  C   UNL A   1      47.791  27.527  24.651  1.00  0.00     0.200 A 
ATOM     99  F   UNL A   1      45.639  28.482  24.472  1.00  0.00    -0.200 F 
ATOM    100  F   UNL A   1      48.088  27.926  23.406  1.00  0.00    -0.200 F 
ENDBRANCH  67  90
ENDBRANCH  41  42
ENDBRANCH  34  36
ENDBRANCH  33  34
ENDBRANCH  32  33
ENDBRANCH  31  32
ENDBRANCH  30  31
ENDBRANCH  29  30
ENDBRANCH  28  29
ENDBRANCH  27  28
ENDBRANCH   1  27
TORSDOF 23
ENDMDL
MODEL 3
REMARK VINA RESULT:     -10.7      2.088      3.534
REMARK SMILES CC1(C)C(n2c(SCC(=O)OCCOCCOCCOCCOC(=O)c3ccc(-c4c5nc(c(-c6c(F)c(F)c(F)c(F)c6F)c6ccc([nH]6)c(-c6c(F)c(F)c(F)c(F)c6F)c6nc(c(-c7c(F)c(F)c(F)c(F)c7F)c7ccc4[nH]7)C=C6)C=C5)cc3)nc3cnccc32)C1(C)C
REMARK SMILES IDX 16 1 15 2 14 3 13 4 12 5 11 6 9 7 10 8 8 9 7 10 6 11 5 12
REMARK SMILES IDX 95 13 89 14 90 15 94 16 91 17 93 18 92 19 4 20 1 21 2 22
REMARK SMILES IDX 3 23 96 24 97 25 98 26 17 27 18 28 19 29 20 30 21 31 22 32
REMARK SMILES IDX 23 33 24 34 25 35 26 36 27 37 88 38 28 39 87 40 29 41 30 42
REMARK SMILES IDX 31 43 81 44 32 45 86 46 80 47 82 48 33 49 85 50 79 51 78 52
REMARK SMILES IDX 34 54 66 55 46 56 65 57 47 58 50 59 64 60 83 61 48 62 49 63
REMARK SMILES IDX 63 65 84 66 51 67 35 68 36 69 44 70 37 71 38 72 42 73 45 74
REMARK SMILES IDX 39 75 40 76 43 77 41 78 67 79 68 80 76 81 69 82 70 83 74 84
REMARK SMILES IDX 77 85 71 86 72 87 75 88 73 89 52 90 53 91 61 92 54 93 55 94
REMARK SMILES IDX 59 95 62 96 56 97 57 98 60 99 58 100
REMARK H PARENT 82 53 50 64
REMARK Flexibility Score: inf
ROOT
ATOM      1  C   UNL A   1      33.299  35.561  28.826  1.00  0.00     0.188 C 
ENDROOT
BRANCH   1   2
ATOM      2  C   UNL A   1      34.702  34.998  28.630  1.00  0.00     0.188 C 
BRANCH   2   3
ATOM      3  O   UNL A   1      34.751  33.978  27.668  1.00  0.00    -0.376 OA
BRANCH   3   4
ATOM      4  C   UNL A   1      33.954  32.832  27.919  1.00  0.00     0.202 C 
BRANCH   4   5
ATOM      5  C   UNL A   1      34.509  31.388  28.007  1.00  0.00     0.261 C 
BRANCH   5   6
ATOM      6  O   UNL A   1      34.295  30.515  26.885  1.00  0.00    -0.463 OA
BRANCH   6   7
ATOM      7  C   UNL A   1      33.066  29.962  26.734  1.00  0.00     0.316 C 
ATOM      8  O   UNL A   1      32.100  30.590  26.304  1.00  0.00    -0.251 OA
BRANCH   7   9
ATOM      9  C   UNL A   1      32.985  28.456  26.950  1.00  0.00     0.200 C 
BRANCH   9  10
ATOM     10  S   UNL A   1      31.405  27.722  27.284  1.00  0.00    -0.076 SA
BRANCH  10  11
ATOM     11  C   UNL A   1      30.999  26.432  26.153  1.00  0.00     0.169 A 
ATOM     12  N   UNL A   1      31.532  26.015  24.917  1.00  0.00    -0.315 N 
ATOM     13  C   UNL A   1      31.529  24.619  24.968  1.00  0.00     0.072 A 
ATOM     14  N   UNL A   1      30.304  25.443  26.690  1.00  0.00    -0.221 NA
ATOM     15  C   UNL A   1      30.741  24.308  26.071  1.00  0.00     0.108 A 
ATOM     16  C   UNL A   1      32.159  23.613  24.229  1.00  0.00     0.049 A 
ATOM     17  C   UNL A   1      30.571  22.969  26.445  1.00  0.00     0.141 A 
ATOM     18  C   UNL A   1      31.940  22.315  24.678  1.00  0.00     0.113 A 
ATOM     19  N   UNL A   1      31.184  21.979  25.747  1.00  0.00    -0.262 NA
BRANCH  12  20
ATOM     20  C   UNL A   1      32.411  26.712  23.968  1.00  0.00     0.102 C 
ATOM     21  C   UNL A   1      33.653  26.611  21.681  1.00  0.00     0.014 C 
ATOM     22  C   UNL A   1      32.344  26.814  22.454  1.00  0.00    -0.007 C 
ATOM     23  C   UNL A   1      31.153  26.303  21.692  1.00  0.00     0.014 C 
ATOM     24  C   UNL A   1      32.239  28.079  23.354  1.00  0.00    -0.007 C 
ATOM     25  C   UNL A   1      33.422  29.037  23.355  1.00  0.00     0.014 C 
ATOM     26  C   UNL A   1      30.911  28.779  23.522  1.00  0.00     0.014 C 
ENDBRANCH  12  20
ENDBRANCH  10  11
ENDBRANCH   9  10
ENDBRANCH   7   9
ENDBRANCH   6   7
ENDBRANCH   5   6
ENDBRANCH   4   5
ENDBRANCH   3   4
ENDBRANCH   2   3
ENDBRANCH   1   2
BRANCH   1  27
ATOM     27  O   UNL A   1      32.530  35.209  29.938  1.00  0.00    -0.377 OA
BRANCH  27  28
ATOM     28  C   UNL A   1      32.675  36.040  31.058  1.00  0.00     0.188 C 
BRANCH  28  29
ATOM     29  C   UNL A   1      33.361  35.450  32.298  1.00  0.00     0.188 C 
BRANCH  29  30
ATOM     30  O   UNL A   1      33.826  34.127  32.104  1.00  0.00    -0.376 OA
BRANCH  30  31
ATOM     31  C   UNL A   1      35.227  33.901  32.106  1.00  0.00     0.202 C 
BRANCH  31  32
ATOM     32  C   UNL A   1      35.840  32.751  31.285  1.00  0.00     0.261 C 
BRANCH  32  33
ATOM     33  O   UNL A   1      37.200  32.941  30.853  1.00  0.00    -0.460 OA
BRANCH  33  34
ATOM     34  C   UNL A   1      37.668  32.370  29.711  1.00  0.00     0.338 C 
ATOM     35  O   UNL A   1      37.623  32.826  28.601  1.00  0.00    -0.246 OA
BRANCH  34  36
ATOM     36  C   UNL A   1      38.591  31.279  30.177  1.00  0.00     0.060 A 
ATOM     37  C   UNL A   1      39.951  31.517  30.400  1.00  0.00     0.016 A 
ATOM     38  C   UNL A   1      38.138  29.966  29.962  1.00  0.00     0.016 A 
ATOM     39  C   UNL A   1      40.858  30.474  30.199  1.00  0.00     0.010 A 
ATOM     40  C   UNL A   1      39.052  28.928  29.744  1.00  0.00     0.010 A 
ATOM     41  C   UNL A   1      40.420  29.187  29.799  1.00  0.00    -0.014 A 
BRANCH  41  42
ATOM     42  C   UNL A   1      41.428  28.106  29.786  1.00  0.00     0.031 A 
ATOM     43  C   UNL A   1      41.985  27.949  31.154  1.00  0.00     0.074 A 
ATOM     44  C   UNL A   1      41.771  27.218  28.824  1.00  0.00     0.049 A 
ATOM     45  N   UNL A   1      43.198  28.131  31.560  1.00  0.00    -0.248 NA
ATOM     46  C   UNL A   1      40.993  27.771  32.231  1.00  0.00     0.031 C 
ATOM     47  C   UNL A   1      41.146  27.005  27.518  1.00  0.00     0.029 A 
ATOM     48  N   UNL A   1      42.753  26.250  28.848  1.00  0.00    -0.354 N 
ATOM     49  C   UNL A   1      43.141  27.936  32.935  1.00  0.00     0.074 A 
ATOM     50  C   UNL A   1      41.754  27.919  33.311  1.00  0.00     0.031 C 
ATOM     51  C   UNL A   1      41.636  25.874  26.959  1.00  0.00     0.029 A 
ATOM     52  C   UNL A   1      42.661  25.309  27.823  1.00  0.00     0.049 A 
ATOM     53  H   UNL A   1      43.460  26.224  29.532  1.00  0.00     0.167 HD
ATOM     54  C   UNL A   1      44.221  27.513  33.638  1.00  0.00     0.037 A 
ATOM     55  C   UNL A   1      43.319  24.121  27.721  1.00  0.00     0.037 A 
ATOM     56  C   UNL A   1      45.451  27.792  32.954  1.00  0.00     0.049 A 
ATOM     57  C   UNL A   1      44.493  24.172  28.622  1.00  0.00     0.074 A 
ATOM     58  C   UNL A   1      46.120  28.932  32.562  1.00  0.00     0.029 A 
ATOM     59  N   UNL A   1      46.025  26.753  32.270  1.00  0.00    -0.354 N 
ATOM     60  N   UNL A   1      45.555  24.897  28.417  1.00  0.00    -0.248 NA
ATOM     61  C   UNL A   1      44.347  23.643  29.969  1.00  0.00     0.031 C 
ATOM     62  C   UNL A   1      46.808  28.578  31.365  1.00  0.00     0.029 A 
ATOM     63  C   UNL A   1      46.547  27.233  31.100  1.00  0.00     0.049 A 
ATOM     64  H   UNL A   1      46.055  25.817  32.571  1.00  0.00     0.167 HD
ATOM     65  C   UNL A   1      45.967  25.272  29.685  1.00  0.00     0.074 A 
ATOM     66  C   UNL A   1      45.275  24.369  30.595  1.00  0.00     0.031 C 
ATOM     67  C   UNL A   1      46.608  26.459  29.882  1.00  0.00     0.037 A 
BRANCH  54  68
ATOM     68  C   UNL A   1      44.096  26.471  34.718  1.00  0.00     0.064 A 
ATOM     69  C   UNL A   1      44.556  26.758  36.013  1.00  0.00     0.173 A 
ATOM     70  C   UNL A   1      43.807  25.108  34.459  1.00  0.00     0.173 A 
ATOM     71  F   UNL A   1      44.916  28.006  36.346  1.00  0.00    -0.203 F 
ATOM     72  C   UNL A   1      44.745  25.750  36.964  1.00  0.00     0.198 A 
ATOM     73  C   UNL A   1      43.932  24.119  35.428  1.00  0.00     0.198 A 
ATOM     74  F   UNL A   1      43.512  24.660  33.233  1.00  0.00    -0.203 F 
ATOM     75  F   UNL A   1      45.300  26.050  38.146  1.00  0.00    -0.200 F 
ATOM     76  C   UNL A   1      44.427  24.435  36.672  1.00  0.00     0.200 A 
ATOM     77  F   UNL A   1      43.650  22.848  35.109  1.00  0.00    -0.200 F 
ATOM     78  F   UNL A   1      44.654  23.463  37.566  1.00  0.00    -0.200 F 
ENDBRANCH  54  68
BRANCH  55  79
ATOM     79  C   UNL A   1      42.879  22.834  27.103  1.00  0.00     0.064 A 
ATOM     80  C   UNL A   1      43.605  22.231  26.055  1.00  0.00     0.173 A 
ATOM     81  C   UNL A   1      41.902  22.024  27.713  1.00  0.00     0.173 A 
ATOM     82  F   UNL A   1      44.586  22.903  25.435  1.00  0.00    -0.203 F 
ATOM     83  C   UNL A   1      43.389  20.899  25.674  1.00  0.00     0.198 A 
ATOM     84  C   UNL A   1      41.679  20.701  27.323  1.00  0.00     0.198 A 
ATOM     85  F   UNL A   1      41.207  22.463  28.770  1.00  0.00    -0.203 F 
ATOM     86  F   UNL A   1      44.151  20.341  24.721  1.00  0.00    -0.200 F 
ATOM     87  C   UNL A   1      42.433  20.132  26.317  1.00  0.00     0.200 A 
ATOM     88  F   UNL A   1      40.771  19.964  27.977  1.00  0.00    -0.200 F 
ATOM     89  F   UNL A   1      42.267  18.840  25.999  1.00  0.00    -0.200 F 
ENDBRANCH  55  79
BRANCH  67  90
ATOM     90  C   UNL A   1      47.238  27.116  28.689  1.00  0.00     0.064 A 
ATOM     91  C   UNL A   1      46.628  28.115  27.913  1.00  0.00     0.173 A 
ATOM     92  C   UNL A   1      48.573  26.792  28.398  1.00  0.00     0.173 A 
ATOM     93  F   UNL A   1      45.389  28.548  28.185  1.00  0.00    -0.203 F 
ATOM     94  C   UNL A   1      47.317  28.726  26.866  1.00  0.00     0.198 A 
ATOM     95  C   UNL A   1      49.272  27.443  27.388  1.00  0.00     0.198 A 
ATOM     96  F   UNL A   1      49.214  25.869  29.132  1.00  0.00    -0.203 F 
ATOM     97  F   UNL A   1      46.703  29.649  26.111  1.00  0.00    -0.200 F 
ATOM     98  C   UNL A   1      48.642  28.404  26.616  1.00  0.00     0.200 A 
ATOM     99  F   UNL A   1      50.563  27.152  27.179  1.00  0.00    -0.200 F 
ATOM    100  F   UNL A   1      49.317  29.032  25.643  1.00  0.00    -0.200 F 
ENDBRANCH  67  90
ENDBRANCH  41  42
ENDBRANCH  34  36
ENDBRANCH  33  34
ENDBRANCH  32  33
ENDBRANCH  31  32
ENDBRANCH  30  31
ENDBRANCH  29  30
ENDBRANCH  28  29
ENDBRANCH  27  28
ENDBRANCH   1  27
TORSDOF 23
ENDMDL
