MODEL 1
REMARK VINA RESULT:     -13.9      0.000      0.000
REMARK SMILES O=C(OCCOCCOCCOCCOC(=O)[C@@H]1C[NH2+]CCN1C(=O)N[C@@H]1CCOC1)c1ccc(-c2c3nc(c(-c4c(F)c(F)c(F)c(F)c4F)c4ccc([nH]4)c(-c4c(F)c(F)c(F)c(F)c4F)c4nc(c(-c5c(F)c(F)c(F)c(F)c5F)c5ccc2[nH]5)C=C4)C=C3)cc1
REMARK SMILES IDX 9 1 8 2 7 3 6 4 5 5 4 6 3 7 2 8 1 9 32 10 33 11 94 12 34 13
REMARK SMILES IDX 93 14 35 15 36 16 37 17 87 18 38 19 92 20 86 21 88 22 39 23
REMARK SMILES IDX 91 24 85 25 84 26 40 28 72 29 52 30 71 31 53 32 56 33 70 34
REMARK SMILES IDX 89 35 54 36 55 37 69 39 90 40 57 41 41 42 42 43 50 44 43 45
REMARK SMILES IDX 44 46 48 47 51 48 45 49 46 50 49 51 47 52 73 53 74 54 82 55
REMARK SMILES IDX 75 56 76 57 80 58 83 59 77 60 78 61 81 62 79 63 58 64 59 65
REMARK SMILES IDX 67 66 60 67 61 68 65 69 68 70 62 71 63 72 66 73 64 74 10 75
REMARK SMILES IDX 11 76 12 77 13 78 14 79 15 80 16 81 17 82 18 83 19 84 23 85
REMARK SMILES IDX 20 86 22 87 21 88 24 91 25 92 26 93 27 95 28 96 31 97 29 98
REMARK SMILES IDX 30 99
REMARK H PARENT 88 27 56 38 20 89 20 90 26 94
REMARK Flexibility Score: inf
ROOT
ATOM      1  O   UNL A   1      29.382  27.046  24.117  1.00  0.00    -0.377 OA
ENDROOT
BRANCH   1   2
ATOM      2  C   UNL A   1      29.599  28.009  23.082  1.00  0.00     0.188 C 
BRANCH   2   3
ATOM      3  C   UNL A   1      30.604  29.171  23.123  1.00  0.00     0.188 C 
BRANCH   3   4
ATOM      4  O   UNL A   1      30.417  30.077  24.184  1.00  0.00    -0.376 OA
BRANCH   4   5
ATOM      5  C   UNL A   1      31.094  29.841  25.412  1.00  0.00     0.202 C 
BRANCH   5   6
ATOM      6  C   UNL A   1      31.635  31.061  26.151  1.00  0.00     0.261 C 
BRANCH   6   7
ATOM      7  O   UNL A   1      33.022  30.964  26.500  1.00  0.00    -0.460 OA
BRANCH   7   8
ATOM      8  C   UNL A   1      33.722  31.743  27.356  1.00  0.00     0.338 C 
ATOM      9  O   UNL A   1      33.332  32.887  27.578  1.00  0.00    -0.246 OA
BRANCH   8  10
ATOM     10  C   UNL A   1      34.946  31.295  28.070  1.00  0.00     0.060 A 
ATOM     11  C   UNL A   1      35.265  29.971  28.366  1.00  0.00     0.016 A 
ATOM     12  C   UNL A   1      35.911  32.275  28.323  1.00  0.00     0.016 A 
ATOM     13  C   UNL A   1      36.438  29.620  28.996  1.00  0.00     0.010 A 
ATOM     14  C   UNL A   1      37.137  31.929  28.891  1.00  0.00     0.010 A 
ATOM     15  C   UNL A   1      37.381  30.599  29.259  1.00  0.00    -0.014 A 
BRANCH  15  16
ATOM     16  C   UNL A   1      38.523  30.217  30.093  1.00  0.00     0.031 A 
ATOM     17  C   UNL A   1      39.545  29.328  29.471  1.00  0.00     0.074 A 
ATOM     18  C   UNL A   1      38.691  30.775  31.305  1.00  0.00     0.049 A 
ATOM     19  N   UNL A   1      40.560  28.726  30.020  1.00  0.00    -0.248 NA
ATOM     20  C   UNL A   1      39.401  29.076  28.023  1.00  0.00     0.031 C 
ATOM     21  C   UNL A   1      37.822  31.797  31.898  1.00  0.00     0.029 A 
ATOM     22  N   UNL A   1      39.661  30.578  32.246  1.00  0.00    -0.354 N 
ATOM     23  C   UNL A   1      41.137  27.983  29.003  1.00  0.00     0.074 A 
ATOM     24  C   UNL A   1      40.358  28.191  27.806  1.00  0.00     0.031 C 
ATOM     25  C   UNL A   1      38.305  32.139  33.102  1.00  0.00     0.029 A 
ATOM     26  C   UNL A   1      39.450  31.289  33.401  1.00  0.00     0.049 A 
ATOM     27  H   UNL A   1      40.436  29.985  32.109  1.00  0.00     0.167 HD
ATOM     28  C   UNL A   1      42.224  27.189  29.086  1.00  0.00     0.037 A 
ATOM     29  C   UNL A   1      40.082  31.197  34.583  1.00  0.00     0.037 A 
ATOM     30  C   UNL A   1      42.971  27.029  30.302  1.00  0.00     0.049 A 
ATOM     31  C   UNL A   1      41.208  30.201  34.685  1.00  0.00     0.074 A 
ATOM     32  C   UNL A   1      44.066  26.226  30.544  1.00  0.00     0.029 A 
ATOM     33  N   UNL A   1      42.685  27.699  31.487  1.00  0.00    -0.354 N 
ATOM     34  N   UNL A   1      41.715  29.427  33.753  1.00  0.00    -0.248 NA
ATOM     35  C   UNL A   1      41.842  30.055  35.998  1.00  0.00     0.031 C 
ATOM     36  C   UNL A   1      44.390  26.345  31.897  1.00  0.00     0.029 A 
ATOM     37  C   UNL A   1      43.563  27.299  32.475  1.00  0.00     0.049 A 
ATOM     38  H   UNL A   1      41.963  28.358  31.603  1.00  0.00     0.167 HD
ATOM     39  C   UNL A   1      42.752  28.732  34.354  1.00  0.00     0.074 A 
ATOM     40  C   UNL A   1      42.809  29.190  35.729  1.00  0.00     0.031 C 
ATOM     41  C   UNL A   1      43.588  27.801  33.827  1.00  0.00     0.037 A 
BRANCH  28  42
ATOM     42  C   UNL A   1      42.589  26.387  27.876  1.00  0.00     0.064 A 
ATOM     43  C   UNL A   1      43.470  26.863  26.892  1.00  0.00     0.173 A 
ATOM     44  C   UNL A   1      42.021  25.118  27.689  1.00  0.00     0.173 A 
ATOM     45  F   UNL A   1      44.010  28.086  27.002  1.00  0.00    -0.203 F 
ATOM     46  C   UNL A   1      43.746  26.107  25.755  1.00  0.00     0.198 A 
ATOM     47  C   UNL A   1      42.330  24.350  26.573  1.00  0.00     0.198 A 
ATOM     48  F   UNL A   1      41.155  24.625  28.588  1.00  0.00    -0.203 F 
ATOM     49  F   UNL A   1      44.534  26.610  24.795  1.00  0.00    -0.200 F 
ATOM     50  C   UNL A   1      43.186  24.848  25.602  1.00  0.00     0.200 A 
ATOM     51  F   UNL A   1      41.791  23.131  26.430  1.00  0.00    -0.200 F 
ATOM     52  F   UNL A   1      43.459  24.120  24.511  1.00  0.00    -0.200 F 
ENDBRANCH  28  42
BRANCH  29  53
ATOM     53  C   UNL A   1      39.628  31.989  35.759  1.00  0.00     0.064 A 
ATOM     54  C   UNL A   1      38.618  31.516  36.608  1.00  0.00     0.173 A 
ATOM     55  C   UNL A   1      40.154  33.263  36.030  1.00  0.00     0.173 A 
ATOM     56  F   UNL A   1      38.070  30.312  36.388  1.00  0.00    -0.203 F 
ATOM     57  C   UNL A   1      38.122  32.301  37.647  1.00  0.00     0.198 A 
ATOM     58  C   UNL A   1      39.686  34.029  37.095  1.00  0.00     0.198 A 
ATOM     59  F   UNL A   1      41.125  33.772  35.256  1.00  0.00    -0.203 F 
ATOM     60  F   UNL A   1      37.100  31.853  38.391  1.00  0.00    -0.200 F 
ATOM     61  C   UNL A   1      38.657  33.556  37.892  1.00  0.00     0.200 A 
ATOM     62  F   UNL A   1      40.223  35.234  37.338  1.00  0.00    -0.200 F 
ATOM     63  F   UNL A   1      38.171  34.314  38.883  1.00  0.00    -0.200 F 
ENDBRANCH  29  53
BRANCH  41  64
ATOM     64  C   UNL A   1      44.671  27.277  34.721  1.00  0.00     0.064 A 
ATOM     65  C   UNL A   1      45.916  27.910  34.832  1.00  0.00     0.173 A 
ATOM     66  C   UNL A   1      44.427  26.150  35.524  1.00  0.00     0.173 A 
ATOM     67  F   UNL A   1      46.199  28.984  34.079  1.00  0.00    -0.203 F 
ATOM     68  C   UNL A   1      46.893  27.410  35.686  1.00  0.00     0.198 A 
ATOM     69  C   UNL A   1      45.388  25.686  36.413  1.00  0.00     0.198 A 
ATOM     70  F   UNL A   1      43.244  25.519  35.464  1.00  0.00    -0.203 F 
ATOM     71  F   UNL A   1      48.101  27.989  35.728  1.00  0.00    -0.200 F 
ATOM     72  C   UNL A   1      46.625  26.308  36.484  1.00  0.00     0.200 A 
ATOM     73  F   UNL A   1      45.113  24.640  37.204  1.00  0.00    -0.200 F 
ATOM     74  F   UNL A   1      47.561  25.840  37.320  1.00  0.00    -0.200 F 
ENDBRANCH  41  64
ENDBRANCH  15  16
ENDBRANCH   8  10
ENDBRANCH   7   8
ENDBRANCH   6   7
ENDBRANCH   5   6
ENDBRANCH   4   5
ENDBRANCH   3   4
ENDBRANCH   2   3
ENDBRANCH   1   2
BRANCH   1  75
ATOM     75  C   UNL A   1      30.417  26.384  24.916  1.00  0.00     0.188 C 
BRANCH  75  76
ATOM     76  C   UNL A   1      31.411  27.051  26.759  1.00  0.00     0.188 C 
BRANCH  76  77
ATOM     77  O   UNL A   1      33.322  26.906  26.324  1.00  0.00    -0.376 OA
BRANCH  77  78
ATOM     78  C   UNL A   1      33.714  27.735  24.660  1.00  0.00     0.202 C 
BRANCH  78  79
ATOM     79  C   UNL A   1      33.481  26.910  22.940  1.00  0.00     0.261 C 
BRANCH  79  80
ATOM     80  O   UNL A   1      33.819  25.222  22.399  1.00  0.00    -0.462 OA
BRANCH  80  81
ATOM     81  C   UNL A   1      33.594  23.769  22.597  1.00  0.00     0.334 C 
ATOM     82  O   UNL A   1      33.726  23.105  21.552  1.00  0.00    -0.250 OA
BRANCH  81  83
ATOM     83  C   UNL A   1      33.241  22.699  24.107  1.00  0.00     0.252 C 
ATOM     84  C   UNL A   1      32.817  23.807  25.174  1.00  0.00     0.298 C 
ATOM     85  N   UNL A   1      34.033  21.367  25.147  1.00  0.00    -0.300 N 
ATOM     86  N   UNL A   1      32.099  23.287  26.347  1.00  0.00    -0.343 N 
ATOM     87  C   UNL A   1      33.241  21.023  26.313  1.00  0.00     0.183 C 
ATOM     88  C   UNL A   1      32.888  22.296  27.102  1.00  0.00     0.282 C 
ATOM     89  H   UNL A   1      31.235  22.846  26.032  1.00  0.00     0.346 HD
ATOM     90  H   UNL A   1      31.915  24.074  26.970  1.00  0.00     0.346 HD
BRANCH  85  91
ATOM     91  C   UNL A   1      35.765  20.870  25.333  1.00  0.00     0.318 C 
ATOM     92  O   UNL A   1      36.601  21.426  26.026  1.00  0.00    -0.249 OA
ATOM     93  N   UNL A   1      35.855  19.132  24.621  1.00  0.00    -0.333 N 
ATOM     94  H   UNL A   1      36.713  18.723  24.365  1.00  0.00     0.165 HD
BRANCH  93  95
ATOM     95  C   UNL A   1      34.047  18.111  24.397  1.00  0.00     0.112 C 
ATOM     96  C   UNL A   1      32.891  17.469  25.556  1.00  0.00     0.056 C 
ATOM     97  C   UNL A   1      33.722  16.570  23.594  1.00  0.00     0.185 C 
ATOM     98  C   UNL A   1      33.102  15.978  25.729  1.00  0.00     0.162 C 
ATOM     99  O   UNL A   1      33.638  15.489  24.528  1.00  0.00    -0.379 OA
ENDBRANCH  93  95
ENDBRANCH  85  91
ENDBRANCH  81  83
ENDBRANCH  80  81
ENDBRANCH  79  80
ENDBRANCH  78  79
ENDBRANCH  77  78
ENDBRANCH  76  77
ENDBRANCH  75  76
ENDBRANCH   1  75
TORSDOF 22
ENDMDL
MODEL 2
REMARK VINA RESULT:     -13.1      1.179      2.175
REMARK SMILES O=C(OCCOCCOCCOCCOC(=O)[C@@H]1C[NH2+]CCN1C(=O)N[C@@H]1CCOC1)c1ccc(-c2c3nc(c(-c4c(F)c(F)c(F)c(F)c4F)c4ccc([nH]4)c(-c4c(F)c(F)c(F)c(F)c4F)c4nc(c(-c5c(F)c(F)c(F)c(F)c5F)c5ccc2[nH]5)C=C4)C=C3)cc1
REMARK SMILES IDX 9 1 8 2 7 3 6 4 5 5 4 6 3 7 2 8 1 9 32 10 33 11 94 12 34 13
REMARK SMILES IDX 93 14 35 15 36 16 37 17 87 18 38 19 92 20 86 21 88 22 39 23
REMARK SMILES IDX 91 24 85 25 84 26 40 28 72 29 52 30 71 31 53 32 56 33 70 34
REMARK SMILES IDX 89 35 54 36 55 37 69 39 90 40 57 41 41 42 42 43 50 44 43 45
REMARK SMILES IDX 44 46 48 47 51 48 45 49 46 50 49 51 47 52 73 53 74 54 82 55
REMARK SMILES IDX 75 56 76 57 80 58 83 59 77 60 78 61 81 62 79 63 58 64 59 65
REMARK SMILES IDX 67 66 60 67 61 68 65 69 68 70 62 71 63 72 66 73 64 74 10 75
REMARK SMILES IDX 11 76 12 77 13 78 14 79 15 80 16 81 17 82 18 83 19 84 23 85
REMARK SMILES IDX 20 86 22 87 21 88 24 91 25 92 26 93 27 95 28 96 31 97 29 98
REMARK SMILES IDX 30 99
REMARK H PARENT 88 27 56 38 20 89 20 90 26 94
REMARK Flexibility Score: inf
ROOT
ATOM      1  O   UNL A   1      29.045  27.296  23.400  1.00  0.00    -0.377 OA
ENDROOT
BRANCH   1   2
ATOM      2  C   UNL A   1      29.205  28.717  23.344  1.00  0.00     0.188 C 
BRANCH   2   3
ATOM      3  C   UNL A   1      30.449  29.468  22.845  1.00  0.00     0.188 C 
BRANCH   3   4
ATOM      4  O   UNL A   1      31.462  29.638  23.806  1.00  0.00    -0.376 OA
BRANCH   4   5
ATOM      5  C   UNL A   1      31.103  29.656  25.182  1.00  0.00     0.202 C 
BRANCH   5   6
ATOM      6  C   UNL A   1      31.632  30.815  26.021  1.00  0.00     0.261 C 
BRANCH   6   7
ATOM      7  O   UNL A   1      32.939  30.593  26.565  1.00  0.00    -0.460 OA
BRANCH   7   8
ATOM      8  C   UNL A   1      33.675  31.427  27.335  1.00  0.00     0.338 C 
ATOM      9  O   UNL A   1      33.299  32.588  27.487  1.00  0.00    -0.246 OA
BRANCH   8  10
ATOM     10  C   UNL A   1      34.922  31.023  28.035  1.00  0.00     0.060 A 
ATOM     11  C   UNL A   1      35.259  29.718  28.390  1.00  0.00     0.016 A 
ATOM     12  C   UNL A   1      35.888  32.021  28.208  1.00  0.00     0.016 A 
ATOM     13  C   UNL A   1      36.452  29.407  29.002  1.00  0.00     0.010 A 
ATOM     14  C   UNL A   1      37.132  31.710  28.756  1.00  0.00     0.010 A 
ATOM     15  C   UNL A   1      37.395  30.403  29.186  1.00  0.00    -0.014 A 
BRANCH  15  16
ATOM     16  C   UNL A   1      38.564  30.072  30.005  1.00  0.00     0.031 A 
ATOM     17  C   UNL A   1      39.601  29.202  29.379  1.00  0.00     0.074 A 
ATOM     18  C   UNL A   1      38.738  30.656  31.203  1.00  0.00     0.049 A 
ATOM     19  N   UNL A   1      40.644  28.642  29.919  1.00  0.00    -0.248 NA
ATOM     20  C   UNL A   1      39.438  28.920  27.939  1.00  0.00     0.031 C 
ATOM     21  C   UNL A   1      37.849  31.661  31.795  1.00  0.00     0.029 A 
ATOM     22  N   UNL A   1      39.731  30.506  32.128  1.00  0.00    -0.354 N 
ATOM     23  C   UNL A   1      41.225  27.898  28.904  1.00  0.00     0.074 A 
ATOM     24  C   UNL A   1      40.418  28.061  27.718  1.00  0.00     0.031 C 
ATOM     25  C   UNL A   1      38.344  32.040  32.984  1.00  0.00     0.029 A 
ATOM     26  C   UNL A   1      39.519  31.231  33.275  1.00  0.00     0.049 A 
ATOM     27  H   UNL A   1      40.521  29.934  31.987  1.00  0.00     0.167 HD
ATOM     28  C   UNL A   1      42.337  27.139  28.980  1.00  0.00     0.037 A 
ATOM     29  C   UNL A   1      40.176  31.180  34.446  1.00  0.00     0.037 A 
ATOM     30  C   UNL A   1      43.112  27.024  30.184  1.00  0.00     0.049 A 
ATOM     31  C   UNL A   1      41.334  30.220  34.544  1.00  0.00     0.074 A 
ATOM     32  C   UNL A   1      44.235  26.259  30.419  1.00  0.00     0.029 A 
ATOM     33  N   UNL A   1      42.827  27.706  31.362  1.00  0.00    -0.354 N 
ATOM     34  N   UNL A   1      41.847  29.445  33.616  1.00  0.00    -0.248 NA
ATOM     35  C   UNL A   1      41.996  30.117  35.847  1.00  0.00     0.031 C 
ATOM     36  C   UNL A   1      44.580  26.413  31.764  1.00  0.00     0.029 A 
ATOM     37  C   UNL A   1      43.735  27.351  32.340  1.00  0.00     0.049 A 
ATOM     38  H   UNL A   1      42.088  28.346  31.481  1.00  0.00     0.167 HD
ATOM     39  C   UNL A   1      42.916  28.793  34.209  1.00  0.00     0.074 A 
ATOM     40  C   UNL A   1      42.984  29.277  35.574  1.00  0.00     0.031 C 
ATOM     41  C   UNL A   1      43.770  27.878  33.683  1.00  0.00     0.037 A 
BRANCH  28  42
ATOM     42  C   UNL A   1      42.704  26.327  27.778  1.00  0.00     0.064 A 
ATOM     43  C   UNL A   1      42.169  25.052  27.536  1.00  0.00     0.173 A 
ATOM     44  C   UNL A   1      43.635  26.832  26.858  1.00  0.00     0.173 A 
ATOM     45  F   UNL A   1      41.305  24.504  28.405  1.00  0.00    -0.203 F 
ATOM     46  C   UNL A   1      42.573  24.305  26.432  1.00  0.00     0.198 A 
ATOM     47  C   UNL A   1      44.006  26.100  25.735  1.00  0.00     0.198 A 
ATOM     48  F   UNL A   1      44.194  28.036  27.054  1.00  0.00    -0.203 F 
ATOM     49  F   UNL A   1      42.103  23.062  26.259  1.00  0.00    -0.200 F 
ATOM     50  C   UNL A   1      43.482  24.834  25.527  1.00  0.00     0.200 A 
ATOM     51  F   UNL A   1      44.880  26.616  24.861  1.00  0.00    -0.200 F 
ATOM     52  F   UNL A   1      43.863  24.117  24.462  1.00  0.00    -0.200 F 
ENDBRANCH  28  42
BRANCH  29  53
ATOM     53  C   UNL A   1      39.720  31.979  35.616  1.00  0.00     0.064 A 
ATOM     54  C   UNL A   1      38.640  31.560  36.406  1.00  0.00     0.173 A 
ATOM     55  C   UNL A   1      40.317  33.208  35.939  1.00  0.00     0.173 A 
ATOM     56  F   UNL A   1      38.023  30.401  36.134  1.00  0.00    -0.203 F 
ATOM     57  C   UNL A   1      38.148  32.357  37.438  1.00  0.00     0.198 A 
ATOM     58  C   UNL A   1      39.850  33.985  36.999  1.00  0.00     0.198 A 
ATOM     59  F   UNL A   1      41.356  33.664  35.224  1.00  0.00    -0.203 F 
ATOM     60  F   UNL A   1      37.064  31.967  38.122  1.00  0.00    -0.200 F 
ATOM     61  C   UNL A   1      38.755  33.568  37.735  1.00  0.00     0.200 A 
ATOM     62  F   UNL A   1      40.455  35.144  37.292  1.00  0.00    -0.200 F 
ATOM     63  F   UNL A   1      38.273  34.339  38.718  1.00  0.00    -0.200 F 
ENDBRANCH  29  53
BRANCH  41  64
ATOM     64  C   UNL A   1      44.885  27.403  34.565  1.00  0.00     0.064 A 
ATOM     65  C   UNL A   1      44.772  26.252  35.354  1.00  0.00     0.173 A 
ATOM     66  C   UNL A   1      46.110  28.090  34.568  1.00  0.00     0.173 A 
ATOM     67  F   UNL A   1      43.619  25.567  35.390  1.00  0.00    -0.203 F 
ATOM     68  C   UNL A   1      45.832  25.826  36.145  1.00  0.00     0.198 A 
ATOM     69  C   UNL A   1      47.183  27.632  35.321  1.00  0.00     0.198 A 
ATOM     70  F   UNL A   1      46.272  29.191  33.817  1.00  0.00    -0.203 F 
ATOM     71  F   UNL A   1      45.682  24.761  36.945  1.00  0.00    -0.200 F 
ATOM     72  C   UNL A   1      47.040  26.508  36.120  1.00  0.00     0.200 A 
ATOM     73  F   UNL A   1      48.357  28.276  35.269  1.00  0.00    -0.200 F 
ATOM     74  F   UNL A   1      48.067  26.084  36.869  1.00  0.00    -0.200 F 
ENDBRANCH  41  64
ENDBRANCH  15  16
ENDBRANCH   8  10
ENDBRANCH   7   8
ENDBRANCH   6   7
ENDBRANCH   5   6
ENDBRANCH   4   5
ENDBRANCH   3   4
ENDBRANCH   2   3
ENDBRANCH   1   2
BRANCH   1  75
ATOM     75  C   UNL A   1      30.098  26.316  23.674  1.00  0.00     0.188 C 
BRANCH  75  76
ATOM     76  C   UNL A   1      30.351  24.967  25.391  1.00  0.00     0.188 C 
BRANCH  76  77
ATOM     77  O   UNL A   1      30.853  26.179  26.854  1.00  0.00    -0.376 OA
BRANCH  77  78
ATOM     78  C   UNL A   1      32.538  26.995  26.523  1.00  0.00     0.202 C 
BRANCH  78  79
ATOM     79  C   UNL A   1      33.537  26.827  24.891  1.00  0.00     0.261 C 
BRANCH  79  80
ATOM     80  O   UNL A   1      34.636  25.512  24.324  1.00  0.00    -0.462 OA
BRANCH  80  81
ATOM     81  C   UNL A   1      34.933  24.059  24.266  1.00  0.00     0.334 C 
ATOM     82  O   UNL A   1      35.962  23.744  24.894  1.00  0.00    -0.250 OA
BRANCH  81  83
ATOM     83  C   UNL A   1      34.043  22.575  23.522  1.00  0.00     0.252 C 
ATOM     84  C   UNL A   1      33.182  23.277  22.377  1.00  0.00     0.298 C 
ATOM     85  N   UNL A   1      32.990  21.121  24.034  1.00  0.00    -0.300 N 
ATOM     86  N   UNL A   1      32.669  22.363  21.346  1.00  0.00    -0.343 N 
ATOM     87  C   UNL A   1      32.491  20.366  22.900  1.00  0.00     0.183 C 
ATOM     88  C   UNL A   1      31.798  21.312  21.904  1.00  0.00     0.282 C 
ATOM     89  H   UNL A   1      33.460  21.918  20.880  1.00  0.00     0.346 HD
ATOM     90  H   UNL A   1      32.110  22.914  20.695  1.00  0.00     0.346 HD
BRANCH  85  91
ATOM     91  C   UNL A   1      32.015  20.822  25.531  1.00  0.00     0.318 C 
ATOM     92  O   UNL A   1      31.003  21.419  25.859  1.00  0.00    -0.249 OA
ATOM     93  N   UNL A   1      32.621  19.167  26.187  1.00  0.00    -0.333 N 
ATOM     94  H   UNL A   1      32.447  18.884  27.114  1.00  0.00     0.165 HD
BRANCH  93  95
ATOM     95  C   UNL A   1      33.684  17.958  24.857  1.00  0.00     0.112 C 
ATOM     96  C   UNL A   1      33.832  16.214  24.692  1.00  0.00     0.056 C 
ATOM     97  C   UNL A   1      35.424  17.885  24.554  1.00  0.00     0.185 C 
ATOM     98  C   UNL A   1      35.124  15.739  25.328  1.00  0.00     0.162 C 
ATOM     99  O   UNL A   1      36.041  16.798  25.250  1.00  0.00    -0.379 OA
ENDBRANCH  93  95
ENDBRANCH  85  91
ENDBRANCH  81  83
ENDBRANCH  80  81
ENDBRANCH  79  80
ENDBRANCH  78  79
ENDBRANCH  77  78
ENDBRANCH  76  77
ENDBRANCH  75  76
ENDBRANCH   1  75
TORSDOF 22
ENDMDL
MODEL 3
REMARK VINA RESULT:     -12.6      3.247      8.737
REMARK SMILES O=C(OCCOCCOCCOCCOC(=O)[C@@H]1C[NH2+]CCN1C(=O)N[C@@H]1CCOC1)c1ccc(-c2c3nc(c(-c4c(F)c(F)c(F)c(F)c4F)c4ccc([nH]4)c(-c4c(F)c(F)c(F)c(F)c4F)c4nc(c(-c5c(F)c(F)c(F)c(F)c5F)c5ccc2[nH]5)C=C4)C=C3)cc1
REMARK SMILES IDX 9 1 8 2 7 3 6 4 5 5 4 6 3 7 2 8 1 9 32 10 33 11 94 12 34 13
REMARK SMILES IDX 93 14 35 15 36 16 37 17 87 18 38 19 92 20 86 21 88 22 39 23
REMARK SMILES IDX 91 24 85 25 84 26 40 28 72 29 52 30 71 31 53 32 56 33 70 34
REMARK SMILES IDX 89 35 54 36 55 37 69 39 90 40 57 41 41 42 42 43 50 44 43 45
REMARK SMILES IDX 44 46 48 47 51 48 45 49 46 50 49 51 47 52 73 53 74 54 82 55
REMARK SMILES IDX 75 56 76 57 80 58 83 59 77 60 78 61 81 62 79 63 58 64 59 65
REMARK SMILES IDX 67 66 60 67 61 68 65 69 68 70 62 71 63 72 66 73 64 74 10 75
REMARK SMILES IDX 11 76 12 77 13 78 14 79 15 80 16 81 17 82 18 83 19 84 23 85
REMARK SMILES IDX 20 86 22 87 21 88 24 91 25 92 26 93 27 95 28 96 31 97 29 98
REMARK SMILES IDX 30 99
REMARK H PARENT 88 27 56 38 20 89 20 90 26 94
REMARK Flexibility Score: inf
ROOT
ATOM      1  O   UNL A   1      43.510  19.135  24.729  1.00  0.00    -0.377 OA
ENDROOT
BRANCH   1   2
ATOM      2  C   UNL A   1      44.910  19.396  24.585  1.00  0.00     0.188 C 
BRANCH   2   3
ATOM      3  C   UNL A   1      45.545  20.746  24.216  1.00  0.00     0.188 C 
BRANCH   3   4
ATOM      4  O   UNL A   1      46.236  21.380  25.264  1.00  0.00    -0.376 OA
BRANCH   4   5
ATOM      5  C   UNL A   1      45.650  22.522  25.878  1.00  0.00     0.202 C 
BRANCH   5   6
ATOM      6  C   UNL A   1      44.243  22.903  25.430  1.00  0.00     0.261 C 
BRANCH   6   7
ATOM      7  O   UNL A   1      44.167  24.167  24.757  1.00  0.00    -0.460 OA
BRANCH   7   8
ATOM      8  C   UNL A   1      44.579  25.376  25.205  1.00  0.00     0.338 C 
ATOM      9  O   UNL A   1      45.506  25.941  24.629  1.00  0.00    -0.246 OA
BRANCH   8  10
ATOM     10  C   UNL A   1      43.964  26.086  26.355  1.00  0.00     0.060 A 
ATOM     11  C   UNL A   1      44.338  27.348  26.814  1.00  0.00     0.016 A 
ATOM     12  C   UNL A   1      42.824  25.496  26.913  1.00  0.00     0.016 A 
ATOM     13  C   UNL A   1      43.697  27.968  27.863  1.00  0.00     0.010 A 
ATOM     14  C   UNL A   1      42.116  26.145  27.924  1.00  0.00     0.010 A 
ATOM     15  C   UNL A   1      42.581  27.370  28.422  1.00  0.00    -0.014 A 
BRANCH  15  16
ATOM     16  C   UNL A   1      42.047  27.966  29.649  1.00  0.00     0.031 A 
ATOM     17  C   UNL A   1      40.729  28.654  29.545  1.00  0.00     0.074 A 
ATOM     18  C   UNL A   1      42.665  27.761  30.825  1.00  0.00     0.049 A 
ATOM     19  N   UNL A   1      40.107  29.384  30.425  1.00  0.00    -0.248 NA
ATOM     20  C   UNL A   1      40.008  28.500  28.265  1.00  0.00     0.031 C 
ATOM     21  C   UNL A   1      43.863  26.938  31.023  1.00  0.00     0.029 A 
ATOM     22  N   UNL A   1      42.360  28.208  32.078  1.00  0.00    -0.354 N 
ATOM     23  C   UNL A   1      38.957  29.822  29.787  1.00  0.00     0.074 A 
ATOM     24  C   UNL A   1      38.966  29.294  28.445  1.00  0.00     0.031 C 
ATOM     25  C   UNL A   1      44.186  26.938  32.325  1.00  0.00     0.029 A 
ATOM     26  C   UNL A   1      43.282  27.839  33.026  1.00  0.00     0.049 A 
ATOM     27  H   UNL A   1      41.558  28.743  32.281  1.00  0.00     0.167 HD
ATOM     28  C   UNL A   1      37.990  30.610  30.299  1.00  0.00     0.037 A 
ATOM     29  C   UNL A   1      43.402  28.251  34.300  1.00  0.00     0.037 A 
ATOM     30  C   UNL A   1      38.024  31.097  31.649  1.00  0.00     0.049 A 
ATOM     31  C   UNL A   1      42.381  29.239  34.802  1.00  0.00     0.074 A 
ATOM     32  C   UNL A   1      37.136  31.938  32.288  1.00  0.00     0.029 A 
ATOM     33  N   UNL A   1      39.017  30.776  32.568  1.00  0.00    -0.354 N 
ATOM     34  N   UNL A   1      41.332  29.731  34.185  1.00  0.00    -0.248 NA
ATOM     35  C   UNL A   1      42.565  29.740  36.167  1.00  0.00     0.031 C 
ATOM     36  C   UNL A   1      37.637  32.193  33.566  1.00  0.00     0.029 A 
ATOM     37  C   UNL A   1      38.782  31.432  33.761  1.00  0.00     0.049 A 
ATOM     38  H   UNL A   1      39.775  30.172  32.394  1.00  0.00     0.167 HD
ATOM     39  C   UNL A   1      40.706  30.565  35.098  1.00  0.00     0.074 A 
ATOM     40  C   UNL A   1      41.490  30.500  36.316  1.00  0.00     0.031 C 
ATOM     41  C   UNL A   1      39.586  31.318  34.953  1.00  0.00     0.037 A 
BRANCH  28  42
ATOM     42  C   UNL A   1      36.898  31.053  29.375  1.00  0.00     0.064 A 
ATOM     43  C   UNL A   1      36.902  32.308  28.747  1.00  0.00     0.173 A 
ATOM     44  C   UNL A   1      35.807  30.203  29.134  1.00  0.00     0.173 A 
ATOM     45  F   UNL A   1      37.901  33.175  28.974  1.00  0.00    -0.203 F 
ATOM     46  C   UNL A   1      35.844  32.704  27.933  1.00  0.00     0.198 A 
ATOM     47  C   UNL A   1      34.772  30.586  28.289  1.00  0.00     0.198 A 
ATOM     48  F   UNL A   1      35.742  29.001  29.728  1.00  0.00    -0.203 F 
ATOM     49  F   UNL A   1      35.835  33.933  27.400  1.00  0.00    -0.200 F 
ATOM     50  C   UNL A   1      34.785  31.839  27.696  1.00  0.00     0.200 A 
ATOM     51  F   UNL A   1      33.754  29.746  28.059  1.00  0.00    -0.200 F 
ATOM     52  F   UNL A   1      33.772  32.218  26.908  1.00  0.00    -0.200 F 
ENDBRANCH  28  42
BRANCH  29  53
ATOM     53  C   UNL A   1      44.546  27.809  35.143  1.00  0.00     0.064 A 
ATOM     54  C   UNL A   1      44.511  26.589  35.834  1.00  0.00     0.173 A 
ATOM     55  C   UNL A   1      45.678  28.621  35.324  1.00  0.00     0.173 A 
ATOM     56  F   UNL A   1      43.449  25.781  35.710  1.00  0.00    -0.203 F 
ATOM     57  C   UNL A   1      45.537  26.223  36.704  1.00  0.00     0.198 A 
ATOM     58  C   UNL A   1      46.722  28.233  36.161  1.00  0.00     0.198 A 
ATOM     59  F   UNL A   1      45.774  29.799  34.689  1.00  0.00    -0.203 F 
ATOM     60  F   UNL A   1      45.437  25.089  37.411  1.00  0.00    -0.200 F 
ATOM     61  C   UNL A   1      46.643  27.044  36.865  1.00  0.00     0.200 A 
ATOM     62  F   UNL A   1      47.797  29.023  36.297  1.00  0.00    -0.200 F 
ATOM     63  F   UNL A   1      47.622  26.696  37.711  1.00  0.00    -0.200 F 
ENDBRANCH  29  53
BRANCH  41  64
ATOM     64  C   UNL A   1      39.111  32.068  36.161  1.00  0.00     0.064 A 
ATOM     65  C   UNL A   1      38.262  31.487  37.112  1.00  0.00     0.173 A 
ATOM     66  C   UNL A   1      39.568  33.376  36.393  1.00  0.00     0.173 A 
ATOM     67  F   UNL A   1      37.793  30.243  36.930  1.00  0.00    -0.203 F 
ATOM     68  C   UNL A   1      37.856  32.202  38.233  1.00  0.00     0.198 A 
ATOM     69  C   UNL A   1      39.200  34.067  37.539  1.00  0.00     0.198 A 
ATOM     70  F   UNL A   1      40.394  33.970  35.518  1.00  0.00    -0.203 F 
ATOM     71  F   UNL A   1      36.990  31.654  39.097  1.00  0.00    -0.200 F 
ATOM     72  C   UNL A   1      38.334  33.486  38.452  1.00  0.00     0.200 A 
ATOM     73  F   UNL A   1      39.688  35.295  37.762  1.00  0.00    -0.200 F 
ATOM     74  F   UNL A   1      37.956  34.166  39.543  1.00  0.00    -0.200 F 
ENDBRANCH  41  64
ENDBRANCH  15  16
ENDBRANCH   8  10
ENDBRANCH   7   8
ENDBRANCH   6   7
ENDBRANCH   5   6
ENDBRANCH   4   5
ENDBRANCH   3   4
ENDBRANCH   2   3
ENDBRANCH   1   2
BRANCH   1  75
ATOM     75  C   UNL A   1      42.754  19.130  25.984  1.00  0.00     0.188 C 
BRANCH  75  76
ATOM     76  C   UNL A   1      42.571  20.691  27.521  1.00  0.00     0.188 C 
BRANCH  76  77
ATOM     77  O   UNL A   1      40.638  20.768  27.864  1.00  0.00    -0.376 OA
BRANCH  77  78
ATOM     78  C   UNL A   1      39.704  21.496  26.377  1.00  0.00     0.202 C 
BRANCH  78  79
ATOM     79  C   UNL A   1      39.007  23.284  26.287  1.00  0.00     0.261 C 
BRANCH  79  80
ATOM     80  O   UNL A   1      37.591  23.942  25.382  1.00  0.00    -0.462 OA
BRANCH  80  81
ATOM     81  C   UNL A   1      36.122  23.940  25.171  1.00  0.00     0.334 C 
ATOM     82  O   UNL A   1      35.551  24.918  25.689  1.00  0.00    -0.250 OA
BRANCH  81  83
ATOM     83  C   UNL A   1      34.944  22.825  24.211  1.00  0.00     0.252 C 
ATOM     84  C   UNL A   1      34.264  23.878  23.224  1.00  0.00     0.298 C 
ATOM     85  N   UNL A   1      33.603  21.560  24.498  1.00  0.00    -0.300 N 
ATOM     86  N   UNL A   1      33.579  23.282  22.068  1.00  0.00    -0.343 N 
ATOM     87  C   UNL A   1      32.967  21.132  23.266  1.00  0.00     0.183 C 
ATOM     88  C   UNL A   1      32.500  22.358  22.463  1.00  0.00     0.282 C 
ATOM     89  H   UNL A   1      34.262  22.767  21.513  1.00  0.00     0.346 HD
ATOM     90  H   UNL A   1      33.156  24.041  21.534  1.00  0.00     0.346 HD
BRANCH  85  91
ATOM     91  C   UNL A   1      32.572  21.221  25.948  1.00  0.00     0.318 C 
ATOM     92  O   UNL A   1      31.702  21.949  26.395  1.00  0.00    -0.249 OA
ATOM     93  N   UNL A   1      32.817  19.391  26.306  1.00  0.00    -0.333 N 
ATOM     94  H   UNL A   1      32.578  19.000  27.177  1.00  0.00     0.165 HD
BRANCH  93  95
ATOM     95  C   UNL A   1      33.621  18.230  24.768  1.00  0.00     0.112 C 
ATOM     96  C   UNL A   1      33.124  16.708  24.042  1.00  0.00     0.056 C 
ATOM     97  C   UNL A   1      35.217  17.480  24.648  1.00  0.00     0.185 C 
ATOM     98  C   UNL A   1      33.940  15.567  24.615  1.00  0.00     0.162 C 
ATOM     99  O   UNL A   1      35.183  16.093  24.998  1.00  0.00    -0.379 OA
ENDBRANCH  93  95
ENDBRANCH  85  91
ENDBRANCH  81  83
ENDBRANCH  80  81
ENDBRANCH  79  80
ENDBRANCH  78  79
ENDBRANCH  77  78
ENDBRANCH  76  77
ENDBRANCH  75  76
ENDBRANCH   1  75
TORSDOF 22
ENDMDL
