MODEL 1
REMARK VINA RESULT:     -10.0      0.000      0.000
REMARK SMILES O=C(OCCOCCOCCOCCOC(=O)[C@H]1C=NC2=C(CCCC2)C1=O)c1ccc(-c2c3nc(c(-c4c(F)c(F)c(F)c(F)c4F)c4ccc([nH]4)c(-c4c(F)c(F)c(F)c(F)c4F)c4nc(c(-c5c(F)c(F)c(F)c(F)c5F)c5ccc2[nH]5)C=C4)C=C3)cc1
REMARK SMILES IDX 8 1 7 2 6 3 5 4 4 5 3 6 2 7 1 8 29 9 30 10 91 11 31 12 90 13
REMARK SMILES IDX 32 14 33 15 34 16 84 17 35 18 89 19 83 20 85 21 36 22 88 23
REMARK SMILES IDX 82 24 81 25 37 27 69 28 49 29 68 30 50 31 53 32 67 33 86 34
REMARK SMILES IDX 51 35 52 36 66 38 87 39 54 40 38 41 39 42 47 43 40 44 41 45
REMARK SMILES IDX 45 46 48 47 42 48 43 49 46 50 44 51 70 52 71 53 79 54 72 55
REMARK SMILES IDX 73 56 77 57 80 58 74 59 75 60 78 61 76 62 55 63 56 64 64 65
REMARK SMILES IDX 57 66 58 67 62 68 65 69 59 70 60 71 63 72 61 73 9 74 10 75
REMARK SMILES IDX 11 76 12 77 13 78 14 79 15 80 16 81 17 82 18 83 19 84 27 85
REMARK SMILES IDX 20 86 22 87 28 88 21 89 23 90 26 91 24 92 25 93
REMARK H PARENT 85 26 53 37
REMARK Flexibility Score: inf
ROOT
ATOM      1  C   UNL A   1      31.780  28.736  26.472  1.00  0.00     0.188 C 
ENDROOT
BRANCH   1   2
ATOM      2  C   UNL A   1      33.121  29.335  26.870  1.00  0.00     0.188 C 
BRANCH   2   3
ATOM      3  O   UNL A   1      33.072  30.734  26.577  1.00  0.00    -0.376 OA
BRANCH   3   4
ATOM      4  C   UNL A   1      31.832  31.366  26.875  1.00  0.00     0.202 C 
BRANCH   4   5
ATOM      5  C   UNL A   1      31.872  32.880  26.675  1.00  0.00     0.261 C 
BRANCH   5   6
ATOM      6  O   UNL A   1      32.363  33.566  27.837  1.00  0.00    -0.460 OA
BRANCH   6   7
ATOM      7  C   UNL A   1      33.617  34.031  28.064  1.00  0.00     0.338 C 
ATOM      8  O   UNL A   1      33.849  35.215  27.819  1.00  0.00    -0.246 OA
BRANCH   7   9
ATOM      9  C   UNL A   1      34.744  33.208  28.612  1.00  0.00     0.060 A 
ATOM     10  C   UNL A   1      34.624  31.945  29.195  1.00  0.00     0.016 A 
ATOM     11  C   UNL A   1      36.043  33.728  28.457  1.00  0.00     0.016 A 
ATOM     12  C   UNL A   1      35.727  31.234  29.642  1.00  0.00     0.010 A 
ATOM     13  C   UNL A   1      37.166  33.019  28.899  1.00  0.00     0.010 A 
ATOM     14  C   UNL A   1      37.000  31.774  29.511  1.00  0.00    -0.014 A 
BRANCH  14  15
ATOM     15  C   UNL A   1      38.103  31.075  30.192  1.00  0.00     0.031 A 
ATOM     16  C   UNL A   1      38.279  31.320  31.658  1.00  0.00     0.074 A 
ATOM     17  C   UNL A   1      38.802  30.130  29.540  1.00  0.00     0.049 A 
ATOM     18  N   UNL A   1      39.195  30.872  32.471  1.00  0.00    -0.248 NA
ATOM     19  C   UNL A   1      37.262  32.170  32.306  1.00  0.00     0.031 C 
ATOM     20  C   UNL A   1      38.575  29.717  28.154  1.00  0.00     0.029 A 
ATOM     21  N   UNL A   1      39.822  29.322  29.967  1.00  0.00    -0.354 N 
ATOM     22  C   UNL A   1      38.890  31.415  33.711  1.00  0.00     0.074 A 
ATOM     23  C   UNL A   1      37.694  32.210  33.555  1.00  0.00     0.031 C 
ATOM     24  C   UNL A   1      39.430  28.727  27.847  1.00  0.00     0.029 A 
ATOM     25  C   UNL A   1      40.307  28.489  28.987  1.00  0.00     0.049 A 
ATOM     26  H   UNL A   1      40.174  29.337  30.886  1.00  0.00     0.167 HD
ATOM     27  C   UNL A   1      39.571  31.269  34.868  1.00  0.00     0.037 A 
ATOM     28  C   UNL A   1      41.373  27.670  29.013  1.00  0.00     0.037 A 
ATOM     29  C   UNL A   1      40.754  30.462  34.985  1.00  0.00     0.049 A 
ATOM     30  C   UNL A   1      42.177  27.608  30.287  1.00  0.00     0.074 A 
ATOM     31  C   UNL A   1      41.578  30.282  36.078  1.00  0.00     0.029 A 
ATOM     32  N   UNL A   1      41.274  29.693  33.951  1.00  0.00    -0.354 N 
ATOM     33  N   UNL A   1      41.942  28.188  31.442  1.00  0.00    -0.248 NA
ATOM     34  C   UNL A   1      43.405  26.804  30.259  1.00  0.00     0.031 C 
ATOM     35  C   UNL A   1      42.623  29.436  35.691  1.00  0.00     0.029 A 
ATOM     36  C   UNL A   1      42.424  29.053  34.372  1.00  0.00     0.049 A 
ATOM     37  H   UNL A   1      40.881  29.615  33.052  1.00  0.00     0.167 HD
ATOM     38  C   UNL A   1      42.984  27.816  32.278  1.00  0.00     0.074 A 
ATOM     39  C   UNL A   1      43.837  26.934  31.505  1.00  0.00     0.031 C 
ATOM     40  C   UNL A   1      43.230  28.177  33.562  1.00  0.00     0.037 A 
BRANCH  27  41
ATOM     41  C   UNL A   1      39.100  32.063  36.047  1.00  0.00     0.064 A 
ATOM     42  C   UNL A   1      39.552  33.367  36.298  1.00  0.00     0.173 A 
ATOM     43  C   UNL A   1      38.196  31.494  36.956  1.00  0.00     0.173 A 
ATOM     44  F   UNL A   1      40.445  33.942  35.479  1.00  0.00    -0.203 F 
ATOM     45  C   UNL A   1      39.126  34.065  37.428  1.00  0.00     0.198 A 
ATOM     46  C   UNL A   1      37.755  32.201  38.070  1.00  0.00     0.198 A 
ATOM     47  F   UNL A   1      37.746  30.244  36.767  1.00  0.00    -0.203 F 
ATOM     48  F   UNL A   1      39.607  35.291  37.676  1.00  0.00    -0.200 F 
ATOM     49  C   UNL A   1      38.225  33.484  38.308  1.00  0.00     0.200 A 
ATOM     50  F   UNL A   1      36.888  31.637  38.921  1.00  0.00    -0.200 F 
ATOM     51  F   UNL A   1      37.821  34.154  39.396  1.00  0.00    -0.200 F 
ENDBRANCH  27  41
BRANCH  28  52
ATOM     52  C   UNL A   1      41.793  26.925  27.793  1.00  0.00     0.064 A 
ATOM     53  C   UNL A   1      41.341  25.623  27.535  1.00  0.00     0.173 A 
ATOM     54  C   UNL A   1      42.698  27.487  26.877  1.00  0.00     0.173 A 
ATOM     55  F   UNL A   1      40.498  25.025  28.390  1.00  0.00    -0.203 F 
ATOM     56  C   UNL A   1      41.794  24.906  26.427  1.00  0.00     0.198 A 
ATOM     57  C   UNL A   1      43.122  26.784  25.752  1.00  0.00     0.198 A 
ATOM     58  F   UNL A   1      43.174  28.725  27.075  1.00  0.00    -0.203 F 
ATOM     59  F   UNL A   1      41.392  23.643  26.239  1.00  0.00    -0.200 F 
ATOM     60  C   UNL A   1      42.681  25.489  25.533  1.00  0.00     0.200 A 
ATOM     61  F   UNL A   1      43.969  27.357  24.886  1.00  0.00    -0.200 F 
ATOM     62  F   UNL A   1      43.119  24.798  24.472  1.00  0.00    -0.200 F 
ENDBRANCH  28  52
BRANCH  40  63
ATOM     63  C   UNL A   1      44.455  27.600  34.201  1.00  0.00     0.064 A 
ATOM     64  C   UNL A   1      44.426  26.351  34.836  1.00  0.00     0.173 A 
ATOM     65  C   UNL A   1      45.680  28.280  34.126  1.00  0.00     0.173 A 
ATOM     66  F   UNL A   1      43.273  25.674  34.943  1.00  0.00    -0.203 F 
ATOM     67  C   UNL A   1      45.580  25.808  35.390  1.00  0.00     0.198 A 
ATOM     68  C   UNL A   1      46.836  27.721  34.657  1.00  0.00     0.198 A 
ATOM     69  F   UNL A   1      45.754  29.474  33.520  1.00  0.00    -0.203 F 
ATOM     70  F   UNL A   1      45.524  24.631  36.028  1.00  0.00    -0.200 F 
ATOM     71  C   UNL A   1      46.785  26.489  35.292  1.00  0.00     0.200 A 
ATOM     72  F   UNL A   1      48.003  28.372  34.549  1.00  0.00    -0.200 F 
ATOM     73  F   UNL A   1      47.898  25.959  35.817  1.00  0.00    -0.200 F 
ENDBRANCH  40  63
ENDBRANCH  14  15
ENDBRANCH   7   9
ENDBRANCH   6   7
ENDBRANCH   5   6
ENDBRANCH   4   5
ENDBRANCH   3   4
ENDBRANCH   2   3
ENDBRANCH   1   2
BRANCH   1  74
ATOM     74  O   UNL A   1      31.670  27.352  26.786  1.00  0.00    -0.377 OA
BRANCH  74  75
ATOM     75  C   UNL A   1      30.694  26.613  26.072  1.00  0.00     0.188 C 
BRANCH  75  76
ATOM     76  C   UNL A   1      30.696  25.080  26.107  1.00  0.00     0.188 C 
BRANCH  76  77
ATOM     77  O   UNL A   1      31.821  24.373  26.595  1.00  0.00    -0.376 OA
BRANCH  77  78
ATOM     78  C   UNL A   1      31.681  23.004  26.964  1.00  0.00     0.202 C 
BRANCH  78  79
ATOM     79  C   UNL A   1      32.941  22.149  27.169  1.00  0.00     0.261 C 
BRANCH  79  80
ATOM     80  O   UNL A   1      33.393  21.501  25.961  1.00  0.00    -0.462 OA
BRANCH  80  81
ATOM     81  C   UNL A   1      34.654  21.802  25.548  1.00  0.00     0.322 C 
ATOM     82  O   UNL A   1      35.652  21.251  25.974  1.00  0.00    -0.251 OA
BRANCH  81  83
ATOM     83  C   UNL A   1      34.720  22.741  24.359  1.00  0.00     0.212 C 
ATOM     84  C   UNL A   1      33.671  22.342  23.369  1.00  0.00     0.107 C 
ATOM     85  C   UNL A   1      34.741  24.219  24.621  1.00  0.00     0.180 C 
ATOM     86  N   UNL A   1      32.857  23.144  22.757  1.00  0.00    -0.264 NA
ATOM     87  C   UNL A   1      33.804  25.086  23.837  1.00  0.00     0.018 C 
ATOM     88  O   UNL A   1      35.531  24.729  25.415  1.00  0.00    -0.293 OA
ATOM     89  C   UNL A   1      32.938  24.493  22.993  1.00  0.00     0.047 C 
ATOM     90  C   UNL A   1      33.847  26.572  24.073  1.00  0.00     0.041 C 
ATOM     91  C   UNL A   1      31.904  25.303  22.230  1.00  0.00     0.056 C 
ATOM     92  C   UNL A   1      33.118  27.372  22.988  1.00  0.00     0.005 C 
ATOM     93  C   UNL A   1      31.760  26.757  22.683  1.00  0.00     0.007 C 
ENDBRANCH  81  83
ENDBRANCH  80  81
ENDBRANCH  79  80
ENDBRANCH  78  79
ENDBRANCH  77  78
ENDBRANCH  76  77
ENDBRANCH  75  76
ENDBRANCH  74  75
ENDBRANCH   1  74
TORSDOF 20
ENDMDL
MODEL 2
REMARK VINA RESULT:      -9.9      1.047      2.679
REMARK SMILES O=C(OCCOCCOCCOCCOC(=O)[C@H]1C=NC2=C(CCCC2)C1=O)c1ccc(-c2c3nc(c(-c4c(F)c(F)c(F)c(F)c4F)c4ccc([nH]4)c(-c4c(F)c(F)c(F)c(F)c4F)c4nc(c(-c5c(F)c(F)c(F)c(F)c5F)c5ccc2[nH]5)C=C4)C=C3)cc1
REMARK SMILES IDX 8 1 7 2 6 3 5 4 4 5 3 6 2 7 1 8 29 9 30 10 91 11 31 12 90 13
REMARK SMILES IDX 32 14 33 15 34 16 84 17 35 18 89 19 83 20 85 21 36 22 88 23
REMARK SMILES IDX 82 24 81 25 37 27 69 28 49 29 68 30 50 31 53 32 67 33 86 34
REMARK SMILES IDX 51 35 52 36 66 38 87 39 54 40 38 41 39 42 47 43 40 44 41 45
REMARK SMILES IDX 45 46 48 47 42 48 43 49 46 50 44 51 70 52 71 53 79 54 72 55
REMARK SMILES IDX 73 56 77 57 80 58 74 59 75 60 78 61 76 62 55 63 56 64 64 65
REMARK SMILES IDX 57 66 58 67 62 68 65 69 59 70 60 71 63 72 61 73 9 74 10 75
REMARK SMILES IDX 11 76 12 77 13 78 14 79 15 80 16 81 17 82 18 83 19 84 27 85
REMARK SMILES IDX 20 86 22 87 28 88 21 89 23 90 26 91 24 92 25 93
REMARK H PARENT 85 26 53 37
REMARK Flexibility Score: inf
ROOT
ATOM      1  C   UNL A   1      32.775  29.071  25.180  1.00  0.00     0.188 C 
ENDROOT
BRANCH   1   2
ATOM      2  C   UNL A   1      33.450  29.368  26.511  1.00  0.00     0.188 C 
BRANCH   2   3
ATOM      3  O   UNL A   1      33.369  30.779  26.730  1.00  0.00    -0.376 OA
BRANCH   3   4
ATOM      4  C   UNL A   1      32.046  31.290  26.858  1.00  0.00     0.202 C 
BRANCH   4   5
ATOM      5  C   UNL A   1      31.976  32.807  26.692  1.00  0.00     0.261 C 
BRANCH   5   6
ATOM      6  O   UNL A   1      32.439  33.502  27.860  1.00  0.00    -0.460 OA
BRANCH   6   7
ATOM      7  C   UNL A   1      33.687  33.971  28.113  1.00  0.00     0.338 C 
ATOM      8  O   UNL A   1      33.914  35.161  27.889  1.00  0.00    -0.246 OA
BRANCH   7   9
ATOM      9  C   UNL A   1      34.812  33.148  28.664  1.00  0.00     0.060 A 
ATOM     10  C   UNL A   1      34.676  31.962  29.389  1.00  0.00     0.016 A 
ATOM     11  C   UNL A   1      36.118  33.574  28.359  1.00  0.00     0.016 A 
ATOM     12  C   UNL A   1      35.774  31.241  29.831  1.00  0.00     0.010 A 
ATOM     13  C   UNL A   1      37.236  32.852  28.794  1.00  0.00     0.010 A 
ATOM     14  C   UNL A   1      37.058  31.690  29.549  1.00  0.00    -0.014 A 
BRANCH  14  15
ATOM     15  C   UNL A   1      38.175  31.005  30.221  1.00  0.00     0.031 A 
ATOM     16  C   UNL A   1      38.390  31.290  31.674  1.00  0.00     0.074 A 
ATOM     17  C   UNL A   1      38.853  30.038  29.578  1.00  0.00     0.049 A 
ATOM     18  N   UNL A   1      39.326  30.861  32.475  1.00  0.00    -0.248 NA
ATOM     19  C   UNL A   1      37.395  32.163  32.324  1.00  0.00     0.031 C 
ATOM     20  C   UNL A   1      38.588  29.588  28.210  1.00  0.00     0.029 A 
ATOM     21  N   UNL A   1      39.881  29.238  30.001  1.00  0.00    -0.354 N 
ATOM     22  C   UNL A   1      39.055  31.440  33.707  1.00  0.00     0.074 A 
ATOM     23  C   UNL A   1      37.859  32.236  33.560  1.00  0.00     0.031 C 
ATOM     24  C   UNL A   1      39.431  28.586  27.909  1.00  0.00     0.029 A 
ATOM     25  C   UNL A   1      40.336  28.376  29.033  1.00  0.00     0.049 A 
ATOM     26  H   UNL A   1      40.257  29.277  30.910  1.00  0.00     0.167 HD
ATOM     27  C   UNL A   1      39.766  31.323  34.850  1.00  0.00     0.037 A 
ATOM     28  C   UNL A   1      41.400  27.552  29.054  1.00  0.00     0.037 A 
ATOM     29  C   UNL A   1      40.947  30.514  34.959  1.00  0.00     0.049 A 
ATOM     30  C   UNL A   1      42.236  27.521  30.309  1.00  0.00     0.074 A 
ATOM     31  C   UNL A   1      41.799  30.361  36.034  1.00  0.00     0.029 A 
ATOM     32  N   UNL A   1      41.437  29.714  33.934  1.00  0.00    -0.354 N 
ATOM     33  N   UNL A   1      42.033  28.135  31.452  1.00  0.00    -0.248 NA
ATOM     34  C   UNL A   1      43.459  26.711  30.272  1.00  0.00     0.031 C 
ATOM     35  C   UNL A   1      42.830  29.499  35.645  1.00  0.00     0.029 A 
ATOM     36  C   UNL A   1      42.595  29.080  34.343  1.00  0.00     0.049 A 
ATOM     37  H   UNL A   1      41.020  29.613  33.048  1.00  0.00     0.167 HD
ATOM     38  C   UNL A   1      43.095  27.782  32.271  1.00  0.00     0.074 A 
ATOM     39  C   UNL A   1      43.924  26.874  31.501  1.00  0.00     0.031 C 
ATOM     40  C   UNL A   1      43.376  28.177  33.537  1.00  0.00     0.037 A 
BRANCH  27  41
ATOM     41  C   UNL A   1      39.329  32.153  36.018  1.00  0.00     0.064 A 
ATOM     42  C   UNL A   1      38.368  31.705  36.935  1.00  0.00     0.173 A 
ATOM     43  C   UNL A   1      39.870  33.434  36.204  1.00  0.00     0.173 A 
ATOM     44  F   UNL A   1      37.795  30.502  36.781  1.00  0.00    -0.203 F 
ATOM     45  C   UNL A   1      37.953  32.518  37.989  1.00  0.00     0.198 A 
ATOM     46  C   UNL A   1      39.469  34.235  37.269  1.00  0.00     0.198 A 
ATOM     47  F   UNL A   1      40.782  33.914  35.344  1.00  0.00    -0.203 F 
ATOM     48  F   UNL A   1      36.998  32.091  38.826  1.00  0.00    -0.200 F 
ATOM     49  C   UNL A   1      38.506  33.779  38.157  1.00  0.00     0.200 A 
ATOM     50  F   UNL A   1      40.003  35.453  37.428  1.00  0.00    -0.200 F 
ATOM     51  F   UNL A   1      38.102  34.562  39.167  1.00  0.00    -0.200 F 
ENDBRANCH  27  41
BRANCH  28  52
ATOM     52  C   UNL A   1      41.784  26.771  27.846  1.00  0.00     0.064 A 
ATOM     53  C   UNL A   1      41.278  25.484  27.610  1.00  0.00     0.173 A 
ATOM     54  C   UNL A   1      42.708  27.281  26.917  1.00  0.00     0.173 A 
ATOM     55  F   UNL A   1      40.415  24.935  28.477  1.00  0.00    -0.203 F 
ATOM     56  C   UNL A   1      41.698  24.732  26.513  1.00  0.00     0.198 A 
ATOM     57  C   UNL A   1      43.099  26.543  25.803  1.00  0.00     0.198 A 
ATOM     58  F   UNL A   1      43.235  28.502  27.094  1.00  0.00    -0.203 F 
ATOM     59  F   UNL A   1      41.244  23.483  26.346  1.00  0.00    -0.200 F 
ATOM     60  C   UNL A   1      42.604  25.264  25.607  1.00  0.00     0.200 A 
ATOM     61  F   UNL A   1      43.965  27.067  24.925  1.00  0.00    -0.200 F 
ATOM     62  F   UNL A   1      43.010  24.539  24.556  1.00  0.00    -0.200 F 
ENDBRANCH  28  52
BRANCH  40  63
ATOM     63  C   UNL A   1      44.615  27.613  34.160  1.00  0.00     0.064 A 
ATOM     64  C   UNL A   1      45.839  28.293  34.092  1.00  0.00     0.173 A 
ATOM     65  C   UNL A   1      44.561  26.410  34.879  1.00  0.00     0.173 A 
ATOM     66  F   UNL A   1      45.938  29.440  33.402  1.00  0.00    -0.203 F 
ATOM     67  C   UNL A   1      46.974  27.778  34.710  1.00  0.00     0.198 A 
ATOM     68  C   UNL A   1      45.691  25.914  35.518  1.00  0.00     0.198 A 
ATOM     69  F   UNL A   1      43.409  25.732  34.976  1.00  0.00    -0.203 F 
ATOM     70  F   UNL A   1      48.144  28.422  34.600  1.00  0.00    -0.200 F 
ATOM     71  C   UNL A   1      46.897  26.595  35.429  1.00  0.00     0.200 A 
ATOM     72  F   UNL A   1      45.614  24.778  36.226  1.00  0.00    -0.200 F 
ATOM     73  F   UNL A   1      47.988  26.106  36.033  1.00  0.00    -0.200 F 
ENDBRANCH  40  63
ENDBRANCH  14  15
ENDBRANCH   7   9
ENDBRANCH   6   7
ENDBRANCH   5   6
ENDBRANCH   4   5
ENDBRANCH   3   4
ENDBRANCH   2   3
ENDBRANCH   1   2
BRANCH   1  74
ATOM     74  O   UNL A   1      33.560  28.241  24.329  1.00  0.00    -0.377 OA
BRANCH  74  75
ATOM     75  C   UNL A   1      33.356  28.390  22.934  1.00  0.00     0.188 C 
BRANCH  75  76
ATOM     76  C   UNL A   1      33.309  27.161  22.018  1.00  0.00     0.188 C 
BRANCH  76  77
ATOM     77  O   UNL A   1      33.661  25.881  22.512  1.00  0.00    -0.376 OA
BRANCH  77  78
ATOM     78  C   UNL A   1      32.657  24.878  22.634  1.00  0.00     0.202 C 
BRANCH  78  79
ATOM     79  C   UNL A   1      31.416  25.160  23.495  1.00  0.00     0.261 C 
BRANCH  79  80
ATOM     80  O   UNL A   1      31.121  24.104  24.434  1.00  0.00    -0.462 OA
BRANCH  80  81
ATOM     81  C   UNL A   1      31.267  24.407  25.752  1.00  0.00     0.322 C 
ATOM     82  O   UNL A   1      30.411  24.966  26.414  1.00  0.00    -0.251 OA
BRANCH  81  83
ATOM     83  C   UNL A   1      32.502  23.814  26.403  1.00  0.00     0.212 C 
ATOM     84  C   UNL A   1      32.435  22.324  26.298  1.00  0.00     0.107 C 
ATOM     85  C   UNL A   1      33.843  24.366  26.014  1.00  0.00     0.180 C 
ATOM     86  N   UNL A   1      33.404  21.541  25.938  1.00  0.00    -0.264 NA
ATOM     87  C   UNL A   1      34.927  23.394  25.659  1.00  0.00     0.018 C 
ATOM     88  O   UNL A   1      34.081  25.574  26.028  1.00  0.00    -0.293 OA
ATOM     89  C   UNL A   1      34.627  22.082  25.632  1.00  0.00     0.047 C 
ATOM     90  C   UNL A   1      36.283  23.943  25.303  1.00  0.00     0.041 C 
ATOM     91  C   UNL A   1      35.654  21.049  25.200  1.00  0.00     0.056 C 
ATOM     92  C   UNL A   1      37.381  22.875  25.307  1.00  0.00     0.005 C 
ATOM     93  C   UNL A   1      36.923  21.625  24.570  1.00  0.00     0.007 C 
ENDBRANCH  81  83
ENDBRANCH  80  81
ENDBRANCH  79  80
ENDBRANCH  78  79
ENDBRANCH  77  78
ENDBRANCH  76  77
ENDBRANCH  75  76
ENDBRANCH  74  75
ENDBRANCH   1  74
TORSDOF 20
ENDMDL
MODEL 3
REMARK VINA RESULT:      -9.9      4.409      8.213
REMARK SMILES O=C(OCCOCCOCCOCCOC(=O)[C@H]1C=NC2=C(CCCC2)C1=O)c1ccc(-c2c3nc(c(-c4c(F)c(F)c(F)c(F)c4F)c4ccc([nH]4)c(-c4c(F)c(F)c(F)c(F)c4F)c4nc(c(-c5c(F)c(F)c(F)c(F)c5F)c5ccc2[nH]5)C=C4)C=C3)cc1
REMARK SMILES IDX 8 1 7 2 6 3 5 4 4 5 3 6 2 7 1 8 29 9 30 10 91 11 31 12 90 13
REMARK SMILES IDX 32 14 33 15 34 16 84 17 35 18 89 19 83 20 85 21 36 22 88 23
REMARK SMILES IDX 82 24 81 25 37 27 69 28 49 29 68 30 50 31 53 32 67 33 86 34
REMARK SMILES IDX 51 35 52 36 66 38 87 39 54 40 38 41 39 42 47 43 40 44 41 45
REMARK SMILES IDX 45 46 48 47 42 48 43 49 46 50 44 51 70 52 71 53 79 54 72 55
REMARK SMILES IDX 73 56 77 57 80 58 74 59 75 60 78 61 76 62 55 63 56 64 64 65
REMARK SMILES IDX 57 66 58 67 62 68 65 69 59 70 60 71 63 72 61 73 9 74 10 75
REMARK SMILES IDX 11 76 12 77 13 78 14 79 15 80 16 81 17 82 18 83 19 84 27 85
REMARK SMILES IDX 20 86 22 87 28 88 21 89 23 90 26 91 24 92 25 93
REMARK H PARENT 85 26 53 37
REMARK Flexibility Score: inf
ROOT
ATOM      1  C   UNL A   1      37.830  32.760  32.566  1.00  0.00     0.188 C 
ENDROOT
BRANCH   1   2
ATOM      2  C   UNL A   1      37.084  32.983  31.259  1.00  0.00     0.188 C 
BRANCH   2   3
ATOM      3  O   UNL A   1      36.031  33.915  31.518  1.00  0.00    -0.376 OA
BRANCH   3   4
ATOM      4  C   UNL A   1      34.816  33.655  30.823  1.00  0.00     0.202 C 
BRANCH   4   5
ATOM      5  C   UNL A   1      35.040  33.172  29.391  1.00  0.00     0.261 C 
BRANCH   5   6
ATOM      6  O   UNL A   1      34.376  31.926  29.130  1.00  0.00    -0.460 OA
BRANCH   6   7
ATOM      7  C   UNL A   1      34.869  30.836  28.490  1.00  0.00     0.338 C 
ATOM      8  O   UNL A   1      34.162  30.294  27.640  1.00  0.00    -0.246 OA
BRANCH   7   9
ATOM      9  C   UNL A   1      36.229  30.250  28.730  1.00  0.00     0.060 A 
ATOM     10  C   UNL A   1      36.628  29.558  29.876  1.00  0.00     0.016 A 
ATOM     11  C   UNL A   1      37.156  30.345  27.676  1.00  0.00     0.016 A 
ATOM     12  C   UNL A   1      37.897  29.014  30.000  1.00  0.00     0.010 A 
ATOM     13  C   UNL A   1      38.438  29.795  27.785  1.00  0.00     0.010 A 
ATOM     14  C   UNL A   1      38.812  29.143  28.963  1.00  0.00    -0.014 A 
BRANCH  14  15
ATOM     15  C   UNL A   1      40.201  28.735  29.234  1.00  0.00     0.031 A 
ATOM     16  C   UNL A   1      41.019  29.612  30.132  1.00  0.00     0.074 A 
ATOM     17  C   UNL A   1      40.641  27.534  28.821  1.00  0.00     0.049 A 
ATOM     18  N   UNL A   1      42.270  29.505  30.481  1.00  0.00    -0.248 NA
ATOM     19  C   UNL A   1      40.318  30.758  30.741  1.00  0.00     0.031 C 
ATOM     20  C   UNL A   1      39.844  26.552  28.084  1.00  0.00     0.029 A 
ATOM     21  N   UNL A   1      41.853  26.921  28.992  1.00  0.00    -0.354 N 
ATOM     22  C   UNL A   1      42.517  30.585  31.316  1.00  0.00     0.074 A 
ATOM     23  C   UNL A   1      41.285  31.329  31.441  1.00  0.00     0.031 C 
ATOM     24  C   UNL A   1      40.590  25.456  27.870  1.00  0.00     0.029 A 
ATOM     25  C   UNL A   1      41.932  25.688  28.391  1.00  0.00     0.049 A 
ATOM     26  H   UNL A   1      42.596  27.325  29.496  1.00  0.00     0.167 HD
ATOM     27  C   UNL A   1      43.684  30.925  31.906  1.00  0.00     0.037 A 
ATOM     28  C   UNL A   1      42.994  24.875  28.245  1.00  0.00     0.037 A 
ATOM     29  C   UNL A   1      44.887  30.154  31.765  1.00  0.00     0.049 A 
ATOM     30  C   UNL A   1      44.309  25.332  28.824  1.00  0.00     0.074 A 
ATOM     31  C   UNL A   1      46.152  30.421  32.250  1.00  0.00     0.029 A 
ATOM     32  N   UNL A   1      44.960  28.949  31.077  1.00  0.00    -0.354 N 
ATOM     33  N   UNL A   1      44.569  26.399  29.543  1.00  0.00    -0.248 NA
ATOM     34  C   UNL A   1      45.482  24.492  28.550  1.00  0.00     0.031 C 
ATOM     35  C   UNL A   1      47.001  29.397  31.819  1.00  0.00     0.029 A 
ATOM     36  C   UNL A   1      46.256  28.469  31.104  1.00  0.00     0.049 A 
ATOM     37  H   UNL A   1      44.202  28.503  30.636  1.00  0.00     0.167 HD
ATOM     38  C   UNL A   1      45.929  26.358  29.815  1.00  0.00     0.074 A 
ATOM     39  C   UNL A   1      46.433  25.141  29.207  1.00  0.00     0.031 C 
ATOM     40  C   UNL A   1      46.701  27.245  30.489  1.00  0.00     0.037 A 
BRANCH  27  41
ATOM     41  C   UNL A   1      43.718  32.215  32.666  1.00  0.00     0.064 A 
ATOM     42  C   UNL A   1      43.526  32.271  34.054  1.00  0.00     0.173 A 
ATOM     43  C   UNL A   1      43.925  33.422  31.982  1.00  0.00     0.173 A 
ATOM     44  F   UNL A   1      43.288  31.148  34.749  1.00  0.00    -0.203 F 
ATOM     45  C   UNL A   1      43.522  33.492  34.726  1.00  0.00     0.198 A 
ATOM     46  C   UNL A   1      43.943  34.638  32.659  1.00  0.00     0.198 A 
ATOM     47  F   UNL A   1      44.100  33.423  30.651  1.00  0.00    -0.203 F 
ATOM     48  F   UNL A   1      43.288  33.528  36.045  1.00  0.00    -0.200 F 
ATOM     49  C   UNL A   1      43.736  34.672  34.030  1.00  0.00     0.200 A 
ATOM     50  F   UNL A   1      44.147  35.777  31.983  1.00  0.00    -0.200 F 
ATOM     51  F   UNL A   1      43.727  35.846  34.676  1.00  0.00    -0.200 F 
ENDBRANCH  27  41
BRANCH  28  52
ATOM     52  C   UNL A   1      42.888  23.615  27.458  1.00  0.00     0.064 A 
ATOM     53  C   UNL A   1      42.437  22.421  28.039  1.00  0.00     0.173 A 
ATOM     54  C   UNL A   1      43.281  23.567  26.109  1.00  0.00     0.173 A 
ATOM     55  F   UNL A   1      42.075  22.400  29.331  1.00  0.00    -0.203 F 
ATOM     56  C   UNL A   1      42.407  21.230  27.314  1.00  0.00     0.198 A 
ATOM     57  C   UNL A   1      43.217  22.385  25.376  1.00  0.00     0.198 A 
ATOM     58  F   UNL A   1      43.730  24.675  25.500  1.00  0.00    -0.203 F 
ATOM     59  F   UNL A   1      42.029  20.093  27.912  1.00  0.00    -0.200 F 
ATOM     60  C   UNL A   1      42.792  21.214  25.981  1.00  0.00     0.200 A 
ATOM     61  F   UNL A   1      43.579  22.379  24.086  1.00  0.00    -0.200 F 
ATOM     62  F   UNL A   1      42.768  20.068  25.287  1.00  0.00    -0.200 F 
ENDBRANCH  28  52
BRANCH  40  63
ATOM     63  C   UNL A   1      48.156  26.914  30.614  1.00  0.00     0.064 A 
ATOM     64  C   UNL A   1      48.625  26.059  31.621  1.00  0.00     0.173 A 
ATOM     65  C   UNL A   1      49.077  27.413  29.682  1.00  0.00     0.173 A 
ATOM     66  F   UNL A   1      47.779  25.572  32.542  1.00  0.00    -0.203 F 
ATOM     67  C   UNL A   1      49.973  25.728  31.702  1.00  0.00     0.198 A 
ATOM     68  C   UNL A   1      50.419  27.057  29.750  1.00  0.00     0.198 A 
ATOM     69  F   UNL A   1      48.670  28.228  28.698  1.00  0.00    -0.203 F 
ATOM     70  F   UNL A   1      50.408  24.941  32.695  1.00  0.00    -0.200 F 
ATOM     71  C   UNL A   1      50.866  26.219  30.761  1.00  0.00     0.200 A 
ATOM     72  F   UNL A   1      51.280  27.519  28.833  1.00  0.00    -0.200 F 
ATOM     73  F   UNL A   1      52.163  25.889  30.834  1.00  0.00    -0.200 F 
ENDBRANCH  40  63
ENDBRANCH  14  15
ENDBRANCH   7   9
ENDBRANCH   6   7
ENDBRANCH   5   6
ENDBRANCH   4   5
ENDBRANCH   3   4
ENDBRANCH   2   3
ENDBRANCH   1   2
BRANCH   1  74
ATOM     74  O   UNL A   1      37.737  33.867  33.457  1.00  0.00    -0.377 OA
BRANCH  74  75
ATOM     75  C   UNL A   1      38.960  34.406  33.930  1.00  0.00     0.188 C 
BRANCH  75  76
ATOM     76  C   UNL A   1      39.906  33.558  34.788  1.00  0.00     0.188 C 
BRANCH  76  77
ATOM     77  O   UNL A   1      39.446  32.952  35.983  1.00  0.00    -0.376 OA
BRANCH  77  78
ATOM     78  C   UNL A   1      39.124  31.564  35.984  1.00  0.00     0.202 C 
BRANCH  78  79
ATOM     79  C   UNL A   1      40.060  30.576  35.273  1.00  0.00     0.261 C 
BRANCH  79  80
ATOM     80  O   UNL A   1      40.188  29.314  35.962  1.00  0.00    -0.462 OA
BRANCH  80  81
ATOM     81  C   UNL A   1      41.409  28.717  35.912  1.00  0.00     0.322 C 
ATOM     82  O   UNL A   1      42.279  28.891  36.745  1.00  0.00    -0.251 OA
BRANCH  81  83
ATOM     83  C   UNL A   1      41.545  27.648  34.844  1.00  0.00     0.212 C 
ATOM     84  C   UNL A   1      42.653  28.031  33.915  1.00  0.00     0.107 C 
ATOM     85  C   UNL A   1      41.621  26.214  35.281  1.00  0.00     0.180 C 
ATOM     86  N   UNL A   1      43.591  27.247  33.483  1.00  0.00    -0.264 NA
ATOM     87  C   UNL A   1      42.703  25.357  34.699  1.00  0.00     0.018 C 
ATOM     88  O   UNL A   1      40.798  25.724  36.055  1.00  0.00    -0.293 OA
ATOM     89  C   UNL A   1      43.599  25.931  33.873  1.00  0.00     0.047 C 
ATOM     90  C   UNL A   1      42.760  23.910  35.108  1.00  0.00     0.041 C 
ATOM     91  C   UNL A   1      44.770  25.142  33.313  1.00  0.00     0.056 C 
ATOM     92  C   UNL A   1      43.662  23.066  34.201  1.00  0.00     0.005 C 
ATOM     93  C   UNL A   1      44.988  23.770  33.951  1.00  0.00     0.007 C 
ENDBRANCH  81  83
ENDBRANCH  80  81
ENDBRANCH  79  80
ENDBRANCH  78  79
ENDBRANCH  77  78
ENDBRANCH  76  77
ENDBRANCH  75  76
ENDBRANCH  74  75
ENDBRANCH   1  74
TORSDOF 20
ENDMDL
