MODEL 1
REMARK VINA RESULT:     -11.3      0.000      0.000
REMARK SMILES [NH3+][C@H](CS[C@@H]1CC(=O)N(c2ccc3ccccc3c2)C1=O)C(=O)OCCOCCOCCOCCOC(=O)c1ccc(-c2c3nc(c(-c4c(F)c(F)c(F)c(F)c4F)c4ccc([nH]4)c(-c4c(F)c(F)c(F)c(F)c4F)c4nc(c(-c5c(F)c(F)c(F)c(F)c5F)c5ccc2[nH]5)C=C4)C=C3)cc1
REMARK SMILES IDX 29 1 28 2 27 3 26 4 25 5 24 6 22 7 23 8 2 9 1 10 3 14 4 15
REMARK SMILES IDX 5 16 6 17 20 18 7 19 9 20 21 21 8 22 10 23 11 24 19 25 12 26
REMARK SMILES IDX 18 27 13 28 17 29 14 30 16 31 15 32 30 33 31 34 32 35 33 36
REMARK SMILES IDX 34 37 35 38 36 39 37 40 38 41 39 42 40 43 101 44 41 45
REMARK SMILES IDX 100 46 42 47 43 48 44 49 94 50 45 51 99 52 93 53 95 54 46 55
REMARK SMILES IDX 98 56 92 57 91 58 47 60 79 61 59 62 78 63 60 64 63 65 77 66
REMARK SMILES IDX 96 67 61 68 62 69 76 71 97 72 64 73 48 74 49 75 57 76 50 77
REMARK SMILES IDX 51 78 55 79 58 80 52 81 53 82 56 83 54 84 80 85 81 86 89 87
REMARK SMILES IDX 82 88 83 89 87 90 90 91 84 92 85 93 88 94 86 95 65 96 66 97
REMARK SMILES IDX 74 98 67 99 68 100 72 101 75 102 69 103 70 104 73 105 71 106
REMARK H PARENT 1 11 1 12 1 13 95 59 63 70
REMARK Flexibility Score: inf
ROOT
ATOM      1  C   UNL A   1      41.225  20.519  26.630  1.00  0.00     0.188 C 
ENDROOT
BRANCH   1   2
ATOM      2  C   UNL A   1      39.700  20.735  26.503  1.00  0.00     0.188 C 
BRANCH   2   3
ATOM      3  O   UNL A   1      39.185  21.570  25.491  1.00  0.00    -0.376 OA
BRANCH   3   4
ATOM      4  C   UNL A   1      37.915  22.178  25.617  1.00  0.00     0.202 C 
BRANCH   4   5
ATOM      5  C   UNL A   1      36.631  21.526  25.121  1.00  0.00     0.261 C 
BRANCH   5   6
ATOM      6  O   UNL A   1      35.535  21.414  26.040  1.00  0.00    -0.459 OA
BRANCH   6   7
ATOM      7  C   UNL A   1      34.291  21.441  25.497  1.00  0.00     0.365 C 
ATOM      8  O   UNL A   1      34.002  20.924  24.422  1.00  0.00    -0.245 OA
BRANCH   7   9
ATOM      9  C   UNL A   1      33.241  22.156  26.368  1.00  0.00     0.301 C 
BRANCH   9  10
ATOM     10  N   UNL A   1      31.914  21.520  26.147  1.00  0.00    -0.345 N 
ATOM     11  H   UNL A   1      32.026  20.507  26.101  1.00  0.00     0.345 HD
ATOM     12  H   UNL A   1      31.516  21.857  25.270  1.00  0.00     0.345 HD
ATOM     13  H   UNL A   1      31.289  21.760  26.917  1.00  0.00     0.345 HD
ENDBRANCH   9  10
BRANCH   9  14
ATOM     14  C   UNL A   1      33.214  23.705  26.323  1.00  0.00     0.147 C 
BRANCH  14  15
ATOM     15  S   UNL A   1      34.194  24.460  24.960  1.00  0.00    -0.141 SA
BRANCH  15  16
ATOM     16  C   UNL A   1      32.991  24.565  23.582  1.00  0.00     0.146 C 
ATOM     17  C   UNL A   1      33.632  25.343  22.442  1.00  0.00     0.125 C 
ATOM     18  C   UNL A   1      31.789  25.429  23.847  1.00  0.00     0.247 C 
ATOM     19  C   UNL A   1      33.171  26.761  22.684  1.00  0.00     0.235 C 
ATOM     20  N   UNL A   1      32.157  26.731  23.606  1.00  0.00    -0.250 N 
ATOM     21  O   UNL A   1      30.678  24.986  24.101  1.00  0.00    -0.273 OA
ATOM     22  O   UNL A   1      33.570  27.719  22.041  1.00  0.00    -0.274 OA
BRANCH  20  23
ATOM     23  C   UNL A   1      31.329  27.840  23.878  1.00  0.00     0.052 A 
ATOM     24  C   UNL A   1      31.786  28.895  24.665  1.00  0.00     0.027 A 
ATOM     25  C   UNL A   1      30.101  27.961  23.213  1.00  0.00     0.035 A 
ATOM     26  C   UNL A   1      31.038  30.076  24.756  1.00  0.00     0.011 A 
ATOM     27  C   UNL A   1      29.390  29.179  23.217  1.00  0.00    -0.016 A 
ATOM     28  C   UNL A   1      29.864  30.250  24.004  1.00  0.00    -0.018 A 
ATOM     29  C   UNL A   1      28.279  29.389  22.377  1.00  0.00     0.009 A 
ATOM     30  C   UNL A   1      29.189  31.483  23.964  1.00  0.00     0.009 A 
ATOM     31  C   UNL A   1      27.658  30.636  22.303  1.00  0.00     0.001 A 
ATOM     32  C   UNL A   1      28.102  31.679  23.108  1.00  0.00     0.001 A 
ENDBRANCH  20  23
ENDBRANCH  15  16
ENDBRANCH  14  15
ENDBRANCH   9  14
ENDBRANCH   7   9
ENDBRANCH   6   7
ENDBRANCH   5   6
ENDBRANCH   4   5
ENDBRANCH   3   4
ENDBRANCH   2   3
ENDBRANCH   1   2
BRANCH   1  33
ATOM     33  O   UNL A   1      42.004  19.979  25.578  1.00  0.00    -0.377 OA
BRANCH  33  34
ATOM     34  C   UNL A   1      43.374  19.649  25.764  1.00  0.00     0.188 C 
BRANCH  34  35
ATOM     35  C   UNL A   1      44.289  19.307  24.570  1.00  0.00     0.188 C 
BRANCH  35  36
ATOM     36  O   UNL A   1      45.052  20.392  24.082  1.00  0.00    -0.376 OA
BRANCH  36  37
ATOM     37  C   UNL A   1      45.822  21.146  25.002  1.00  0.00     0.202 C 
BRANCH  37  38
ATOM     38  C   UNL A   1      45.777  22.678  24.899  1.00  0.00     0.261 C 
BRANCH  38  39
ATOM     39  O   UNL A   1      44.806  23.345  25.720  1.00  0.00    -0.460 OA
BRANCH  39  40
ATOM     40  C   UNL A   1      43.589  23.570  25.178  1.00  0.00     0.338 C 
ATOM     41  O   UNL A   1      43.053  22.957  24.280  1.00  0.00    -0.246 OA
BRANCH  40  42
ATOM     42  C   UNL A   1      42.928  24.611  25.992  1.00  0.00     0.060 A 
ATOM     43  C   UNL A   1      43.476  25.901  26.032  1.00  0.00     0.016 A 
ATOM     44  C   UNL A   1      41.790  24.299  26.737  1.00  0.00     0.016 A 
ATOM     45  C   UNL A   1      42.911  26.873  26.857  1.00  0.00     0.010 A 
ATOM     46  C   UNL A   1      41.239  25.265  27.581  1.00  0.00     0.010 A 
ATOM     47  C   UNL A   1      41.823  26.541  27.675  1.00  0.00    -0.014 A 
BRANCH  47  48
ATOM     48  C   UNL A   1      41.440  27.444  28.786  1.00  0.00     0.031 A 
ATOM     49  C   UNL A   1      42.250  27.389  30.052  1.00  0.00     0.074 A 
ATOM     50  C   UNL A   1      40.418  28.309  28.670  1.00  0.00     0.049 A 
ATOM     51  N   UNL A   1      42.072  28.018  31.185  1.00  0.00    -0.248 NA
ATOM     52  C   UNL A   1      43.422  26.497  30.037  1.00  0.00     0.031 C 
ATOM     53  C   UNL A   1      39.602  28.498  27.474  1.00  0.00     0.029 A 
ATOM     54  N   UNL A   1      39.890  29.185  29.585  1.00  0.00    -0.354 N 
ATOM     55  C   UNL A   1      43.100  27.591  32.017  1.00  0.00     0.074 A 
ATOM     56  C   UNL A   1      43.878  26.626  31.273  1.00  0.00     0.031 C 
ATOM     57  C   UNL A   1      38.663  29.426  27.733  1.00  0.00     0.029 A 
ATOM     58  C   UNL A   1      38.790  29.863  29.123  1.00  0.00     0.049 A 
ATOM     59  H   UNL A   1      40.264  29.315  30.486  1.00  0.00     0.167 HD
ATOM     60  C   UNL A   1      43.375  27.978  33.285  1.00  0.00     0.037 A 
ATOM     61  C   UNL A   1      37.968  30.718  29.762  1.00  0.00     0.037 A 
ATOM     62  C   UNL A   1      42.595  28.937  34.022  1.00  0.00     0.049 A 
ATOM     63  C   UNL A   1      38.238  31.059  31.208  1.00  0.00     0.074 A 
ATOM     64  C   UNL A   1      42.790  29.401  35.309  1.00  0.00     0.029 A 
ATOM     65  N   UNL A   1      41.461  29.572  33.534  1.00  0.00    -0.354 N 
ATOM     66  N   UNL A   1      39.216  30.663  31.987  1.00  0.00    -0.248 NA
ATOM     67  C   UNL A   1      37.288  31.971  31.862  1.00  0.00     0.031 C 
ATOM     68  C   UNL A   1      41.740  30.269  35.624  1.00  0.00     0.029 A 
ATOM     69  C   UNL A   1      40.930  30.401  34.508  1.00  0.00     0.049 A 
ATOM     70  H   UNL A   1      41.089  29.450  32.631  1.00  0.00     0.167 HD
ATOM     71  C   UNL A   1      39.022  31.304  33.205  1.00  0.00     0.074 A 
ATOM     72  C   UNL A   1      37.838  32.125  33.057  1.00  0.00     0.031 C 
ATOM     73  C   UNL A   1      39.757  31.223  34.342  1.00  0.00     0.037 A 
BRANCH  60  74
ATOM     74  C   UNL A   1      44.548  27.337  33.968  1.00  0.00     0.064 A 
ATOM     75  C   UNL A   1      45.771  28.008  34.127  1.00  0.00     0.173 A 
ATOM     76  C   UNL A   1      44.440  26.042  34.496  1.00  0.00     0.173 A 
ATOM     77  F   UNL A   1      45.935  29.242  33.627  1.00  0.00    -0.203 F 
ATOM     78  C   UNL A   1      46.847  27.396  34.766  1.00  0.00     0.198 A 
ATOM     79  C   UNL A   1      45.506  25.446  35.164  1.00  0.00     0.198 A 
ATOM     80  F   UNL A   1      43.294  25.355  34.373  1.00  0.00    -0.203 F 
ATOM     81  F   UNL A   1      48.021  28.036  34.859  1.00  0.00    -0.200 F 
ATOM     82  C   UNL A   1      46.711  26.120  35.292  1.00  0.00     0.200 A 
ATOM     83  F   UNL A   1      45.367  24.219  35.684  1.00  0.00    -0.200 F 
ATOM     84  F   UNL A   1      47.744  25.535  35.914  1.00  0.00    -0.200 F 
ENDBRANCH  60  74
BRANCH  61  85
ATOM     85  C   UNL A   1      36.798  31.302  29.053  1.00  0.00     0.064 A 
ATOM     86  C   UNL A   1      36.772  32.658  28.696  1.00  0.00     0.173 A 
ATOM     87  C   UNL A   1      35.670  30.527  28.745  1.00  0.00     0.173 A 
ATOM     88  F   UNL A   1      37.815  33.448  28.990  1.00  0.00    -0.203 F 
ATOM     89  C   UNL A   1      35.655  33.221  28.080  1.00  0.00     0.198 A 
ATOM     90  C   UNL A   1      34.567  31.083  28.099  1.00  0.00     0.198 A 
ATOM     91  F   UNL A   1      35.640  29.225  29.064  1.00  0.00    -0.203 F 
ATOM     92  F   UNL A   1      35.636  34.531  27.800  1.00  0.00    -0.200 F 
ATOM     93  C   UNL A   1      34.556  32.431  27.777  1.00  0.00     0.200 A 
ATOM     94  F   UNL A   1      33.515  30.311  27.793  1.00  0.00    -0.200 F 
ATOM     95  F   UNL A   1      33.483  32.972  27.183  1.00  0.00    -0.200 F 
ENDBRANCH  61  85
BRANCH  73  96
ATOM     96  C   UNL A   1      39.338  32.081  35.503  1.00  0.00     0.064 A 
ATOM     97  C   UNL A   1      38.534  31.587  36.541  1.00  0.00     0.173 A 
ATOM     98  C   UNL A   1      39.790  33.408  35.600  1.00  0.00     0.173 A 
ATOM     99  F   UNL A   1      38.066  30.331  36.493  1.00  0.00    -0.203 F 
ATOM    100  C   UNL A   1      38.171  32.397  37.614  1.00  0.00     0.198 A 
ATOM    101  C   UNL A   1      39.456  34.202  36.692  1.00  0.00     0.198 A 
ATOM    102  F   UNL A   1      40.569  33.928  34.641  1.00  0.00    -0.203 F 
ATOM    103  F   UNL A   1      37.357  31.920  38.566  1.00  0.00    -0.200 F 
ATOM    104  C   UNL A   1      38.639  33.700  37.694  1.00  0.00     0.200 A 
ATOM    105  F   UNL A   1      39.925  35.455  36.776  1.00  0.00    -0.200 F 
ATOM    106  F   UNL A   1      38.297  34.475  38.732  1.00  0.00    -0.200 F 
ENDBRANCH  73  96
ENDBRANCH  47  48
ENDBRANCH  40  42
ENDBRANCH  39  40
ENDBRANCH  38  39
ENDBRANCH  37  38
ENDBRANCH  36  37
ENDBRANCH  35  36
ENDBRANCH  34  35
ENDBRANCH  33  34
ENDBRANCH   1  33
TORSDOF 25
ENDMDL
MODEL 2
REMARK VINA RESULT:     -11.2      1.106      2.024
REMARK SMILES [NH3+][C@H](CS[C@@H]1CC(=O)N(c2ccc3ccccc3c2)C1=O)C(=O)OCCOCCOCCOCCOC(=O)c1ccc(-c2c3nc(c(-c4c(F)c(F)c(F)c(F)c4F)c4ccc([nH]4)c(-c4c(F)c(F)c(F)c(F)c4F)c4nc(c(-c5c(F)c(F)c(F)c(F)c5F)c5ccc2[nH]5)C=C4)C=C3)cc1
REMARK SMILES IDX 29 1 28 2 27 3 26 4 25 5 24 6 22 7 23 8 2 9 1 10 3 14 4 15
REMARK SMILES IDX 5 16 6 17 20 18 7 19 9 20 21 21 8 22 10 23 11 24 19 25 12 26
REMARK SMILES IDX 18 27 13 28 17 29 14 30 16 31 15 32 30 33 31 34 32 35 33 36
REMARK SMILES IDX 34 37 35 38 36 39 37 40 38 41 39 42 40 43 101 44 41 45
REMARK SMILES IDX 100 46 42 47 43 48 44 49 94 50 45 51 99 52 93 53 95 54 46 55
REMARK SMILES IDX 98 56 92 57 91 58 47 60 79 61 59 62 78 63 60 64 63 65 77 66
REMARK SMILES IDX 96 67 61 68 62 69 76 71 97 72 64 73 48 74 49 75 57 76 50 77
REMARK SMILES IDX 51 78 55 79 58 80 52 81 53 82 56 83 54 84 80 85 81 86 89 87
REMARK SMILES IDX 82 88 83 89 87 90 90 91 84 92 85 93 88 94 86 95 65 96 66 97
REMARK SMILES IDX 74 98 67 99 68 100 72 101 75 102 69 103 70 104 73 105 71 106
REMARK H PARENT 1 11 1 12 1 13 95 59 63 70
REMARK Flexibility Score: inf
ROOT
ATOM      1  C   UNL A   1      40.488  20.912  26.530  1.00  0.00     0.188 C 
ENDROOT
BRANCH   1   2
ATOM      2  C   UNL A   1      39.117  21.349  25.965  1.00  0.00     0.188 C 
BRANCH   2   3
ATOM      3  O   UNL A   1      38.766  22.713  25.934  1.00  0.00    -0.376 OA
BRANCH   3   4
ATOM      4  C   UNL A   1      37.413  23.122  25.885  1.00  0.00     0.202 C 
BRANCH   4   5
ATOM      5  C   UNL A   1      36.770  23.710  24.637  1.00  0.00     0.261 C 
BRANCH   5   6
ATOM      6  O   UNL A   1      36.099  22.815  23.739  1.00  0.00    -0.459 OA
BRANCH   6   7
ATOM      7  C   UNL A   1      34.879  23.211  23.295  1.00  0.00     0.365 C 
ATOM      8  O   UNL A   1      34.678  24.261  22.692  1.00  0.00    -0.245 OA
BRANCH   7   9
ATOM      9  C   UNL A   1      33.749  22.204  23.582  1.00  0.00     0.301 C 
BRANCH   9  10
ATOM     10  N   UNL A   1      32.654  22.411  22.595  1.00  0.00    -0.345 N 
ATOM     11  H   UNL A   1      31.833  21.878  22.882  1.00  0.00     0.345 HD
ATOM     12  H   UNL A   1      32.960  22.094  21.675  1.00  0.00     0.345 HD
ATOM     13  H   UNL A   1      32.419  23.403  22.553  1.00  0.00     0.345 HD
ENDBRANCH   9  10
BRANCH   9  14
ATOM     14  C   UNL A   1      33.263  22.078  25.048  1.00  0.00     0.147 C 
BRANCH  14  15
ATOM     15  S   UNL A   1      33.391  23.621  26.043  1.00  0.00    -0.141 SA
BRANCH  15  16
ATOM     16  C   UNL A   1      31.643  24.054  26.380  1.00  0.00     0.146 C 
ATOM     17  C   UNL A   1      30.771  23.395  25.321  1.00  0.00     0.125 C 
ATOM     18  C   UNL A   1      31.285  25.497  26.154  1.00  0.00     0.247 C 
ATOM     19  C   UNL A   1      30.623  24.471  24.271  1.00  0.00     0.235 C 
ATOM     20  N   UNL A   1      31.050  25.657  24.808  1.00  0.00    -0.250 N 
ATOM     21  O   UNL A   1      31.122  26.306  27.056  1.00  0.00    -0.273 OA
ATOM     22  O   UNL A   1      30.080  24.289  23.193  1.00  0.00    -0.274 OA
BRANCH  20  23
ATOM     23  C   UNL A   1      30.820  26.907  24.199  1.00  0.00     0.052 A 
ATOM     24  C   UNL A   1      31.853  27.590  23.560  1.00  0.00     0.027 A 
ATOM     25  C   UNL A   1      29.507  27.386  24.086  1.00  0.00     0.035 A 
ATOM     26  C   UNL A   1      31.570  28.722  22.784  1.00  0.00     0.011 A 
ATOM     27  C   UNL A   1      29.198  28.462  23.229  1.00  0.00    -0.016 A 
ATOM     28  C   UNL A   1      30.246  29.142  22.573  1.00  0.00    -0.018 A 
ATOM     29  C   UNL A   1      27.867  28.810  22.930  1.00  0.00     0.009 A 
ATOM     30  C   UNL A   1      29.935  30.178  21.674  1.00  0.00     0.009 A 
ATOM     31  C   UNL A   1      27.574  29.798  21.989  1.00  0.00     0.001 A 
ATOM     32  C   UNL A   1      28.608  30.494  21.373  1.00  0.00     0.001 A 
ENDBRANCH  20  23
ENDBRANCH  15  16
ENDBRANCH  14  15
ENDBRANCH   9  14
ENDBRANCH   7   9
ENDBRANCH   6   7
ENDBRANCH   5   6
ENDBRANCH   4   5
ENDBRANCH   3   4
ENDBRANCH   2   3
ENDBRANCH   1   2
BRANCH   1  33
ATOM     33  O   UNL A   1      41.491  20.331  25.718  1.00  0.00    -0.377 OA
BRANCH  33  34
ATOM     34  C   UNL A   1      42.748  19.942  26.257  1.00  0.00     0.188 C 
BRANCH  34  35
ATOM     35  C   UNL A   1      43.787  19.182  25.408  1.00  0.00     0.188 C 
BRANCH  35  36
ATOM     36  O   UNL A   1      44.663  20.010  24.669  1.00  0.00    -0.376 OA
BRANCH  36  37
ATOM     37  C   UNL A   1      45.529  20.880  25.375  1.00  0.00     0.202 C 
BRANCH  37  38
ATOM     38  C   UNL A   1      45.631  22.339  24.905  1.00  0.00     0.261 C 
BRANCH  38  39
ATOM     39  O   UNL A   1      44.794  23.288  25.584  1.00  0.00    -0.460 OA
BRANCH  39  40
ATOM     40  C   UNL A   1      43.581  23.540  25.043  1.00  0.00     0.338 C 
ATOM     41  O   UNL A   1      43.046  22.960  24.123  1.00  0.00    -0.246 OA
BRANCH  40  42
ATOM     42  C   UNL A   1      42.925  24.560  25.885  1.00  0.00     0.060 A 
ATOM     43  C   UNL A   1      43.387  25.883  25.847  1.00  0.00     0.016 A 
ATOM     44  C   UNL A   1      41.877  24.197  26.733  1.00  0.00     0.016 A 
ATOM     45  C   UNL A   1      42.831  26.840  26.694  1.00  0.00     0.010 A 
ATOM     46  C   UNL A   1      41.337  25.151  27.598  1.00  0.00     0.010 A 
ATOM     47  C   UNL A   1      41.841  26.464  27.611  1.00  0.00    -0.014 A 
BRANCH  47  48
ATOM     48  C   UNL A   1      41.494  27.373  28.729  1.00  0.00     0.031 A 
ATOM     49  C   UNL A   1      42.329  27.305  29.979  1.00  0.00     0.074 A 
ATOM     50  C   UNL A   1      40.483  28.253  28.633  1.00  0.00     0.049 A 
ATOM     51  N   UNL A   1      42.183  27.938  31.115  1.00  0.00    -0.248 NA
ATOM     52  C   UNL A   1      43.486  26.396  29.940  1.00  0.00     0.031 C 
ATOM     53  C   UNL A   1      39.645  28.454  27.454  1.00  0.00     0.029 A 
ATOM     54  N   UNL A   1      39.987  29.137  29.558  1.00  0.00    -0.354 N 
ATOM     55  C   UNL A   1      43.221  27.496  31.926  1.00  0.00     0.074 A 
ATOM     56  C   UNL A   1      43.970  26.519  31.166  1.00  0.00     0.031 C 
ATOM     57  C   UNL A   1      38.726  29.396  27.731  1.00  0.00     0.029 A 
ATOM     58  C   UNL A   1      38.888  29.831  29.118  1.00  0.00     0.049 A 
ATOM     59  H   UNL A   1      40.381  29.261  30.452  1.00  0.00     0.167 HD
ATOM     60  C   UNL A   1      43.528  27.878  33.188  1.00  0.00     0.037 A 
ATOM     61  C   UNL A   1      38.092  30.698  29.774  1.00  0.00     0.037 A 
ATOM     62  C   UNL A   1      42.777  28.849  33.939  1.00  0.00     0.049 A 
ATOM     63  C   UNL A   1      38.397  31.036  31.213  1.00  0.00     0.074 A 
ATOM     64  C   UNL A   1      43.006  29.311  35.222  1.00  0.00     0.029 A 
ATOM     65  N   UNL A   1      41.643  29.501  33.475  1.00  0.00    -0.354 N 
ATOM     66  N   UNL A   1      39.385  30.625  31.973  1.00  0.00    -0.248 NA
ATOM     67  C   UNL A   1      37.474  31.963  31.886  1.00  0.00     0.031 C 
ATOM     68  C   UNL A   1      41.975  30.195  35.558  1.00  0.00     0.029 A 
ATOM     69  C   UNL A   1      41.145  30.339  34.459  1.00  0.00     0.049 A 
ATOM     70  H   UNL A   1      41.252  29.385  32.579  1.00  0.00     0.167 HD
ATOM     71  C   UNL A   1      39.224  31.270  33.194  1.00  0.00     0.074 A 
ATOM     72  C   UNL A   1      38.050  32.108  33.070  1.00  0.00     0.031 C 
ATOM     73  C   UNL A   1      39.981  31.178  34.316  1.00  0.00     0.037 A 
BRANCH  60  74
ATOM     74  C   UNL A   1      44.705  27.220  33.846  1.00  0.00     0.064 A 
ATOM     75  C   UNL A   1      44.548  26.200  34.798  1.00  0.00     0.173 A 
ATOM     76  C   UNL A   1      46.012  27.595  33.500  1.00  0.00     0.173 A 
ATOM     77  F   UNL A   1      43.321  25.814  35.178  1.00  0.00    -0.203 F 
ATOM     78  C   UNL A   1      45.654  25.601  35.396  1.00  0.00     0.198 A 
ATOM     79  C   UNL A   1      47.116  26.970  34.074  1.00  0.00     0.198 A 
ATOM     80  F   UNL A   1      46.220  28.564  32.595  1.00  0.00    -0.203 F 
ATOM     81  F   UNL A   1      45.479  24.667  36.341  1.00  0.00    -0.200 F 
ATOM     82  C   UNL A   1      46.937  25.980  35.027  1.00  0.00     0.200 A 
ATOM     83  F   UNL A   1      48.353  27.328  33.705  1.00  0.00    -0.200 F 
ATOM     84  F   UNL A   1      48.000  25.396  35.596  1.00  0.00    -0.200 F 
ENDBRANCH  60  74
BRANCH  61  85
ATOM     85  C   UNL A   1      36.917  31.300  29.088  1.00  0.00     0.064 A 
ATOM     86  C   UNL A   1      36.888  32.664  28.764  1.00  0.00     0.173 A 
ATOM     87  C   UNL A   1      35.786  30.533  28.770  1.00  0.00     0.173 A 
ATOM     88  F   UNL A   1      37.934  33.446  29.070  1.00  0.00    -0.203 F 
ATOM     89  C   UNL A   1      35.766  33.242  28.172  1.00  0.00     0.198 A 
ATOM     90  C   UNL A   1      34.678  31.105  28.147  1.00  0.00     0.198 A 
ATOM     91  F   UNL A   1      35.758  29.224  29.058  1.00  0.00    -0.203 F 
ATOM     92  F   UNL A   1      35.746  34.559  27.923  1.00  0.00    -0.200 F 
ATOM     93  C   UNL A   1      34.665  32.460  27.858  1.00  0.00     0.200 A 
ATOM     94  F   UNL A   1      33.623  30.341  27.831  1.00  0.00    -0.200 F 
ATOM     95  F   UNL A   1      33.588  33.015  27.286  1.00  0.00    -0.200 F 
ENDBRANCH  61  85
BRANCH  73  96
ATOM     96  C   UNL A   1      39.599  32.043  35.485  1.00  0.00     0.064 A 
ATOM     97  C   UNL A   1      40.073  33.356  35.624  1.00  0.00     0.173 A 
ATOM     98  C   UNL A   1      38.705  31.563  36.456  1.00  0.00     0.173 A 
ATOM     99  F   UNL A   1      40.937  33.859  34.731  1.00  0.00    -0.203 F 
ATOM    100  C   UNL A   1      39.693  34.143  36.708  1.00  0.00     0.198 A 
ATOM    101  C   UNL A   1      38.298  32.366  37.517  1.00  0.00     0.198 A 
ATOM    102  F   UNL A   1      38.212  30.319  36.367  1.00  0.00    -0.203 F 
ATOM    103  F   UNL A   1      40.202  35.375  36.849  1.00  0.00    -0.200 F 
ATOM    104  C   UNL A   1      38.800  33.652  37.648  1.00  0.00     0.200 A 
ATOM    105  F   UNL A   1      37.420  31.896  38.414  1.00  0.00    -0.200 F 
ATOM    106  F   UNL A   1      38.428  34.415  38.685  1.00  0.00    -0.200 F 
ENDBRANCH  73  96
ENDBRANCH  47  48
ENDBRANCH  40  42
ENDBRANCH  39  40
ENDBRANCH  38  39
ENDBRANCH  37  38
ENDBRANCH  36  37
ENDBRANCH  35  36
ENDBRANCH  34  35
ENDBRANCH  33  34
ENDBRANCH   1  33
TORSDOF 25
ENDMDL
MODEL 3
REMARK VINA RESULT:     -10.4      1.444      6.966
REMARK SMILES [NH3+][C@H](CS[C@@H]1CC(=O)N(c2ccc3ccccc3c2)C1=O)C(=O)OCCOCCOCCOCCOC(=O)c1ccc(-c2c3nc(c(-c4c(F)c(F)c(F)c(F)c4F)c4ccc([nH]4)c(-c4c(F)c(F)c(F)c(F)c4F)c4nc(c(-c5c(F)c(F)c(F)c(F)c5F)c5ccc2[nH]5)C=C4)C=C3)cc1
REMARK SMILES IDX 29 1 28 2 27 3 26 4 25 5 24 6 22 7 23 8 2 9 1 10 3 14 4 15
REMARK SMILES IDX 5 16 6 17 20 18 7 19 9 20 21 21 8 22 10 23 11 24 19 25 12 26
REMARK SMILES IDX 18 27 13 28 17 29 14 30 16 31 15 32 30 33 31 34 32 35 33 36
REMARK SMILES IDX 34 37 35 38 36 39 37 40 38 41 39 42 40 43 101 44 41 45
REMARK SMILES IDX 100 46 42 47 43 48 44 49 94 50 45 51 99 52 93 53 95 54 46 55
REMARK SMILES IDX 98 56 92 57 91 58 47 60 79 61 59 62 78 63 60 64 63 65 77 66
REMARK SMILES IDX 96 67 61 68 62 69 76 71 97 72 64 73 48 74 49 75 57 76 50 77
REMARK SMILES IDX 51 78 55 79 58 80 52 81 53 82 56 83 54 84 80 85 81 86 89 87
REMARK SMILES IDX 82 88 83 89 87 90 90 91 84 92 85 93 88 94 86 95 65 96 66 97
REMARK SMILES IDX 74 98 67 99 68 100 72 101 75 102 69 103 70 104 73 105 71 106
REMARK H PARENT 1 11 1 12 1 13 95 59 63 70
REMARK Flexibility Score: inf
ROOT
ATOM      1  C   UNL A   1      40.425  21.003  26.541  1.00  0.00     0.188 C 
ENDROOT
BRANCH   1   2
ATOM      2  C   UNL A   1      39.131  21.626  25.972  1.00  0.00     0.188 C 
BRANCH   2   3
ATOM      3  O   UNL A   1      38.855  22.993  26.174  1.00  0.00    -0.376 OA
BRANCH   3   4
ATOM      4  C   UNL A   1      37.557  23.517  25.978  1.00  0.00     0.202 C 
BRANCH   4   5
ATOM      5  C   UNL A   1      36.895  23.601  24.609  1.00  0.00     0.261 C 
BRANCH   5   6
ATOM      6  O   UNL A   1      36.164  22.457  24.144  1.00  0.00    -0.459 OA
BRANCH   6   7
ATOM      7  C   UNL A   1      34.950  22.705  23.590  1.00  0.00     0.365 C 
ATOM      8  O   UNL A   1      34.740  23.598  22.774  1.00  0.00    -0.245 OA
BRANCH   7   9
ATOM      9  C   UNL A   1      33.841  21.738  24.047  1.00  0.00     0.301 C 
BRANCH   9  10
ATOM     10  N   UNL A   1      32.749  21.742  23.036  1.00  0.00    -0.345 N 
ATOM     11  H   UNL A   1      31.846  21.723  23.511  1.00  0.00     0.345 HD
ATOM     12  H   UNL A   1      32.834  20.919  22.438  1.00  0.00     0.345 HD
ATOM     13  H   UNL A   1      32.817  22.585  22.466  1.00  0.00     0.345 HD
ENDBRANCH   9  10
BRANCH   9  14
ATOM     14  C   UNL A   1      33.348  21.861  25.510  1.00  0.00     0.147 C 
BRANCH  14  15
ATOM     15  S   UNL A   1      33.369  23.570  26.195  1.00  0.00    -0.141 SA
BRANCH  15  16
ATOM     16  C   UNL A   1      31.592  23.968  26.394  1.00  0.00     0.146 C 
ATOM     17  C   UNL A   1      30.819  23.292  25.271  1.00  0.00     0.125 C 
ATOM     18  C   UNL A   1      31.225  25.404  26.138  1.00  0.00     0.247 C 
ATOM     19  C   UNL A   1      30.732  24.365  24.211  1.00  0.00     0.235 C 
ATOM     20  N   UNL A   1      31.094  25.559  24.778  1.00  0.00    -0.250 N 
ATOM     21  O   UNL A   1      30.976  26.210  27.023  1.00  0.00    -0.273 OA
ATOM     22  O   UNL A   1      30.280  24.173  23.093  1.00  0.00    -0.274 OA
BRANCH  20  23
ATOM     23  C   UNL A   1      30.888  26.805  24.150  1.00  0.00     0.052 A 
ATOM     24  C   UNL A   1      31.893  27.393  23.384  1.00  0.00     0.027 A 
ATOM     25  C   UNL A   1      29.607  27.375  24.156  1.00  0.00     0.035 A 
ATOM     26  C   UNL A   1      31.609  28.519  22.601  1.00  0.00     0.011 A 
ATOM     27  C   UNL A   1      29.285  28.446  23.297  1.00  0.00    -0.016 A 
ATOM     28  C   UNL A   1      30.302  29.029  22.513  1.00  0.00    -0.018 A 
ATOM     29  C   UNL A   1      27.957  28.881  23.125  1.00  0.00     0.009 A 
ATOM     30  C   UNL A   1      29.971  30.058  21.613  1.00  0.00     0.009 A 
ATOM     31  C   UNL A   1      27.636  29.860  22.183  1.00  0.00     0.001 A 
ATOM     32  C   UNL A   1      28.645  30.461  21.439  1.00  0.00     0.001 A 
ENDBRANCH  20  23
ENDBRANCH  15  16
ENDBRANCH  14  15
ENDBRANCH   9  14
ENDBRANCH   7   9
ENDBRANCH   6   7
ENDBRANCH   5   6
ENDBRANCH   4   5
ENDBRANCH   3   4
ENDBRANCH   2   3
ENDBRANCH   1   2
BRANCH   1  33
ATOM     33  O   UNL A   1      41.420  20.435  25.709  1.00  0.00    -0.377 OA
BRANCH  33  34
ATOM     34  C   UNL A   1      42.675  20.019  26.232  1.00  0.00     0.188 C 
BRANCH  34  35
ATOM     35  C   UNL A   1      43.653  19.167  25.397  1.00  0.00     0.188 C 
BRANCH  35  36
ATOM     36  O   UNL A   1      44.460  19.904  24.502  1.00  0.00    -0.376 OA
BRANCH  36  37
ATOM     37  C   UNL A   1      45.564  20.624  25.021  1.00  0.00     0.202 C 
BRANCH  37  38
ATOM     38  C   UNL A   1      45.718  22.100  24.623  1.00  0.00     0.261 C 
BRANCH  38  39
ATOM     39  O   UNL A   1      44.976  23.052  25.401  1.00  0.00    -0.460 OA
BRANCH  39  40
ATOM     40  C   UNL A   1      43.766  23.427  24.929  1.00  0.00     0.338 C 
ATOM     41  O   UNL A   1      43.159  22.955  23.992  1.00  0.00    -0.246 OA
BRANCH  40  42
ATOM     42  C   UNL A   1      43.214  24.423  25.869  1.00  0.00     0.060 A 
ATOM     43  C   UNL A   1      43.655  25.752  25.797  1.00  0.00     0.016 A 
ATOM     44  C   UNL A   1      42.287  24.032  26.837  1.00  0.00     0.016 A 
ATOM     45  C   UNL A   1      43.204  26.686  26.728  1.00  0.00     0.010 A 
ATOM     46  C   UNL A   1      41.854  24.963  27.783  1.00  0.00     0.010 A 
ATOM     47  C   UNL A   1      42.343  26.281  27.757  1.00  0.00    -0.014 A 
BRANCH  47  48
ATOM     48  C   UNL A   1      42.135  27.166  28.928  1.00  0.00     0.031 A 
ATOM     49  C   UNL A   1      40.909  28.038  28.945  1.00  0.00     0.074 A 
ATOM     50  C   UNL A   1      42.994  27.180  29.961  1.00  0.00     0.049 A 
ATOM     51  N   UNL A   1      40.543  28.945  29.814  1.00  0.00    -0.248 NA
ATOM     52  C   UNL A   1      39.969  27.862  27.826  1.00  0.00     0.031 C 
ATOM     53  C   UNL A   1      44.180  26.337  30.086  1.00  0.00     0.029 A 
ATOM     54  N   UNL A   1      42.999  27.946  31.100  1.00  0.00    -0.354 N 
ATOM     55  C   UNL A   1      39.339  29.453  29.340  1.00  0.00     0.074 A 
ATOM     56  C   UNL A   1      39.052  28.778  28.094  1.00  0.00     0.031 C 
ATOM     57  C   UNL A   1      44.808  26.642  31.236  1.00  0.00     0.029 A 
ATOM     58  C   UNL A   1      44.089  27.727  31.903  1.00  0.00     0.049 A 
ATOM     59  H   UNL A   1      42.287  28.590  31.320  1.00  0.00     0.167 HD
ATOM     60  C   UNL A   1      38.540  30.391  29.901  1.00  0.00     0.037 A 
ATOM     61  C   UNL A   1      44.472  28.353  33.033  1.00  0.00     0.037 A 
ATOM     62  C   UNL A   1      38.833  31.061  31.140  1.00  0.00     0.049 A 
ATOM     63  C   UNL A   1      43.614  29.465  33.587  1.00  0.00     0.074 A 
ATOM     64  C   UNL A   1      38.088  32.023  31.797  1.00  0.00     0.029 A 
ATOM     65  N   UNL A   1      39.970  30.843  31.905  1.00  0.00    -0.354 N 
ATOM     66  N   UNL A   1      42.472  29.934  33.144  1.00  0.00    -0.248 NA
ATOM     67  C   UNL A   1      44.100  30.133  34.805  1.00  0.00     0.031 C 
ATOM     68  C   UNL A   1      38.803  32.433  32.926  1.00  0.00     0.029 A 
ATOM     69  C   UNL A   1      39.960  31.675  33.012  1.00  0.00     0.049 A 
ATOM     70  H   UNL A   1      40.678  30.193  31.692  1.00  0.00     0.167 HD
ATOM     71  C   UNL A   1      42.086  30.920  34.044  1.00  0.00     0.074 A 
ATOM     72  C   UNL A   1      43.110  30.974  35.066  1.00  0.00     0.031 C 
ATOM     73  C   UNL A   1      40.982  31.709  34.028  1.00  0.00     0.037 A 
BRANCH  60  74
ATOM     74  C   UNL A   1      37.291  30.772  29.160  1.00  0.00     0.064 A 
ATOM     75  C   UNL A   1      37.098  32.065  28.648  1.00  0.00     0.173 A 
ATOM     76  C   UNL A   1      36.283  29.822  28.935  1.00  0.00     0.173 A 
ATOM     77  F   UNL A   1      38.022  33.016  28.849  1.00  0.00    -0.203 F 
ATOM     78  C   UNL A   1      35.932  32.397  27.961  1.00  0.00     0.198 A 
ATOM     79  C   UNL A   1      35.135  30.148  28.219  1.00  0.00     0.198 A 
ATOM     80  F   UNL A   1      36.416  28.571  29.402  1.00  0.00    -0.203 F 
ATOM     81  F   UNL A   1      35.746  33.652  27.528  1.00  0.00    -0.200 F 
ATOM     82  C   UNL A   1      34.956  31.437  27.740  1.00  0.00     0.200 A 
ATOM     83  F   UNL A   1      34.200  29.215  27.993  1.00  0.00    -0.200 F 
ATOM     84  F   UNL A   1      33.839  31.755  27.071  1.00  0.00    -0.200 F 
ENDBRANCH  60  74
BRANCH  61  85
ATOM     85  C   UNL A   1      45.736  27.962  33.714  1.00  0.00     0.064 A 
ATOM     86  C   UNL A   1      46.938  28.632  33.447  1.00  0.00     0.173 A 
ATOM     87  C   UNL A   1      45.775  26.891  34.620  1.00  0.00     0.173 A 
ATOM     88  F   UNL A   1      46.960  29.646  32.570  1.00  0.00    -0.203 F 
ATOM     89  C   UNL A   1      48.135  28.231  34.042  1.00  0.00     0.198 A 
ATOM     90  C   UNL A   1      46.965  26.514  35.240  1.00  0.00     0.198 A 
ATOM     91  F   UNL A   1      44.654  26.214  34.911  1.00  0.00    -0.203 F 
ATOM     92  F   UNL A   1      49.278  28.855  33.727  1.00  0.00    -0.200 F 
ATOM     93  C   UNL A   1      48.145  27.177  34.942  1.00  0.00     0.200 A 
ATOM     94  F   UNL A   1      46.966  25.504  36.121  1.00  0.00    -0.200 F 
ATOM     95  F   UNL A   1      49.294  26.794  35.516  1.00  0.00    -0.200 F 
ENDBRANCH  61  85
BRANCH  73  96
ATOM     96  C   UNL A   1      40.793  32.663  35.175  1.00  0.00     0.064 A 
ATOM     97  C   UNL A   1      40.288  32.243  36.415  1.00  0.00     0.173 A 
ATOM     98  C   UNL A   1      41.169  34.010  35.043  1.00  0.00     0.173 A 
ATOM     99  F   UNL A   1      39.903  30.971  36.592  1.00  0.00    -0.203 F 
ATOM    100  C   UNL A   1      40.136  33.142  37.467  1.00  0.00     0.198 A 
ATOM    101  C   UNL A   1      41.051  34.896  36.109  1.00  0.00     0.198 A 
ATOM    102  F   UNL A   1      41.667  34.462  33.883  1.00  0.00    -0.203 F 
ATOM    103  F   UNL A   1      39.600  32.731  38.625  1.00  0.00    -0.200 F 
ATOM    104  C   UNL A   1      40.525  34.465  37.317  1.00  0.00     0.200 A 
ATOM    105  F   UNL A   1      41.445  36.169  35.967  1.00  0.00    -0.200 F 
ATOM    106  F   UNL A   1      40.387  35.326  38.334  1.00  0.00    -0.200 F 
ENDBRANCH  73  96
ENDBRANCH  47  48
ENDBRANCH  40  42
ENDBRANCH  39  40
ENDBRANCH  38  39
ENDBRANCH  37  38
ENDBRANCH  36  37
ENDBRANCH  35  36
ENDBRANCH  34  35
ENDBRANCH  33  34
ENDBRANCH   1  33
TORSDOF 25
ENDMDL
