MODEL 1
REMARK VINA RESULT:     -10.6      0.000      0.000
REMARK SMILES CC1C[NH+]([C@@H](C(=O)OCCOCCOCCOCCOC(=O)c2ccc(-c3c4nc(c(-c5c(F)c(F)c(F)c(F)c5F)c5ccc([nH]5)c(-c5c(F)c(F)c(F)c(F)c5F)c5nc(c(-c6c(F)c(F)c(F)c(F)c6F)c6ccc3[nH]6)C=C5)C=C4)cc2)C2CCCCC2)C1
REMARK SMILES IDX 15 1 14 2 13 3 12 4 11 5 10 6 9 7 8 8 6 9 7 10 5 11 4 12
REMARK SMILES IDX 1 13 2 14 3 15 92 16 86 18 87 19 91 20 88 21 90 22 89 23
REMARK SMILES IDX 16 24 17 25 18 26 19 27 20 28 21 29 22 30 23 31 24 32 85 33
REMARK SMILES IDX 25 34 84 35 26 36 27 37 28 38 78 39 29 40 83 41 77 42 79 43
REMARK SMILES IDX 30 44 82 45 76 46 75 47 31 49 63 50 43 51 62 52 44 53 47 54
REMARK SMILES IDX 61 55 80 56 45 57 46 58 60 60 81 61 48 62 32 63 33 64 41 65
REMARK SMILES IDX 34 66 35 67 39 68 42 69 36 70 37 71 40 72 38 73 64 74 65 75
REMARK SMILES IDX 73 76 66 77 67 78 71 79 74 80 68 81 69 82 72 83 70 84 49 85
REMARK SMILES IDX 50 86 58 87 51 88 52 89 56 90 59 91 53 92 54 93 57 94 55 95
REMARK H PARENT 4 17 79 48 47 59
REMARK Flexibility Score: inf
ROOT
ATOM      1  C   UNL A   1      41.198  20.694  26.847  1.00  0.00     0.188 C 
ENDROOT
BRANCH   1   2
ATOM      2  O   UNL A   1      40.475  21.606  26.040  1.00  0.00    -0.377 OA
BRANCH   2   3
ATOM      3  C   UNL A   1      39.068  21.700  26.135  1.00  0.00     0.188 C 
BRANCH   3   4
ATOM      4  C   UNL A   1      38.587  23.158  26.114  1.00  0.00     0.188 C 
BRANCH   4   5
ATOM      5  O   UNL A   1      37.518  23.472  25.233  1.00  0.00    -0.376 OA
BRANCH   5   6
ATOM      6  C   UNL A   1      36.919  22.387  24.523  1.00  0.00     0.202 C 
BRANCH   6   7
ATOM      7  C   UNL A   1      35.862  22.675  23.428  1.00  0.00     0.261 C 
BRANCH   7   8
ATOM      8  O   UNL A   1      35.526  24.067  23.154  1.00  0.00    -0.459 OA
BRANCH   8   9
ATOM      9  C   UNL A   1      34.202  24.356  23.088  1.00  0.00     0.365 C 
ATOM     10  O   UNL A   1      33.682  24.789  22.057  1.00  0.00    -0.245 OA
BRANCH   9  11
ATOM     11  C   UNL A   1      33.323  24.129  24.338  1.00  0.00     0.298 C 
BRANCH  11  12
ATOM     12  N   UNL A   1      32.419  22.971  24.535  1.00  0.00    -0.322 N 
ATOM     13  C   UNL A   1      32.455  19.555  24.370  1.00  0.00     0.020 C 
ATOM     14  C   UNL A   1      33.038  20.954  24.387  1.00  0.00     0.096 C 
ATOM     15  C   UNL A   1      32.298  21.959  23.497  1.00  0.00     0.272 C 
ATOM     16  C   UNL A   1      32.787  21.960  25.537  1.00  0.00     0.272 C 
ATOM     17  H   UNL A   1      31.625  23.587  24.704  1.00  0.00     0.348 HD
ENDBRANCH  11  12
BRANCH  11  18
ATOM     18  C   UNL A   1      32.814  25.508  24.917  1.00  0.00     0.059 C 
ATOM     19  C   UNL A   1      31.423  25.524  25.578  1.00  0.00     0.010 C 
ATOM     20  C   UNL A   1      33.848  26.128  25.877  1.00  0.00     0.010 C 
ATOM     21  C   UNL A   1      31.006  26.911  26.067  1.00  0.00     0.001 C 
ATOM     22  C   UNL A   1      33.423  27.519  26.346  1.00  0.00     0.001 C 
ATOM     23  C   UNL A   1      32.051  27.494  27.008  1.00  0.00     0.000 C 
ENDBRANCH  11  18
ENDBRANCH   9  11
ENDBRANCH   8   9
ENDBRANCH   7   8
ENDBRANCH   6   7
ENDBRANCH   5   6
ENDBRANCH   4   5
ENDBRANCH   3   4
ENDBRANCH   2   3
ENDBRANCH   1   2
BRANCH   1  24
ATOM     24  C   UNL A   1      42.023  19.635  26.121  1.00  0.00     0.188 C 
BRANCH  24  25
ATOM     25  O   UNL A   1      43.000  20.104  25.188  1.00  0.00    -0.376 OA
BRANCH  25  26
ATOM     26  C   UNL A   1      43.856  21.185  25.556  1.00  0.00     0.202 C 
BRANCH  26  27
ATOM     27  C   UNL A   1      44.058  22.234  24.467  1.00  0.00     0.261 C 
BRANCH  27  28
ATOM     28  O   UNL A   1      43.262  23.402  24.727  1.00  0.00    -0.460 OA
BRANCH  28  29
ATOM     29  C   UNL A   1      43.952  24.526  25.011  1.00  0.00     0.338 C 
ATOM     30  O   UNL A   1      45.030  24.876  24.555  1.00  0.00    -0.246 OA
BRANCH  29  31
ATOM     31  C   UNL A   1      43.126  25.396  25.862  1.00  0.00     0.060 A 
ATOM     32  C   UNL A   1      43.449  26.759  25.923  1.00  0.00     0.016 A 
ATOM     33  C   UNL A   1      42.102  24.869  26.651  1.00  0.00     0.016 A 
ATOM     34  C   UNL A   1      42.790  27.588  26.822  1.00  0.00     0.010 A 
ATOM     35  C   UNL A   1      41.451  25.699  27.565  1.00  0.00     0.010 A 
ATOM     36  C   UNL A   1      41.830  27.048  27.686  1.00  0.00    -0.014 A 
BRANCH  36  37
ATOM     37  C   UNL A   1      41.395  27.836  28.860  1.00  0.00     0.031 A 
ATOM     38  C   UNL A   1      42.175  27.700  30.138  1.00  0.00     0.074 A 
ATOM     39  C   UNL A   1      40.358  28.686  28.777  1.00  0.00     0.049 A 
ATOM     40  N   UNL A   1      41.968  28.255  31.303  1.00  0.00    -0.248 NA
ATOM     41  C   UNL A   1      43.350  26.813  30.094  1.00  0.00     0.031 C 
ATOM     42  C   UNL A   1      39.568  28.938  27.574  1.00  0.00     0.029 A 
ATOM     43  N   UNL A   1      39.791  29.492  29.731  1.00  0.00    -0.354 N 
ATOM     44  C   UNL A   1      42.979  27.781  32.129  1.00  0.00     0.074 A 
ATOM     45  C   UNL A   1      43.779  26.867  31.344  1.00  0.00     0.031 C 
ATOM     46  C   UNL A   1      38.607  29.831  27.867  1.00  0.00     0.029 A 
ATOM     47  C   UNL A   1      38.694  30.182  29.283  1.00  0.00     0.049 A 
ATOM     48  H   UNL A   1      40.139  29.566  30.649  1.00  0.00     0.167 HD
ATOM     49  C   UNL A   1      43.223  28.089  33.424  1.00  0.00     0.037 A 
ATOM     50  C   UNL A   1      37.845  30.984  29.955  1.00  0.00     0.037 A 
ATOM     51  C   UNL A   1      42.419  28.999  34.197  1.00  0.00     0.049 A 
ATOM     52  C   UNL A   1      38.088  31.243  31.420  1.00  0.00     0.074 A 
ATOM     53  C   UNL A   1      42.584  29.392  35.513  1.00  0.00     0.029 A 
ATOM     54  N   UNL A   1      41.288  29.649  33.723  1.00  0.00    -0.354 N 
ATOM     55  N   UNL A   1      39.057  30.811  32.192  1.00  0.00    -0.248 NA
ATOM     56  C   UNL A   1      37.117  32.105  32.108  1.00  0.00     0.031 C 
ATOM     57  C   UNL A   1      41.515  30.228  35.854  1.00  0.00     0.029 A 
ATOM     58  C   UNL A   1      40.725  30.414  34.730  1.00  0.00     0.049 A 
ATOM     59  H   UNL A   1      40.938  29.576  32.805  1.00  0.00     0.167 HD
ATOM     60  C   UNL A   1      38.831  31.373  33.443  1.00  0.00     0.074 A 
ATOM     61  C   UNL A   1      37.642  32.189  33.323  1.00  0.00     0.031 C 
ATOM     62  C   UNL A   1      39.543  31.227  34.589  1.00  0.00     0.037 A 
BRANCH  49  63
ATOM     63  C   UNL A   1      44.382  27.411  34.096  1.00  0.00     0.064 A 
ATOM     64  C   UNL A   1      44.249  26.162  34.724  1.00  0.00     0.173 A 
ATOM     65  C   UNL A   1      45.652  28.008  34.090  1.00  0.00     0.173 A 
ATOM     66  F   UNL A   1      43.054  25.555  34.775  1.00  0.00    -0.203 F 
ATOM     67  C   UNL A   1      45.338  25.552  35.343  1.00  0.00     0.198 A 
ATOM     68  C   UNL A   1      46.745  27.379  34.680  1.00  0.00     0.198 A 
ATOM     69  F   UNL A   1      45.836  29.201  33.503  1.00  0.00    -0.203 F 
ATOM     70  F   UNL A   1      45.176  24.385  35.982  1.00  0.00    -0.200 F 
ATOM     71  C   UNL A   1      46.586  26.157  35.313  1.00  0.00     0.200 A 
ATOM     72  F   UNL A   1      47.952  27.960  34.637  1.00  0.00    -0.200 F 
ATOM     73  F   UNL A   1      47.633  25.565  35.902  1.00  0.00    -0.200 F 
ENDBRANCH  49  63
BRANCH  50  74
ATOM     74  C   UNL A   1      36.678  31.586  29.256  1.00  0.00     0.064 A 
ATOM     75  C   UNL A   1      36.630  32.957  28.972  1.00  0.00     0.173 A 
ATOM     76  C   UNL A   1      35.575  30.804  28.880  1.00  0.00     0.173 A 
ATOM     77  F   UNL A   1      37.649  33.751  29.333  1.00  0.00    -0.203 F 
ATOM     78  C   UNL A   1      35.514  33.528  28.363  1.00  0.00     0.198 A 
ATOM     79  C   UNL A   1      34.475  31.370  28.240  1.00  0.00     0.198 A 
ATOM     80  F   UNL A   1      35.569  29.486  29.128  1.00  0.00    -0.203 F 
ATOM     81  F   UNL A   1      35.471  34.851  28.154  1.00  0.00    -0.200 F 
ATOM     82  C   UNL A   1      34.440  32.733  27.992  1.00  0.00     0.200 A 
ATOM     83  F   UNL A   1      33.446  30.594  27.871  1.00  0.00    -0.200 F 
ATOM     84  F   UNL A   1      33.369  33.281  27.403  1.00  0.00    -0.200 F 
ENDBRANCH  50  74
BRANCH  62  85
ATOM     85  C   UNL A   1      39.080  31.998  35.793  1.00  0.00     0.064 A 
ATOM     86  C   UNL A   1      39.438  33.339  35.996  1.00  0.00     0.173 A 
ATOM     87  C   UNL A   1      38.229  31.397  36.735  1.00  0.00     0.173 A 
ATOM     88  F   UNL A   1      40.259  33.956  35.134  1.00  0.00    -0.203 F 
ATOM     89  C   UNL A   1      38.988  34.039  37.112  1.00  0.00     0.198 A 
ATOM     90  C   UNL A   1      37.749  32.112  37.829  1.00  0.00     0.198 A 
ATOM     91  F   UNL A   1      37.846  30.120  36.584  1.00  0.00    -0.203 F 
ATOM     92  F   UNL A   1      39.389  35.302  37.315  1.00  0.00    -0.200 F 
ATOM     93  C   UNL A   1      38.137  33.429  38.022  1.00  0.00     0.200 A 
ATOM     94  F   UNL A   1      36.912  31.526  38.696  1.00  0.00    -0.200 F 
ATOM     95  F   UNL A   1      37.697  34.108  39.090  1.00  0.00    -0.200 F 
ENDBRANCH  62  85
ENDBRANCH  36  37
ENDBRANCH  29  31
ENDBRANCH  28  29
ENDBRANCH  27  28
ENDBRANCH  26  27
ENDBRANCH  25  26
ENDBRANCH  24  25
ENDBRANCH   1  24
TORSDOF 22
ENDMDL
MODEL 2
REMARK VINA RESULT:     -10.4      1.003      2.092
REMARK SMILES CC1C[NH+]([C@@H](C(=O)OCCOCCOCCOCCOC(=O)c2ccc(-c3c4nc(c(-c5c(F)c(F)c(F)c(F)c5F)c5ccc([nH]5)c(-c5c(F)c(F)c(F)c(F)c5F)c5nc(c(-c6c(F)c(F)c(F)c(F)c6F)c6ccc3[nH]6)C=C5)C=C4)cc2)C2CCCCC2)C1
REMARK SMILES IDX 15 1 14 2 13 3 12 4 11 5 10 6 9 7 8 8 6 9 7 10 5 11 4 12
REMARK SMILES IDX 1 13 2 14 3 15 92 16 86 18 87 19 91 20 88 21 90 22 89 23
REMARK SMILES IDX 16 24 17 25 18 26 19 27 20 28 21 29 22 30 23 31 24 32 85 33
REMARK SMILES IDX 25 34 84 35 26 36 27 37 28 38 78 39 29 40 83 41 77 42 79 43
REMARK SMILES IDX 30 44 82 45 76 46 75 47 31 49 63 50 43 51 62 52 44 53 47 54
REMARK SMILES IDX 61 55 80 56 45 57 46 58 60 60 81 61 48 62 32 63 33 64 41 65
REMARK SMILES IDX 34 66 35 67 39 68 42 69 36 70 37 71 40 72 38 73 64 74 65 75
REMARK SMILES IDX 73 76 66 77 67 78 71 79 74 80 68 81 69 82 72 83 70 84 49 85
REMARK SMILES IDX 50 86 58 87 51 88 52 89 56 90 59 91 53 92 54 93 57 94 55 95
REMARK H PARENT 4 17 79 48 47 59
REMARK Flexibility Score: inf
ROOT
ATOM      1  C   UNL A   1      42.197  20.118  26.590  1.00  0.00     0.188 C 
ENDROOT
BRANCH   1   2
ATOM      2  O   UNL A   1      40.886  20.427  26.152  1.00  0.00    -0.377 OA
BRANCH   2   3
ATOM      3  C   UNL A   1      40.074  21.329  26.876  1.00  0.00     0.188 C 
BRANCH   3   4
ATOM      4  C   UNL A   1      39.320  22.293  25.949  1.00  0.00     0.188 C 
BRANCH   4   5
ATOM      5  O   UNL A   1      37.901  22.237  25.977  1.00  0.00    -0.376 OA
BRANCH   5   6
ATOM      6  C   UNL A   1      37.250  21.657  24.846  1.00  0.00     0.202 C 
BRANCH   6   7
ATOM      7  C   UNL A   1      35.722  21.834  24.664  1.00  0.00     0.261 C 
BRANCH   7   8
ATOM      8  O   UNL A   1      35.200  23.191  24.558  1.00  0.00    -0.459 OA
BRANCH   8   9
ATOM      9  C   UNL A   1      34.459  23.627  25.608  1.00  0.00     0.365 C 
ATOM     10  O   UNL A   1      34.722  23.302  26.768  1.00  0.00    -0.245 OA
BRANCH   9  11
ATOM     11  C   UNL A   1      33.258  24.561  25.340  1.00  0.00     0.298 C 
BRANCH  11  12
ATOM     12  N   UNL A   1      31.846  24.120  25.261  1.00  0.00    -0.322 N 
ATOM     13  C   UNL A   1      29.467  22.577  27.173  1.00  0.00     0.020 C 
ATOM     14  C   UNL A   1      30.788  23.258  26.877  1.00  0.00     0.096 C 
ATOM     15  C   UNL A   1      31.491  22.754  25.612  1.00  0.00     0.272 C 
ATOM     16  C   UNL A   1      30.888  24.664  26.235  1.00  0.00     0.272 C 
ATOM     17  H   UNL A   1      31.787  24.398  24.282  1.00  0.00     0.348 HD
ENDBRANCH  11  12
BRANCH  11  18
ATOM     18  C   UNL A   1      33.672  25.730  24.360  1.00  0.00     0.059 C 
ATOM     19  C   UNL A   1      33.020  25.743  22.964  1.00  0.00     0.010 C 
ATOM     20  C   UNL A   1      33.493  27.108  25.026  1.00  0.00     0.010 C 
ATOM     21  C   UNL A   1      33.517  26.886  22.080  1.00  0.00     0.001 C 
ATOM     22  C   UNL A   1      34.007  28.238  24.134  1.00  0.00     0.001 C 
ATOM     23  C   UNL A   1      33.330  28.230  22.770  1.00  0.00     0.000 C 
ENDBRANCH  11  18
ENDBRANCH   9  11
ENDBRANCH   8   9
ENDBRANCH   7   8
ENDBRANCH   6   7
ENDBRANCH   5   6
ENDBRANCH   4   5
ENDBRANCH   3   4
ENDBRANCH   2   3
ENDBRANCH   1   2
BRANCH   1  24
ATOM     24  C   UNL A   1      43.063  19.291  25.643  1.00  0.00     0.188 C 
BRANCH  24  25
ATOM     25  O   UNL A   1      43.818  20.009  24.663  1.00  0.00    -0.376 OA
BRANCH  25  26
ATOM     26  C   UNL A   1      44.512  21.195  25.049  1.00  0.00     0.202 C 
BRANCH  26  27
ATOM     27  C   UNL A   1      44.375  22.357  24.069  1.00  0.00     0.261 C 
BRANCH  27  28
ATOM     28  O   UNL A   1      43.575  23.410  24.633  1.00  0.00    -0.460 OA
BRANCH  28  29
ATOM     29  C   UNL A   1      44.249  24.518  25.003  1.00  0.00     0.338 C 
ATOM     30  O   UNL A   1      45.353  24.883  24.625  1.00  0.00    -0.246 OA
BRANCH  29  31
ATOM     31  C   UNL A   1      43.376  25.357  25.839  1.00  0.00     0.060 A 
ATOM     32  C   UNL A   1      43.607  26.739  25.855  1.00  0.00     0.016 A 
ATOM     33  C   UNL A   1      42.400  24.785  26.657  1.00  0.00     0.016 A 
ATOM     34  C   UNL A   1      42.903  27.548  26.740  1.00  0.00     0.010 A 
ATOM     35  C   UNL A   1      41.705  25.596  27.556  1.00  0.00     0.010 A 
ATOM     36  C   UNL A   1      41.993  26.971  27.632  1.00  0.00    -0.014 A 
BRANCH  36  37
ATOM     37  C   UNL A   1      41.518  27.763  28.788  1.00  0.00     0.031 A 
ATOM     38  C   UNL A   1      42.289  27.673  30.076  1.00  0.00     0.074 A 
ATOM     39  C   UNL A   1      40.455  28.576  28.680  1.00  0.00     0.049 A 
ATOM     40  N   UNL A   1      42.051  28.239  31.230  1.00  0.00    -0.248 NA
ATOM     41  C   UNL A   1      43.493  26.825  30.059  1.00  0.00     0.031 C 
ATOM     42  C   UNL A   1      39.670  28.782  27.465  1.00  0.00     0.029 A 
ATOM     43  N   UNL A   1      39.851  29.378  29.615  1.00  0.00    -0.354 N 
ATOM     44  C   UNL A   1      43.068  27.813  32.074  1.00  0.00     0.074 A 
ATOM     45  C   UNL A   1      43.906  26.913  31.312  1.00  0.00     0.031 C 
ATOM     46  C   UNL A   1      38.677  29.647  27.733  1.00  0.00     0.029 A 
ATOM     47  C   UNL A   1      38.737  30.024  29.145  1.00  0.00     0.049 A 
ATOM     48  H   UNL A   1      40.187  29.479  30.535  1.00  0.00     0.167 HD
ATOM     49  C   UNL A   1      43.288  28.150  33.366  1.00  0.00     0.037 A 
ATOM     50  C   UNL A   1      37.855  30.807  29.794  1.00  0.00     0.037 A 
ATOM     51  C   UNL A   1      42.445  29.044  34.116  1.00  0.00     0.049 A 
ATOM     52  C   UNL A   1      38.073  31.098  31.258  1.00  0.00     0.074 A 
ATOM     53  C   UNL A   1      42.583  29.464  35.426  1.00  0.00     0.029 A 
ATOM     54  N   UNL A   1      41.299  29.649  33.619  1.00  0.00    -0.354 N 
ATOM     55  N   UNL A   1      39.047  30.711  32.046  1.00  0.00    -0.248 NA
ATOM     56  C   UNL A   1      37.066  31.938  31.922  1.00  0.00     0.031 C 
ATOM     57  C   UNL A   1      41.483  30.270  35.743  1.00  0.00     0.029 A 
ATOM     58  C   UNL A   1      40.700  30.411  34.608  1.00  0.00     0.049 A 
ATOM     59  H   UNL A   1      40.961  29.550  32.699  1.00  0.00     0.167 HD
ATOM     60  C   UNL A   1      38.789  31.285  33.285  1.00  0.00     0.074 A 
ATOM     61  C   UNL A   1      37.575  32.059  33.140  1.00  0.00     0.031 C 
ATOM     62  C   UNL A   1      39.493  31.181  34.441  1.00  0.00     0.037 A 
BRANCH  49  63
ATOM     63  C   UNL A   1      44.461  27.522  34.061  1.00  0.00     0.064 A 
ATOM     64  C   UNL A   1      45.715  28.151  34.119  1.00  0.00     0.173 A 
ATOM     65  C   UNL A   1      44.323  26.280  34.699  1.00  0.00     0.173 A 
ATOM     66  F   UNL A   1      45.907  29.331  33.509  1.00  0.00    -0.203 F 
ATOM     67  C   UNL A   1      46.790  27.548  34.766  1.00  0.00     0.198 A 
ATOM     68  C   UNL A   1      45.391  25.696  35.375  1.00  0.00     0.198 A 
ATOM     69  F   UNL A   1      43.147  25.634  34.676  1.00  0.00    -0.203 F 
ATOM     70  F   UNL A   1      47.991  28.143  34.763  1.00  0.00    -0.200 F 
ATOM     71  C   UNL A   1      46.626  26.325  35.400  1.00  0.00     0.200 A 
ATOM     72  F   UNL A   1      45.225  24.522  35.998  1.00  0.00    -0.200 F 
ATOM     73  F   UNL A   1      47.660  25.750  36.030  1.00  0.00    -0.200 F 
ENDBRANCH  49  63
BRANCH  50  74
ATOM     74  C   UNL A   1      36.676  31.358  29.074  1.00  0.00     0.064 A 
ATOM     75  C   UNL A   1      36.588  32.722  28.760  1.00  0.00     0.173 A 
ATOM     76  C   UNL A   1      35.600  30.536  28.706  1.00  0.00     0.173 A 
ATOM     77  F   UNL A   1      37.580  33.554  29.112  1.00  0.00    -0.203 F 
ATOM     78  C   UNL A   1      35.461  33.245  28.130  1.00  0.00     0.198 A 
ATOM     79  C   UNL A   1      34.489  31.054  28.045  1.00  0.00     0.198 A 
ATOM     80  F   UNL A   1      35.632  29.224  28.982  1.00  0.00    -0.203 F 
ATOM     81  F   UNL A   1      35.380  34.561  27.892  1.00  0.00    -0.200 F 
ATOM     82  C   UNL A   1      34.415  32.410  27.768  1.00  0.00     0.200 A 
ATOM     83  F   UNL A   1      33.487  30.240  27.685  1.00  0.00    -0.200 F 
ATOM     84  F   UNL A   1      33.333  32.913  27.159  1.00  0.00    -0.200 F 
ENDBRANCH  50  74
BRANCH  62  85
ATOM     85  C   UNL A   1      38.992  31.956  35.628  1.00  0.00     0.064 A 
ATOM     86  C   UNL A   1      38.206  31.358  36.624  1.00  0.00     0.173 A 
ATOM     87  C   UNL A   1      39.343  33.306  35.792  1.00  0.00     0.173 A 
ATOM     88  F   UNL A   1      37.832  30.075  36.510  1.00  0.00    -0.203 F 
ATOM     89  C   UNL A   1      37.762  32.091  37.721  1.00  0.00     0.198 A 
ATOM     90  C   UNL A   1      38.931  34.024  36.910  1.00  0.00     0.198 A 
ATOM     91  F   UNL A   1      40.102  33.923  34.874  1.00  0.00    -0.203 F 
ATOM     92  F   UNL A   1      36.965  31.515  38.632  1.00  0.00    -0.200 F 
ATOM     93  C   UNL A   1      38.133  33.420  37.869  1.00  0.00     0.200 A 
ATOM     94  F   UNL A   1      39.306  35.303  37.059  1.00  0.00    -0.200 F 
ATOM     95  F   UNL A   1      37.714  34.120  38.932  1.00  0.00    -0.200 F 
ENDBRANCH  62  85
ENDBRANCH  36  37
ENDBRANCH  29  31
ENDBRANCH  28  29
ENDBRANCH  27  28
ENDBRANCH  26  27
ENDBRANCH  25  26
ENDBRANCH  24  25
ENDBRANCH   1  24
TORSDOF 22
ENDMDL
MODEL 3
REMARK VINA RESULT:     -10.4      1.120      2.808
REMARK SMILES CC1C[NH+]([C@@H](C(=O)OCCOCCOCCOCCOC(=O)c2ccc(-c3c4nc(c(-c5c(F)c(F)c(F)c(F)c5F)c5ccc([nH]5)c(-c5c(F)c(F)c(F)c(F)c5F)c5nc(c(-c6c(F)c(F)c(F)c(F)c6F)c6ccc3[nH]6)C=C5)C=C4)cc2)C2CCCCC2)C1
REMARK SMILES IDX 15 1 14 2 13 3 12 4 11 5 10 6 9 7 8 8 6 9 7 10 5 11 4 12
REMARK SMILES IDX 1 13 2 14 3 15 92 16 86 18 87 19 91 20 88 21 90 22 89 23
REMARK SMILES IDX 16 24 17 25 18 26 19 27 20 28 21 29 22 30 23 31 24 32 85 33
REMARK SMILES IDX 25 34 84 35 26 36 27 37 28 38 78 39 29 40 83 41 77 42 79 43
REMARK SMILES IDX 30 44 82 45 76 46 75 47 31 49 63 50 43 51 62 52 44 53 47 54
REMARK SMILES IDX 61 55 80 56 45 57 46 58 60 60 81 61 48 62 32 63 33 64 41 65
REMARK SMILES IDX 34 66 35 67 39 68 42 69 36 70 37 71 40 72 38 73 64 74 65 75
REMARK SMILES IDX 73 76 66 77 67 78 71 79 74 80 68 81 69 82 72 83 70 84 49 85
REMARK SMILES IDX 50 86 58 87 51 88 52 89 56 90 59 91 53 92 54 93 57 94 55 95
REMARK H PARENT 4 17 79 48 47 59
REMARK Flexibility Score: inf
ROOT
ATOM      1  C   UNL A   1      42.641  20.491  26.385  1.00  0.00     0.188 C 
ENDROOT
BRANCH   1   2
ATOM      2  O   UNL A   1      41.498  21.130  25.848  1.00  0.00    -0.377 OA
BRANCH   2   3
ATOM      3  C   UNL A   1      40.225  20.950  26.436  1.00  0.00     0.188 C 
BRANCH   3   4
ATOM      4  C   UNL A   1      39.564  22.290  26.792  1.00  0.00     0.188 C 
BRANCH   4   5
ATOM      5  O   UNL A   1      38.380  22.632  26.087  1.00  0.00    -0.376 OA
BRANCH   5   6
ATOM      6  C   UNL A   1      37.912  21.703  25.108  1.00  0.00     0.202 C 
BRANCH   6   7
ATOM      7  C   UNL A   1      36.457  21.178  25.180  1.00  0.00     0.261 C 
BRANCH   7   8
ATOM      8  O   UNL A   1      35.449  22.042  25.782  1.00  0.00    -0.459 OA
BRANCH   8   9
ATOM      9  C   UNL A   1      34.253  21.461  26.051  1.00  0.00     0.365 C 
ATOM     10  O   UNL A   1      33.960  21.073  27.184  1.00  0.00    -0.245 OA
BRANCH   9  11
ATOM     11  C   UNL A   1      33.229  21.290  24.907  1.00  0.00     0.298 C 
BRANCH  11  12
ATOM     12  N   UNL A   1      32.027  22.137  24.716  1.00  0.00    -0.322 N 
ATOM     13  C   UNL A   1      30.598  24.985  25.957  1.00  0.00     0.020 C 
ATOM     14  C   UNL A   1      31.684  23.948  25.752  1.00  0.00     0.096 C 
ATOM     15  C   UNL A   1      31.203  22.497  25.859  1.00  0.00     0.272 C 
ATOM     16  C   UNL A   1      32.217  23.549  24.354  1.00  0.00     0.272 C 
ATOM     17  H   UNL A   1      31.645  21.484  24.031  1.00  0.00     0.348 HD
ENDBRANCH  11  12
BRANCH  11  18
ATOM     18  C   UNL A   1      33.065  19.764  24.532  1.00  0.00     0.059 C 
ATOM     19  C   UNL A   1      32.390  19.438  23.186  1.00  0.00     0.010 C 
ATOM     20  C   UNL A   1      34.409  19.017  24.629  1.00  0.00     0.010 C 
ATOM     21  C   UNL A   1      32.242  17.937  22.937  1.00  0.00     0.001 C 
ATOM     22  C   UNL A   1      34.241  17.516  24.391  1.00  0.00     0.001 C 
ATOM     23  C   UNL A   1      33.586  17.231  23.045  1.00  0.00     0.000 C 
ENDBRANCH  11  18
ENDBRANCH   9  11
ENDBRANCH   8   9
ENDBRANCH   7   8
ENDBRANCH   6   7
ENDBRANCH   5   6
ENDBRANCH   4   5
ENDBRANCH   3   4
ENDBRANCH   2   3
ENDBRANCH   1   2
BRANCH   1  24
ATOM     24  C   UNL A   1      43.405  19.549  25.457  1.00  0.00     0.188 C 
BRANCH  24  25
ATOM     25  O   UNL A   1      44.152  20.150  24.396  1.00  0.00    -0.376 OA
BRANCH  25  26
ATOM     26  C   UNL A   1      44.846  21.374  24.638  1.00  0.00     0.202 C 
BRANCH  26  27
ATOM     27  C   UNL A   1      44.340  22.562  23.824  1.00  0.00     0.261 C 
BRANCH  27  28
ATOM     28  O   UNL A   1      43.593  23.469  24.652  1.00  0.00    -0.460 OA
BRANCH  28  29
ATOM     29  C   UNL A   1      44.244  24.590  25.021  1.00  0.00     0.338 C 
ATOM     30  O   UNL A   1      45.331  24.988  24.628  1.00  0.00    -0.246 OA
BRANCH  29  31
ATOM     31  C   UNL A   1      43.365  25.397  25.882  1.00  0.00     0.060 A 
ATOM     32  C   UNL A   1      43.518  26.789  25.861  1.00  0.00     0.016 A 
ATOM     33  C   UNL A   1      42.460  24.789  26.755  1.00  0.00     0.016 A 
ATOM     34  C   UNL A   1      42.811  27.578  26.762  1.00  0.00     0.010 A 
ATOM     35  C   UNL A   1      41.762  25.580  27.669  1.00  0.00     0.010 A 
ATOM     36  C   UNL A   1      41.976  26.970  27.707  1.00  0.00    -0.014 A 
BRANCH  36  37
ATOM     37  C   UNL A   1      41.512  27.759  28.869  1.00  0.00     0.031 A 
ATOM     38  C   UNL A   1      42.277  27.644  30.158  1.00  0.00     0.074 A 
ATOM     39  C   UNL A   1      40.462  28.591  28.766  1.00  0.00     0.049 A 
ATOM     40  N   UNL A   1      42.044  28.203  31.317  1.00  0.00    -0.248 NA
ATOM     41  C   UNL A   1      43.466  26.776  30.137  1.00  0.00     0.031 C 
ATOM     42  C   UNL A   1      39.685  28.822  27.550  1.00  0.00     0.029 A 
ATOM     43  N   UNL A   1      39.870  29.394  29.707  1.00  0.00    -0.354 N 
ATOM     44  C   UNL A   1      43.052  27.752  32.160  1.00  0.00     0.074 A 
ATOM     45  C   UNL A   1      43.876  26.845  31.392  1.00  0.00     0.031 C 
ATOM     46  C   UNL A   1      38.706  29.701  27.824  1.00  0.00     0.029 A 
ATOM     47  C   UNL A   1      38.768  30.063  29.239  1.00  0.00     0.049 A 
ATOM     48  H   UNL A   1      40.204  29.480  30.629  1.00  0.00     0.167 HD
ATOM     49  C   UNL A   1      43.273  28.073  33.456  1.00  0.00     0.037 A 
ATOM     50  C   UNL A   1      37.897  30.855  29.893  1.00  0.00     0.037 A 
ATOM     51  C   UNL A   1      42.443  28.974  34.211  1.00  0.00     0.049 A 
ATOM     52  C   UNL A   1      38.115  31.128  31.360  1.00  0.00     0.074 A 
ATOM     53  C   UNL A   1      42.584  29.378  35.526  1.00  0.00     0.029 A 
ATOM     54  N   UNL A   1      41.308  29.602  33.717  1.00  0.00    -0.354 N 
ATOM     55  N   UNL A   1      39.080  30.717  32.148  1.00  0.00    -0.248 NA
ATOM     56  C   UNL A   1      37.120  31.979  32.029  1.00  0.00     0.031 C 
ATOM     57  C   UNL A   1      41.497  30.199  35.847  1.00  0.00     0.029 A 
ATOM     58  C   UNL A   1      40.719  30.364  34.712  1.00  0.00     0.049 A 
ATOM     59  H   UNL A   1      40.972  29.517  32.795  1.00  0.00     0.167 HD
ATOM     60  C   UNL A   1      38.828  31.284  33.391  1.00  0.00     0.074 A 
ATOM     61  C   UNL A   1      37.627  32.080  33.250  1.00  0.00     0.031 C 
ATOM     62  C   UNL A   1      39.526  31.157  34.548  1.00  0.00     0.037 A 
BRANCH  49  63
ATOM     63  C   UNL A   1      44.433  27.417  34.148  1.00  0.00     0.064 A 
ATOM     64  C   UNL A   1      44.276  26.259  34.927  1.00  0.00     0.173 A 
ATOM     65  C   UNL A   1      45.727  27.942  34.010  1.00  0.00     0.173 A 
ATOM     66  F   UNL A   1      43.058  25.726  35.107  1.00  0.00    -0.203 F 
ATOM     67  C   UNL A   1      45.367  25.670  35.562  1.00  0.00     0.198 A 
ATOM     68  C   UNL A   1      46.820  27.331  34.619  1.00  0.00     0.198 A 
ATOM     69  F   UNL A   1      45.934  29.047  33.277  1.00  0.00    -0.203 F 
ATOM     70  F   UNL A   1      45.185  24.596  36.343  1.00  0.00    -0.200 F 
ATOM     71  C   UNL A   1      46.638  26.202  35.401  1.00  0.00     0.200 A 
ATOM     72  F   UNL A   1      48.048  27.838  34.450  1.00  0.00    -0.200 F 
ATOM     73  F   UNL A   1      47.687  25.628  36.006  1.00  0.00    -0.200 F 
ENDBRANCH  49  63
BRANCH  50  74
ATOM     74  C   UNL A   1      36.730  31.433  29.175  1.00  0.00     0.064 A 
ATOM     75  C   UNL A   1      36.677  32.796  28.853  1.00  0.00     0.173 A 
ATOM     76  C   UNL A   1      35.631  30.637  28.817  1.00  0.00     0.173 A 
ATOM     77  F   UNL A   1      37.693  33.604  29.194  1.00  0.00    -0.203 F 
ATOM     78  C   UNL A   1      35.562  33.346  28.224  1.00  0.00     0.198 A 
ATOM     79  C   UNL A   1      34.531  31.181  28.158  1.00  0.00     0.198 A 
ATOM     80  F   UNL A   1      35.629  29.327  29.101  1.00  0.00    -0.203 F 
ATOM     81  F   UNL A   1      35.515  34.662  27.978  1.00  0.00    -0.200 F 
ATOM     82  C   UNL A   1      34.492  32.536  27.872  1.00  0.00     0.200 A 
ATOM     83  F   UNL A   1      33.506  30.392  27.807  1.00  0.00    -0.200 F 
ATOM     84  F   UNL A   1      33.420  33.065  27.265  1.00  0.00    -0.200 F 
ENDBRANCH  50  74
BRANCH  62  85
ATOM     85  C   UNL A   1      39.034  31.929  35.741  1.00  0.00     0.064 A 
ATOM     86  C   UNL A   1      38.208  31.344  36.711  1.00  0.00     0.173 A 
ATOM     87  C   UNL A   1      39.435  33.260  35.937  1.00  0.00     0.173 A 
ATOM     88  F   UNL A   1      37.786  30.079  36.566  1.00  0.00    -0.203 F 
ATOM     89  C   UNL A   1      37.774  32.074  37.815  1.00  0.00     0.198 A 
ATOM     90  C   UNL A   1      39.031  33.974  37.061  1.00  0.00     0.198 A 
ATOM     91  F   UNL A   1      40.235  33.864  35.045  1.00  0.00    -0.203 F 
ATOM     92  F   UNL A   1      36.938  31.512  38.700  1.00  0.00    -0.200 F 
ATOM     93  C   UNL A   1      38.193  33.384  37.995  1.00  0.00     0.200 A 
ATOM     94  F   UNL A   1      39.453  35.233  37.242  1.00  0.00    -0.200 F 
ATOM     95  F   UNL A   1      37.783  34.080  39.063  1.00  0.00    -0.200 F 
ENDBRANCH  62  85
ENDBRANCH  36  37
ENDBRANCH  29  31
ENDBRANCH  28  29
ENDBRANCH  27  28
ENDBRANCH  26  27
ENDBRANCH  25  26
ENDBRANCH  24  25
ENDBRANCH   1  24
TORSDOF 22
ENDMDL
