MODEL 1
REMARK VINA RESULT:     -10.6      0.000      0.000
REMARK SMILES CCCn1ncc(C(=O)N2CCC(C(=O)OCCOCCOCCOCCOC(=O)c3ccc(-c4c5nc(c(-c6c(F)c(F)c(F)c(F)c6F)c6ccc([nH]6)c(-c6c(F)c(F)c(F)c(F)c6F)c6nc(c(-c7c(F)c(F)c(F)c(F)c7F)c7ccc4[nH]7)C=C6)C=C5)cc3)CC2)c1C
REMARK SMILES IDX 21 1 20 2 19 3 18 4 17 5 16 6 14 7 15 8 13 9 8 10 9 11 10 12
REMARK SMILES IDX 11 13 95 14 12 15 94 16 7 17 4 18 5 19 96 20 6 21 97 22 3 23
REMARK SMILES IDX 2 24 1 25 22 26 23 27 24 28 25 29 26 30 27 31 28 32 29 33
REMARK SMILES IDX 30 34 31 35 32 36 93 37 33 38 92 39 34 40 35 41 36 42 86 43
REMARK SMILES IDX 37 44 91 45 85 46 87 47 38 48 90 49 84 50 83 51 39 53 71 54
REMARK SMILES IDX 51 55 70 56 52 57 55 58 69 59 88 60 53 61 54 62 68 64 89 65
REMARK SMILES IDX 56 66 40 67 41 68 49 69 42 70 43 71 47 72 50 73 44 74 45 75
REMARK SMILES IDX 48 76 46 77 72 78 73 79 81 80 74 81 75 82 79 83 82 84 76 85
REMARK SMILES IDX 77 86 80 87 78 88 57 89 58 90 66 91 59 92 60 93 64 94 67 95
REMARK SMILES IDX 61 96 62 97 65 98 63 99
REMARK H PARENT 87 52 55 63
REMARK Flexibility Score: inf
ROOT
ATOM      1  C   UNL A   1      37.904  22.987  25.587  1.00  0.00     0.188 C 
ENDROOT
BRANCH   1   2
ATOM      2  C   UNL A   1      37.516  21.629  24.977  1.00  0.00     0.188 C 
BRANCH   2   3
ATOM      3  O   UNL A   1      36.360  20.929  25.428  1.00  0.00    -0.376 OA
BRANCH   3   4
ATOM      4  C   UNL A   1      36.111  19.600  25.000  1.00  0.00     0.202 C 
BRANCH   4   5
ATOM      5  C   UNL A   1      34.694  19.171  24.586  1.00  0.00     0.261 C 
BRANCH   5   6
ATOM      6  O   UNL A   1      33.614  20.019  25.017  1.00  0.00    -0.463 OA
BRANCH   6   7
ATOM      7  C   UNL A   1      32.840  20.525  24.028  1.00  0.00     0.309 C 
ATOM      8  O   UNL A   1      32.217  19.851  23.215  1.00  0.00    -0.252 OA
BRANCH   7   9
ATOM      9  C   UNL A   1      32.828  22.044  23.972  1.00  0.00     0.103 C 
ATOM     10  C   UNL A   1      32.660  25.805  21.970  1.00  0.00     0.257 C 
ATOM     11  O   UNL A   1      33.264  25.950  20.911  1.00  0.00    -0.269 OA
ATOM     12  N   UNL A   1      32.679  24.600  22.650  1.00  0.00    -0.338 N 
ATOM     13  C   UNL A   1      33.954  24.223  23.198  1.00  0.00     0.120 C 
ATOM     14  C   UNL A   1      31.484  23.987  23.215  1.00  0.00     0.120 C 
ATOM     15  C   UNL A   1      34.090  22.737  23.454  1.00  0.00     0.037 C 
ATOM     16  C   UNL A   1      31.603  22.475  23.174  1.00  0.00     0.037 C 
BRANCH  10  17
ATOM     17  C   UNL A   1      32.022  26.908  22.670  1.00  0.00     0.080 A 
ATOM     18  N   UNL A   1      31.592  28.567  24.047  1.00  0.00    -0.269 N 
ATOM     19  N   UNL A   1      30.467  28.455  23.315  1.00  0.00    -0.180 NA
ATOM     20  C   UNL A   1      32.525  27.601  23.761  1.00  0.00     0.048 A 
ATOM     21  C   UNL A   1      30.727  27.442  22.494  1.00  0.00     0.149 A 
ATOM     22  C   UNL A   1      33.807  27.417  24.485  1.00  0.00     0.067 C 
BRANCH  18  23
ATOM     23  C   UNL A   1      31.681  29.668  24.987  1.00  0.00     0.144 C 
BRANCH  23  24
ATOM     24  C   UNL A   1      31.790  29.247  26.453  1.00  0.00     0.020 C 
ATOM     25  C   UNL A   1      33.084  29.682  27.124  1.00  0.00     0.006 C 
ENDBRANCH  23  24
ENDBRANCH  18  23
ENDBRANCH  10  17
ENDBRANCH   7   9
ENDBRANCH   6   7
ENDBRANCH   5   6
ENDBRANCH   4   5
ENDBRANCH   3   4
ENDBRANCH   2   3
ENDBRANCH   1   2
BRANCH   1  26
ATOM     26  O   UNL A   1      38.958  22.952  26.519  1.00  0.00    -0.377 OA
BRANCH  26  27
ATOM     27  C   UNL A   1      39.730  21.764  26.489  1.00  0.00     0.188 C 
BRANCH  27  28
ATOM     28  C   UNL A   1      40.920  21.643  27.478  1.00  0.00     0.188 C 
BRANCH  28  29
ATOM     29  O   UNL A   1      41.332  22.861  28.101  1.00  0.00    -0.376 OA
BRANCH  29  30
ATOM     30  C   UNL A   1      42.630  23.412  27.901  1.00  0.00     0.202 C 
BRANCH  30  31
ATOM     31  C   UNL A   1      42.961  23.960  26.506  1.00  0.00     0.261 C 
BRANCH  31  32
ATOM     32  O   UNL A   1      41.942  24.793  25.991  1.00  0.00    -0.460 OA
BRANCH  32  33
ATOM     33  C   UNL A   1      42.277  26.090  25.928  1.00  0.00     0.338 C 
ATOM     34  O   UNL A   1      43.392  26.559  25.724  1.00  0.00    -0.246 OA
BRANCH  33  35
ATOM     35  C   UNL A   1      41.087  26.897  26.194  1.00  0.00     0.060 A 
ATOM     36  C   UNL A   1      41.254  28.261  25.977  1.00  0.00     0.016 A 
ATOM     37  C   UNL A   1      40.110  26.363  27.051  1.00  0.00     0.016 A 
ATOM     38  C   UNL A   1      40.796  29.079  26.966  1.00  0.00     0.010 A 
ATOM     39  C   UNL A   1      39.639  27.182  28.029  1.00  0.00     0.010 A 
ATOM     40  C   UNL A   1      40.143  28.475  28.044  1.00  0.00    -0.014 A 
BRANCH  40  41
ATOM     41  C   UNL A   1      40.115  29.202  29.279  1.00  0.00     0.031 A 
ATOM     42  C   UNL A   1      38.971  30.110  29.363  1.00  0.00     0.074 A 
ATOM     43  C   UNL A   1      41.047  28.996  30.224  1.00  0.00     0.049 A 
ATOM     44  N   UNL A   1      38.998  31.396  29.281  1.00  0.00    -0.248 NA
ATOM     45  C   UNL A   1      37.633  29.510  29.300  1.00  0.00     0.031 C 
ATOM     46  C   UNL A   1      42.083  27.963  30.311  1.00  0.00     0.029 A 
ATOM     47  N   UNL A   1      41.191  29.674  31.387  1.00  0.00    -0.354 N 
ATOM     48  C   UNL A   1      37.670  31.782  29.343  1.00  0.00     0.074 A 
ATOM     49  C   UNL A   1      36.880  30.596  29.136  1.00  0.00     0.031 C 
ATOM     50  C   UNL A   1      42.591  27.950  31.567  1.00  0.00     0.029 A 
ATOM     51  C   UNL A   1      42.006  29.047  32.316  1.00  0.00     0.049 A 
ATOM     52  H   UNL A   1      40.753  30.540  31.559  1.00  0.00     0.167 HD
ATOM     53  C   UNL A   1      37.323  33.004  29.822  1.00  0.00     0.037 A 
ATOM     54  C   UNL A   1      42.054  29.379  33.628  1.00  0.00     0.037 A 
ATOM     55  C   UNL A   1      38.447  33.904  29.839  1.00  0.00     0.049 A 
ATOM     56  C   UNL A   1      41.540  30.777  33.740  1.00  0.00     0.074 A 
ATOM     57  C   UNL A   1      39.259  34.444  28.859  1.00  0.00     0.029 A 
ATOM     58  N   UNL A   1      39.133  34.058  31.022  1.00  0.00    -0.354 N 
ATOM     59  N   UNL A   1      42.175  31.811  33.250  1.00  0.00    -0.248 NA
ATOM     60  C   UNL A   1      40.104  30.966  33.920  1.00  0.00     0.031 C 
ATOM     61  C   UNL A   1      40.567  34.467  29.428  1.00  0.00     0.029 A 
ATOM     62  C   UNL A   1      40.475  33.988  30.735  1.00  0.00     0.049 A 
ATOM     63  H   UNL A   1      38.734  34.194  31.911  1.00  0.00     0.167 HD
ATOM     64  C   UNL A   1      41.188  32.614  32.691  1.00  0.00     0.074 A 
ATOM     65  C   UNL A   1      39.927  32.075  33.194  1.00  0.00     0.031 C 
ATOM     66  C   UNL A   1      41.461  33.442  31.639  1.00  0.00     0.037 A 
BRANCH  53  67
ATOM     67  C   UNL A   1      36.063  33.245  30.597  1.00  0.00     0.064 A 
ATOM     68  C   UNL A   1      35.069  34.068  30.044  1.00  0.00     0.173 A 
ATOM     69  C   UNL A   1      35.909  32.925  31.966  1.00  0.00     0.173 A 
ATOM     70  F   UNL A   1      35.136  34.449  28.760  1.00  0.00    -0.203 F 
ATOM     71  C   UNL A   1      34.032  34.583  30.823  1.00  0.00     0.198 A 
ATOM     72  C   UNL A   1      34.839  33.388  32.722  1.00  0.00     0.198 A 
ATOM     73  F   UNL A   1      36.841  32.252  32.654  1.00  0.00    -0.203 F 
ATOM     74  F   UNL A   1      33.174  35.461  30.287  1.00  0.00    -0.200 F 
ATOM     75  C   UNL A   1      33.919  34.244  32.160  1.00  0.00     0.200 A 
ATOM     76  F   UNL A   1      34.762  33.061  34.019  1.00  0.00    -0.200 F 
ATOM     77  F   UNL A   1      32.958  34.783  32.921  1.00  0.00    -0.200 F 
ENDBRANCH  53  67
BRANCH  54  78
ATOM     78  C   UNL A   1      42.160  28.443  34.771  1.00  0.00     0.064 A 
ATOM     79  C   UNL A   1      41.379  27.279  34.839  1.00  0.00     0.173 A 
ATOM     80  C   UNL A   1      43.206  28.547  35.713  1.00  0.00     0.173 A 
ATOM     81  F   UNL A   1      40.399  27.074  33.948  1.00  0.00    -0.203 F 
ATOM     82  C   UNL A   1      41.632  26.281  35.788  1.00  0.00     0.198 A 
ATOM     83  C   UNL A   1      43.451  27.557  36.663  1.00  0.00     0.198 A 
ATOM     84  F   UNL A   1      44.071  29.570  35.675  1.00  0.00    -0.203 F 
ATOM     85  F   UNL A   1      40.895  25.161  35.792  1.00  0.00    -0.200 F 
ATOM     86  C   UNL A   1      42.670  26.419  36.696  1.00  0.00     0.200 A 
ATOM     87  F   UNL A   1      44.482  27.689  37.510  1.00  0.00    -0.200 F 
ATOM     88  F   UNL A   1      42.942  25.443  37.573  1.00  0.00    -0.200 F 
ENDBRANCH  54  78
BRANCH  66  89
ATOM     89  C   UNL A   1      42.903  33.591  31.234  1.00  0.00     0.064 A 
ATOM     90  C   UNL A   1      43.526  32.756  30.289  1.00  0.00     0.173 A 
ATOM     91  C   UNL A   1      43.630  34.694  31.694  1.00  0.00     0.173 A 
ATOM     92  F   UNL A   1      42.856  31.751  29.714  1.00  0.00    -0.203 F 
ATOM     93  C   UNL A   1      44.835  32.984  29.868  1.00  0.00     0.198 A 
ATOM     94  C   UNL A   1      44.925  34.943  31.243  1.00  0.00     0.198 A 
ATOM     95  F   UNL A   1      43.063  35.565  32.542  1.00  0.00    -0.203 F 
ATOM     96  F   UNL A   1      45.406  32.164  28.973  1.00  0.00    -0.200 F 
ATOM     97  C   UNL A   1      45.531  34.082  30.341  1.00  0.00     0.200 A 
ATOM     98  F   UNL A   1      45.576  36.037  31.661  1.00  0.00    -0.200 F 
ATOM     99  F   UNL A   1      46.775  34.329  29.905  1.00  0.00    -0.200 F 
ENDBRANCH  66  89
ENDBRANCH  40  41
ENDBRANCH  33  35
ENDBRANCH  32  33
ENDBRANCH  31  32
ENDBRANCH  30  31
ENDBRANCH  29  30
ENDBRANCH  28  29
ENDBRANCH  27  28
ENDBRANCH  26  27
ENDBRANCH   1  26
TORSDOF 23
ENDMDL
MODEL 2
REMARK VINA RESULT:     -10.6      3.460      8.003
REMARK SMILES CCCn1ncc(C(=O)N2CCC(C(=O)OCCOCCOCCOCCOC(=O)c3ccc(-c4c5nc(c(-c6c(F)c(F)c(F)c(F)c6F)c6ccc([nH]6)c(-c6c(F)c(F)c(F)c(F)c6F)c6nc(c(-c7c(F)c(F)c(F)c(F)c7F)c7ccc4[nH]7)C=C6)C=C5)cc3)CC2)c1C
REMARK SMILES IDX 21 1 20 2 19 3 18 4 17 5 16 6 14 7 15 8 13 9 8 10 9 11 10 12
REMARK SMILES IDX 11 13 95 14 12 15 94 16 7 17 4 18 5 19 96 20 6 21 97 22 3 23
REMARK SMILES IDX 2 24 1 25 22 26 23 27 24 28 25 29 26 30 27 31 28 32 29 33
REMARK SMILES IDX 30 34 31 35 32 36 93 37 33 38 92 39 34 40 35 41 36 42 86 43
REMARK SMILES IDX 37 44 91 45 85 46 87 47 38 48 90 49 84 50 83 51 39 53 71 54
REMARK SMILES IDX 51 55 70 56 52 57 55 58 69 59 88 60 53 61 54 62 68 64 89 65
REMARK SMILES IDX 56 66 40 67 41 68 49 69 42 70 43 71 47 72 50 73 44 74 45 75
REMARK SMILES IDX 48 76 46 77 72 78 73 79 81 80 74 81 75 82 79 83 82 84 76 85
REMARK SMILES IDX 77 86 80 87 78 88 57 89 58 90 66 91 59 92 60 93 64 94 67 95
REMARK SMILES IDX 61 96 62 97 65 98 63 99
REMARK H PARENT 87 52 55 63
REMARK Flexibility Score: inf
ROOT
ATOM      1  C   UNL A   1      36.840  21.198  24.581  1.00  0.00     0.188 C 
ENDROOT
BRANCH   1   2
ATOM      2  C   UNL A   1      35.509  20.618  25.090  1.00  0.00     0.188 C 
BRANCH   2   3
ATOM      3  O   UNL A   1      35.022  19.371  24.604  1.00  0.00    -0.376 OA
BRANCH   3   4
ATOM      4  C   UNL A   1      33.919  18.736  25.231  1.00  0.00     0.202 C 
BRANCH   4   5
ATOM      5  C   UNL A   1      32.486  19.013  24.747  1.00  0.00     0.261 C 
BRANCH   5   6
ATOM      6  O   UNL A   1      32.044  20.381  24.800  1.00  0.00    -0.463 OA
BRANCH   6   7
ATOM      7  C   UNL A   1      32.114  21.061  23.631  1.00  0.00     0.309 C 
ATOM      8  O   UNL A   1      32.068  20.546  22.519  1.00  0.00    -0.252 OA
BRANCH   7   9
ATOM      9  C   UNL A   1      32.298  22.560  23.803  1.00  0.00     0.103 C 
ATOM     10  C   UNL A   1      32.659  26.565  22.383  1.00  0.00     0.257 C 
ATOM     11  O   UNL A   1      33.301  26.785  21.359  1.00  0.00    -0.269 OA
ATOM     12  N   UNL A   1      32.507  25.280  22.876  1.00  0.00    -0.338 N 
ATOM     13  C   UNL A   1      33.710  24.664  23.365  1.00  0.00     0.120 C 
ATOM     14  C   UNL A   1      31.231  24.752  23.338  1.00  0.00     0.120 C 
ATOM     15  C   UNL A   1      33.650  23.153  23.398  1.00  0.00     0.037 C 
ATOM     16  C   UNL A   1      31.157  23.260  23.073  1.00  0.00     0.037 C 
BRANCH  10  17
ATOM     17  C   UNL A   1      32.151  27.626  23.237  1.00  0.00     0.080 A 
ATOM     18  N   UNL A   1      31.947  29.172  24.787  1.00  0.00    -0.269 N 
ATOM     19  N   UNL A   1      30.749  29.173  24.169  1.00  0.00    -0.180 NA
ATOM     20  C   UNL A   1      32.795  28.197  24.324  1.00  0.00     0.048 A 
ATOM     21  C   UNL A   1      30.874  28.228  23.243  1.00  0.00     0.149 A 
ATOM     22  C   UNL A   1      34.133  27.894  24.892  1.00  0.00     0.067 C 
BRANCH  18  23
ATOM     23  C   UNL A   1      32.185  30.178  25.803  1.00  0.00     0.144 C 
BRANCH  23  24
ATOM     24  C   UNL A   1      32.094  29.667  27.242  1.00  0.00     0.020 C 
ATOM     25  C   UNL A   1      31.474  28.283  27.367  1.00  0.00     0.006 C 
ENDBRANCH  23  24
ENDBRANCH  18  23
ENDBRANCH  10  17
ENDBRANCH   7   9
ENDBRANCH   6   7
ENDBRANCH   5   6
ENDBRANCH   4   5
ENDBRANCH   3   4
ENDBRANCH   2   3
ENDBRANCH   1   2
BRANCH   1  26
ATOM     26  O   UNL A   1      37.571  21.948  25.521  1.00  0.00    -0.377 OA
BRANCH  26  27
ATOM     27  C   UNL A   1      38.762  21.325  25.972  1.00  0.00     0.188 C 
BRANCH  27  28
ATOM     28  C   UNL A   1      39.795  22.195  26.737  1.00  0.00     0.188 C 
BRANCH  28  29
ATOM     29  O   UNL A   1      40.569  21.511  27.724  1.00  0.00    -0.376 OA
BRANCH  29  30
ATOM     30  C   UNL A   1      41.141  20.229  27.482  1.00  0.00     0.202 C 
BRANCH  30  31
ATOM     31  C   UNL A   1      42.068  20.083  26.268  1.00  0.00     0.261 C 
BRANCH  31  32
ATOM     32  O   UNL A   1      42.995  21.145  26.158  1.00  0.00    -0.460 OA
BRANCH  32  33
ATOM     33  C   UNL A   1      43.962  20.934  25.253  1.00  0.00     0.338 C 
ATOM     34  O   UNL A   1      44.234  19.879  24.690  1.00  0.00    -0.246 OA
BRANCH  33  35
ATOM     35  C   UNL A   1      44.706  22.178  25.061  1.00  0.00     0.060 A 
ATOM     36  C   UNL A   1      45.735  22.383  25.974  1.00  0.00     0.016 A 
ATOM     37  C   UNL A   1      44.074  23.219  24.360  1.00  0.00     0.016 A 
ATOM     38  C   UNL A   1      45.787  23.620  26.541  1.00  0.00     0.010 A 
ATOM     39  C   UNL A   1      44.137  24.458  24.916  1.00  0.00     0.010 A 
ATOM     40  C   UNL A   1      44.861  24.567  26.095  1.00  0.00    -0.014 A 
BRANCH  40  41
ATOM     41  C   UNL A   1      44.557  25.651  26.983  1.00  0.00     0.031 A 
ATOM     42  C   UNL A   1      45.590  26.685  26.972  1.00  0.00     0.074 A 
ATOM     43  C   UNL A   1      43.414  25.665  27.689  1.00  0.00     0.049 A 
ATOM     44  N   UNL A   1      46.447  26.931  27.903  1.00  0.00    -0.248 NA
ATOM     45  C   UNL A   1      45.846  27.364  25.696  1.00  0.00     0.031 C 
ATOM     46  C   UNL A   1      42.241  24.791  27.593  1.00  0.00     0.029 A 
ATOM     47  N   UNL A   1      43.046  26.572  28.625  1.00  0.00    -0.354 N 
ATOM     48  C   UNL A   1      47.245  27.940  27.393  1.00  0.00     0.074 A 
ATOM     49  C   UNL A   1      46.975  28.011  25.980  1.00  0.00     0.031 C 
ATOM     50  C   UNL A   1      41.214  25.353  28.276  1.00  0.00     0.029 A 
ATOM     51  C   UNL A   1      41.699  26.545  28.947  1.00  0.00     0.049 A 
ATOM     52  H   UNL A   1      43.683  27.198  29.042  1.00  0.00     0.167 HD
ATOM     53  C   UNL A   1      47.874  28.815  28.218  1.00  0.00     0.037 A 
ATOM     54  C   UNL A   1      41.060  27.535  29.616  1.00  0.00     0.037 A 
ATOM     55  C   UNL A   1      47.932  28.319  29.569  1.00  0.00     0.049 A 
ATOM     56  C   UNL A   1      42.107  28.300  30.358  1.00  0.00     0.074 A 
ATOM     57  C   UNL A   1      48.531  27.224  30.163  1.00  0.00     0.029 A 
ATOM     58  N   UNL A   1      46.979  28.754  30.460  1.00  0.00    -0.354 N 
ATOM     59  N   UNL A   1      42.788  27.795  31.353  1.00  0.00    -0.248 NA
ATOM     60  C   UNL A   1      42.753  29.414  29.672  1.00  0.00     0.031 C 
ATOM     61  C   UNL A   1      47.604  26.781  31.153  1.00  0.00     0.029 A 
ATOM     62  C   UNL A   1      46.516  27.655  31.142  1.00  0.00     0.049 A 
ATOM     63  H   UNL A   1      46.682  29.684  30.585  1.00  0.00     0.167 HD
ATOM     64  C   UNL A   1      44.092  28.241  31.166  1.00  0.00     0.074 A 
ATOM     65  C   UNL A   1      43.995  29.290  30.154  1.00  0.00     0.031 C 
ATOM     66  C   UNL A   1      45.160  27.520  31.620  1.00  0.00     0.037 A 
BRANCH  53  67
ATOM     67  C   UNL A   1      48.100  30.252  27.859  1.00  0.00     0.064 A 
ATOM     68  C   UNL A   1      46.993  31.067  27.576  1.00  0.00     0.173 A 
ATOM     69  C   UNL A   1      49.364  30.787  27.517  1.00  0.00     0.173 A 
ATOM     70  F   UNL A   1      45.749  30.642  27.838  1.00  0.00    -0.203 F 
ATOM     71  C   UNL A   1      47.138  32.301  26.939  1.00  0.00     0.198 A 
ATOM     72  C   UNL A   1      49.509  32.043  26.942  1.00  0.00     0.198 A 
ATOM     73  F   UNL A   1      50.494  30.076  27.618  1.00  0.00    -0.203 F 
ATOM     74  F   UNL A   1      46.050  32.992  26.576  1.00  0.00    -0.200 F 
ATOM     75  C   UNL A   1      48.396  32.786  26.621  1.00  0.00     0.200 A 
ATOM     76  F   UNL A   1      50.735  32.484  26.627  1.00  0.00    -0.200 F 
ATOM     77  F   UNL A   1      48.532  33.943  25.961  1.00  0.00    -0.200 F 
ENDBRANCH  53  67
BRANCH  54  78
ATOM     78  C   UNL A   1      39.697  28.047  29.343  1.00  0.00     0.064 A 
ATOM     79  C   UNL A   1      38.739  28.158  30.361  1.00  0.00     0.173 A 
ATOM     80  C   UNL A   1      39.377  28.666  28.116  1.00  0.00     0.173 A 
ATOM     81  F   UNL A   1      38.985  27.646  31.576  1.00  0.00    -0.203 F 
ATOM     82  C   UNL A   1      37.536  28.848  30.164  1.00  0.00     0.198 A 
ATOM     83  C   UNL A   1      38.176  29.345  27.917  1.00  0.00     0.198 A 
ATOM     84  F   UNL A   1      40.262  28.703  27.108  1.00  0.00    -0.203 F 
ATOM     85  F   UNL A   1      36.665  28.974  31.174  1.00  0.00    -0.200 F 
ATOM     86  C   UNL A   1      37.258  29.444  28.944  1.00  0.00     0.200 A 
ATOM     87  F   UNL A   1      37.939  29.947  26.743  1.00  0.00    -0.200 F 
ATOM     88  F   UNL A   1      36.129  30.144  28.770  1.00  0.00    -0.200 F 
ENDBRANCH  54  78
BRANCH  66  89
ATOM     89  C   UNL A   1      44.865  26.325  32.488  1.00  0.00     0.064 A 
ATOM     90  C   UNL A   1      44.643  26.418  33.874  1.00  0.00     0.173 A 
ATOM     91  C   UNL A   1      44.650  25.081  31.886  1.00  0.00     0.173 A 
ATOM     92  F   UNL A   1      44.713  27.596  34.502  1.00  0.00    -0.203 F 
ATOM     93  C   UNL A   1      44.277  25.304  34.628  1.00  0.00     0.198 A 
ATOM     94  C   UNL A   1      44.247  23.977  32.635  1.00  0.00     0.198 A 
ATOM     95  F   UNL A   1      44.776  24.948  30.557  1.00  0.00    -0.203 F 
ATOM     96  F   UNL A   1      44.084  25.422  35.950  1.00  0.00    -0.200 F 
ATOM     97  C   UNL A   1      44.074  24.086  34.007  1.00  0.00     0.200 A 
ATOM     98  F   UNL A   1      43.996  22.812  32.022  1.00  0.00    -0.200 F 
ATOM     99  F   UNL A   1      43.680  23.022  34.723  1.00  0.00    -0.200 F 
ENDBRANCH  66  89
ENDBRANCH  40  41
ENDBRANCH  33  35
ENDBRANCH  32  33
ENDBRANCH  31  32
ENDBRANCH  30  31
ENDBRANCH  29  30
ENDBRANCH  28  29
ENDBRANCH  27  28
ENDBRANCH  26  27
ENDBRANCH   1  26
TORSDOF 23
ENDMDL
MODEL 3
REMARK VINA RESULT:     -10.1      4.256      9.971
REMARK SMILES CCCn1ncc(C(=O)N2CCC(C(=O)OCCOCCOCCOCCOC(=O)c3ccc(-c4c5nc(c(-c6c(F)c(F)c(F)c(F)c6F)c6ccc([nH]6)c(-c6c(F)c(F)c(F)c(F)c6F)c6nc(c(-c7c(F)c(F)c(F)c(F)c7F)c7ccc4[nH]7)C=C6)C=C5)cc3)CC2)c1C
REMARK SMILES IDX 21 1 20 2 19 3 18 4 17 5 16 6 14 7 15 8 13 9 8 10 9 11 10 12
REMARK SMILES IDX 11 13 95 14 12 15 94 16 7 17 4 18 5 19 96 20 6 21 97 22 3 23
REMARK SMILES IDX 2 24 1 25 22 26 23 27 24 28 25 29 26 30 27 31 28 32 29 33
REMARK SMILES IDX 30 34 31 35 32 36 93 37 33 38 92 39 34 40 35 41 36 42 86 43
REMARK SMILES IDX 37 44 91 45 85 46 87 47 38 48 90 49 84 50 83 51 39 53 71 54
REMARK SMILES IDX 51 55 70 56 52 57 55 58 69 59 88 60 53 61 54 62 68 64 89 65
REMARK SMILES IDX 56 66 40 67 41 68 49 69 42 70 43 71 47 72 50 73 44 74 45 75
REMARK SMILES IDX 48 76 46 77 72 78 73 79 81 80 74 81 75 82 79 83 82 84 76 85
REMARK SMILES IDX 77 86 80 87 78 88 57 89 58 90 66 91 59 92 60 93 64 94 67 95
REMARK SMILES IDX 61 96 62 97 65 98 63 99
REMARK H PARENT 87 52 55 63
REMARK Flexibility Score: inf
ROOT
ATOM      1  C   UNL A   1      32.521  30.992  26.863  1.00  0.00     0.188 C 
ENDROOT
BRANCH   1   2
ATOM      2  C   UNL A   1      31.533  30.412  25.836  1.00  0.00     0.188 C 
BRANCH   2   3
ATOM      3  O   UNL A   1      31.886  29.286  25.039  1.00  0.00    -0.376 OA
BRANCH   3   4
ATOM      4  C   UNL A   1      31.111  28.939  23.902  1.00  0.00     0.202 C 
BRANCH   4   5
ATOM      5  C   UNL A   1      31.701  28.033  22.809  1.00  0.00     0.261 C 
BRANCH   5   6
ATOM      6  O   UNL A   1      31.442  26.623  22.933  1.00  0.00    -0.463 OA
BRANCH   6   7
ATOM      7  C   UNL A   1      32.017  25.840  21.990  1.00  0.00     0.309 C 
ATOM      8  O   UNL A   1      31.848  25.964  20.782  1.00  0.00    -0.252 OA
BRANCH   7   9
ATOM      9  C   UNL A   1      32.888  24.732  22.558  1.00  0.00     0.103 C 
ATOM     10  C   UNL A   1      34.156  22.037  25.610  1.00  0.00     0.257 C 
ATOM     11  O   UNL A   1      34.203  22.425  26.774  1.00  0.00    -0.269 OA
ATOM     12  N   UNL A   1      33.742  22.874  24.588  1.00  0.00    -0.338 N 
ATOM     13  C   UNL A   1      34.621  23.975  24.302  1.00  0.00     0.120 C 
ATOM     14  C   UNL A   1      32.804  22.460  23.553  1.00  0.00     0.120 C 
ATOM     15  C   UNL A   1      33.940  25.129  23.597  1.00  0.00     0.037 C 
ATOM     16  C   UNL A   1      31.969  23.644  23.102  1.00  0.00     0.037 C 
BRANCH  10  17
ATOM     17  C   UNL A   1      34.675  20.746  25.190  1.00  0.00     0.080 A 
ATOM     18  N   UNL A   1      34.855  18.651  24.549  1.00  0.00    -0.269 N 
ATOM     19  N   UNL A   1      36.132  19.072  24.638  1.00  0.00    -0.180 NA
ATOM     20  C   UNL A   1      33.943  19.592  24.958  1.00  0.00     0.048 A 
ATOM     21  C   UNL A   1      36.018  20.334  25.039  1.00  0.00     0.149 A 
ATOM     22  C   UNL A   1      32.480  19.366  25.068  1.00  0.00     0.067 C 
BRANCH  18  23
ATOM     23  C   UNL A   1      34.617  17.319  24.028  1.00  0.00     0.144 C 
BRANCH  23  24
ATOM     24  C   UNL A   1      34.712  16.200  25.066  1.00  0.00     0.020 C 
ATOM     25  C   UNL A   1      33.390  15.499  25.340  1.00  0.00     0.006 C 
ENDBRANCH  23  24
ENDBRANCH  18  23
ENDBRANCH  10  17
ENDBRANCH   7   9
ENDBRANCH   6   7
ENDBRANCH   5   6
ENDBRANCH   4   5
ENDBRANCH   3   4
ENDBRANCH   2   3
ENDBRANCH   1   2
BRANCH   1  26
ATOM     26  O   UNL A   1      33.824  30.459  26.816  1.00  0.00    -0.377 OA
BRANCH  26  27
ATOM     27  C   UNL A   1      34.613  30.733  27.961  1.00  0.00     0.188 C 
BRANCH  27  28
ATOM     28  C   UNL A   1      34.677  32.199  28.467  1.00  0.00     0.188 C 
BRANCH  28  29
ATOM     29  O   UNL A   1      34.409  32.384  29.858  1.00  0.00    -0.376 OA
BRANCH  29  30
ATOM     30  C   UNL A   1      35.325  31.970  30.868  1.00  0.00     0.202 C 
BRANCH  30  31
ATOM     31  C   UNL A   1      36.806  32.326  30.671  1.00  0.00     0.261 C 
BRANCH  31  32
ATOM     32  O   UNL A   1      37.631  31.184  30.560  1.00  0.00    -0.460 OA
BRANCH  32  33
ATOM     33  C   UNL A   1      37.149  30.099  31.185  1.00  0.00     0.338 C 
ATOM     34  O   UNL A   1      36.537  30.066  32.247  1.00  0.00    -0.246 OA
BRANCH  33  35
ATOM     35  C   UNL A   1      37.513  28.911  30.414  1.00  0.00     0.060 A 
ATOM     36  C   UNL A   1      38.148  27.917  31.151  1.00  0.00     0.016 A 
ATOM     37  C   UNL A   1      37.645  29.048  29.022  1.00  0.00     0.016 A 
ATOM     38  C   UNL A   1      39.272  27.389  30.589  1.00  0.00     0.010 A 
ATOM     39  C   UNL A   1      38.757  28.508  28.456  1.00  0.00     0.010 A 
ATOM     40  C   UNL A   1      39.620  27.840  29.313  1.00  0.00    -0.014 A 
BRANCH  40  41
ATOM     41  C   UNL A   1      40.996  27.710  28.928  1.00  0.00     0.031 A 
ATOM     42  C   UNL A   1      41.285  26.408  28.329  1.00  0.00     0.074 A 
ATOM     43  C   UNL A   1      41.859  28.726  29.097  1.00  0.00     0.049 A 
ATOM     44  N   UNL A   1      41.949  25.442  28.864  1.00  0.00    -0.248 NA
ATOM     45  C   UNL A   1      40.562  26.061  27.099  1.00  0.00     0.031 C 
ATOM     46  C   UNL A   1      41.606  30.118  29.480  1.00  0.00     0.029 A 
ATOM     47  N   UNL A   1      43.193  28.707  28.867  1.00  0.00    -0.354 N 
ATOM     48  C   UNL A   1      41.882  24.413  27.941  1.00  0.00     0.074 A 
ATOM     49  C   UNL A   1      40.855  24.766  26.995  1.00  0.00     0.031 C 
ATOM     50  C   UNL A   1      42.717  30.853  29.232  1.00  0.00     0.029 A 
ATOM     51  C   UNL A   1      43.777  29.962  28.799  1.00  0.00     0.049 A 
ATOM     52  H   UNL A   1      43.705  27.873  28.756  1.00  0.00     0.167 HD
ATOM     53  C   UNL A   1      42.859  23.472  27.875  1.00  0.00     0.037 A 
ATOM     54  C   UNL A   1      45.010  30.196  28.290  1.00  0.00     0.037 A 
ATOM     55  C   UNL A   1      43.660  23.458  29.072  1.00  0.00     0.049 A 
ATOM     56  C   UNL A   1      45.755  28.902  28.346  1.00  0.00     0.074 A 
ATOM     57  C   UNL A   1      43.394  23.187  30.401  1.00  0.00     0.029 A 
ATOM     58  N   UNL A   1      44.851  24.146  29.061  1.00  0.00    -0.354 N 
ATOM     59  N   UNL A   1      46.109  28.333  29.469  1.00  0.00    -0.248 NA
ATOM     60  C   UNL A   1      45.643  27.999  27.206  1.00  0.00     0.031 C 
ATOM     61  C   UNL A   1      44.183  24.118  31.139  1.00  0.00     0.029 A 
ATOM     62  C   UNL A   1      44.922  24.872  30.226  1.00  0.00     0.049 A 
ATOM     63  H   UNL A   1      45.529  24.123  28.348  1.00  0.00     0.167 HD
ATOM     64  C   UNL A   1      45.870  26.976  29.280  1.00  0.00     0.074 A 
ATOM     65  C   UNL A   1      45.649  26.824  27.845  1.00  0.00     0.031 C 
ATOM     66  C   UNL A   1      45.575  26.156  30.332  1.00  0.00     0.037 A 
BRANCH  53  67
ATOM     67  C   UNL A   1      43.289  22.836  26.589  1.00  0.00     0.064 A 
ATOM     68  C   UNL A   1      43.068  21.463  26.399  1.00  0.00     0.173 A 
ATOM     69  C   UNL A   1      44.150  23.458  25.654  1.00  0.00     0.173 A 
ATOM     70  F   UNL A   1      42.287  20.775  27.246  1.00  0.00    -0.203 F 
ATOM     71  C   UNL A   1      43.712  20.753  25.385  1.00  0.00     0.198 A 
ATOM     72  C   UNL A   1      44.739  22.760  24.607  1.00  0.00     0.198 A 
ATOM     73  F   UNL A   1      44.547  24.730  25.781  1.00  0.00    -0.203 F 
ATOM     74  F   UNL A   1      43.569  19.424  25.312  1.00  0.00    -0.200 F 
ATOM     75  C   UNL A   1      44.547  21.402  24.491  1.00  0.00     0.200 A 
ATOM     76  F   UNL A   1      45.557  23.406  23.765  1.00  0.00    -0.200 F 
ATOM     77  F   UNL A   1      45.208  20.712  23.553  1.00  0.00    -0.200 F 
ENDBRANCH  53  67
BRANCH  54  78
ATOM     78  C   UNL A   1      45.412  31.346  27.446  1.00  0.00     0.064 A 
ATOM     79  C   UNL A   1      44.572  31.844  26.439  1.00  0.00     0.173 A 
ATOM     80  C   UNL A   1      46.535  32.137  27.768  1.00  0.00     0.173 A 
ATOM     81  F   UNL A   1      43.453  31.183  26.108  1.00  0.00    -0.203 F 
ATOM     82  C   UNL A   1      44.838  33.059  25.796  1.00  0.00     0.198 A 
ATOM     83  C   UNL A   1      46.805  33.343  27.122  1.00  0.00     0.198 A 
ATOM     84  F   UNL A   1      47.349  31.804  28.780  1.00  0.00    -0.203 F 
ATOM     85  F   UNL A   1      43.988  33.527  24.872  1.00  0.00    -0.200 F 
ATOM     86  C   UNL A   1      45.952  33.809  26.141  1.00  0.00     0.200 A 
ATOM     87  F   UNL A   1      47.866  34.073  27.493  1.00  0.00    -0.200 F 
ATOM     88  F   UNL A   1      46.181  34.995  25.560  1.00  0.00    -0.200 F 
ENDBRANCH  54  78
BRANCH  66  89
ATOM     89  C   UNL A   1      45.701  26.736  31.716  1.00  0.00     0.064 A 
ATOM     90  C   UNL A   1      44.632  27.350  32.392  1.00  0.00     0.173 A 
ATOM     91  C   UNL A   1      46.882  26.532  32.436  1.00  0.00     0.173 A 
ATOM     92  F   UNL A   1      43.433  27.475  31.811  1.00  0.00    -0.203 F 
ATOM     93  C   UNL A   1      44.759  27.789  33.709  1.00  0.00     0.198 A 
ATOM     94  C   UNL A   1      46.996  26.937  33.765  1.00  0.00     0.198 A 
ATOM     95  F   UNL A   1      47.912  25.887  31.867  1.00  0.00    -0.203 F 
ATOM     96  F   UNL A   1      43.724  28.382  34.323  1.00  0.00    -0.200 F 
ATOM     97  C   UNL A   1      45.940  27.576  34.396  1.00  0.00     0.200 A 
ATOM     98  F   UNL A   1      48.122  26.679  34.445  1.00  0.00    -0.200 F 
ATOM     99  F   UNL A   1      46.052  27.958  35.677  1.00  0.00    -0.200 F 
ENDBRANCH  66  89
ENDBRANCH  40  41
ENDBRANCH  33  35
ENDBRANCH  32  33
ENDBRANCH  31  32
ENDBRANCH  30  31
ENDBRANCH  29  30
ENDBRANCH  28  29
ENDBRANCH  27  28
ENDBRANCH  26  27
ENDBRANCH   1  26
TORSDOF 23
ENDMDL
