MODEL 1
REMARK VINA RESULT:     -11.2      0.000      0.000
REMARK SMILES Cc1nc(-c2ccc3c(c2)CCN3S(=O)(=O)c2ccc(F)c(C(=O)OCCOCCOCCOCCOC(=O)c3ccc(-c4c5nc(c(-c6c(F)c(F)c(F)c(F)c6F)c6ccc([nH]6)c(-c6c(F)c(F)c(F)c(F)c6F)c6nc(c(-c7c(F)c(F)c(F)c(F)c7F)c7ccc4[nH]7)C=C6)C=C5)cc3)c2)cs1
REMARK SMILES IDX 30 1 29 2 28 3 27 4 26 5 25 6 23 7 24 8 22 9 17 10 18 11
REMARK SMILES IDX 103 12 19 13 20 14 21 15 14 16 15 17 16 18 13 19 5 20 6 21
REMARK SMILES IDX 10 22 7 23 9 24 8 25 11 26 12 27 4 28 1 29 2 30 3 31 105 32
REMARK SMILES IDX 104 33 31 34 32 35 33 36 34 37 35 38 36 39 37 40 38 41 39 42
REMARK SMILES IDX 40 43 41 44 102 45 42 46 101 47 43 48 44 49 45 50 95 51
REMARK SMILES IDX 46 52 100 53 94 54 96 55 47 56 99 57 93 58 92 59 48 61 80 62
REMARK SMILES IDX 60 63 79 64 61 65 64 66 78 67 97 68 62 69 63 70 77 72 98 73
REMARK SMILES IDX 65 74 49 75 50 76 58 77 51 78 52 79 56 80 59 81 53 82 54 83
REMARK SMILES IDX 57 84 55 85 81 86 82 87 90 88 83 89 84 90 88 91 91 92 85 93
REMARK SMILES IDX 86 94 89 95 87 96 66 97 67 98 75 99 68 100 69 101 73 102
REMARK SMILES IDX 76 103 70 104 71 105 74 106 72 107
REMARK H PARENT 96 60 64 71
REMARK Flexibility Score: inf
ROOT
ATOM      1  C   UNL A   1      38.153  23.391  25.658  1.00  0.00     0.188 C 
ENDROOT
BRANCH   1   2
ATOM      2  C   UNL A   1      36.807  23.195  24.928  1.00  0.00     0.188 C 
BRANCH   2   3
ATOM      3  O   UNL A   1      35.691  23.639  25.680  1.00  0.00    -0.376 OA
BRANCH   3   4
ATOM      4  C   UNL A   1      35.119  22.789  26.656  1.00  0.00     0.202 C 
BRANCH   4   5
ATOM      5  C   UNL A   1      34.454  21.470  26.236  1.00  0.00     0.261 C 
BRANCH   5   6
ATOM      6  O   UNL A   1      33.032  21.427  26.358  1.00  0.00    -0.460 OA
BRANCH   6   7
ATOM      7  C   UNL A   1      32.312  21.123  25.260  1.00  0.00     0.341 C 
ATOM      8  O   UNL A   1      31.778  20.060  25.001  1.00  0.00    -0.246 OA
BRANCH   7   9
ATOM      9  C   UNL A   1      32.059  22.385  24.538  1.00  0.00     0.097 A 
ATOM     10  C   UNL A   1      31.294  24.673  24.555  1.00  0.00     0.089 A 
ATOM     11  C   UNL A   1      31.709  24.830  23.222  1.00  0.00     0.025 A 
ATOM     12  C   UNL A   1      31.503  23.469  25.238  1.00  0.00     0.041 A 
ATOM     13  C   UNL A   1      32.263  23.748  22.540  1.00  0.00     0.041 A 
ATOM     14  C   UNL A   1      32.418  22.527  23.192  1.00  0.00     0.137 A 
ATOM     15  F   UNL A   1      32.900  21.491  22.491  1.00  0.00    -0.206 F 
BRANCH  10  16
ATOM     16  S   UNL A   1      30.349  25.973  25.308  1.00  0.00     0.264 S 
ATOM     17  O   UNL A   1      30.525  25.853  26.742  1.00  0.00    -0.201 OA
ATOM     18  O   UNL A   1      29.019  25.914  24.734  1.00  0.00    -0.201 OA
BRANCH  16  19
ATOM     19  N   UNL A   1      31.066  27.438  24.809  1.00  0.00    -0.266 N 
ATOM     20  C   UNL A   1      33.111  30.417  26.977  1.00  0.00     0.001 A 
ATOM     21  C   UNL A   1      33.353  29.082  27.315  1.00  0.00     0.012 A 
ATOM     22  C   UNL A   1      32.182  30.718  25.972  1.00  0.00     0.016 A 
ATOM     23  C   UNL A   1      32.683  28.053  26.666  1.00  0.00     0.028 A 
ATOM     24  C   UNL A   1      31.513  29.664  25.343  1.00  0.00    -0.021 A 
ATOM     25  C   UNL A   1      31.723  28.336  25.717  1.00  0.00     0.055 A 
ATOM     26  C   UNL A   1      30.653  29.737  24.120  1.00  0.00     0.060 C 
ATOM     27  C   UNL A   1      30.121  28.298  24.005  1.00  0.00     0.140 C 
BRANCH  20  28
ATOM     28  C   UNL A   1      33.943  31.410  27.626  1.00  0.00     0.081 A 
ATOM     29  C   UNL A   1      34.291  34.942  28.458  1.00  0.00     0.079 C 
ATOM     30  C   UNL A   1      34.438  33.478  28.239  1.00  0.00     0.090 A 
ATOM     31  N   UNL A   1      33.508  32.723  27.703  1.00  0.00    -0.242 NA
ATOM     32  S   UNL A   1      35.888  32.661  28.667  1.00  0.00    -0.127 S 
ATOM     33  C   UNL A   1      35.218  31.184  28.096  1.00  0.00     0.095 A 
ENDBRANCH  20  28
ENDBRANCH  16  19
ENDBRANCH  10  16
ENDBRANCH   7   9
ENDBRANCH   6   7
ENDBRANCH   5   6
ENDBRANCH   4   5
ENDBRANCH   3   4
ENDBRANCH   2   3
ENDBRANCH   1   2
BRANCH   1  34
ATOM     34  O   UNL A   1      38.638  22.336  26.474  1.00  0.00    -0.377 OA
BRANCH  34  35
ATOM     35  C   UNL A   1      39.967  21.853  26.285  1.00  0.00     0.188 C 
BRANCH  35  36
ATOM     36  C   UNL A   1      40.343  20.366  26.501  1.00  0.00     0.188 C 
BRANCH  36  37
ATOM     37  O   UNL A   1      41.476  19.921  25.778  1.00  0.00    -0.376 OA
BRANCH  37  38
ATOM     38  C   UNL A   1      42.287  18.917  26.357  1.00  0.00     0.202 C 
BRANCH  38  39
ATOM     39  C   UNL A   1      43.503  18.442  25.550  1.00  0.00     0.261 C 
BRANCH  39  40
ATOM     40  O   UNL A   1      43.802  19.186  24.359  1.00  0.00    -0.460 OA
BRANCH  40  41
ATOM     41  C   UNL A   1      45.065  19.652  24.221  1.00  0.00     0.338 C 
ATOM     42  O   UNL A   1      45.990  19.120  23.653  1.00  0.00    -0.246 OA
BRANCH  41  43
ATOM     43  C   UNL A   1      45.076  21.036  24.746  1.00  0.00     0.060 A 
ATOM     44  C   UNL A   1      44.889  22.107  23.862  1.00  0.00     0.016 A 
ATOM     45  C   UNL A   1      45.259  21.266  26.110  1.00  0.00     0.016 A 
ATOM     46  C   UNL A   1      44.908  23.418  24.342  1.00  0.00     0.010 A 
ATOM     47  C   UNL A   1      45.301  22.578  26.585  1.00  0.00     0.010 A 
ATOM     48  C   UNL A   1      45.155  23.661  25.700  1.00  0.00    -0.014 A 
BRANCH  48  49
ATOM     49  C   UNL A   1      45.447  25.036  26.173  1.00  0.00     0.031 A 
ATOM     50  C   UNL A   1      44.310  25.854  26.719  1.00  0.00     0.074 A 
ATOM     51  C   UNL A   1      46.692  25.545  26.133  1.00  0.00     0.049 A 
ATOM     52  N   UNL A   1      44.294  27.105  27.100  1.00  0.00    -0.248 NA
ATOM     53  C   UNL A   1      43.015  25.167  26.858  1.00  0.00     0.031 C 
ATOM     54  C   UNL A   1      47.884  24.829  25.687  1.00  0.00     0.029 A 
ATOM     55  N   UNL A   1      47.154  26.795  26.468  1.00  0.00    -0.354 N 
ATOM     56  C   UNL A   1      42.994  27.352  27.523  1.00  0.00     0.074 A 
ATOM     57  C   UNL A   1      42.239  26.136  27.322  1.00  0.00     0.031 C 
ATOM     58  C   UNL A   1      48.944  25.654  25.774  1.00  0.00     0.029 A 
ATOM     59  C   UNL A   1      48.497  26.967  26.236  1.00  0.00     0.049 A 
ATOM     60  H   UNL A   1      46.577  27.500  26.841  1.00  0.00     0.167 HD
ATOM     61  C   UNL A   1      42.483  28.489  28.046  1.00  0.00     0.037 A 
ATOM     62  C   UNL A   1      49.266  28.068  26.361  1.00  0.00     0.037 A 
ATOM     63  C   UNL A   1      43.237  29.697  28.247  1.00  0.00     0.049 A 
ATOM     64  C   UNL A   1      48.640  29.357  26.836  1.00  0.00     0.074 A 
ATOM     65  C   UNL A   1      42.801  30.906  28.759  1.00  0.00     0.029 A 
ATOM     66  N   UNL A   1      44.582  29.847  27.949  1.00  0.00    -0.354 N 
ATOM     67  N   UNL A   1      47.410  29.586  27.230  1.00  0.00    -0.248 NA
ATOM     68  C   UNL A   1      49.507  30.546  26.876  1.00  0.00     0.031 C 
ATOM     69  C   UNL A   1      43.870  31.804  28.725  1.00  0.00     0.029 A 
ATOM     70  C   UNL A   1      44.987  31.137  28.249  1.00  0.00     0.049 A 
ATOM     71  H   UNL A   1      45.163  29.144  27.579  1.00  0.00     0.167 HD
ATOM     72  C   UNL A   1      47.369  30.925  27.602  1.00  0.00     0.074 A 
ATOM     73  C   UNL A   1      48.697  31.458  27.395  1.00  0.00     0.031 C 
ATOM     74  C   UNL A   1      46.322  31.647  28.070  1.00  0.00     0.037 A 
BRANCH  61  75
ATOM     75  C   UNL A   1      41.040  28.497  28.452  1.00  0.00     0.064 A 
ATOM     76  C   UNL A   1      40.057  28.975  27.573  1.00  0.00     0.173 A 
ATOM     77  C   UNL A   1      40.649  28.145  29.751  1.00  0.00     0.173 A 
ATOM     78  F   UNL A   1      40.383  29.328  26.320  1.00  0.00    -0.203 F 
ATOM     79  C   UNL A   1      38.738  29.131  27.990  1.00  0.00     0.198 A 
ATOM     80  C   UNL A   1      39.323  28.277  30.157  1.00  0.00     0.198 A 
ATOM     81  F   UNL A   1      41.550  27.669  30.623  1.00  0.00    -0.203 F 
ATOM     82  F   UNL A   1      37.826  29.638  27.150  1.00  0.00    -0.200 F 
ATOM     83  C   UNL A   1      38.374  28.784  29.283  1.00  0.00     0.200 A 
ATOM     84  F   UNL A   1      38.968  27.922  31.400  1.00  0.00    -0.200 F 
ATOM     85  F   UNL A   1      37.106  28.943  29.687  1.00  0.00    -0.200 F 
ENDBRANCH  61  75
BRANCH  62  86
ATOM     86  C   UNL A   1      50.716  28.016  26.027  1.00  0.00     0.064 A 
ATOM     87  C   UNL A   1      51.170  28.097  24.702  1.00  0.00     0.173 A 
ATOM     88  C   UNL A   1      51.685  27.922  27.038  1.00  0.00     0.173 A 
ATOM     89  F   UNL A   1      50.289  28.198  23.695  1.00  0.00    -0.203 F 
ATOM     90  C   UNL A   1      52.531  28.073  24.401  1.00  0.00     0.198 A 
ATOM     91  C   UNL A   1      53.045  27.933  26.739  1.00  0.00     0.198 A 
ATOM     92  F   UNL A   1      51.305  27.872  28.325  1.00  0.00    -0.203 F 
ATOM     93  F   UNL A   1      52.934  28.131  23.125  1.00  0.00    -0.200 F 
ATOM     94  C   UNL A   1      53.468  28.002  25.420  1.00  0.00     0.200 A 
ATOM     95  F   UNL A   1      53.947  27.900  27.730  1.00  0.00    -0.200 F 
ATOM     96  F   UNL A   1      54.776  28.012  25.133  1.00  0.00    -0.200 F 
ENDBRANCH  62  86
BRANCH  74  97
ATOM     97  C   UNL A   1      46.560  33.081  28.445  1.00  0.00     0.064 A 
ATOM     98  C   UNL A   1      46.881  33.422  29.769  1.00  0.00     0.173 A 
ATOM     99  C   UNL A   1      46.363  34.123  27.529  1.00  0.00     0.173 A 
ATOM    100  F   UNL A   1      47.066  32.463  30.688  1.00  0.00    -0.203 F 
ATOM    101  C   UNL A   1      46.972  34.753  30.166  1.00  0.00     0.198 A 
ATOM    102  C   UNL A   1      46.488  35.453  27.921  1.00  0.00     0.198 A 
ATOM    103  F   UNL A   1      46.064  33.850  26.249  1.00  0.00    -0.203 F 
ATOM    104  F   UNL A   1      47.231  35.054  31.446  1.00  0.00    -0.200 F 
ATOM    105  C   UNL A   1      46.778  35.768  29.241  1.00  0.00     0.200 A 
ATOM    106  F   UNL A   1      46.323  36.434  27.022  1.00  0.00    -0.200 F 
ATOM    107  F   UNL A   1      46.869  37.049  29.622  1.00  0.00    -0.200 F 
ENDBRANCH  74  97
ENDBRANCH  48  49
ENDBRANCH  41  43
ENDBRANCH  40  41
ENDBRANCH  39  40
ENDBRANCH  38  39
ENDBRANCH  37  38
ENDBRANCH  36  37
ENDBRANCH  35  36
ENDBRANCH  34  35
ENDBRANCH   1  34
TORSDOF 23
ENDMDL
MODEL 2
REMARK VINA RESULT:     -11.1      1.207      6.943
REMARK SMILES Cc1nc(-c2ccc3c(c2)CCN3S(=O)(=O)c2ccc(F)c(C(=O)OCCOCCOCCOCCOC(=O)c3ccc(-c4c5nc(c(-c6c(F)c(F)c(F)c(F)c6F)c6ccc([nH]6)c(-c6c(F)c(F)c(F)c(F)c6F)c6nc(c(-c7c(F)c(F)c(F)c(F)c7F)c7ccc4[nH]7)C=C6)C=C5)cc3)c2)cs1
REMARK SMILES IDX 30 1 29 2 28 3 27 4 26 5 25 6 23 7 24 8 22 9 17 10 18 11
REMARK SMILES IDX 103 12 19 13 20 14 21 15 14 16 15 17 16 18 13 19 5 20 6 21
REMARK SMILES IDX 10 22 7 23 9 24 8 25 11 26 12 27 4 28 1 29 2 30 3 31 105 32
REMARK SMILES IDX 104 33 31 34 32 35 33 36 34 37 35 38 36 39 37 40 38 41 39 42
REMARK SMILES IDX 40 43 41 44 102 45 42 46 101 47 43 48 44 49 45 50 95 51
REMARK SMILES IDX 46 52 100 53 94 54 96 55 47 56 99 57 93 58 92 59 48 61 80 62
REMARK SMILES IDX 60 63 79 64 61 65 64 66 78 67 97 68 62 69 63 70 77 72 98 73
REMARK SMILES IDX 65 74 49 75 50 76 58 77 51 78 52 79 56 80 59 81 53 82 54 83
REMARK SMILES IDX 57 84 55 85 81 86 82 87 90 88 83 89 84 90 88 91 91 92 85 93
REMARK SMILES IDX 86 94 89 95 87 96 66 97 67 98 75 99 68 100 69 101 73 102
REMARK SMILES IDX 76 103 70 104 71 105 74 106 72 107
REMARK H PARENT 96 60 64 71
REMARK Flexibility Score: inf
ROOT
ATOM      1  C   UNL A   1      38.929  23.728  26.491  1.00  0.00     0.188 C 
ENDROOT
BRANCH   1   2
ATOM      2  C   UNL A   1      37.643  23.679  25.638  1.00  0.00     0.188 C 
BRANCH   2   3
ATOM      3  O   UNL A   1      36.688  22.749  26.117  1.00  0.00    -0.376 OA
BRANCH   3   4
ATOM      4  C   UNL A   1      36.471  21.540  25.413  1.00  0.00     0.202 C 
BRANCH   4   5
ATOM      5  C   UNL A   1      35.042  21.085  25.083  1.00  0.00     0.261 C 
BRANCH   5   6
ATOM      6  O   UNL A   1      34.009  21.661  25.882  1.00  0.00    -0.460 OA
BRANCH   6   7
ATOM      7  C   UNL A   1      32.755  21.672  25.385  1.00  0.00     0.341 C 
ATOM      8  O   UNL A   1      32.010  20.721  25.248  1.00  0.00    -0.246 OA
BRANCH   7   9
ATOM      9  C   UNL A   1      32.341  23.084  25.273  1.00  0.00     0.097 A 
ATOM     10  C   UNL A   1      32.031  25.060  23.925  1.00  0.00     0.089 A 
ATOM     11  C   UNL A   1      31.425  25.715  25.010  1.00  0.00     0.025 A 
ATOM     12  C   UNL A   1      32.453  23.729  24.030  1.00  0.00     0.041 A 
ATOM     13  C   UNL A   1      31.316  25.062  26.236  1.00  0.00     0.041 A 
ATOM     14  C   UNL A   1      31.791  23.760  26.369  1.00  0.00     0.137 A 
ATOM     15  F   UNL A   1      31.724  23.182  27.577  1.00  0.00    -0.206 F 
BRANCH  10  16
ATOM     16  S   UNL A   1      32.402  26.001  22.465  1.00  0.00     0.264 S 
ATOM     17  O   UNL A   1      31.439  25.613  21.452  1.00  0.00    -0.201 OA
ATOM     18  O   UNL A   1      33.821  25.845  22.214  1.00  0.00    -0.201 OA
BRANCH  16  19
ATOM     19  N   UNL A   1      32.120  27.635  22.863  1.00  0.00    -0.266 N 
ATOM     20  C   UNL A   1      33.280  29.929  26.201  1.00  0.00     0.001 A 
ATOM     21  C   UNL A   1      34.207  29.022  25.679  1.00  0.00     0.012 A 
ATOM     22  C   UNL A   1      32.003  30.016  25.633  1.00  0.00     0.016 A 
ATOM     23  C   UNL A   1      33.876  28.208  24.604  1.00  0.00     0.028 A 
ATOM     24  C   UNL A   1      31.691  29.176  24.559  1.00  0.00    -0.021 A 
ATOM     25  C   UNL A   1      32.603  28.241  24.072  1.00  0.00     0.055 A 
ATOM     26  C   UNL A   1      30.484  29.245  23.676  1.00  0.00     0.060 C 
ATOM     27  C   UNL A   1      30.658  28.004  22.783  1.00  0.00     0.140 C 
BRANCH  20  28
ATOM     28  C   UNL A   1      33.758  30.814  27.245  1.00  0.00     0.081 A 
ATOM     29  C   UNL A   1      33.495  34.149  28.693  1.00  0.00     0.079 C 
ATOM     30  C   UNL A   1      33.836  32.753  28.308  1.00  0.00     0.090 A 
ATOM     31  N   UNL A   1      33.207  32.079  27.375  1.00  0.00    -0.242 NA
ATOM     32  S   UNL A   1      35.130  31.917  29.071  1.00  0.00    -0.127 S 
ATOM     33  C   UNL A   1      34.821  30.547  28.079  1.00  0.00     0.095 A 
ENDBRANCH  20  28
ENDBRANCH  16  19
ENDBRANCH  10  16
ENDBRANCH   7   9
ENDBRANCH   6   7
ENDBRANCH   5   6
ENDBRANCH   4   5
ENDBRANCH   3   4
ENDBRANCH   2   3
ENDBRANCH   1   2
BRANCH   1  34
ATOM     34  O   UNL A   1      39.459  22.507  26.984  1.00  0.00    -0.377 OA
BRANCH  34  35
ATOM     35  C   UNL A   1      40.376  21.763  26.184  1.00  0.00     0.188 C 
BRANCH  35  36
ATOM     36  C   UNL A   1      40.487  20.220  26.276  1.00  0.00     0.188 C 
BRANCH  36  37
ATOM     37  O   UNL A   1      41.580  19.654  25.575  1.00  0.00    -0.376 OA
BRANCH  37  38
ATOM     38  C   UNL A   1      42.392  18.714  26.251  1.00  0.00     0.202 C 
BRANCH  38  39
ATOM     39  C   UNL A   1      43.726  18.336  25.593  1.00  0.00     0.261 C 
BRANCH  39  40
ATOM     40  O   UNL A   1      43.965  18.880  24.287  1.00  0.00    -0.460 OA
BRANCH  40  41
ATOM     41  C   UNL A   1      45.159  19.479  24.074  1.00  0.00     0.338 C 
ATOM     42  O   UNL A   1      46.101  19.048  23.451  1.00  0.00    -0.246 OA
BRANCH  41  43
ATOM     43  C   UNL A   1      45.052  20.859  24.600  1.00  0.00     0.060 A 
ATOM     44  C   UNL A   1      44.602  21.882  23.756  1.00  0.00     0.016 A 
ATOM     45  C   UNL A   1      45.386  21.130  25.927  1.00  0.00     0.016 A 
ATOM     46  C   UNL A   1      44.506  23.190  24.236  1.00  0.00     0.010 A 
ATOM     47  C   UNL A   1      45.312  22.442  26.400  1.00  0.00     0.010 A 
ATOM     48  C   UNL A   1      44.900  23.483  25.548  1.00  0.00    -0.014 A 
BRANCH  48  49
ATOM     49  C   UNL A   1      45.062  24.891  25.985  1.00  0.00     0.031 A 
ATOM     50  C   UNL A   1      46.421  25.522  25.852  1.00  0.00     0.074 A 
ATOM     51  C   UNL A   1      44.030  25.599  26.475  1.00  0.00     0.049 A 
ATOM     52  N   UNL A   1      46.834  26.697  26.252  1.00  0.00    -0.248 NA
ATOM     53  C   UNL A   1      47.454  24.721  25.173  1.00  0.00     0.031 C 
ATOM     54  C   UNL A   1      42.655  25.120  26.592  1.00  0.00     0.029 A 
ATOM     55  N   UNL A   1      43.985  26.878  26.976  1.00  0.00    -0.354 N 
ATOM     56  C   UNL A   1      48.168  26.774  25.873  1.00  0.00     0.074 A 
ATOM     57  C   UNL A   1      48.509  25.519  25.243  1.00  0.00     0.031 C 
ATOM     58  C   UNL A   1      41.899  26.093  27.133  1.00  0.00     0.029 A 
ATOM     59  C   UNL A   1      42.746  27.245  27.443  1.00  0.00     0.049 A 
ATOM     60  H   UNL A   1      44.767  27.477  26.995  1.00  0.00     0.167 HD
ATOM     61  C   UNL A   1      49.025  27.809  26.024  1.00  0.00     0.037 A 
ATOM     62  C   UNL A   1      42.353  28.372  28.072  1.00  0.00     0.037 A 
ATOM     63  C   UNL A   1      48.683  29.057  26.649  1.00  0.00     0.049 A 
ATOM     64  C   UNL A   1      43.364  29.463  28.334  1.00  0.00     0.074 A 
ATOM     65  C   UNL A   1      49.490  30.161  26.861  1.00  0.00     0.029 A 
ATOM     66  N   UNL A   1      47.432  29.369  27.159  1.00  0.00    -0.354 N 
ATOM     67  N   UNL A   1      44.624  29.529  27.977  1.00  0.00    -0.248 NA
ATOM     68  C   UNL A   1      42.899  30.634  29.093  1.00  0.00     0.031 C 
ATOM     69  C   UNL A   1      48.742  31.122  27.544  1.00  0.00     0.029 A 
ATOM     70  C   UNL A   1      47.453  30.642  27.703  1.00  0.00     0.049 A 
ATOM     71  H   UNL A   1      46.648  28.775  27.139  1.00  0.00     0.167 HD
ATOM     72  C   UNL A   1      45.087  30.759  28.430  1.00  0.00     0.074 A 
ATOM     73  C   UNL A   1      43.973  31.412  29.081  1.00  0.00     0.031 C 
ATOM     74  C   UNL A   1      46.326  31.296  28.319  1.00  0.00     0.037 A 
BRANCH  61  75
ATOM     75  C   UNL A   1      50.422  27.654  25.505  1.00  0.00     0.064 A 
ATOM     76  C   UNL A   1      51.483  27.385  26.383  1.00  0.00     0.173 A 
ATOM     77  C   UNL A   1      50.726  27.890  24.156  1.00  0.00     0.173 A 
ATOM     78  F   UNL A   1      51.243  27.157  27.683  1.00  0.00    -0.203 F 
ATOM     79  C   UNL A   1      52.801  27.392  25.936  1.00  0.00     0.198 A 
ATOM     80  C   UNL A   1      52.044  27.868  23.708  1.00  0.00     0.198 A 
ATOM     81  F   UNL A   1      49.745  28.136  23.275  1.00  0.00    -0.203 F 
ATOM     82  F   UNL A   1      53.802  27.184  26.803  1.00  0.00    -0.200 F 
ATOM     83  C   UNL A   1      53.080  27.636  24.600  1.00  0.00     0.200 A 
ATOM     84  F   UNL A   1      52.312  28.084  22.412  1.00  0.00    -0.200 F 
ATOM     85  F   UNL A   1      54.350  27.650  24.172  1.00  0.00    -0.200 F 
ENDBRANCH  61  75
BRANCH  62  86
ATOM     86  C   UNL A   1      40.940  28.537  28.509  1.00  0.00     0.064 A 
ATOM     87  C   UNL A   1      39.963  29.075  27.658  1.00  0.00     0.173 A 
ATOM     88  C   UNL A   1      40.528  28.120  29.784  1.00  0.00     0.173 A 
ATOM     89  F   UNL A   1      40.298  29.482  26.424  1.00  0.00    -0.203 F 
ATOM     90  C   UNL A   1      38.637  29.202  28.068  1.00  0.00     0.198 A 
ATOM     91  C   UNL A   1      39.195  28.215  30.180  1.00  0.00     0.198 A 
ATOM     92  F   UNL A   1      41.416  27.570  30.627  1.00  0.00    -0.203 F 
ATOM     93  F   UNL A   1      37.730  29.740  27.241  1.00  0.00    -0.200 F 
ATOM     94  C   UNL A   1      38.252  28.762  29.324  1.00  0.00     0.200 A 
ATOM     95  F   UNL A   1      38.822  27.754  31.382  1.00  0.00    -0.200 F 
ATOM     96  F   UNL A   1      36.971  28.853  29.706  1.00  0.00    -0.200 F 
ENDBRANCH  62  86
BRANCH  74  97
ATOM     97  C   UNL A   1      46.553  32.678  28.861  1.00  0.00     0.064 A 
ATOM     98  C   UNL A   1      46.383  33.799  28.033  1.00  0.00     0.173 A 
ATOM     99  C   UNL A   1      47.041  32.887  30.158  1.00  0.00     0.173 A 
ATOM    100  F   UNL A   1      45.931  33.651  26.779  1.00  0.00    -0.203 F 
ATOM    101  C   UNL A   1      46.718  35.075  28.476  1.00  0.00     0.198 A 
ATOM    102  C   UNL A   1      47.344  34.169  30.609  1.00  0.00     0.198 A 
ATOM    103  F   UNL A   1      47.212  31.850  30.992  1.00  0.00    -0.203 F 
ATOM    104  F   UNL A   1      46.594  36.124  27.650  1.00  0.00    -0.200 F 
ATOM    105  C   UNL A   1      47.195  35.260  29.765  1.00  0.00     0.200 A 
ATOM    106  F   UNL A   1      47.783  34.351  31.862  1.00  0.00    -0.200 F 
ATOM    107  F   UNL A   1      47.514  36.489  30.191  1.00  0.00    -0.200 F 
ENDBRANCH  74  97
ENDBRANCH  48  49
ENDBRANCH  41  43
ENDBRANCH  40  41
ENDBRANCH  39  40
ENDBRANCH  38  39
ENDBRANCH  37  38
ENDBRANCH  36  37
ENDBRANCH  35  36
ENDBRANCH  34  35
ENDBRANCH   1  34
TORSDOF 23
ENDMDL
MODEL 3
REMARK VINA RESULT:     -11.1      0.836      6.862
REMARK SMILES Cc1nc(-c2ccc3c(c2)CCN3S(=O)(=O)c2ccc(F)c(C(=O)OCCOCCOCCOCCOC(=O)c3ccc(-c4c5nc(c(-c6c(F)c(F)c(F)c(F)c6F)c6ccc([nH]6)c(-c6c(F)c(F)c(F)c(F)c6F)c6nc(c(-c7c(F)c(F)c(F)c(F)c7F)c7ccc4[nH]7)C=C6)C=C5)cc3)c2)cs1
REMARK SMILES IDX 30 1 29 2 28 3 27 4 26 5 25 6 23 7 24 8 22 9 17 10 18 11
REMARK SMILES IDX 103 12 19 13 20 14 21 15 14 16 15 17 16 18 13 19 5 20 6 21
REMARK SMILES IDX 10 22 7 23 9 24 8 25 11 26 12 27 4 28 1 29 2 30 3 31 105 32
REMARK SMILES IDX 104 33 31 34 32 35 33 36 34 37 35 38 36 39 37 40 38 41 39 42
REMARK SMILES IDX 40 43 41 44 102 45 42 46 101 47 43 48 44 49 45 50 95 51
REMARK SMILES IDX 46 52 100 53 94 54 96 55 47 56 99 57 93 58 92 59 48 61 80 62
REMARK SMILES IDX 60 63 79 64 61 65 64 66 78 67 97 68 62 69 63 70 77 72 98 73
REMARK SMILES IDX 65 74 49 75 50 76 58 77 51 78 52 79 56 80 59 81 53 82 54 83
REMARK SMILES IDX 57 84 55 85 81 86 82 87 90 88 83 89 84 90 88 91 91 92 85 93
REMARK SMILES IDX 86 94 89 95 87 96 66 97 67 98 75 99 68 100 69 101 73 102
REMARK SMILES IDX 76 103 70 104 71 105 74 106 72 107
REMARK H PARENT 96 60 64 71
REMARK Flexibility Score: inf
ROOT
ATOM      1  C   UNL A   1      38.288  22.918  25.715  1.00  0.00     0.188 C 
ENDROOT
BRANCH   1   2
ATOM      2  C   UNL A   1      37.100  22.464  24.840  1.00  0.00     0.188 C 
BRANCH   2   3
ATOM      3  O   UNL A   1      35.843  22.887  25.338  1.00  0.00    -0.376 OA
BRANCH   3   4
ATOM      4  C   UNL A   1      35.052  21.994  26.099  1.00  0.00     0.202 C 
BRANCH   4   5
ATOM      5  C   UNL A   1      34.279  20.864  25.403  1.00  0.00     0.261 C 
BRANCH   5   6
ATOM      6  O   UNL A   1      32.910  21.140  25.108  1.00  0.00    -0.460 OA
BRANCH   6   7
ATOM      7  C   UNL A   1      32.563  21.315  23.817  1.00  0.00     0.341 C 
ATOM      8  O   UNL A   1      32.158  20.468  23.043  1.00  0.00    -0.246 OA
BRANCH   7   9
ATOM      9  C   UNL A   1      32.511  22.769  23.571  1.00  0.00     0.097 A 
ATOM     10  C   UNL A   1      32.026  24.996  24.360  1.00  0.00     0.089 A 
ATOM     11  C   UNL A   1      32.544  25.538  23.173  1.00  0.00     0.025 A 
ATOM     12  C   UNL A   1      32.044  23.615  24.591  1.00  0.00     0.041 A 
ATOM     13  C   UNL A   1      33.008  24.688  22.171  1.00  0.00     0.041 A 
ATOM     14  C   UNL A   1      32.972  23.309  22.364  1.00  0.00     0.137 A 
ATOM     15  F   UNL A   1      33.372  22.518  21.359  1.00  0.00    -0.206 F 
BRANCH  10  16
ATOM     16  S   UNL A   1      31.196  26.079  25.496  1.00  0.00     0.264 S 
ATOM     17  O   UNL A   1      31.732  25.804  26.816  1.00  0.00    -0.201 OA
ATOM     18  O   UNL A   1      29.775  25.940  25.248  1.00  0.00    -0.201 OA
BRANCH  16  19
ATOM     19  N   UNL A   1      31.646  27.666  25.063  1.00  0.00    -0.266 N 
ATOM     20  C   UNL A   1      33.543  30.720  27.261  1.00  0.00     0.001 A 
ATOM     21  C   UNL A   1      33.998  29.410  27.438  1.00  0.00     0.012 A 
ATOM     22  C   UNL A   1      32.463  30.966  26.403  1.00  0.00     0.016 A 
ATOM     23  C   UNL A   1      33.392  28.352  26.774  1.00  0.00     0.028 A 
ATOM     24  C   UNL A   1      31.863  29.882  25.756  1.00  0.00    -0.021 A 
ATOM     25  C   UNL A   1      32.290  28.572  25.972  1.00  0.00     0.055 A 
ATOM     26  C   UNL A   1      30.853  29.931  24.652  1.00  0.00     0.060 C 
ATOM     27  C   UNL A   1      30.503  28.445  24.459  1.00  0.00     0.140 C 
BRANCH  20  28
ATOM     28  C   UNL A   1      34.313  31.765  27.904  1.00  0.00     0.081 A 
ATOM     29  C   UNL A   1      37.641  32.812  28.961  1.00  0.00     0.079 C 
ATOM     30  C   UNL A   1      36.190  32.643  28.682  1.00  0.00     0.090 A 
ATOM     31  N   UNL A   1      35.692  31.649  27.984  1.00  0.00    -0.242 NA
ATOM     32  S   UNL A   1      35.036  33.762  29.292  1.00  0.00    -0.127 S 
ATOM     33  C   UNL A   1      33.775  32.849  28.562  1.00  0.00     0.095 A 
ENDBRANCH  20  28
ENDBRANCH  16  19
ENDBRANCH  10  16
ENDBRANCH   7   9
ENDBRANCH   6   7
ENDBRANCH   5   6
ENDBRANCH   4   5
ENDBRANCH   3   4
ENDBRANCH   2   3
ENDBRANCH   1   2
BRANCH   1  34
ATOM     34  O   UNL A   1      38.924  21.955  26.542  1.00  0.00    -0.377 OA
BRANCH  34  35
ATOM     35  C   UNL A   1      40.141  21.349  26.109  1.00  0.00     0.188 C 
BRANCH  35  36
ATOM     36  C   UNL A   1      40.512  19.891  26.479  1.00  0.00     0.188 C 
BRANCH  36  37
ATOM     37  O   UNL A   1      41.599  19.345  25.753  1.00  0.00    -0.376 OA
BRANCH  37  38
ATOM     38  C   UNL A   1      42.555  18.576  26.458  1.00  0.00     0.202 C 
BRANCH  38  39
ATOM     39  C   UNL A   1      43.840  18.195  25.712  1.00  0.00     0.261 C 
BRANCH  39  40
ATOM     40  O   UNL A   1      44.007  18.767  24.406  1.00  0.00    -0.460 OA
BRANCH  40  41
ATOM     41  C   UNL A   1      45.175  19.402  24.153  1.00  0.00     0.338 C 
ATOM     42  O   UNL A   1      46.115  18.991  23.513  1.00  0.00    -0.246 OA
BRANCH  41  43
ATOM     43  C   UNL A   1      45.035  20.786  24.659  1.00  0.00     0.060 A 
ATOM     44  C   UNL A   1      44.606  21.795  23.787  1.00  0.00     0.016 A 
ATOM     45  C   UNL A   1      45.316  21.075  25.995  1.00  0.00     0.016 A 
ATOM     46  C   UNL A   1      44.479  23.107  24.249  1.00  0.00     0.010 A 
ATOM     47  C   UNL A   1      45.212  22.391  26.449  1.00  0.00     0.010 A 
ATOM     48  C   UNL A   1      44.821  23.418  25.571  1.00  0.00    -0.014 A 
BRANCH  48  49
ATOM     49  C   UNL A   1      44.953  24.833  25.997  1.00  0.00     0.031 A 
ATOM     50  C   UNL A   1      46.305  25.482  25.889  1.00  0.00     0.074 A 
ATOM     51  C   UNL A   1      43.899  25.531  26.458  1.00  0.00     0.049 A 
ATOM     52  N   UNL A   1      46.692  26.667  26.287  1.00  0.00    -0.248 NA
ATOM     53  C   UNL A   1      47.364  24.690  25.242  1.00  0.00     0.031 C 
ATOM     54  C   UNL A   1      42.529  25.032  26.548  1.00  0.00     0.029 A 
ATOM     55  N   UNL A   1      43.825  26.813  26.944  1.00  0.00    -0.354 N 
ATOM     56  C   UNL A   1      48.033  26.761  25.937  1.00  0.00     0.074 A 
ATOM     57  C   UNL A   1      48.406  25.504  25.328  1.00  0.00     0.031 C 
ATOM     58  C   UNL A   1      41.748  25.999  27.062  1.00  0.00     0.029 A 
ATOM     59  C   UNL A   1      42.570  27.166  27.380  1.00  0.00     0.049 A 
ATOM     60  H   UNL A   1      44.597  27.423  26.975  1.00  0.00     0.167 HD
ATOM     61  C   UNL A   1      48.871  27.809  26.098  1.00  0.00     0.037 A 
ATOM     62  C   UNL A   1      42.147  28.293  27.988  1.00  0.00     0.037 A 
ATOM     63  C   UNL A   1      48.497  29.058  26.703  1.00  0.00     0.049 A 
ATOM     64  C   UNL A   1      43.135  29.401  28.262  1.00  0.00     0.074 A 
ATOM     65  C   UNL A   1      49.283  30.175  26.922  1.00  0.00     0.029 A 
ATOM     66  N   UNL A   1      47.230  29.356  27.181  1.00  0.00    -0.354 N 
ATOM     67  N   UNL A   1      44.403  29.482  27.934  1.00  0.00    -0.248 NA
ATOM     68  C   UNL A   1      42.637  30.573  28.999  1.00  0.00     0.031 C 
ATOM     69  C   UNL A   1      48.506  31.132  27.579  1.00  0.00     0.029 A 
ATOM     70  C   UNL A   1      47.220  30.635  27.713  1.00  0.00     0.049 A 
ATOM     71  H   UNL A   1      46.455  28.750  27.149  1.00  0.00     0.167 HD
ATOM     72  C   UNL A   1      44.837  30.723  28.385  1.00  0.00     0.074 A 
ATOM     73  C   UNL A   1      43.699  31.366  29.003  1.00  0.00     0.031 C 
ATOM     74  C   UNL A   1      46.071  31.277  28.296  1.00  0.00     0.037 A 
BRANCH  61  75
ATOM     75  C   UNL A   1      50.282  27.670  25.612  1.00  0.00     0.064 A 
ATOM     76  C   UNL A   1      51.332  27.471  26.521  1.00  0.00     0.173 A 
ATOM     77  C   UNL A   1      50.606  27.853  24.260  1.00  0.00     0.173 A 
ATOM     78  F   UNL A   1      51.073  27.294  27.825  1.00  0.00    -0.203 F 
ATOM     79  C   UNL A   1      52.658  27.494  26.099  1.00  0.00     0.198 A 
ATOM     80  C   UNL A   1      51.933  27.847  23.837  1.00  0.00     0.198 A 
ATOM     81  F   UNL A   1      49.636  28.031  23.351  1.00  0.00    -0.203 F 
ATOM     82  F   UNL A   1      53.647  27.353  26.992  1.00  0.00    -0.200 F 
ATOM     83  C   UNL A   1      52.957  27.684  24.758  1.00  0.00     0.200 A 
ATOM     84  F   UNL A   1      52.220  28.012  22.538  1.00  0.00    -0.200 F 
ATOM     85  F   UNL A   1      54.234  27.715  24.353  1.00  0.00    -0.200 F 
ENDBRANCH  61  75
BRANCH  62  86
ATOM     86  C   UNL A   1      40.722  28.441  28.392  1.00  0.00     0.064 A 
ATOM     87  C   UNL A   1      40.273  28.055  29.664  1.00  0.00     0.173 A 
ATOM     88  C   UNL A   1      39.782  29.012  27.520  1.00  0.00     0.173 A 
ATOM     89  F   UNL A   1      41.129  27.512  30.543  1.00  0.00    -0.203 F 
ATOM     90  C   UNL A   1      38.942  28.221  30.042  1.00  0.00     0.198 A 
ATOM     91  C   UNL A   1      38.459  29.209  27.911  1.00  0.00     0.198 A 
ATOM     92  F   UNL A   1      40.165  29.426  26.303  1.00  0.00    -0.203 F 
ATOM     93  F   UNL A   1      38.537  27.823  31.256  1.00  0.00    -0.200 F 
ATOM     94  C   UNL A   1      38.038  28.807  29.170  1.00  0.00     0.200 A 
ATOM     95  F   UNL A   1      37.599  29.810  27.077  1.00  0.00    -0.200 F 
ATOM     96  F   UNL A   1      36.766  28.997  29.545  1.00  0.00    -0.200 F 
ENDBRANCH  62  86
BRANCH  74  97
ATOM     97  C   UNL A   1      46.265  32.667  28.830  1.00  0.00     0.064 A 
ATOM     98  C   UNL A   1      46.612  32.865  30.177  1.00  0.00     0.173 A 
ATOM     99  C   UNL A   1      46.004  33.799  28.046  1.00  0.00     0.173 A 
ATOM    100  F   UNL A   1      46.858  31.814  30.973  1.00  0.00    -0.203 F 
ATOM    101  C   UNL A   1      46.663  34.144  30.724  1.00  0.00     0.198 A 
ATOM    102  C   UNL A   1      46.090  35.079  28.588  1.00  0.00     0.198 A 
ATOM    103  F   UNL A   1      45.679  33.664  26.751  1.00  0.00    -0.203 F 
ATOM    104  F   UNL A   1      46.947  34.305  32.023  1.00  0.00    -0.200 F 
ATOM    105  C   UNL A   1      46.406  35.250  29.928  1.00  0.00     0.200 A 
ATOM    106  F   UNL A   1      45.863  36.150  27.814  1.00  0.00    -0.200 F 
ATOM    107  F   UNL A   1      46.459  36.481  30.454  1.00  0.00    -0.200 F 
ENDBRANCH  74  97
ENDBRANCH  48  49
ENDBRANCH  41  43
ENDBRANCH  40  41
ENDBRANCH  39  40
ENDBRANCH  38  39
ENDBRANCH  37  38
ENDBRANCH  36  37
ENDBRANCH  35  36
ENDBRANCH  34  35
ENDBRANCH   1  34
TORSDOF 23
ENDMDL
