MODEL 1
REMARK VINA RESULT:     -11.4      0.000      0.000
REMARK SMILES CCc1ccc2[nH]c(C(=O)c3cc(C)ccn3)c(CC(=O)OCCOCCOCCOCCOC(=O)c3ccc(-c4c5nc(c(-c6c(F)c(F)c(F)c(F)c6F)c6ccc([nH]6)c(-c6c(F)c(F)c(F)c(F)c6F)c6nc(c(-c7c(F)c(F)c(F)c(F)c7F)c7ccc4[nH]7)C=C6)C=C5)cc3)c2c1
REMARK SMILES IDX 27 1 26 2 25 3 24 4 23 5 22 6 20 7 21 8 19 9 18 10 3 11 4 12
REMARK SMILES IDX 101 13 5 14 100 15 6 16 7 17 8 18 2 20 1 21 9 22 10 23 11 24
REMARK SMILES IDX 12 25 17 26 13 27 16 28 14 29 15 30 28 31 29 32 30 33 31 34
REMARK SMILES IDX 32 35 33 36 34 37 35 38 36 39 37 40 38 41 99 42 39 43 98 44
REMARK SMILES IDX 40 45 41 46 42 47 92 48 43 49 97 50 91 51 93 52 44 53 96 54
REMARK SMILES IDX 90 55 89 56 45 58 77 59 57 60 76 61 58 62 61 63 75 64 94 65
REMARK SMILES IDX 59 66 60 67 74 69 95 70 62 71 46 72 47 73 55 74 48 75 49 76
REMARK SMILES IDX 53 77 56 78 50 79 51 80 54 81 52 82 78 83 79 84 87 85 80 86
REMARK SMILES IDX 81 87 85 88 88 89 82 90 83 91 86 92 84 93 63 94 64 95 72 96
REMARK SMILES IDX 65 97 66 98 70 99 73 100 67 101 68 102 71 103 69 104
REMARK H PARENT 7 19 93 57 61 68
REMARK Flexibility Score: inf
ROOT
ATOM      1  C   UNL A   1      33.693  34.639  29.248  1.00  0.00     0.188 C 
ENDROOT
BRANCH   1   2
ATOM      2  C   UNL A   1      34.628  33.415  29.152  1.00  0.00     0.188 C 
BRANCH   2   3
ATOM      3  O   UNL A   1      34.481  32.702  27.933  1.00  0.00    -0.376 OA
BRANCH   3   4
ATOM      4  C   UNL A   1      33.870  31.426  27.987  1.00  0.00     0.202 C 
BRANCH   4   5
ATOM      5  C   UNL A   1      34.576  30.248  27.288  1.00  0.00     0.261 C 
BRANCH   5   6
ATOM      6  O   UNL A   1      33.789  29.520  26.315  1.00  0.00    -0.463 OA
BRANCH   6   7
ATOM      7  C   UNL A   1      32.748  28.768  26.732  1.00  0.00     0.310 C 
ATOM      8  O   UNL A   1      31.721  29.273  27.184  1.00  0.00    -0.252 OA
BRANCH   7   9
ATOM      9  C   UNL A   1      32.897  27.250  26.573  1.00  0.00     0.161 C 
BRANCH   9  10
ATOM     10  C   UNL A   1      33.360  26.604  25.266  1.00  0.00     0.000 A 
ATOM     11  C   UNL A   1      34.704  23.030  25.692  1.00  0.00    -0.048 A 
ATOM     12  C   UNL A   1      34.962  22.815  24.333  1.00  0.00     0.006 A 
ATOM     13  C   UNL A   1      34.292  24.306  26.121  1.00  0.00     0.014 A 
ATOM     14  C   UNL A   1      34.744  23.816  23.383  1.00  0.00     0.027 A 
ATOM     15  C   UNL A   1      33.975  25.304  25.176  1.00  0.00     0.004 A 
ATOM     16  C   UNL A   1      34.207  25.026  23.835  1.00  0.00     0.046 A 
ATOM     17  N   UNL A   1      33.807  26.131  23.129  1.00  0.00    -0.352 N 
ATOM     18  C   UNL A   1      33.096  27.001  23.934  1.00  0.00     0.093 A 
ATOM     19  H   UNL A   1      34.000  26.283  22.176  1.00  0.00     0.167 HD
BRANCH  11  20
ATOM     20  C   UNL A   1      34.851  21.887  26.670  1.00  0.00     0.032 C 
ATOM     21  C   UNL A   1      33.644  20.953  26.703  1.00  0.00     0.009 C 
ENDBRANCH  11  20
BRANCH  18  22
ATOM     22  C   UNL A   1      32.309  28.143  23.439  1.00  0.00     0.227 C 
ATOM     23  O   UNL A   1      32.850  29.123  22.931  1.00  0.00    -0.285 OA
BRANCH  22  24
ATOM     24  C   UNL A   1      30.794  28.118  23.434  1.00  0.00     0.113 A 
ATOM     25  C   UNL A   1      29.997  29.202  23.068  1.00  0.00     0.036 A 
ATOM     26  N   UNL A   1      30.262  26.919  23.799  1.00  0.00    -0.253 NA
ATOM     27  C   UNL A   1      28.598  29.055  23.108  1.00  0.00    -0.047 A 
ATOM     28  C   UNL A   1      28.919  26.800  23.809  1.00  0.00     0.112 A 
ATOM     29  C   UNL A   1      27.658  30.162  22.725  1.00  0.00     0.044 C 
ATOM     30  C   UNL A   1      28.056  27.833  23.509  1.00  0.00     0.023 A 
ENDBRANCH  22  24
ENDBRANCH  18  22
ENDBRANCH   9  10
ENDBRANCH   7   9
ENDBRANCH   6   7
ENDBRANCH   5   6
ENDBRANCH   4   5
ENDBRANCH   3   4
ENDBRANCH   2   3
ENDBRANCH   1   2
BRANCH   1  31
ATOM     31  O   UNL A   1      32.889  34.953  30.374  1.00  0.00    -0.377 OA
BRANCH  31  32
ATOM     32  C   UNL A   1      32.908  36.287  30.820  1.00  0.00     0.188 C 
BRANCH  32  33
ATOM     33  C   UNL A   1      33.087  36.359  32.338  1.00  0.00     0.188 C 
BRANCH  33  34
ATOM     34  O   UNL A   1      34.431  36.459  32.767  1.00  0.00    -0.376 OA
BRANCH  34  35
ATOM     35  C   UNL A   1      35.140  35.329  33.261  1.00  0.00     0.202 C 
BRANCH  35  36
ATOM     36  C   UNL A   1      36.215  34.520  32.497  1.00  0.00     0.261 C 
BRANCH  36  37
ATOM     37  O   UNL A   1      36.541  33.220  32.979  1.00  0.00    -0.460 OA
BRANCH  37  38
ATOM     38  C   UNL A   1      35.913  32.172  32.431  1.00  0.00     0.338 C 
ATOM     39  O   UNL A   1      34.715  31.953  32.380  1.00  0.00    -0.246 OA
BRANCH  38  40
ATOM     40  C   UNL A   1      36.961  31.453  31.690  1.00  0.00     0.060 A 
ATOM     41  C   UNL A   1      38.087  31.025  32.403  1.00  0.00     0.016 A 
ATOM     42  C   UNL A   1      36.783  31.113  30.345  1.00  0.00     0.016 A 
ATOM     43  C   UNL A   1      39.042  30.245  31.773  1.00  0.00     0.010 A 
ATOM     44  C   UNL A   1      37.768  30.375  29.695  1.00  0.00     0.010 A 
ATOM     45  C   UNL A   1      38.908  29.969  30.407  1.00  0.00    -0.014 A 
BRANCH  45  46
ATOM     46  C   UNL A   1      40.106  29.510  29.688  1.00  0.00     0.031 A 
ATOM     47  C   UNL A   1      41.233  30.490  29.553  1.00  0.00     0.074 A 
ATOM     48  C   UNL A   1      40.205  28.246  29.254  1.00  0.00     0.049 A 
ATOM     49  N   UNL A   1      42.408  30.339  29.008  1.00  0.00    -0.248 NA
ATOM     50  C   UNL A   1      40.997  31.829  30.121  1.00  0.00     0.031 C 
ATOM     51  C   UNL A   1      39.180  27.217  29.410  1.00  0.00     0.029 A 
ATOM     52  N   UNL A   1      41.229  27.614  28.604  1.00  0.00    -0.354 N 
ATOM     53  C   UNL A   1      43.049  31.561  29.166  1.00  0.00     0.074 A 
ATOM     54  C   UNL A   1      42.123  32.453  29.823  1.00  0.00     0.031 C 
ATOM     55  C   UNL A   1      39.630  26.072  28.870  1.00  0.00     0.029 A 
ATOM     56  C   UNL A   1      40.958  26.304  28.304  1.00  0.00     0.049 A 
ATOM     57  H   UNL A   1      42.078  28.057  28.374  1.00  0.00     0.167 HD
ATOM     58  C   UNL A   1      44.305  31.899  28.796  1.00  0.00     0.037 A 
ATOM     59  C   UNL A   1      41.707  25.411  27.635  1.00  0.00     0.037 A 
ATOM     60  C   UNL A   1      45.194  30.993  28.122  1.00  0.00     0.049 A 
ATOM     61  C   UNL A   1      43.065  25.839  27.143  1.00  0.00     0.074 A 
ATOM     62  C   UNL A   1      46.487  31.211  27.689  1.00  0.00     0.029 A 
ATOM     63  N   UNL A   1      44.862  29.691  27.766  1.00  0.00    -0.354 N 
ATOM     64  N   UNL A   1      43.680  26.988  27.303  1.00  0.00    -0.248 NA
ATOM     65  C   UNL A   1      43.833  24.849  26.380  1.00  0.00     0.031 C 
ATOM     66  C   UNL A   1      46.912  30.065  27.009  1.00  0.00     0.029 A 
ATOM     67  C   UNL A   1      45.913  29.104  27.083  1.00  0.00     0.049 A 
ATOM     68  H   UNL A   1      44.005  29.251  27.969  1.00  0.00     0.167 HD
ATOM     69  C   UNL A   1      44.917  26.852  26.688  1.00  0.00     0.074 A 
ATOM     70  C   UNL A   1      44.966  25.501  26.162  1.00  0.00     0.031 C 
ATOM     71  C   UNL A   1      45.924  27.755  26.570  1.00  0.00     0.037 A 
BRANCH  58  72
ATOM     72  C   UNL A   1      44.735  33.315  29.054  1.00  0.00     0.064 A 
ATOM     73  C   UNL A   1      45.372  33.697  30.246  1.00  0.00     0.173 A 
ATOM     74  C   UNL A   1      44.465  34.316  28.110  1.00  0.00     0.173 A 
ATOM     75  F   UNL A   1      45.633  32.785  31.196  1.00  0.00    -0.203 F 
ATOM     76  C   UNL A   1      45.676  35.032  30.502  1.00  0.00     0.198 A 
ATOM     77  C   UNL A   1      44.804  35.644  28.352  1.00  0.00     0.198 A 
ATOM     78  F   UNL A   1      43.853  34.010  26.956  1.00  0.00    -0.203 F 
ATOM     79  F   UNL A   1      46.208  35.383  31.681  1.00  0.00    -0.200 F 
ATOM     80  C   UNL A   1      45.395  36.004  29.553  1.00  0.00     0.200 A 
ATOM     81  F   UNL A   1      44.540  36.580  27.431  1.00  0.00    -0.200 F 
ATOM     82  F   UNL A   1      45.679  37.289  29.804  1.00  0.00    -0.200 F 
ENDBRANCH  58  72
BRANCH  59  83
ATOM     83  C   UNL A   1      41.191  24.036  27.407  1.00  0.00     0.064 A 
ATOM     84  C   UNL A   1      40.110  23.804  26.547  1.00  0.00     0.173 A 
ATOM     85  C   UNL A   1      41.784  22.923  28.022  1.00  0.00     0.173 A 
ATOM     86  F   UNL A   1      39.496  24.836  25.949  1.00  0.00    -0.203 F 
ATOM     87  C   UNL A   1      39.637  22.513  26.316  1.00  0.00     0.198 A 
ATOM     88  C   UNL A   1      41.329  21.631  27.771  1.00  0.00     0.198 A 
ATOM     89  F   UNL A   1      42.822  23.090  28.855  1.00  0.00    -0.203 F 
ATOM     90  F   UNL A   1      38.581  22.322  25.513  1.00  0.00    -0.200 F 
ATOM     91  C   UNL A   1      40.252  21.427  26.920  1.00  0.00     0.200 A 
ATOM     92  F   UNL A   1      41.936  20.583  28.345  1.00  0.00    -0.200 F 
ATOM     93  F   UNL A   1      39.806  20.185  26.688  1.00  0.00    -0.200 F 
ENDBRANCH  59  83
BRANCH  71  94
ATOM     94  C   UNL A   1      47.174  27.297  25.874  1.00  0.00     0.064 A 
ATOM     95  C   UNL A   1      47.372  27.497  24.501  1.00  0.00     0.173 A 
ATOM     96  C   UNL A   1      48.207  26.689  26.607  1.00  0.00     0.173 A 
ATOM     97  F   UNL A   1      46.411  28.062  23.755  1.00  0.00    -0.203 F 
ATOM     98  C   UNL A   1      48.546  27.078  23.880  1.00  0.00     0.198 A 
ATOM     99  C   UNL A   1      49.393  26.307  25.990  1.00  0.00     0.198 A 
ATOM    100  F   UNL A   1      48.071  26.484  27.926  1.00  0.00    -0.203 F 
ATOM    101  F   UNL A   1      48.691  27.228  22.556  1.00  0.00    -0.200 F 
ATOM    102  C   UNL A   1      49.558  26.492  24.627  1.00  0.00     0.200 A 
ATOM    103  F   UNL A   1      50.377  25.760  26.717  1.00  0.00    -0.200 F 
ATOM    104  F   UNL A   1      50.691  26.099  24.029  1.00  0.00    -0.200 F 
ENDBRANCH  71  94
ENDBRANCH  45  46
ENDBRANCH  38  40
ENDBRANCH  37  38
ENDBRANCH  36  37
ENDBRANCH  35  36
ENDBRANCH  34  35
ENDBRANCH  33  34
ENDBRANCH  32  33
ENDBRANCH  31  32
ENDBRANCH   1  31
TORSDOF 24
ENDMDL
MODEL 2
REMARK VINA RESULT:     -10.6      1.603      7.112
REMARK SMILES CCc1ccc2[nH]c(C(=O)c3cc(C)ccn3)c(CC(=O)OCCOCCOCCOCCOC(=O)c3ccc(-c4c5nc(c(-c6c(F)c(F)c(F)c(F)c6F)c6ccc([nH]6)c(-c6c(F)c(F)c(F)c(F)c6F)c6nc(c(-c7c(F)c(F)c(F)c(F)c7F)c7ccc4[nH]7)C=C6)C=C5)cc3)c2c1
REMARK SMILES IDX 27 1 26 2 25 3 24 4 23 5 22 6 20 7 21 8 19 9 18 10 3 11 4 12
REMARK SMILES IDX 101 13 5 14 100 15 6 16 7 17 8 18 2 20 1 21 9 22 10 23 11 24
REMARK SMILES IDX 12 25 17 26 13 27 16 28 14 29 15 30 28 31 29 32 30 33 31 34
REMARK SMILES IDX 32 35 33 36 34 37 35 38 36 39 37 40 38 41 99 42 39 43 98 44
REMARK SMILES IDX 40 45 41 46 42 47 92 48 43 49 97 50 91 51 93 52 44 53 96 54
REMARK SMILES IDX 90 55 89 56 45 58 77 59 57 60 76 61 58 62 61 63 75 64 94 65
REMARK SMILES IDX 59 66 60 67 74 69 95 70 62 71 46 72 47 73 55 74 48 75 49 76
REMARK SMILES IDX 53 77 56 78 50 79 51 80 54 81 52 82 78 83 79 84 87 85 80 86
REMARK SMILES IDX 81 87 85 88 88 89 82 90 83 91 86 92 84 93 63 94 64 95 72 96
REMARK SMILES IDX 65 97 66 98 70 99 73 100 67 101 68 102 71 103 69 104
REMARK H PARENT 7 19 93 57 61 68
REMARK Flexibility Score: inf
ROOT
ATOM      1  C   UNL A   1      34.776  32.556  29.328  1.00  0.00     0.188 C 
ENDROOT
BRANCH   1   2
ATOM      2  C   UNL A   1      34.153  31.821  28.123  1.00  0.00     0.188 C 
BRANCH   2   3
ATOM      3  O   UNL A   1      34.315  30.413  28.190  1.00  0.00    -0.376 OA
BRANCH   3   4
ATOM      4  C   UNL A   1      34.867  29.759  27.061  1.00  0.00     0.202 C 
BRANCH   4   5
ATOM      5  C   UNL A   1      33.998  28.723  26.321  1.00  0.00     0.261 C 
BRANCH   5   6
ATOM      6  O   UNL A   1      33.012  28.029  27.123  1.00  0.00    -0.463 OA
BRANCH   6   7
ATOM      7  C   UNL A   1      31.781  27.805  26.613  1.00  0.00     0.310 C 
ATOM      8  O   UNL A   1      30.959  27.094  27.187  1.00  0.00    -0.252 OA
BRANCH   7   9
ATOM      9  C   UNL A   1      31.449  28.523  25.298  1.00  0.00     0.161 C 
BRANCH   9  10
ATOM     10  C   UNL A   1      31.363  27.785  23.961  1.00  0.00     0.000 A 
ATOM     11  C   UNL A   1      34.027  25.050  23.525  1.00  0.00    -0.048 A 
ATOM     12  C   UNL A   1      33.589  24.628  22.264  1.00  0.00     0.006 A 
ATOM     13  C   UNL A   1      33.434  26.182  24.117  1.00  0.00     0.014 A 
ATOM     14  C   UNL A   1      32.522  25.256  21.616  1.00  0.00     0.027 A 
ATOM     15  C   UNL A   1      32.298  26.776  23.529  1.00  0.00     0.004 A 
ATOM     16  C   UNL A   1      31.874  26.291  22.298  1.00  0.00     0.046 A 
ATOM     17  N   UNL A   1      30.759  27.010  21.955  1.00  0.00    -0.352 N 
ATOM     18  C   UNL A   1      30.303  27.757  23.024  1.00  0.00     0.093 A 
ATOM     19  H   UNL A   1      30.338  26.995  21.065  1.00  0.00     0.167 HD
BRANCH  11  20
ATOM     20  C   UNL A   1      35.112  24.275  24.237  1.00  0.00     0.032 C 
ATOM     21  C   UNL A   1      34.889  24.153  25.741  1.00  0.00     0.009 C 
ENDBRANCH  11  20
BRANCH  18  22
ATOM     22  C   UNL A   1      28.995  28.431  23.077  1.00  0.00     0.227 C 
ATOM     23  O   UNL A   1      28.024  27.906  23.620  1.00  0.00    -0.285 OA
BRANCH  22  24
ATOM     24  C   UNL A   1      28.809  29.843  22.563  1.00  0.00     0.113 A 
ATOM     25  C   UNL A   1      29.118  30.988  23.296  1.00  0.00     0.036 A 
ATOM     26  N   UNL A   1      28.328  29.906  21.290  1.00  0.00    -0.253 NA
ATOM     27  C   UNL A   1      28.896  32.247  22.707  1.00  0.00    -0.047 A 
ATOM     28  C   UNL A   1      28.144  31.126  20.743  1.00  0.00     0.112 A 
ATOM     29  C   UNL A   1      29.205  33.536  23.415  1.00  0.00     0.044 C 
ATOM     30  C   UNL A   1      28.378  32.309  21.413  1.00  0.00     0.023 A 
ENDBRANCH  22  24
ENDBRANCH  18  22
ENDBRANCH   9  10
ENDBRANCH   7   9
ENDBRANCH   6   7
ENDBRANCH   5   6
ENDBRANCH   4   5
ENDBRANCH   3   4
ENDBRANCH   2   3
ENDBRANCH   1   2
BRANCH   1  31
ATOM     31  O   UNL A   1      34.037  33.233  30.330  1.00  0.00    -0.377 OA
BRANCH  31  32
ATOM     32  C   UNL A   1      34.290  34.608  30.492  1.00  0.00     0.188 C 
BRANCH  32  33
ATOM     33  C   UNL A   1      33.737  35.119  31.825  1.00  0.00     0.188 C 
BRANCH  33  34
ATOM     34  O   UNL A   1      34.713  35.641  32.704  1.00  0.00    -0.376 OA
BRANCH  34  35
ATOM     35  C   UNL A   1      35.550  34.790  33.477  1.00  0.00     0.202 C 
BRANCH  35  36
ATOM     36  C   UNL A   1      35.543  33.243  33.463  1.00  0.00     0.261 C 
BRANCH  36  37
ATOM     37  O   UNL A   1      36.728  32.573  33.046  1.00  0.00    -0.460 OA
BRANCH  37  38
ATOM     38  C   UNL A   1      36.596  31.404  32.405  1.00  0.00     0.338 C 
ATOM     39  O   UNL A   1      35.580  30.759  32.215  1.00  0.00    -0.246 OA
BRANCH  38  40
ATOM     40  C   UNL A   1      37.904  31.177  31.771  1.00  0.00     0.060 A 
ATOM     41  C   UNL A   1      38.090  31.656  30.469  1.00  0.00     0.016 A 
ATOM     42  C   UNL A   1      38.959  30.602  32.489  1.00  0.00     0.016 A 
ATOM     43  C   UNL A   1      39.339  31.569  29.878  1.00  0.00     0.010 A 
ATOM     44  C   UNL A   1      40.200  30.464  31.877  1.00  0.00     0.010 A 
ATOM     45  C   UNL A   1      40.376  30.923  30.561  1.00  0.00    -0.014 A 
BRANCH  45  46
ATOM     46  C   UNL A   1      41.538  30.485  29.773  1.00  0.00     0.031 A 
ATOM     47  C   UNL A   1      41.475  29.108  29.182  1.00  0.00     0.074 A 
ATOM     48  C   UNL A   1      42.558  31.318  29.530  1.00  0.00     0.049 A 
ATOM     49  N   UNL A   1      42.332  28.489  28.418  1.00  0.00    -0.248 NA
ATOM     50  C   UNL A   1      40.268  28.324  29.496  1.00  0.00     0.031 C 
ATOM     51  C   UNL A   1      42.658  32.694  30.013  1.00  0.00     0.029 A 
ATOM     52  N   UNL A   1      43.701  31.127  28.804  1.00  0.00    -0.354 N 
ATOM     53  C   UNL A   1      41.770  27.245  28.163  1.00  0.00     0.074 A 
ATOM     54  C   UNL A   1      40.518  27.181  28.880  1.00  0.00     0.031 C 
ATOM     55  C   UNL A   1      43.806  33.228  29.564  1.00  0.00     0.029 A 
ATOM     56  C   UNL A   1      44.530  32.218  28.793  1.00  0.00     0.049 A 
ATOM     57  H   UNL A   1      43.908  30.286  28.334  1.00  0.00     0.167 HD
ATOM     58  C   UNL A   1      42.260  26.249  27.391  1.00  0.00     0.037 A 
ATOM     59  C   UNL A   1      45.742  32.362  28.229  1.00  0.00     0.037 A 
ATOM     60  C   UNL A   1      43.522  26.336  26.709  1.00  0.00     0.049 A 
ATOM     61  C   UNL A   1      46.315  31.204  27.456  1.00  0.00     0.074 A 
ATOM     62  C   UNL A   1      44.135  25.399  25.900  1.00  0.00     0.029 A 
ATOM     63  N   UNL A   1      44.375  27.431  26.777  1.00  0.00    -0.354 N 
ATOM     64  N   UNL A   1      45.780  30.032  27.200  1.00  0.00    -0.248 NA
ATOM     65  C   UNL A   1      47.657  31.386  26.892  1.00  0.00     0.031 C 
ATOM     66  C   UNL A   1      45.390  25.898  25.538  1.00  0.00     0.029 A 
ATOM     67  C   UNL A   1      45.529  27.179  26.056  1.00  0.00     0.049 A 
ATOM     68  H   UNL A   1      44.186  28.264  27.267  1.00  0.00     0.167 HD
ATOM     69  C   UNL A   1      46.704  29.348  26.423  1.00  0.00     0.074 A 
ATOM     70  C   UNL A   1      47.830  30.244  26.241  1.00  0.00     0.031 C 
ATOM     71  C   UNL A   1      46.633  28.096  25.901  1.00  0.00     0.037 A 
BRANCH  58  72
ATOM     72  C   UNL A   1      41.457  24.982  27.319  1.00  0.00     0.064 A 
ATOM     73  C   UNL A   1      41.861  23.802  27.966  1.00  0.00     0.173 A 
ATOM     74  C   UNL A   1      40.285  24.934  26.550  1.00  0.00     0.173 A 
ATOM     75  F   UNL A   1      42.988  23.783  28.695  1.00  0.00    -0.203 F 
ATOM     76  C   UNL A   1      41.150  22.615  27.806  1.00  0.00     0.198 A 
ATOM     77  C   UNL A   1      39.555  23.756  26.422  1.00  0.00     0.198 A 
ATOM     78  F   UNL A   1      39.855  26.029  25.905  1.00  0.00    -0.203 F 
ATOM     79  F   UNL A   1      41.601  21.485  28.366  1.00  0.00    -0.200 F 
ATOM     80  C   UNL A   1      39.996  22.595  27.038  1.00  0.00     0.200 A 
ATOM     81  F   UNL A   1      38.436  23.740  25.687  1.00  0.00    -0.200 F 
ATOM     82  F   UNL A   1      39.317  21.450  26.876  1.00  0.00    -0.200 F 
ENDBRANCH  58  72
BRANCH  59  83
ATOM     83  C   UNL A   1      46.475  33.648  28.369  1.00  0.00     0.064 A 
ATOM     84  C   UNL A   1      46.308  34.680  27.438  1.00  0.00     0.173 A 
ATOM     85  C   UNL A   1      47.335  33.881  29.453  1.00  0.00     0.173 A 
ATOM     86  F   UNL A   1      45.511  34.500  26.374  1.00  0.00    -0.203 F 
ATOM     87  C   UNL A   1      46.978  35.894  27.579  1.00  0.00     0.198 A 
ATOM     88  C   UNL A   1      47.984  35.103  29.609  1.00  0.00     0.198 A 
ATOM     89  F   UNL A   1      47.531  32.925  30.374  1.00  0.00    -0.203 F 
ATOM     90  F   UNL A   1      46.825  36.853  26.656  1.00  0.00    -0.200 F 
ATOM     91  C   UNL A   1      47.809  36.108  28.669  1.00  0.00     0.200 A 
ATOM     92  F   UNL A   1      48.774  35.311  30.672  1.00  0.00    -0.200 F 
ATOM     93  F   UNL A   1      48.443  37.280  28.812  1.00  0.00    -0.200 F 
ENDBRANCH  59  83
BRANCH  71  94
ATOM     94  C   UNL A   1      47.789  27.640  25.058  1.00  0.00     0.064 A 
ATOM     95  C   UNL A   1      47.809  27.821  23.669  1.00  0.00     0.173 A 
ATOM     96  C   UNL A   1      48.914  27.054  25.662  1.00  0.00     0.173 A 
ATOM     97  F   UNL A   1      46.754  28.365  23.043  1.00  0.00    -0.203 F 
ATOM     98  C   UNL A   1      48.899  27.404  22.909  1.00  0.00     0.198 A 
ATOM     99  C   UNL A   1      50.016  26.675  24.905  1.00  0.00     0.198 A 
ATOM    100  F   UNL A   1      48.949  26.868  26.990  1.00  0.00    -0.203 F 
ATOM    101  F   UNL A   1      48.873  27.535  21.575  1.00  0.00    -0.200 F 
ATOM    102  C   UNL A   1      50.004  26.840  23.529  1.00  0.00     0.200 A 
ATOM    103  F   UNL A   1      51.091  26.148  25.507  1.00  0.00    -0.200 F 
ATOM    104  F   UNL A   1      51.057  26.449  22.797  1.00  0.00    -0.200 F 
ENDBRANCH  71  94
ENDBRANCH  45  46
ENDBRANCH  38  40
ENDBRANCH  37  38
ENDBRANCH  36  37
ENDBRANCH  35  36
ENDBRANCH  34  35
ENDBRANCH  33  34
ENDBRANCH  32  33
ENDBRANCH  31  32
ENDBRANCH   1  31
TORSDOF 24
ENDMDL
MODEL 3
REMARK VINA RESULT:     -10.5      5.235     10.755
REMARK SMILES CCc1ccc2[nH]c(C(=O)c3cc(C)ccn3)c(CC(=O)OCCOCCOCCOCCOC(=O)c3ccc(-c4c5nc(c(-c6c(F)c(F)c(F)c(F)c6F)c6ccc([nH]6)c(-c6c(F)c(F)c(F)c(F)c6F)c6nc(c(-c7c(F)c(F)c(F)c(F)c7F)c7ccc4[nH]7)C=C6)C=C5)cc3)c2c1
REMARK SMILES IDX 27 1 26 2 25 3 24 4 23 5 22 6 20 7 21 8 19 9 18 10 3 11 4 12
REMARK SMILES IDX 101 13 5 14 100 15 6 16 7 17 8 18 2 20 1 21 9 22 10 23 11 24
REMARK SMILES IDX 12 25 17 26 13 27 16 28 14 29 15 30 28 31 29 32 30 33 31 34
REMARK SMILES IDX 32 35 33 36 34 37 35 38 36 39 37 40 38 41 99 42 39 43 98 44
REMARK SMILES IDX 40 45 41 46 42 47 92 48 43 49 97 50 91 51 93 52 44 53 96 54
REMARK SMILES IDX 90 55 89 56 45 58 77 59 57 60 76 61 58 62 61 63 75 64 94 65
REMARK SMILES IDX 59 66 60 67 74 69 95 70 62 71 46 72 47 73 55 74 48 75 49 76
REMARK SMILES IDX 53 77 56 78 50 79 51 80 54 81 52 82 78 83 79 84 87 85 80 86
REMARK SMILES IDX 81 87 85 88 88 89 82 90 83 91 86 92 84 93 63 94 64 95 72 96
REMARK SMILES IDX 65 97 66 98 70 99 73 100 67 101 68 102 71 103 69 104
REMARK H PARENT 7 19 93 57 61 68
REMARK Flexibility Score: inf
ROOT
ATOM      1  C   UNL A   1      41.774  20.600  26.365  1.00  0.00     0.188 C 
ENDROOT
BRANCH   1   2
ATOM      2  C   UNL A   1      40.233  20.540  26.443  1.00  0.00     0.188 C 
BRANCH   2   3
ATOM      3  O   UNL A   1      39.617  21.782  26.142  1.00  0.00    -0.376 OA
BRANCH   3   4
ATOM      4  C   UNL A   1      38.270  21.759  25.704  1.00  0.00     0.202 C 
BRANCH   4   5
ATOM      5  C   UNL A   1      37.512  23.098  25.606  1.00  0.00     0.261 C 
BRANCH   5   6
ATOM      6  O   UNL A   1      36.952  23.420  24.310  1.00  0.00    -0.463 OA
BRANCH   6   7
ATOM      7  C   UNL A   1      35.645  23.745  24.214  1.00  0.00     0.310 C 
ATOM      8  O   UNL A   1      34.979  23.479  23.215  1.00  0.00    -0.252 OA
BRANCH   7   9
ATOM      9  C   UNL A   1      35.022  24.428  25.439  1.00  0.00     0.161 C 
BRANCH   9  10
ATOM     10  C   UNL A   1      33.584  24.160  25.884  1.00  0.00     0.000 A 
ATOM     11  C   UNL A   1      31.120  26.951  24.935  1.00  0.00    -0.048 A 
ATOM     12  C   UNL A   1      29.986  26.321  25.461  1.00  0.00     0.006 A 
ATOM     13  C   UNL A   1      32.387  26.372  25.141  1.00  0.00     0.014 A 
ATOM     14  C   UNL A   1      30.074  25.091  26.118  1.00  0.00     0.027 A 
ATOM     15  C   UNL A   1      32.495  25.090  25.717  1.00  0.00     0.004 A 
ATOM     16  C   UNL A   1      31.334  24.486  26.184  1.00  0.00     0.046 A 
ATOM     17  N   UNL A   1      31.698  23.259  26.673  1.00  0.00    -0.352 N 
ATOM     18  C   UNL A   1      32.994  22.946  26.311  1.00  0.00     0.093 A 
ATOM     19  H   UNL A   1      31.112  22.678  27.210  1.00  0.00     0.167 HD
BRANCH  11  20
ATOM     20  C   UNL A   1      30.964  28.227  24.138  1.00  0.00     0.032 C 
ATOM     21  C   UNL A   1      31.787  29.390  24.683  1.00  0.00     0.009 C 
ENDBRANCH  11  20
BRANCH  18  22
ATOM     22  C   UNL A   1      33.601  21.612  26.446  1.00  0.00     0.227 C 
ATOM     23  O   UNL A   1      34.387  21.354  27.356  1.00  0.00    -0.285 OA
BRANCH  22  24
ATOM     24  C   UNL A   1      33.205  20.465  25.539  1.00  0.00     0.113 A 
ATOM     25  C   UNL A   1      33.083  19.141  25.962  1.00  0.00     0.036 A 
ATOM     26  N   UNL A   1      32.948  20.841  24.256  1.00  0.00    -0.253 NA
ATOM     27  C   UNL A   1      32.711  18.163  25.021  1.00  0.00    -0.047 A 
ATOM     28  C   UNL A   1      32.574  19.887  23.379  1.00  0.00     0.112 A 
ATOM     29  C   UNL A   1      32.547  16.715  25.382  1.00  0.00     0.044 C 
ATOM     30  C   UNL A   1      32.474  18.549  23.700  1.00  0.00     0.023 A 
ENDBRANCH  22  24
ENDBRANCH  18  22
ENDBRANCH   9  10
ENDBRANCH   7   9
ENDBRANCH   6   7
ENDBRANCH   5   6
ENDBRANCH   4   5
ENDBRANCH   3   4
ENDBRANCH   2   3
ENDBRANCH   1   2
BRANCH   1  31
ATOM     31  O   UNL A   1      42.522  21.774  26.096  1.00  0.00    -0.377 OA
BRANCH  31  32
ATOM     32  C   UNL A   1      43.755  21.609  25.438  1.00  0.00     0.188 C 
BRANCH  32  33
ATOM     33  C   UNL A   1      43.883  22.575  24.257  1.00  0.00     0.188 C 
BRANCH  33  34
ATOM     34  O   UNL A   1      45.128  22.522  23.589  1.00  0.00    -0.376 OA
BRANCH  34  35
ATOM     35  C   UNL A   1      46.341  22.863  24.249  1.00  0.00     0.202 C 
BRANCH  35  36
ATOM     36  C   UNL A   1      46.805  24.289  24.631  1.00  0.00     0.261 C 
BRANCH  36  37
ATOM     37  O   UNL A   1      45.819  25.314  24.705  1.00  0.00    -0.460 OA
BRANCH  37  38
ATOM     38  C   UNL A   1      46.232  26.565  24.948  1.00  0.00     0.338 C 
ATOM     39  O   UNL A   1      47.076  27.209  24.350  1.00  0.00    -0.246 OA
BRANCH  38  40
ATOM     40  C   UNL A   1      45.281  27.086  25.941  1.00  0.00     0.060 A 
ATOM     41  C   UNL A   1      45.159  28.475  26.064  1.00  0.00     0.016 A 
ATOM     42  C   UNL A   1      44.446  26.219  26.656  1.00  0.00     0.016 A 
ATOM     43  C   UNL A   1      44.194  29.007  26.901  1.00  0.00     0.010 A 
ATOM     44  C   UNL A   1      43.512  26.752  27.539  1.00  0.00     0.010 A 
ATOM     45  C   UNL A   1      43.411  28.146  27.679  1.00  0.00    -0.014 A 
BRANCH  45  46
ATOM     46  C   UNL A   1      42.706  28.725  28.832  1.00  0.00     0.031 A 
ATOM     47  C   UNL A   1      43.487  28.863  30.104  1.00  0.00     0.074 A 
ATOM     48  C   UNL A   1      41.452  29.183  28.713  1.00  0.00     0.049 A 
ATOM     49  N   UNL A   1      43.130  29.372  31.251  1.00  0.00    -0.248 NA
ATOM     50  C   UNL A   1      44.871  28.358  30.072  1.00  0.00     0.031 C 
ATOM     51  C   UNL A   1      40.653  29.147  27.490  1.00  0.00     0.029 A 
ATOM     52  N   UNL A   1      40.639  29.780  29.636  1.00  0.00    -0.354 N 
ATOM     53  C   UNL A   1      44.241  29.246  32.074  1.00  0.00     0.074 A 
ATOM     54  C   UNL A   1      45.272  28.582  31.311  1.00  0.00     0.031 C 
ATOM     55  C   UNL A   1      39.456  29.705  27.739  1.00  0.00     0.029 A 
ATOM     56  C   UNL A   1      39.401  30.104  29.144  1.00  0.00     0.049 A 
ATOM     57  H   UNL A   1      40.916  29.961  30.564  1.00  0.00     0.167 HD
ATOM     58  C   UNL A   1      44.383  29.657  33.355  1.00  0.00     0.037 A 
ATOM     59  C   UNL A   1      38.348  30.649  29.778  1.00  0.00     0.037 A 
ATOM     60  C   UNL A   1      43.328  30.295  34.094  1.00  0.00     0.049 A 
ATOM     61  C   UNL A   1      38.495  31.008  31.233  1.00  0.00     0.074 A 
ATOM     62  C   UNL A   1      43.341  30.755  35.396  1.00  0.00     0.029 A 
ATOM     63  N   UNL A   1      42.058  30.543  33.589  1.00  0.00    -0.354 N 
ATOM     64  N   UNL A   1      39.548  30.905  32.010  1.00  0.00    -0.248 NA
ATOM     65  C   UNL A   1      37.310  31.561  31.899  1.00  0.00     0.031 C 
ATOM     66  C   UNL A   1      42.056  31.217  35.701  1.00  0.00     0.029 A 
ATOM     67  C   UNL A   1      41.263  31.117  34.566  1.00  0.00     0.049 A 
ATOM     68  H   UNL A   1      41.766  30.341  32.670  1.00  0.00     0.167 HD
ATOM     69  C   UNL A   1      39.165  31.404  33.248  1.00  0.00     0.074 A 
ATOM     70  C   UNL A   1      37.783  31.822  33.110  1.00  0.00     0.031 C 
ATOM     71  C   UNL A   1      39.886  31.515  34.393  1.00  0.00     0.037 A 
BRANCH  58  72
ATOM     72  C   UNL A   1      45.692  29.357  34.027  1.00  0.00     0.064 A 
ATOM     73  C   UNL A   1      45.867  28.238  34.858  1.00  0.00     0.173 A 
ATOM     74  C   UNL A   1      46.778  30.232  33.875  1.00  0.00     0.173 A 
ATOM     75  F   UNL A   1      44.854  27.381  35.060  1.00  0.00    -0.203 F 
ATOM     76  C   UNL A   1      47.061  28.034  35.546  1.00  0.00     0.198 A 
ATOM     77  C   UNL A   1      47.983  30.005  34.534  1.00  0.00     0.198 A 
ATOM     78  F   UNL A   1      46.666  31.320  33.099  1.00  0.00    -0.203 F 
ATOM     79  F   UNL A   1      47.176  27.005  36.396  1.00  0.00    -0.200 F 
ATOM     80  C   UNL A   1      48.119  28.916  35.380  1.00  0.00     0.200 A 
ATOM     81  F   UNL A   1      49.006  30.853  34.366  1.00  0.00    -0.200 F 
ATOM     82  F   UNL A   1      49.264  28.724  36.050  1.00  0.00    -0.200 F 
ENDBRANCH  58  72
BRANCH  59  83
ATOM     83  C   UNL A   1      37.083  30.891  29.037  1.00  0.00     0.064 A 
ATOM     84  C   UNL A   1      36.218  29.836  28.719  1.00  0.00     0.173 A 
ATOM     85  C   UNL A   1      36.699  32.185  28.654  1.00  0.00     0.173 A 
ATOM     86  F   UNL A   1      36.548  28.577  29.047  1.00  0.00    -0.203 F 
ATOM     87  C   UNL A   1      35.021  30.064  28.042  1.00  0.00     0.198 A 
ATOM     88  C   UNL A   1      35.491  32.416  28.000  1.00  0.00     0.198 A 
ATOM     89  F   UNL A   1      37.491  33.231  28.932  1.00  0.00    -0.203 F 
ATOM     90  F   UNL A   1      34.228  29.032  27.723  1.00  0.00    -0.200 F 
ATOM     91  C   UNL A   1      34.654  31.353  27.691  1.00  0.00     0.200 A 
ATOM     92  F   UNL A   1      35.133  33.666  27.676  1.00  0.00    -0.200 F 
ATOM     93  F   UNL A   1      33.498  31.574  27.052  1.00  0.00    -0.200 F 
ENDBRANCH  59  83
BRANCH  71  94
ATOM     94  C   UNL A   1      39.201  32.141  35.573  1.00  0.00     0.064 A 
ATOM     95  C   UNL A   1      38.423  31.387  36.463  1.00  0.00     0.173 A 
ATOM     96  C   UNL A   1      39.366  33.510  35.841  1.00  0.00     0.173 A 
ATOM     97  F   UNL A   1      38.225  30.078  36.244  1.00  0.00    -0.203 F 
ATOM     98  C   UNL A   1      37.809  31.986  37.560  1.00  0.00     0.198 A 
ATOM     99  C   UNL A   1      38.784  34.096  36.959  1.00  0.00     0.198 A 
ATOM    100  F   UNL A   1      40.110  34.274  35.027  1.00  0.00    -0.203 F 
ATOM    101  F   UNL A   1      37.023  31.257  38.365  1.00  0.00    -0.200 F 
ATOM    102  C   UNL A   1      37.998  33.337  37.812  1.00  0.00     0.200 A 
ATOM    103  F   UNL A   1      38.983  35.397  37.212  1.00  0.00    -0.200 F 
ATOM    104  F   UNL A   1      37.415  33.909  38.874  1.00  0.00    -0.200 F 
ENDBRANCH  71  94
ENDBRANCH  45  46
ENDBRANCH  38  40
ENDBRANCH  37  38
ENDBRANCH  36  37
ENDBRANCH  35  36
ENDBRANCH  34  35
ENDBRANCH  33  34
ENDBRANCH  32  33
ENDBRANCH  31  32
ENDBRANCH   1  31
TORSDOF 24
ENDMDL
