MODEL 1
REMARK VINA RESULT:     -11.0      0.000      0.000
REMARK SMILES Cc1c(N[C@@H]2CC[C@@H]([NH3+])C2)cccc1C(=O)OCCOCCOCCOCCOC(=O)c1ccc(-c2c3nc(c(-c4c(F)c(F)c(F)c(F)c4F)c4ccc([nH]4)c(-c4c(F)c(F)c(F)c(F)c4F)c4nc(c(-c5c(F)c(F)c(F)c(F)c5F)c5ccc2[nH]5)C=C4)C=C3)cc1
REMARK SMILES IDX 22 1 21 2 20 3 19 4 18 5 17 6 15 7 16 8 14 9 1 10 2 11 3 12
REMARK SMILES IDX 11 13 13 14 12 15 4 16 5 18 6 19 10 20 7 21 8 22 9 23 23 27
REMARK SMILES IDX 24 28 25 29 26 30 27 31 28 32 29 33 30 34 31 35 32 36 33 37
REMARK SMILES IDX 94 38 34 39 93 40 35 41 36 42 37 43 87 44 38 45 92 46 86 47
REMARK SMILES IDX 88 48 39 49 91 50 85 51 84 52 40 54 72 55 52 56 71 57 53 58
REMARK SMILES IDX 56 59 70 60 89 61 54 62 55 63 69 65 90 66 57 67 41 68 42 69
REMARK SMILES IDX 50 70 43 71 44 72 48 73 51 74 45 75 46 76 49 77 47 78 73 79
REMARK SMILES IDX 74 80 82 81 75 82 76 83 80 84 83 85 77 86 78 87 81 88 79 89
REMARK SMILES IDX 58 90 59 91 67 92 60 93 61 94 65 95 68 96 62 97 63 98 66 99
REMARK SMILES IDX 64 100
REMARK H PARENT 4 17 9 24 9 25 9 26 88 53 56 64
REMARK Flexibility Score: inf
ROOT
ATOM      1  C   UNL A   1      39.543  23.441  26.664  1.00  0.00     0.188 C 
ENDROOT
BRANCH   1   2
ATOM      2  C   UNL A   1      38.020  23.595  26.524  1.00  0.00     0.188 C 
BRANCH   2   3
ATOM      3  O   UNL A   1      37.426  23.704  25.240  1.00  0.00    -0.376 OA
BRANCH   3   4
ATOM      4  C   UNL A   1      36.946  22.491  24.672  1.00  0.00     0.202 C 
BRANCH   4   5
ATOM      5  C   UNL A   1      36.059  21.601  25.523  1.00  0.00     0.261 C 
BRANCH   5   6
ATOM      6  O   UNL A   1      34.820  22.266  25.724  1.00  0.00    -0.460 OA
BRANCH   6   7
ATOM      7  C   UNL A   1      33.807  21.788  24.990  1.00  0.00     0.338 C 
ATOM      8  O   UNL A   1      33.534  20.619  24.808  1.00  0.00    -0.246 OA
BRANCH   7   9
ATOM      9  C   UNL A   1      32.857  22.902  24.764  1.00  0.00     0.065 A 
ATOM     10  C   UNL A   1      33.666  23.654  22.427  1.00  0.00     0.047 C 
ATOM     11  C   UNL A   1      32.726  23.707  23.604  1.00  0.00    -0.013 A 
ATOM     12  C   UNL A   1      31.675  24.642  23.558  1.00  0.00     0.038 A 
ATOM     13  C   UNL A   1      31.018  24.938  24.760  1.00  0.00     0.026 A 
ATOM     14  C   UNL A   1      32.154  23.218  25.936  1.00  0.00     0.016 A 
ATOM     15  C   UNL A   1      31.273  24.271  25.950  1.00  0.00     0.003 A 
BRANCH  12  16
ATOM     16  N   UNL A   1      31.349  25.250  22.356  1.00  0.00    -0.382 N 
ATOM     17  H   UNL A   1      30.974  24.662  21.661  1.00  0.00     0.160 HD
BRANCH  16  18
ATOM     18  C   UNL A   1      31.495  26.647  21.994  1.00  0.00     0.085 C 
ATOM     19  C   UNL A   1      32.863  27.230  22.345  1.00  0.00     0.031 C 
ATOM     20  C   UNL A   1      30.425  27.541  22.620  1.00  0.00     0.089 C 
ATOM     21  C   UNL A   1      32.578  28.479  23.178  1.00  0.00     0.067 C 
ATOM     22  C   UNL A   1      31.132  28.869  22.869  1.00  0.00     0.182 C 
BRANCH  22  23
ATOM     23  N   UNL A   1      31.074  29.728  21.690  1.00  0.00    -0.355 N 
ATOM     24  H   UNL A   1      30.242  29.503  21.146  1.00  0.00     0.344 HD
ATOM     25  H   UNL A   1      31.906  29.578  21.118  1.00  0.00     0.344 HD
ATOM     26  H   UNL A   1      31.035  30.705  21.983  1.00  0.00     0.344 HD
ENDBRANCH  22  23
ENDBRANCH  16  18
ENDBRANCH  12  16
ENDBRANCH   7   9
ENDBRANCH   6   7
ENDBRANCH   5   6
ENDBRANCH   4   5
ENDBRANCH   3   4
ENDBRANCH   2   3
ENDBRANCH   1   2
BRANCH   1  27
ATOM     27  O   UNL A   1      40.075  22.232  27.187  1.00  0.00    -0.377 OA
BRANCH  27  28
ATOM     28  C   UNL A   1      40.795  21.373  26.312  1.00  0.00     0.188 C 
BRANCH  28  29
ATOM     29  C   UNL A   1      41.288  20.038  26.850  1.00  0.00     0.188 C 
BRANCH  29  30
ATOM     30  O   UNL A   1      41.652  19.228  25.736  1.00  0.00    -0.376 OA
BRANCH  30  31
ATOM     31  C   UNL A   1      42.823  18.436  25.902  1.00  0.00     0.202 C 
BRANCH  31  32
ATOM     32  C   UNL A   1      43.969  18.834  24.966  1.00  0.00     0.261 C 
BRANCH  32  33
ATOM     33  O   UNL A   1      44.991  19.513  25.724  1.00  0.00    -0.460 OA
BRANCH  33  34
ATOM     34  C   UNL A   1      45.607  20.540  25.079  1.00  0.00     0.338 C 
ATOM     35  O   UNL A   1      46.746  20.516  24.645  1.00  0.00    -0.246 OA
BRANCH  34  36
ATOM     36  C   UNL A   1      44.797  21.786  25.223  1.00  0.00     0.060 A 
ATOM     37  C   UNL A   1      44.769  22.741  24.193  1.00  0.00     0.016 A 
ATOM     38  C   UNL A   1      44.339  22.136  26.484  1.00  0.00     0.016 A 
ATOM     39  C   UNL A   1      44.461  24.083  24.480  1.00  0.00     0.010 A 
ATOM     40  C   UNL A   1      44.137  23.469  26.771  1.00  0.00     0.010 A 
ATOM     41  C   UNL A   1      44.247  24.475  25.799  1.00  0.00    -0.014 A 
BRANCH  41  42
ATOM     42  C   UNL A   1      44.286  25.866  26.308  1.00  0.00     0.031 A 
ATOM     43  C   UNL A   1      43.001  26.640  26.429  1.00  0.00     0.074 A 
ATOM     44  C   UNL A   1      45.386  26.274  26.996  1.00  0.00     0.049 A 
ATOM     45  N   UNL A   1      42.876  27.777  27.025  1.00  0.00    -0.248 NA
ATOM     46  C   UNL A   1      41.712  26.171  25.923  1.00  0.00     0.031 C 
ATOM     47  C   UNL A   1      45.435  27.274  28.064  1.00  0.00     0.029 A 
ATOM     48  N   UNL A   1      46.705  25.826  26.953  1.00  0.00    -0.354 N 
ATOM     49  C   UNL A   1      41.541  28.000  27.303  1.00  0.00     0.074 A 
ATOM     50  C   UNL A   1      40.853  27.018  26.505  1.00  0.00     0.031 C 
ATOM     51  C   UNL A   1      46.681  27.436  28.523  1.00  0.00     0.029 A 
ATOM     52  C   UNL A   1      47.540  26.756  27.598  1.00  0.00     0.049 A 
ATOM     53  H   UNL A   1      47.007  24.987  26.534  1.00  0.00     0.167 HD
ATOM     54  C   UNL A   1      41.213  28.908  28.278  1.00  0.00     0.037 A 
ATOM     55  C   UNL A   1      48.478  27.446  26.883  1.00  0.00     0.037 A 
ATOM     56  C   UNL A   1      42.405  29.668  28.718  1.00  0.00     0.049 A 
ATOM     57  C   UNL A   1      48.027  28.900  26.750  1.00  0.00     0.074 A 
ATOM     58  C   UNL A   1      42.997  29.945  29.938  1.00  0.00     0.029 A 
ATOM     59  N   UNL A   1      43.306  30.141  27.756  1.00  0.00    -0.354 N 
ATOM     60  N   UNL A   1      46.761  29.261  26.670  1.00  0.00    -0.248 NA
ATOM     61  C   UNL A   1      48.906  30.031  27.049  1.00  0.00     0.031 C 
ATOM     62  C   UNL A   1      44.326  30.410  29.691  1.00  0.00     0.029 A 
ATOM     63  C   UNL A   1      44.507  30.526  28.317  1.00  0.00     0.049 A 
ATOM     64  H   UNL A   1      43.106  30.194  26.794  1.00  0.00     0.167 HD
ATOM     65  C   UNL A   1      46.642  30.565  27.084  1.00  0.00     0.074 A 
ATOM     66  C   UNL A   1      48.017  31.021  27.249  1.00  0.00     0.031 C 
ATOM     67  C   UNL A   1      45.508  31.207  27.509  1.00  0.00     0.037 A 
BRANCH  54  68
ATOM     68  C   UNL A   1      39.856  29.026  28.992  1.00  0.00     0.064 A 
ATOM     69  C   UNL A   1      39.669  28.467  30.281  1.00  0.00     0.173 A 
ATOM     70  C   UNL A   1      38.680  29.583  28.439  1.00  0.00     0.173 A 
ATOM     71  F   UNL A   1      40.689  27.918  30.953  1.00  0.00    -0.203 F 
ATOM     72  C   UNL A   1      38.427  28.453  30.940  1.00  0.00     0.198 A 
ATOM     73  C   UNL A   1      37.454  29.624  29.126  1.00  0.00     0.198 A 
ATOM     74  F   UNL A   1      38.644  30.072  27.196  1.00  0.00    -0.203 F 
ATOM     75  F   UNL A   1      38.314  27.861  32.138  1.00  0.00    -0.200 F 
ATOM     76  C   UNL A   1      37.323  29.047  30.370  1.00  0.00     0.200 A 
ATOM     77  F   UNL A   1      36.394  30.220  28.558  1.00  0.00    -0.200 F 
ATOM     78  F   UNL A   1      36.144  29.059  31.007  1.00  0.00    -0.200 F 
ENDBRANCH  54  68
BRANCH  55  79
ATOM     79  C   UNL A   1      49.248  26.494  26.018  1.00  0.00     0.064 A 
ATOM     80  C   UNL A   1      49.362  26.945  24.677  1.00  0.00     0.173 A 
ATOM     81  C   UNL A   1      50.345  25.786  26.538  1.00  0.00     0.173 A 
ATOM     82  F   UNL A   1      48.332  27.595  24.108  1.00  0.00    -0.203 F 
ATOM     83  C   UNL A   1      50.595  26.971  24.023  1.00  0.00     0.198 A 
ATOM     84  C   UNL A   1      51.568  25.769  25.849  1.00  0.00     0.198 A 
ATOM     85  F   UNL A   1      50.311  25.314  27.792  1.00  0.00    -0.203 F 
ATOM     86  F   UNL A   1      50.728  27.646  22.871  1.00  0.00    -0.200 F 
ATOM     87  C   UNL A   1      51.709  26.431  24.635  1.00  0.00     0.200 A 
ATOM     88  F   UNL A   1      52.656  25.240  26.429  1.00  0.00    -0.200 F 
ATOM     89  F   UNL A   1      52.926  26.621  24.104  1.00  0.00    -0.200 F 
ENDBRANCH  55  79
BRANCH  67  90
ATOM     90  C   UNL A   1      45.221  32.639  27.112  1.00  0.00     0.064 A 
ATOM     91  C   UNL A   1      44.309  32.970  26.097  1.00  0.00     0.173 A 
ATOM     92  C   UNL A   1      45.675  33.727  27.903  1.00  0.00     0.173 A 
ATOM     93  F   UNL A   1      43.734  32.030  25.335  1.00  0.00    -0.203 F 
ATOM     94  C   UNL A   1      43.911  34.285  25.867  1.00  0.00     0.198 A 
ATOM     95  C   UNL A   1      45.228  35.029  27.707  1.00  0.00     0.198 A 
ATOM     96  F   UNL A   1      46.528  33.564  28.925  1.00  0.00    -0.203 F 
ATOM     97  F   UNL A   1      43.060  34.547  24.866  1.00  0.00    -0.200 F 
ATOM     98  C   UNL A   1      44.357  35.310  26.679  1.00  0.00     0.200 A 
ATOM     99  F   UNL A   1      45.624  36.000  28.542  1.00  0.00    -0.200 F 
ATOM    100  F   UNL A   1      43.931  36.563  26.482  1.00  0.00    -0.200 F 
ENDBRANCH  67  90
ENDBRANCH  41  42
ENDBRANCH  34  36
ENDBRANCH  33  34
ENDBRANCH  32  33
ENDBRANCH  31  32
ENDBRANCH  30  31
ENDBRANCH  29  30
ENDBRANCH  28  29
ENDBRANCH  27  28
ENDBRANCH   1  27
TORSDOF 23
ENDMDL
MODEL 2
REMARK VINA RESULT:     -10.6      1.166      2.114
REMARK SMILES Cc1c(N[C@@H]2CC[C@@H]([NH3+])C2)cccc1C(=O)OCCOCCOCCOCCOC(=O)c1ccc(-c2c3nc(c(-c4c(F)c(F)c(F)c(F)c4F)c4ccc([nH]4)c(-c4c(F)c(F)c(F)c(F)c4F)c4nc(c(-c5c(F)c(F)c(F)c(F)c5F)c5ccc2[nH]5)C=C4)C=C3)cc1
REMARK SMILES IDX 22 1 21 2 20 3 19 4 18 5 17 6 15 7 16 8 14 9 1 10 2 11 3 12
REMARK SMILES IDX 11 13 13 14 12 15 4 16 5 18 6 19 10 20 7 21 8 22 9 23 23 27
REMARK SMILES IDX 24 28 25 29 26 30 27 31 28 32 29 33 30 34 31 35 32 36 33 37
REMARK SMILES IDX 94 38 34 39 93 40 35 41 36 42 37 43 87 44 38 45 92 46 86 47
REMARK SMILES IDX 88 48 39 49 91 50 85 51 84 52 40 54 72 55 52 56 71 57 53 58
REMARK SMILES IDX 56 59 70 60 89 61 54 62 55 63 69 65 90 66 57 67 41 68 42 69
REMARK SMILES IDX 50 70 43 71 44 72 48 73 51 74 45 75 46 76 49 77 47 78 73 79
REMARK SMILES IDX 74 80 82 81 75 82 76 83 80 84 83 85 77 86 78 87 81 88 79 89
REMARK SMILES IDX 58 90 59 91 67 92 60 93 61 94 65 95 68 96 62 97 63 98 66 99
REMARK SMILES IDX 64 100
REMARK H PARENT 4 17 9 24 9 25 9 26 88 53 56 64
REMARK Flexibility Score: inf
ROOT
ATOM      1  C   UNL A   1      39.682  22.862  26.613  1.00  0.00     0.188 C 
ENDROOT
BRANCH   1   2
ATOM      2  C   UNL A   1      38.207  23.115  26.262  1.00  0.00     0.188 C 
BRANCH   2   3
ATOM      3  O   UNL A   1      37.700  22.749  24.988  1.00  0.00    -0.376 OA
BRANCH   3   4
ATOM      4  C   UNL A   1      37.252  21.405  24.860  1.00  0.00     0.202 C 
BRANCH   4   5
ATOM      5  C   UNL A   1      35.849  21.068  25.328  1.00  0.00     0.261 C 
BRANCH   5   6
ATOM      6  O   UNL A   1      35.011  22.185  25.066  1.00  0.00    -0.460 OA
BRANCH   6   7
ATOM      7  C   UNL A   1      33.844  21.879  24.483  1.00  0.00     0.338 C 
ATOM      8  O   UNL A   1      33.308  20.790  24.466  1.00  0.00    -0.246 OA
BRANCH   7   9
ATOM      9  C   UNL A   1      33.138  23.152  24.209  1.00  0.00     0.065 A 
ATOM     10  C   UNL A   1      32.201  23.608  26.576  1.00  0.00     0.047 C 
ATOM     11  C   UNL A   1      32.455  23.980  25.136  1.00  0.00    -0.013 A 
ATOM     12  C   UNL A   1      31.947  25.211  24.682  1.00  0.00     0.038 A 
ATOM     13  C   UNL A   1      31.874  25.409  23.297  1.00  0.00     0.026 A 
ATOM     14  C   UNL A   1      33.062  23.408  22.833  1.00  0.00     0.016 A 
ATOM     15  C   UNL A   1      32.384  24.509  22.372  1.00  0.00     0.003 A 
BRANCH  12  16
ATOM     16  N   UNL A   1      31.517  26.158  25.599  1.00  0.00    -0.382 N 
ATOM     17  H   UNL A   1      30.816  25.866  26.225  1.00  0.00     0.160 HD
BRANCH  16  18
ATOM     18  C   UNL A   1      31.973  27.527  25.747  1.00  0.00     0.085 C 
ATOM     19  C   UNL A   1      33.453  27.718  25.416  1.00  0.00     0.031 C 
ATOM     20  C   UNL A   1      31.723  28.091  27.145  1.00  0.00     0.089 C 
ATOM     21  C   UNL A   1      34.063  28.407  26.636  1.00  0.00     0.067 C 
ATOM     22  C   UNL A   1      32.892  29.041  27.389  1.00  0.00     0.182 C 
BRANCH  22  23
ATOM     23  N   UNL A   1      32.608  30.375  26.865  1.00  0.00    -0.355 N 
ATOM     24  H   UNL A   1      33.217  31.055  27.319  1.00  0.00     0.344 HD
ATOM     25  H   UNL A   1      31.634  30.613  27.052  1.00  0.00     0.344 HD
ATOM     26  H   UNL A   1      32.775  30.387  25.859  1.00  0.00     0.344 HD
ENDBRANCH  22  23
ENDBRANCH  16  18
ENDBRANCH  12  16
ENDBRANCH   7   9
ENDBRANCH   6   7
ENDBRANCH   5   6
ENDBRANCH   4   5
ENDBRANCH   3   4
ENDBRANCH   2   3
ENDBRANCH   1   2
BRANCH   1  27
ATOM     27  O   UNL A   1      40.055  21.620  27.193  1.00  0.00    -0.377 OA
BRANCH  27  28
ATOM     28  C   UNL A   1      40.633  20.627  26.356  1.00  0.00     0.188 C 
BRANCH  28  29
ATOM     29  C   UNL A   1      41.572  19.607  26.985  1.00  0.00     0.188 C 
BRANCH  29  30
ATOM     30  O   UNL A   1      41.855  18.614  26.003  1.00  0.00    -0.376 OA
BRANCH  30  31
ATOM     31  C   UNL A   1      43.169  18.068  26.034  1.00  0.00     0.202 C 
BRANCH  31  32
ATOM     32  C   UNL A   1      44.141  18.759  25.072  1.00  0.00     0.261 C 
BRANCH  32  33
ATOM     33  O   UNL A   1      44.974  19.674  25.812  1.00  0.00    -0.460 OA
BRANCH  33  34
ATOM     34  C   UNL A   1      45.590  20.632  25.066  1.00  0.00     0.338 C 
ATOM     35  O   UNL A   1      46.714  20.547  24.602  1.00  0.00    -0.246 OA
BRANCH  34  36
ATOM     36  C   UNL A   1      44.810  21.903  25.131  1.00  0.00     0.060 A 
ATOM     37  C   UNL A   1      45.004  22.908  24.169  1.00  0.00     0.016 A 
ATOM     38  C   UNL A   1      44.140  22.210  26.306  1.00  0.00     0.016 A 
ATOM     39  C   UNL A   1      44.694  24.247  24.471  1.00  0.00     0.010 A 
ATOM     40  C   UNL A   1      43.934  23.535  26.626  1.00  0.00     0.010 A 
ATOM     41  C   UNL A   1      44.255  24.581  25.749  1.00  0.00    -0.014 A 
BRANCH  41  42
ATOM     42  C   UNL A   1      44.246  25.943  26.334  1.00  0.00     0.031 A 
ATOM     43  C   UNL A   1      42.938  26.673  26.477  1.00  0.00     0.074 A 
ATOM     44  C   UNL A   1      45.324  26.342  27.061  1.00  0.00     0.049 A 
ATOM     45  N   UNL A   1      42.772  27.771  27.132  1.00  0.00    -0.248 NA
ATOM     46  C   UNL A   1      41.671  26.197  25.925  1.00  0.00     0.031 C 
ATOM     47  C   UNL A   1      45.329  27.283  28.183  1.00  0.00     0.029 A 
ATOM     48  N   UNL A   1      46.656  25.934  27.015  1.00  0.00    -0.354 N 
ATOM     49  C   UNL A   1      41.427  27.941  27.400  1.00  0.00     0.074 A 
ATOM     50  C   UNL A   1      40.779  26.986  26.539  1.00  0.00     0.031 C 
ATOM     51  C   UNL A   1      46.562  27.453  28.671  1.00  0.00     0.029 A 
ATOM     52  C   UNL A   1      47.454  26.849  27.724  1.00  0.00     0.049 A 
ATOM     53  H   UNL A   1      46.987  25.128  26.556  1.00  0.00     0.167 HD
ATOM     54  C   UNL A   1      41.059  28.784  28.418  1.00  0.00     0.037 A 
ATOM     55  C   UNL A   1      48.382  27.604  27.064  1.00  0.00     0.037 A 
ATOM     56  C   UNL A   1      42.223  29.552  28.918  1.00  0.00     0.049 A 
ATOM     57  C   UNL A   1      47.892  29.050  27.004  1.00  0.00     0.074 A 
ATOM     58  C   UNL A   1      42.788  29.777  30.162  1.00  0.00     0.029 A 
ATOM     59  N   UNL A   1      43.123  30.102  27.999  1.00  0.00    -0.354 N 
ATOM     60  N   UNL A   1      46.618  29.380  26.923  1.00  0.00    -0.248 NA
ATOM     61  C   UNL A   1      48.734  30.187  27.378  1.00  0.00     0.031 C 
ATOM     62  C   UNL A   1      44.107  30.291  29.962  1.00  0.00     0.029 A 
ATOM     63  C   UNL A   1      44.304  30.489  28.600  1.00  0.00     0.049 A 
ATOM     64  H   UNL A   1      42.937  30.203  27.038  1.00  0.00     0.167 HD
ATOM     65  C   UNL A   1      46.455  30.655  27.406  1.00  0.00     0.074 A 
ATOM     66  C   UNL A   1      47.814  31.139  27.618  1.00  0.00     0.031 C 
ATOM     67  C   UNL A   1      45.297  31.240  27.847  1.00  0.00     0.037 A 
BRANCH  54  68
ATOM     68  C   UNL A   1      39.689  28.825  29.115  1.00  0.00     0.064 A 
ATOM     69  C   UNL A   1      38.569  29.409  28.471  1.00  0.00     0.173 A 
ATOM     70  C   UNL A   1      39.425  28.402  30.438  1.00  0.00     0.173 A 
ATOM     71  F   UNL A   1      38.646  29.842  27.207  1.00  0.00    -0.203 F 
ATOM     72  C   UNL A   1      37.320  29.568  29.095  1.00  0.00     0.198 A 
ATOM     73  C   UNL A   1      38.158  28.504  31.038  1.00  0.00     0.198 A 
ATOM     74  F   UNL A   1      40.383  27.914  31.231  1.00  0.00    -0.203 F 
ATOM     75  F   UNL A   1      36.319  30.176  28.441  1.00  0.00    -0.200 F 
ATOM     76  C   UNL A   1      37.108  29.100  30.374  1.00  0.00     0.200 A 
ATOM     77  F   UNL A   1      37.971  28.030  32.280  1.00  0.00    -0.200 F 
ATOM     78  F   UNL A   1      35.910  29.226  30.961  1.00  0.00    -0.200 F 
ENDBRANCH  54  68
BRANCH  55  79
ATOM     79  C   UNL A   1      49.192  26.723  26.161  1.00  0.00     0.064 A 
ATOM     80  C   UNL A   1      48.987  27.015  24.787  1.00  0.00     0.173 A 
ATOM     81  C   UNL A   1      50.485  26.319  26.530  1.00  0.00     0.173 A 
ATOM     82  F   UNL A   1      47.764  27.370  24.361  1.00  0.00    -0.203 F 
ATOM     83  C   UNL A   1      50.064  27.204  23.917  1.00  0.00     0.198 A 
ATOM     84  C   UNL A   1      51.556  26.459  25.633  1.00  0.00     0.198 A 
ATOM     85  F   UNL A   1      50.757  26.011  27.807  1.00  0.00    -0.203 F 
ATOM     86  F   UNL A   1      49.859  27.741  22.705  1.00  0.00    -0.200 F 
ATOM     87  C   UNL A   1      51.353  26.978  24.360  1.00  0.00     0.200 A 
ATOM     88  F   UNL A   1      52.812  26.234  26.048  1.00  0.00    -0.200 F 
ATOM     89  F   UNL A   1      52.398  27.338  23.600  1.00  0.00    -0.200 F 
ENDBRANCH  55  79
BRANCH  67  90
ATOM     90  C   UNL A   1      44.976  32.684  27.524  1.00  0.00     0.064 A 
ATOM     91  C   UNL A   1      45.494  33.755  28.269  1.00  0.00     0.173 A 
ATOM     92  C   UNL A   1      44.330  33.040  26.311  1.00  0.00     0.173 A 
ATOM     93  F   UNL A   1      46.204  33.554  29.388  1.00  0.00    -0.203 F 
ATOM     94  C   UNL A   1      45.349  35.077  27.855  1.00  0.00     0.198 A 
ATOM     95  C   UNL A   1      44.241  34.357  25.873  1.00  0.00     0.198 A 
ATOM     96  F   UNL A   1      43.806  32.126  25.481  1.00  0.00    -0.203 F 
ATOM     97  F   UNL A   1      45.839  36.062  28.619  1.00  0.00    -0.200 F 
ATOM     98  C   UNL A   1      44.737  35.376  26.653  1.00  0.00     0.200 A 
ATOM     99  F   UNL A   1      43.698  34.624  24.677  1.00  0.00    -0.200 F 
ATOM    100  F   UNL A   1      44.645  36.646  26.239  1.00  0.00    -0.200 F 
ENDBRANCH  67  90
ENDBRANCH  41  42
ENDBRANCH  34  36
ENDBRANCH  33  34
ENDBRANCH  32  33
ENDBRANCH  31  32
ENDBRANCH  30  31
ENDBRANCH  29  30
ENDBRANCH  28  29
ENDBRANCH  27  28
ENDBRANCH   1  27
TORSDOF 23
ENDMDL
MODEL 3
REMARK VINA RESULT:     -10.5      3.005      5.347
REMARK SMILES Cc1c(N[C@@H]2CC[C@@H]([NH3+])C2)cccc1C(=O)OCCOCCOCCOCCOC(=O)c1ccc(-c2c3nc(c(-c4c(F)c(F)c(F)c(F)c4F)c4ccc([nH]4)c(-c4c(F)c(F)c(F)c(F)c4F)c4nc(c(-c5c(F)c(F)c(F)c(F)c5F)c5ccc2[nH]5)C=C4)C=C3)cc1
REMARK SMILES IDX 22 1 21 2 20 3 19 4 18 5 17 6 15 7 16 8 14 9 1 10 2 11 3 12
REMARK SMILES IDX 11 13 13 14 12 15 4 16 5 18 6 19 10 20 7 21 8 22 9 23 23 27
REMARK SMILES IDX 24 28 25 29 26 30 27 31 28 32 29 33 30 34 31 35 32 36 33 37
REMARK SMILES IDX 94 38 34 39 93 40 35 41 36 42 37 43 87 44 38 45 92 46 86 47
REMARK SMILES IDX 88 48 39 49 91 50 85 51 84 52 40 54 72 55 52 56 71 57 53 58
REMARK SMILES IDX 56 59 70 60 89 61 54 62 55 63 69 65 90 66 57 67 41 68 42 69
REMARK SMILES IDX 50 70 43 71 44 72 48 73 51 74 45 75 46 76 49 77 47 78 73 79
REMARK SMILES IDX 74 80 82 81 75 82 76 83 80 84 83 85 77 86 78 87 81 88 79 89
REMARK SMILES IDX 58 90 59 91 67 92 60 93 61 94 65 95 68 96 62 97 63 98 66 99
REMARK SMILES IDX 64 100
REMARK H PARENT 4 17 9 24 9 25 9 26 88 53 56 64
REMARK Flexibility Score: inf
ROOT
ATOM      1  C   UNL A   1      33.212  23.192  22.226  1.00  0.00     0.188 C 
ENDROOT
BRANCH   1   2
ATOM      2  C   UNL A   1      32.213  23.830  23.205  1.00  0.00     0.188 C 
BRANCH   2   3
ATOM      3  O   UNL A   1      31.494  23.022  24.123  1.00  0.00    -0.376 OA
BRANCH   3   4
ATOM      4  C   UNL A   1      31.904  23.110  25.483  1.00  0.00     0.202 C 
BRANCH   4   5
ATOM      5  C   UNL A   1      30.936  23.707  26.488  1.00  0.00     0.261 C 
BRANCH   5   6
ATOM      6  O   UNL A   1      31.380  25.017  26.811  1.00  0.00    -0.460 OA
BRANCH   6   7
ATOM      7  C   UNL A   1      30.988  25.964  25.950  1.00  0.00     0.338 C 
ATOM      8  O   UNL A   1      29.861  26.146  25.537  1.00  0.00    -0.246 OA
BRANCH   7   9
ATOM      9  C   UNL A   1      32.062  26.983  25.892  1.00  0.00     0.065 A 
ATOM     10  C   UNL A   1      31.402  28.381  27.964  1.00  0.00     0.047 C 
ATOM     11  C   UNL A   1      32.312  28.031  26.814  1.00  0.00    -0.013 A 
ATOM     12  C   UNL A   1      33.461  28.822  26.628  1.00  0.00     0.038 A 
ATOM     13  C   UNL A   1      34.116  28.732  25.393  1.00  0.00     0.026 A 
ATOM     14  C   UNL A   1      32.766  26.915  24.681  1.00  0.00     0.016 A 
ATOM     15  C   UNL A   1      33.758  27.823  24.407  1.00  0.00     0.003 A 
BRANCH  12  16
ATOM     16  N   UNL A   1      33.883  29.669  27.641  1.00  0.00    -0.382 N 
ATOM     17  H   UNL A   1      33.600  29.428  28.553  1.00  0.00     0.160 HD
BRANCH  16  18
ATOM     18  C   UNL A   1      34.690  30.868  27.523  1.00  0.00     0.085 C 
ATOM     19  C   UNL A   1      36.180  30.630  27.766  1.00  0.00     0.031 C 
ATOM     20  C   UNL A   1      34.232  31.991  28.453  1.00  0.00     0.089 C 
ATOM     21  C   UNL A   1      36.587  31.632  28.846  1.00  0.00     0.067 C 
ATOM     22  C   UNL A   1      35.515  32.723  28.832  1.00  0.00     0.182 C 
BRANCH  22  23
ATOM     23  N   UNL A   1      35.846  33.753  27.851  1.00  0.00    -0.355 N 
ATOM     24  H   UNL A   1      36.771  33.568  27.463  1.00  0.00     0.344 HD
ATOM     25  H   UNL A   1      35.843  34.667  28.303  1.00  0.00     0.344 HD
ATOM     26  H   UNL A   1      35.154  33.742  27.101  1.00  0.00     0.344 HD
ENDBRANCH  22  23
ENDBRANCH  16  18
ENDBRANCH  12  16
ENDBRANCH   7   9
ENDBRANCH   6   7
ENDBRANCH   5   6
ENDBRANCH   4   5
ENDBRANCH   3   4
ENDBRANCH   2   3
ENDBRANCH   1   2
BRANCH   1  27
ATOM     27  O   UNL A   1      34.605  23.337  22.461  1.00  0.00    -0.377 OA
BRANCH  27  28
ATOM     28  C   UNL A   1      35.029  23.909  23.692  1.00  0.00     0.188 C 
BRANCH  28  29
ATOM     29  C   UNL A   1      35.198  22.993  24.896  1.00  0.00     0.188 C 
BRANCH  29  30
ATOM     30  O   UNL A   1      35.400  21.669  24.409  1.00  0.00    -0.376 OA
BRANCH  30  31
ATOM     31  C   UNL A   1      36.067  20.777  25.296  1.00  0.00     0.202 C 
BRANCH  31  32
ATOM     32  C   UNL A   1      37.535  20.537  24.932  1.00  0.00     0.261 C 
BRANCH  32  33
ATOM     33  O   UNL A   1      38.287  21.746  25.157  1.00  0.00    -0.460 OA
BRANCH  33  34
ATOM     34  C   UNL A   1      39.367  21.615  25.976  1.00  0.00     0.338 C 
ATOM     35  O   UNL A   1      40.006  20.590  26.138  1.00  0.00    -0.246 OA
BRANCH  34  36
ATOM     36  C   UNL A   1      39.486  22.818  26.851  1.00  0.00     0.060 A 
ATOM     37  C   UNL A   1      38.794  24.000  26.537  1.00  0.00     0.016 A 
ATOM     38  C   UNL A   1      40.515  22.863  27.780  1.00  0.00     0.016 A 
ATOM     39  C   UNL A   1      39.259  25.240  27.010  1.00  0.00     0.010 A 
ATOM     40  C   UNL A   1      41.018  24.090  28.155  1.00  0.00     0.010 A 
ATOM     41  C   UNL A   1      40.444  25.300  27.739  1.00  0.00    -0.014 A 
BRANCH  41  42
ATOM     42  C   UNL A   1      41.251  26.518  27.982  1.00  0.00     0.031 A 
ATOM     43  C   UNL A   1      40.584  27.743  28.547  1.00  0.00     0.074 A 
ATOM     44  C   UNL A   1      42.604  26.395  28.054  1.00  0.00     0.049 A 
ATOM     45  N   UNL A   1      41.201  28.791  28.975  1.00  0.00    -0.248 NA
ATOM     46  C   UNL A   1      39.139  27.877  28.728  1.00  0.00     0.031 C 
ATOM     47  C   UNL A   1      43.522  27.218  28.843  1.00  0.00     0.029 A 
ATOM     48  N   UNL A   1      43.463  25.448  27.499  1.00  0.00    -0.354 N 
ATOM     49  C   UNL A   1      40.348  29.525  29.777  1.00  0.00     0.074 A 
ATOM     50  C   UNL A   1      39.050  28.964  29.506  1.00  0.00     0.031 C 
ATOM     51  C   UNL A   1      44.791  26.825  28.682  1.00  0.00     0.029 A 
ATOM     52  C   UNL A   1      44.789  25.911  27.577  1.00  0.00     0.049 A 
ATOM     53  H   UNL A   1      43.185  24.587  27.110  1.00  0.00     0.167 HD
ATOM     54  C   UNL A   1      40.886  30.425  30.662  1.00  0.00     0.037 A 
ATOM     55  C   UNL A   1      45.483  26.197  26.436  1.00  0.00     0.037 A 
ATOM     56  C   UNL A   1      42.338  30.599  30.424  1.00  0.00     0.049 A 
ATOM     57  C   UNL A   1      45.633  27.714  26.316  1.00  0.00     0.074 A 
ATOM     58  C   UNL A   1      43.475  30.532  31.210  1.00  0.00     0.029 A 
ATOM     59  N   UNL A   1      42.805  30.720  29.110  1.00  0.00    -0.354 N 
ATOM     60  N   UNL A   1      44.726  28.567  26.751  1.00  0.00    -0.248 NA
ATOM     61  C   UNL A   1      46.915  28.363  26.039  1.00  0.00     0.031 C 
ATOM     62  C   UNL A   1      44.607  30.425  30.344  1.00  0.00     0.029 A 
ATOM     63  C   UNL A   1      44.171  30.541  29.029  1.00  0.00     0.049 A 
ATOM     64  H   UNL A   1      42.228  30.909  28.336  1.00  0.00     0.167 HD
ATOM     65  C   UNL A   1      45.330  29.776  26.992  1.00  0.00     0.074 A 
ATOM     66  C   UNL A   1      46.683  29.616  26.471  1.00  0.00     0.031 C 
ATOM     67  C   UNL A   1      44.869  30.800  27.778  1.00  0.00     0.037 A 
BRANCH  54  68
ATOM     68  C   UNL A   1      40.174  31.045  31.875  1.00  0.00     0.064 A 
ATOM     69  C   UNL A   1      39.593  30.220  32.870  1.00  0.00     0.173 A 
ATOM     70  C   UNL A   1      39.941  32.425  32.077  1.00  0.00     0.173 A 
ATOM     71  F   UNL A   1      39.739  28.889  32.837  1.00  0.00    -0.203 F 
ATOM     72  C   UNL A   1      38.842  30.724  33.945  1.00  0.00     0.198 A 
ATOM     73  C   UNL A   1      39.244  32.932  33.187  1.00  0.00     0.198 A 
ATOM     74  F   UNL A   1      40.333  33.347  31.193  1.00  0.00    -0.203 F 
ATOM     75  F   UNL A   1      38.279  29.879  34.822  1.00  0.00    -0.200 F 
ATOM     76  C   UNL A   1      38.681  32.082  34.114  1.00  0.00     0.200 A 
ATOM     77  F   UNL A   1      39.110  34.259  33.339  1.00  0.00    -0.200 F 
ATOM     78  F   UNL A   1      37.988  32.567  35.154  1.00  0.00    -0.200 F 
ENDBRANCH  54  68
BRANCH  55  79
ATOM     79  C   UNL A   1      45.331  25.070  25.461  1.00  0.00     0.064 A 
ATOM     80  C   UNL A   1      46.181  23.972  25.759  1.00  0.00     0.173 A 
ATOM     81  C   UNL A   1      44.072  24.759  24.920  1.00  0.00     0.173 A 
ATOM     82  F   UNL A   1      47.414  24.202  26.242  1.00  0.00    -0.203 F 
ATOM     83  C   UNL A   1      45.688  22.667  25.817  1.00  0.00     0.198 A 
ATOM     84  C   UNL A   1      43.602  23.436  24.931  1.00  0.00     0.198 A 
ATOM     85  F   UNL A   1      43.216  25.739  24.599  1.00  0.00    -0.203 F 
ATOM     86  F   UNL A   1      46.434  21.693  26.361  1.00  0.00    -0.200 F 
ATOM     87  C   UNL A   1      44.380  22.410  25.455  1.00  0.00     0.200 A 
ATOM     88  F   UNL A   1      42.336  23.172  24.572  1.00  0.00    -0.200 F 
ATOM     89  F   UNL A   1      43.842  21.204  25.688  1.00  0.00    -0.200 F 
ENDBRANCH  55  79
BRANCH  67  90
ATOM     90  C   UNL A   1      45.021  32.245  27.354  1.00  0.00     0.064 A 
ATOM     91  C   UNL A   1      45.987  33.096  27.913  1.00  0.00     0.173 A 
ATOM     92  C   UNL A   1      44.357  32.747  26.203  1.00  0.00     0.173 A 
ATOM     93  F   UNL A   1      46.749  32.711  28.946  1.00  0.00    -0.203 F 
ATOM     94  C   UNL A   1      46.245  34.360  27.389  1.00  0.00     0.198 A 
ATOM     95  C   UNL A   1      44.661  33.985  25.649  1.00  0.00     0.198 A 
ATOM     96  F   UNL A   1      43.427  32.040  25.545  1.00  0.00    -0.203 F 
ATOM     97  F   UNL A   1      47.159  35.142  27.979  1.00  0.00    -0.200 F 
ATOM     98  C   UNL A   1      45.595  34.798  26.251  1.00  0.00     0.200 A 
ATOM     99  F   UNL A   1      44.065  34.369  24.511  1.00  0.00    -0.200 F 
ATOM    100  F   UNL A   1      45.885  35.994  25.725  1.00  0.00    -0.200 F 
ENDBRANCH  67  90
ENDBRANCH  41  42
ENDBRANCH  34  36
ENDBRANCH  33  34
ENDBRANCH  32  33
ENDBRANCH  31  32
ENDBRANCH  30  31
ENDBRANCH  29  30
ENDBRANCH  28  29
ENDBRANCH  27  28
ENDBRANCH   1  27
TORSDOF 23
ENDMDL
