MODEL 1
REMARK VINA RESULT:     -10.6      0.000      0.000
REMARK SMILES O=C(CC1(NC(=O)c2ccc3cc[nH]c3c2)CCC1)OCCOCCOCCOCCOC(=O)c1ccc(-c2c3nc(c(-c4c(F)c(F)c(F)c(F)c4F)c4ccc([nH]4)c(-c4c(F)c(F)c(F)c(F)c4F)c4nc(c(-c5c(F)c(F)c(F)c(F)c5F)c5ccc2[nH]5)C=C4)C=C3)cc1
REMARK SMILES IDX 25 1 24 2 23 3 22 4 21 5 20 6 2 7 1 8 3 9 4 10 17 11 19 12
REMARK SMILES IDX 18 13 5 14 6 15 7 17 8 18 9 19 16 20 10 21 15 22 11 23 14 24
REMARK SMILES IDX 12 25 13 26 26 28 27 29 28 30 29 31 30 32 31 33 32 34 33 35
REMARK SMILES IDX 34 36 35 37 36 38 97 39 37 40 96 41 38 42 39 43 40 44 90 45
REMARK SMILES IDX 41 46 95 47 89 48 91 49 42 50 94 51 88 52 87 53 43 55 75 56
REMARK SMILES IDX 55 57 74 58 56 59 59 60 73 61 92 62 57 63 58 64 72 66 93 67
REMARK SMILES IDX 60 68 44 69 45 70 53 71 46 72 47 73 51 74 54 75 48 76 49 77
REMARK SMILES IDX 52 78 50 79 76 80 77 81 85 82 78 83 79 84 83 85 86 86 80 87
REMARK SMILES IDX 81 88 84 89 82 90 61 91 62 92 70 93 63 94 64 95 68 96 71 97
REMARK SMILES IDX 65 98 66 99 69 100 67 101
REMARK H PARENT 5 16 14 27 91 54 59 65
REMARK Flexibility Score: inf
ROOT
ATOM      1  C   UNL A   1      35.142  31.995  28.160  1.00  0.00     0.188 C 
ENDROOT
BRANCH   1   2
ATOM      2  C   UNL A   1      34.802  30.645  27.533  1.00  0.00     0.188 C 
BRANCH   2   3
ATOM      3  O   UNL A   1      33.591  30.672  26.778  1.00  0.00    -0.376 OA
BRANCH   3   4
ATOM      4  C   UNL A   1      32.681  29.641  27.086  1.00  0.00     0.202 C 
BRANCH   4   5
ATOM      5  C   UNL A   1      31.776  29.292  25.920  1.00  0.00     0.261 C 
BRANCH   5   6
ATOM      6  O   UNL A   1      32.344  29.396  24.597  1.00  0.00    -0.463 OA
BRANCH   6   7
ATOM      7  C   UNL A   1      33.317  28.728  23.954  1.00  0.00     0.308 C 
ATOM      8  O   UNL A   1      34.077  29.396  23.244  1.00  0.00    -0.252 OA
BRANCH   7   9
ATOM      9  C   UNL A   1      33.470  27.229  23.935  1.00  0.00     0.151 C 
BRANCH   9  10
ATOM     10  C   UNL A   1      32.362  26.265  23.515  1.00  0.00     0.051 C 
ATOM     11  C   UNL A   1      31.401  26.773  22.380  1.00  0.00     0.029 C 
ATOM     12  C   UNL A   1      32.785  25.125  22.537  1.00  0.00     0.029 C 
ATOM     13  C   UNL A   1      31.851  25.643  21.458  1.00  0.00     0.005 C 
BRANCH  10  14
ATOM     14  N   UNL A   1      31.511  25.758  24.637  1.00  0.00    -0.346 N 
ATOM     15  C   UNL A   1      31.770  24.964  25.740  1.00  0.00     0.251 C 
ATOM     16  H   UNL A   1      30.574  26.051  24.579  1.00  0.00     0.164 HD
ATOM     17  O   UNL A   1      30.927  24.933  26.640  1.00  0.00    -0.269 OA
BRANCH  15  18
ATOM     18  C   UNL A   1      32.900  24.013  25.800  1.00  0.00     0.041 A 
ATOM     19  C   UNL A   1      34.194  24.275  26.230  1.00  0.00     0.014 A 
ATOM     20  C   UNL A   1      32.573  22.732  25.374  1.00  0.00     0.040 A 
ATOM     21  C   UNL A   1      35.188  23.265  26.152  1.00  0.00     0.011 A 
ATOM     22  C   UNL A   1      33.564  21.760  25.241  1.00  0.00     0.046 A 
ATOM     23  C   UNL A   1      34.880  21.996  25.605  1.00  0.00    -0.001 A 
ATOM     24  N   UNL A   1      33.483  20.492  24.715  1.00  0.00    -0.361 N 
ATOM     25  C   UNL A   1      35.601  20.808  25.278  1.00  0.00     0.028 A 
ATOM     26  C   UNL A   1      34.722  19.914  24.699  1.00  0.00     0.083 A 
ATOM     27  H   UNL A   1      32.656  20.064  24.395  1.00  0.00     0.166 HD
ENDBRANCH  15  18
ENDBRANCH  10  14
ENDBRANCH   9  10
ENDBRANCH   7   9
ENDBRANCH   6   7
ENDBRANCH   5   6
ENDBRANCH   4   5
ENDBRANCH   3   4
ENDBRANCH   2   3
ENDBRANCH   1   2
BRANCH   1  28
ATOM     28  O   UNL A   1      34.089  32.533  28.953  1.00  0.00    -0.377 OA
BRANCH  28  29
ATOM     29  C   UNL A   1      33.671  33.859  28.593  1.00  0.00     0.188 C 
BRANCH  29  30
ATOM     30  C   UNL A   1      34.127  34.785  29.714  1.00  0.00     0.188 C 
BRANCH  30  31
ATOM     31  O   UNL A   1      33.444  34.560  30.937  1.00  0.00    -0.376 OA
BRANCH  31  32
ATOM     32  C   UNL A   1      34.246  34.474  32.115  1.00  0.00     0.202 C 
BRANCH  32  33
ATOM     33  C   UNL A   1      34.379  33.052  32.713  1.00  0.00     0.261 C 
BRANCH  33  34
ATOM     34  O   UNL A   1      35.358  32.197  32.081  1.00  0.00    -0.460 OA
BRANCH  34  35
ATOM     35  C   UNL A   1      36.444  31.888  32.830  1.00  0.00     0.338 C 
ATOM     36  O   UNL A   1      36.517  31.954  34.050  1.00  0.00    -0.246 OA
BRANCH  35  37
ATOM     37  C   UNL A   1      37.424  31.130  31.998  1.00  0.00     0.060 A 
ATOM     38  C   UNL A   1      38.458  30.468  32.686  1.00  0.00     0.016 A 
ATOM     39  C   UNL A   1      37.296  30.959  30.616  1.00  0.00     0.016 A 
ATOM     40  C   UNL A   1      39.414  29.732  31.996  1.00  0.00     0.010 A 
ATOM     41  C   UNL A   1      38.288  30.257  29.912  1.00  0.00     0.010 A 
ATOM     42  C   UNL A   1      39.385  29.703  30.597  1.00  0.00    -0.014 A 
BRANCH  42  43
ATOM     43  C   UNL A   1      40.668  29.407  29.908  1.00  0.00     0.031 A 
ATOM     44  C   UNL A   1      40.815  28.035  29.296  1.00  0.00     0.074 A 
ATOM     45  C   UNL A   1      41.602  30.349  29.690  1.00  0.00     0.049 A 
ATOM     46  N   UNL A   1      41.772  27.550  28.547  1.00  0.00    -0.248 NA
ATOM     47  C   UNL A   1      39.717  27.086  29.550  1.00  0.00     0.031 C 
ATOM     48  C   UNL A   1      41.546  31.725  30.175  1.00  0.00     0.029 A 
ATOM     49  N   UNL A   1      42.779  30.285  28.986  1.00  0.00    -0.354 N 
ATOM     50  C   UNL A   1      41.380  26.255  28.229  1.00  0.00     0.074 A 
ATOM     51  C   UNL A   1      40.125  26.009  28.901  1.00  0.00     0.031 C 
ATOM     52  C   UNL A   1      42.649  32.377  29.759  1.00  0.00     0.029 A 
ATOM     53  C   UNL A   1      43.493  31.458  28.996  1.00  0.00     0.049 A 
ATOM     54  H   UNL A   1      43.082  29.474  28.518  1.00  0.00     0.167 HD
ATOM     55  C   UNL A   1      41.998  25.354  27.432  1.00  0.00     0.037 A 
ATOM     56  C   UNL A   1      44.695  31.745  28.459  1.00  0.00     0.037 A 
ATOM     57  C   UNL A   1      43.256  25.589  26.777  1.00  0.00     0.049 A 
ATOM     58  C   UNL A   1      45.413  30.689  27.651  1.00  0.00     0.074 A 
ATOM     59  C   UNL A   1      43.983  24.733  25.970  1.00  0.00     0.029 A 
ATOM     60  N   UNL A   1      43.978  26.769  26.865  1.00  0.00    -0.354 N 
ATOM     61  N   UNL A   1      45.028  29.473  27.346  1.00  0.00    -0.248 NA
ATOM     62  C   UNL A   1      46.724  31.055  27.098  1.00  0.00     0.031 C 
ATOM     63  C   UNL A   1      45.171  25.377  25.612  1.00  0.00     0.029 A 
ATOM     64  C   UNL A   1      45.155  26.656  26.143  1.00  0.00     0.049 A 
ATOM     65  H   UNL A   1      43.697  27.568  27.365  1.00  0.00     0.167 HD
ATOM     66  C   UNL A   1      46.036  28.939  26.550  1.00  0.00     0.074 A 
ATOM     67  C   UNL A   1      47.032  29.978  26.392  1.00  0.00     0.031 C 
ATOM     68  C   UNL A   1      46.136  27.702  26.002  1.00  0.00     0.037 A 
BRANCH  55  69
ATOM     69  C   UNL A   1      41.332  24.022  27.245  1.00  0.00     0.064 A 
ATOM     70  C   UNL A   1      40.150  23.886  26.500  1.00  0.00     0.173 A 
ATOM     71  C   UNL A   1      41.899  22.860  27.790  1.00  0.00     0.173 A 
ATOM     72  F   UNL A   1      39.554  24.968  25.977  1.00  0.00    -0.203 F 
ATOM     73  C   UNL A   1      39.554  22.639  26.322  1.00  0.00     0.198 A 
ATOM     74  C   UNL A   1      41.317  21.612  27.584  1.00  0.00     0.198 A 
ATOM     75  F   UNL A   1      43.026  22.934  28.515  1.00  0.00    -0.203 F 
ATOM     76  F   UNL A   1      38.402  22.540  25.643  1.00  0.00    -0.200 F 
ATOM     77  C   UNL A   1      40.143  21.503  26.855  1.00  0.00     0.200 A 
ATOM     78  F   UNL A   1      41.895  20.515  28.091  1.00  0.00    -0.200 F 
ATOM     79  F   UNL A   1      39.575  20.303  26.671  1.00  0.00    -0.200 F 
ENDBRANCH  55  69
BRANCH  56  80
ATOM     80  C   UNL A   1      45.324  33.077  28.688  1.00  0.00     0.064 A 
ATOM     81  C   UNL A   1      45.103  34.156  27.819  1.00  0.00     0.173 A 
ATOM     82  C   UNL A   1      46.207  33.279  29.759  1.00  0.00     0.173 A 
ATOM     83  F   UNL A   1      44.288  34.010  26.764  1.00  0.00    -0.203 F 
ATOM     84  C   UNL A   1      45.764  35.371  27.994  1.00  0.00     0.198 A 
ATOM     85  C   UNL A   1      46.839  34.505  29.956  1.00  0.00     0.198 A 
ATOM     86  F   UNL A   1      46.457  32.283  30.621  1.00  0.00    -0.203 F 
ATOM     87  F   UNL A   1      45.582  36.363  27.112  1.00  0.00    -0.200 F 
ATOM     88  C   UNL A   1      46.626  35.546  29.066  1.00  0.00     0.200 A 
ATOM     89  F   UNL A   1      47.658  34.674  31.001  1.00  0.00    -0.200 F 
ATOM     90  F   UNL A   1      47.262  36.715  29.234  1.00  0.00    -0.200 F 
ENDBRANCH  56  80
BRANCH  68  91
ATOM     91  C   UNL A   1      47.352  27.418  25.163  1.00  0.00     0.064 A 
ATOM     92  C   UNL A   1      47.416  27.783  23.809  1.00  0.00     0.173 A 
ATOM     93  C   UNL A   1      48.469  26.778  25.721  1.00  0.00     0.173 A 
ATOM     94  F   UNL A   1      46.372  28.388  23.222  1.00  0.00    -0.203 F 
ATOM     95  C   UNL A   1      48.532  27.473  23.035  1.00  0.00     0.198 A 
ATOM     96  C   UNL A   1      49.599  26.506  24.955  1.00  0.00     0.198 A 
ATOM     97  F   UNL A   1      48.469  26.420  27.014  1.00  0.00    -0.203 F 
ATOM     98  F   UNL A   1      48.538  27.766  21.727  1.00  0.00    -0.200 F 
ATOM     99  C   UNL A   1      49.623  26.840  23.609  1.00  0.00     0.200 A 
ATOM    100  F   UNL A   1      50.660  25.911  25.516  1.00  0.00    -0.200 F 
ATOM    101  F   UNL A   1      50.694  26.539  22.862  1.00  0.00    -0.200 F 
ENDBRANCH  68  91
ENDBRANCH  42  43
ENDBRANCH  35  37
ENDBRANCH  34  35
ENDBRANCH  33  34
ENDBRANCH  32  33
ENDBRANCH  31  32
ENDBRANCH  30  31
ENDBRANCH  29  30
ENDBRANCH  28  29
ENDBRANCH   1  28
TORSDOF 23
ENDMDL
MODEL 2
REMARK VINA RESULT:      -9.9      3.172      8.952
REMARK SMILES O=C(CC1(NC(=O)c2ccc3cc[nH]c3c2)CCC1)OCCOCCOCCOCCOC(=O)c1ccc(-c2c3nc(c(-c4c(F)c(F)c(F)c(F)c4F)c4ccc([nH]4)c(-c4c(F)c(F)c(F)c(F)c4F)c4nc(c(-c5c(F)c(F)c(F)c(F)c5F)c5ccc2[nH]5)C=C4)C=C3)cc1
REMARK SMILES IDX 25 1 24 2 23 3 22 4 21 5 20 6 2 7 1 8 3 9 4 10 17 11 19 12
REMARK SMILES IDX 18 13 5 14 6 15 7 17 8 18 9 19 16 20 10 21 15 22 11 23 14 24
REMARK SMILES IDX 12 25 13 26 26 28 27 29 28 30 29 31 30 32 31 33 32 34 33 35
REMARK SMILES IDX 34 36 35 37 36 38 97 39 37 40 96 41 38 42 39 43 40 44 90 45
REMARK SMILES IDX 41 46 95 47 89 48 91 49 42 50 94 51 88 52 87 53 43 55 75 56
REMARK SMILES IDX 55 57 74 58 56 59 59 60 73 61 92 62 57 63 58 64 72 66 93 67
REMARK SMILES IDX 60 68 44 69 45 70 53 71 46 72 47 73 51 74 54 75 48 76 49 77
REMARK SMILES IDX 52 78 50 79 76 80 77 81 85 82 78 83 79 84 83 85 86 86 80 87
REMARK SMILES IDX 81 88 84 89 82 90 61 91 62 92 70 93 63 94 64 95 68 96 71 97
REMARK SMILES IDX 65 98 66 99 69 100 67 101
REMARK H PARENT 5 16 14 27 91 54 59 65
REMARK Flexibility Score: inf
ROOT
ATOM      1  C   UNL A   1      34.736  22.546  24.351  1.00  0.00     0.188 C 
ENDROOT
BRANCH   1   2
ATOM      2  C   UNL A   1      33.953  22.837  25.630  1.00  0.00     0.188 C 
BRANCH   2   3
ATOM      3  O   UNL A   1      32.706  22.144  25.687  1.00  0.00    -0.376 OA
BRANCH   3   4
ATOM      4  C   UNL A   1      31.987  22.323  26.886  1.00  0.00     0.202 C 
BRANCH   4   5
ATOM      5  C   UNL A   1      30.842  23.308  26.740  1.00  0.00     0.261 C 
BRANCH   5   6
ATOM      6  O   UNL A   1      31.087  24.664  27.168  1.00  0.00    -0.463 OA
BRANCH   6   7
ATOM      7  C   UNL A   1      31.432  25.790  26.519  1.00  0.00     0.308 C 
ATOM      8  O   UNL A   1      30.872  26.833  26.874  1.00  0.00    -0.252 OA
BRANCH   7   9
ATOM      9  C   UNL A   1      32.347  25.852  25.323  1.00  0.00     0.151 C 
BRANCH   9  10
ATOM     10  C   UNL A   1      31.862  25.789  23.876  1.00  0.00     0.051 C 
ATOM     11  C   UNL A   1      31.740  24.351  23.253  1.00  0.00     0.029 C 
ATOM     12  C   UNL A   1      30.321  25.924  23.668  1.00  0.00     0.029 C 
ATOM     13  C   UNL A   1      30.234  24.529  23.074  1.00  0.00     0.005 C 
BRANCH  10  14
ATOM     14  N   UNL A   1      32.637  26.636  22.916  1.00  0.00    -0.346 N 
ATOM     15  C   UNL A   1      32.722  28.001  22.709  1.00  0.00     0.251 C 
ATOM     16  H   UNL A   1      33.204  26.113  22.306  1.00  0.00     0.164 HD
ATOM     17  O   UNL A   1      33.652  28.423  22.019  1.00  0.00    -0.269 OA
BRANCH  15  18
ATOM     18  C   UNL A   1      31.655  28.944  23.108  1.00  0.00     0.041 A 
ATOM     19  C   UNL A   1      31.437  29.476  24.372  1.00  0.00     0.014 A 
ATOM     20  C   UNL A   1      30.814  29.306  22.064  1.00  0.00     0.040 A 
ATOM     21  C   UNL A   1      30.314  30.312  24.607  1.00  0.00     0.011 A 
ATOM     22  C   UNL A   1      29.679  30.078  22.311  1.00  0.00     0.046 A 
ATOM     23  C   UNL A   1      29.391  30.583  23.568  1.00  0.00    -0.001 A 
ATOM     24  N   UNL A   1      28.656  30.429  21.461  1.00  0.00    -0.361 N 
ATOM     25  C   UNL A   1      28.142  31.264  23.446  1.00  0.00     0.028 A 
ATOM     26  C   UNL A   1      27.697  31.121  22.146  1.00  0.00     0.083 A 
ATOM     27  H   UNL A   1      28.618  30.212  20.502  1.00  0.00     0.166 HD
ENDBRANCH  15  18
ENDBRANCH  10  14
ENDBRANCH   9  10
ENDBRANCH   7   9
ENDBRANCH   6   7
ENDBRANCH   5   6
ENDBRANCH   4   5
ENDBRANCH   3   4
ENDBRANCH   2   3
ENDBRANCH   1   2
BRANCH   1  28
ATOM     28  O   UNL A   1      36.107  22.920  24.428  1.00  0.00    -0.377 OA
BRANCH  28  29
ATOM     29  C   UNL A   1      37.043  21.842  24.274  1.00  0.00     0.188 C 
BRANCH  29  30
ATOM     30  C   UNL A   1      36.472  20.650  25.032  1.00  0.00     0.188 C 
BRANCH  30  31
ATOM     31  O   UNL A   1      37.351  19.537  25.066  1.00  0.00    -0.376 OA
BRANCH  31  32
ATOM     32  C   UNL A   1      38.740  19.807  24.874  1.00  0.00     0.202 C 
BRANCH  32  33
ATOM     33  C   UNL A   1      39.687  19.123  25.890  1.00  0.00     0.261 C 
BRANCH  33  34
ATOM     34  O   UNL A   1      41.099  19.327  25.664  1.00  0.00    -0.460 OA
BRANCH  34  35
ATOM     35  C   UNL A   1      41.853  19.520  26.773  1.00  0.00     0.338 C 
ATOM     36  O   UNL A   1      42.597  18.697  27.289  1.00  0.00    -0.246 OA
BRANCH  35  37
ATOM     37  C   UNL A   1      41.918  20.979  27.083  1.00  0.00     0.060 A 
ATOM     38  C   UNL A   1      41.651  21.862  26.020  1.00  0.00     0.016 A 
ATOM     39  C   UNL A   1      42.114  21.488  28.370  1.00  0.00     0.016 A 
ATOM     40  C   UNL A   1      41.683  23.239  26.215  1.00  0.00     0.010 A 
ATOM     41  C   UNL A   1      42.195  22.877  28.559  1.00  0.00     0.010 A 
ATOM     42  C   UNL A   1      42.048  23.751  27.465  1.00  0.00    -0.014 A 
BRANCH  42  43
ATOM     43  C   UNL A   1      42.600  25.130  27.487  1.00  0.00     0.031 A 
ATOM     44  C   UNL A   1      41.746  26.198  28.126  1.00  0.00     0.074 A 
ATOM     45  C   UNL A   1      43.859  25.407  27.106  1.00  0.00     0.049 A 
ATOM     46  N   UNL A   1      42.024  27.451  28.380  1.00  0.00    -0.248 NA
ATOM     47  C   UNL A   1      40.398  25.787  28.553  1.00  0.00     0.031 C 
ATOM     48  C   UNL A   1      44.802  24.450  26.534  1.00  0.00     0.029 A 
ATOM     49  N   UNL A   1      44.564  26.585  27.162  1.00  0.00    -0.354 N 
ATOM     50  C   UNL A   1      40.897  27.964  29.011  1.00  0.00     0.074 A 
ATOM     51  C   UNL A   1      39.914  26.907  29.061  1.00  0.00     0.031 C 
ATOM     52  C   UNL A   1      45.964  25.082  26.282  1.00  0.00     0.029 A 
ATOM     53  C   UNL A   1      45.838  26.490  26.660  1.00  0.00     0.049 A 
ATOM     54  H   UNL A   1      44.190  27.419  27.528  1.00  0.00     0.167 HD
ATOM     55  C   UNL A   1      40.701  29.201  29.524  1.00  0.00     0.037 A 
ATOM     56  C   UNL A   1      46.785  27.439  26.512  1.00  0.00     0.037 A 
ATOM     57  C   UNL A   1      41.670  30.260  29.460  1.00  0.00     0.049 A 
ATOM     58  C   UNL A   1      46.507  28.839  27.007  1.00  0.00     0.074 A 
ATOM     59  C   UNL A   1      41.562  31.559  29.923  1.00  0.00     0.029 A 
ATOM     60  N   UNL A   1      42.926  30.142  28.884  1.00  0.00    -0.354 N 
ATOM     61  N   UNL A   1      45.444  29.311  27.614  1.00  0.00    -0.248 NA
ATOM     62  C   UNL A   1      47.571  29.834  26.811  1.00  0.00     0.031 C 
ATOM     63  C   UNL A   1      42.734  32.242  29.581  1.00  0.00     0.029 A 
ATOM     64  C   UNL A   1      43.596  31.352  28.961  1.00  0.00     0.049 A 
ATOM     65  H   UNL A   1      43.288  29.320  28.482  1.00  0.00     0.167 HD
ATOM     66  C   UNL A   1      45.719  30.645  27.890  1.00  0.00     0.074 A 
ATOM     67  C   UNL A   1      47.064  30.897  27.416  1.00  0.00     0.031 C 
ATOM     68  C   UNL A   1      44.934  31.583  28.478  1.00  0.00     0.037 A 
BRANCH  55  69
ATOM     69  C   UNL A   1      39.379  29.479  30.178  1.00  0.00     0.064 A 
ATOM     70  C   UNL A   1      39.186  29.302  31.557  1.00  0.00     0.173 A 
ATOM     71  C   UNL A   1      38.299  29.960  29.422  1.00  0.00     0.173 A 
ATOM     72  F   UNL A   1      40.179  28.822  32.321  1.00  0.00    -0.203 F 
ATOM     73  C   UNL A   1      37.958  29.581  32.151  1.00  0.00     0.198 A 
ATOM     74  C   UNL A   1      37.082  30.268  30.025  1.00  0.00     0.198 A 
ATOM     75  F   UNL A   1      38.428  30.143  28.099  1.00  0.00    -0.203 F 
ATOM     76  F   UNL A   1      37.784  29.363  33.463  1.00  0.00    -0.200 F 
ATOM     77  C   UNL A   1      36.910  30.073  31.387  1.00  0.00     0.200 A 
ATOM     78  F   UNL A   1      36.075  30.753  29.286  1.00  0.00    -0.200 F 
ATOM     79  F   UNL A   1      35.733  30.354  31.963  1.00  0.00    -0.200 F 
ENDBRANCH  55  69
BRANCH  56  80
ATOM     80  C   UNL A   1      48.075  27.117  25.840  1.00  0.00     0.064 A 
ATOM     81  C   UNL A   1      49.195  26.681  26.564  1.00  0.00     0.173 A 
ATOM     82  C   UNL A   1      48.227  27.294  24.456  1.00  0.00     0.173 A 
ATOM     83  F   UNL A   1      49.112  26.520  27.892  1.00  0.00    -0.203 F 
ATOM     84  C   UNL A   1      50.421  26.467  25.936  1.00  0.00     0.198 A 
ATOM     85  C   UNL A   1      49.442  27.044  23.823  1.00  0.00     0.198 A 
ATOM     86  F   UNL A   1      47.191  27.711  23.714  1.00  0.00    -0.203 F 
ATOM     87  F   UNL A   1      51.490  26.112  26.661  1.00  0.00    -0.200 F 
ATOM     88  C   UNL A   1      50.542  26.643  24.565  1.00  0.00     0.200 A 
ATOM     89  F   UNL A   1      49.549  27.200  22.498  1.00  0.00    -0.200 F 
ATOM     90  F   UNL A   1      51.721  26.437  23.962  1.00  0.00    -0.200 F 
ENDBRANCH  56  80
BRANCH  68  91
ATOM     91  C   UNL A   1      45.521  32.955  28.662  1.00  0.00     0.064 A 
ATOM     92  C   UNL A   1      46.268  33.293  29.801  1.00  0.00     0.173 A 
ATOM     93  C   UNL A   1      45.339  33.944  27.682  1.00  0.00     0.173 A 
ATOM     94  F   UNL A   1      46.465  32.388  30.772  1.00  0.00    -0.203 F 
ATOM     95  C   UNL A   1      46.768  34.581  29.975  1.00  0.00     0.198 A 
ATOM     96  C   UNL A   1      45.874  35.219  27.841  1.00  0.00     0.198 A 
ATOM     97  F   UNL A   1      44.646  33.672  26.566  1.00  0.00    -0.203 F 
ATOM     98  F   UNL A   1      47.414  34.899  31.105  1.00  0.00    -0.200 F 
ATOM     99  C   UNL A   1      46.575  35.541  28.993  1.00  0.00     0.200 A 
ATOM    100  F   UNL A   1      45.703  36.140  26.883  1.00  0.00    -0.200 F 
ATOM    101  F   UNL A   1      47.053  36.781  29.164  1.00  0.00    -0.200 F 
ENDBRANCH  68  91
ENDBRANCH  42  43
ENDBRANCH  35  37
ENDBRANCH  34  35
ENDBRANCH  33  34
ENDBRANCH  32  33
ENDBRANCH  31  32
ENDBRANCH  30  31
ENDBRANCH  29  30
ENDBRANCH  28  29
ENDBRANCH   1  28
TORSDOF 23
ENDMDL
MODEL 3
REMARK VINA RESULT:      -9.8      3.071      8.456
REMARK SMILES O=C(CC1(NC(=O)c2ccc3cc[nH]c3c2)CCC1)OCCOCCOCCOCCOC(=O)c1ccc(-c2c3nc(c(-c4c(F)c(F)c(F)c(F)c4F)c4ccc([nH]4)c(-c4c(F)c(F)c(F)c(F)c4F)c4nc(c(-c5c(F)c(F)c(F)c(F)c5F)c5ccc2[nH]5)C=C4)C=C3)cc1
REMARK SMILES IDX 25 1 24 2 23 3 22 4 21 5 20 6 2 7 1 8 3 9 4 10 17 11 19 12
REMARK SMILES IDX 18 13 5 14 6 15 7 17 8 18 9 19 16 20 10 21 15 22 11 23 14 24
REMARK SMILES IDX 12 25 13 26 26 28 27 29 28 30 29 31 30 32 31 33 32 34 33 35
REMARK SMILES IDX 34 36 35 37 36 38 97 39 37 40 96 41 38 42 39 43 40 44 90 45
REMARK SMILES IDX 41 46 95 47 89 48 91 49 42 50 94 51 88 52 87 53 43 55 75 56
REMARK SMILES IDX 55 57 74 58 56 59 59 60 73 61 92 62 57 63 58 64 72 66 93 67
REMARK SMILES IDX 60 68 44 69 45 70 53 71 46 72 47 73 51 74 54 75 48 76 49 77
REMARK SMILES IDX 52 78 50 79 76 80 77 81 85 82 78 83 79 84 83 85 86 86 80 87
REMARK SMILES IDX 81 88 84 89 82 90 61 91 62 92 70 93 63 94 64 95 68 96 71 97
REMARK SMILES IDX 65 98 66 99 69 100 67 101
REMARK H PARENT 5 16 14 27 91 54 59 65
REMARK Flexibility Score: inf
ROOT
ATOM      1  C   UNL A   1      35.094  22.799  23.750  1.00  0.00     0.188 C 
ENDROOT
BRANCH   1   2
ATOM      2  C   UNL A   1      33.773  23.127  23.057  1.00  0.00     0.188 C 
BRANCH   2   3
ATOM      3  O   UNL A   1      33.953  23.681  21.754  1.00  0.00    -0.376 OA
BRANCH   3   4
ATOM      4  C   UNL A   1      32.761  23.874  21.027  1.00  0.00     0.202 C 
BRANCH   4   5
ATOM      5  C   UNL A   1      32.667  25.260  20.416  1.00  0.00     0.261 C 
BRANCH   5   6
ATOM      6  O   UNL A   1      31.644  26.135  20.934  1.00  0.00    -0.463 OA
BRANCH   6   7
ATOM      7  C   UNL A   1      31.392  26.642  22.154  1.00  0.00     0.308 C 
ATOM      8  O   UNL A   1      30.936  25.863  22.999  1.00  0.00    -0.252 OA
BRANCH   7   9
ATOM      9  C   UNL A   1      31.503  28.098  22.524  1.00  0.00     0.151 C 
BRANCH   9  10
ATOM     10  C   UNL A   1      30.410  28.878  23.253  1.00  0.00     0.051 C 
ATOM     11  C   UNL A   1      29.700  30.008  22.423  1.00  0.00     0.029 C 
ATOM     12  C   UNL A   1      29.018  28.178  23.341  1.00  0.00     0.029 C 
ATOM     13  C   UNL A   1      28.361  29.283  22.533  1.00  0.00     0.005 C 
BRANCH  10  14
ATOM     14  N   UNL A   1      30.828  29.470  24.563  1.00  0.00    -0.346 N 
ATOM     15  C   UNL A   1      31.658  29.034  25.580  1.00  0.00     0.251 C 
ATOM     16  H   UNL A   1      30.429  30.352  24.736  1.00  0.00     0.164 HD
ATOM     17  O   UNL A   1      32.023  29.859  26.420  1.00  0.00    -0.269 OA
BRANCH  15  18
ATOM     18  C   UNL A   1      31.964  27.606  25.813  1.00  0.00     0.041 A 
ATOM     19  C   UNL A   1      33.195  26.979  25.667  1.00  0.00     0.014 A 
ATOM     20  C   UNL A   1      30.867  26.862  26.226  1.00  0.00     0.040 A 
ATOM     21  C   UNL A   1      33.304  25.577  25.857  1.00  0.00     0.011 A 
ATOM     22  C   UNL A   1      30.964  25.477  26.352  1.00  0.00     0.046 A 
ATOM     23  C   UNL A   1      32.158  24.802  26.161  1.00  0.00    -0.001 A 
ATOM     24  N   UNL A   1      29.982  24.549  26.610  1.00  0.00    -0.361 N 
ATOM     25  C   UNL A   1      31.860  23.415  26.318  1.00  0.00     0.028 A 
ATOM     26  C   UNL A   1      30.506  23.288  26.558  1.00  0.00     0.083 A 
ATOM     27  H   UNL A   1      29.040  24.761  26.802  1.00  0.00     0.166 HD
ENDBRANCH  15  18
ENDBRANCH  10  14
ENDBRANCH   9  10
ENDBRANCH   7   9
ENDBRANCH   6   7
ENDBRANCH   5   6
ENDBRANCH   4   5
ENDBRANCH   3   4
ENDBRANCH   2   3
ENDBRANCH   1   2
BRANCH   1  28
ATOM     28  O   UNL A   1      34.935  22.351  25.092  1.00  0.00    -0.377 OA
BRANCH  28  29
ATOM     29  C   UNL A   1      34.604  20.961  25.236  1.00  0.00     0.188 C 
BRANCH  29  30
ATOM     30  C   UNL A   1      35.897  20.178  25.043  1.00  0.00     0.188 C 
BRANCH  30  31
ATOM     31  O   UNL A   1      36.996  20.996  24.674  1.00  0.00    -0.376 OA
BRANCH  31  32
ATOM     32  C   UNL A   1      38.029  21.162  25.644  1.00  0.00     0.202 C 
BRANCH  32  33
ATOM     33  C   UNL A   1      39.087  20.031  25.674  1.00  0.00     0.261 C 
BRANCH  33  34
ATOM     34  O   UNL A   1      40.458  20.461  25.825  1.00  0.00    -0.460 OA
BRANCH  34  35
ATOM     35  C   UNL A   1      40.927  20.505  27.095  1.00  0.00     0.338 C 
ATOM     36  O   UNL A   1      41.333  19.551  27.745  1.00  0.00    -0.246 OA
BRANCH  35  37
ATOM     37  C   UNL A   1      41.204  21.922  27.474  1.00  0.00     0.060 A 
ATOM     38  C   UNL A   1      40.572  22.917  26.704  1.00  0.00     0.016 A 
ATOM     39  C   UNL A   1      41.951  22.291  28.598  1.00  0.00     0.016 A 
ATOM     40  C   UNL A   1      40.767  24.265  26.986  1.00  0.00     0.010 A 
ATOM     41  C   UNL A   1      42.187  23.651  28.855  1.00  0.00     0.010 A 
ATOM     42  C   UNL A   1      41.650  24.636  28.005  1.00  0.00    -0.014 A 
BRANCH  42  43
ATOM     43  C   UNL A   1      42.244  25.995  27.912  1.00  0.00     0.031 A 
ATOM     44  C   UNL A   1      41.508  27.112  28.609  1.00  0.00     0.074 A 
ATOM     45  C   UNL A   1      43.456  26.215  27.375  1.00  0.00     0.049 A 
ATOM     46  N   UNL A   1      41.853  28.363  28.784  1.00  0.00    -0.248 NA
ATOM     47  C   UNL A   1      40.208  26.763  29.209  1.00  0.00     0.031 C 
ATOM     48  C   UNL A   1      44.294  25.208  26.729  1.00  0.00     0.029 A 
ATOM     49  N   UNL A   1      44.199  27.368  27.304  1.00  0.00    -0.354 N 
ATOM     50  C   UNL A   1      40.826  28.935  29.526  1.00  0.00     0.074 A 
ATOM     51  C   UNL A   1      39.824  27.916  29.730  1.00  0.00     0.031 C 
ATOM     52  C   UNL A   1      45.436  25.790  26.318  1.00  0.00     0.029 A 
ATOM     53  C   UNL A   1      45.401  27.213  26.658  1.00  0.00     0.049 A 
ATOM     54  H   UNL A   1      43.899  28.226  27.682  1.00  0.00     0.167 HD
ATOM     55  C   UNL A   1      40.733  30.193  30.014  1.00  0.00     0.037 A 
ATOM     56  C   UNL A   1      46.352  28.122  26.365  1.00  0.00     0.037 A 
ATOM     57  C   UNL A   1      41.720  31.215  29.797  1.00  0.00     0.049 A 
ATOM     58  C   UNL A   1      46.180  29.546  26.839  1.00  0.00     0.074 A 
ATOM     59  C   UNL A   1      41.709  32.531  30.223  1.00  0.00     0.029 A 
ATOM     60  N   UNL A   1      42.893  31.034  29.081  1.00  0.00    -0.354 N 
ATOM     61  N   UNL A   1      45.213  30.074  27.550  1.00  0.00    -0.248 NA
ATOM     62  C   UNL A   1      47.243  30.496  26.482  1.00  0.00     0.031 C 
ATOM     63  C   UNL A   1      42.852  33.161  29.720  1.00  0.00     0.029 A 
ATOM     64  C   UNL A   1      43.606  32.221  29.034  1.00  0.00     0.049 A 
ATOM     65  H   UNL A   1      43.178  30.188  28.668  1.00  0.00     0.167 HD
ATOM     66  C   UNL A   1      45.561  31.406  27.745  1.00  0.00     0.074 A 
ATOM     67  C   UNL A   1      46.846  31.595  27.105  1.00  0.00     0.031 C 
ATOM     68  C   UNL A   1      44.882  32.389  28.388  1.00  0.00     0.037 A 
BRANCH  55  69
ATOM     69  C   UNL A   1      39.508  30.539  30.810  1.00  0.00     0.064 A 
ATOM     70  C   UNL A   1      38.353  31.053  30.201  1.00  0.00     0.173 A 
ATOM     71  C   UNL A   1      39.477  30.324  32.197  1.00  0.00     0.173 A 
ATOM     72  F   UNL A   1      38.338  31.299  28.883  1.00  0.00    -0.203 F 
ATOM     73  C   UNL A   1      37.219  31.354  30.952  1.00  0.00     0.198 A 
ATOM     74  C   UNL A   1      38.331  30.596  32.940  1.00  0.00     0.198 A 
ATOM     75  F   UNL A   1      40.556  29.839  32.830  1.00  0.00    -0.203 F 
ATOM     76  F   UNL A   1      36.142  31.884  30.355  1.00  0.00    -0.200 F 
ATOM     77  C   UNL A   1      37.206  31.116  32.319  1.00  0.00     0.200 A 
ATOM     78  F   UNL A   1      38.318  30.356  34.258  1.00  0.00    -0.200 F 
ATOM     79  F   UNL A   1      36.109  31.393  33.037  1.00  0.00    -0.200 F 
ENDBRANCH  55  69
BRANCH  56  80
ATOM     80  C   UNL A   1      47.542  27.734  25.556  1.00  0.00     0.064 A 
ATOM     81  C   UNL A   1      48.762  27.391  26.157  1.00  0.00     0.173 A 
ATOM     82  C   UNL A   1      47.493  27.752  24.154  1.00  0.00     0.173 A 
ATOM     83  F   UNL A   1      48.871  27.383  27.493  1.00  0.00    -0.203 F 
ATOM     84  C   UNL A   1      49.892  27.114  25.388  1.00  0.00     0.198 A 
ATOM     85  C   UNL A   1      48.612  27.438  23.386  1.00  0.00     0.198 A 
ATOM     86  F   UNL A   1      46.353  28.074  23.525  1.00  0.00    -0.203 F 
ATOM     87  F   UNL A   1      51.061  26.852  25.989  1.00  0.00    -0.200 F 
ATOM     88  C   UNL A   1      49.815  27.132  24.004  1.00  0.00     0.200 A 
ATOM     89  F   UNL A   1      48.527  27.442  22.049  1.00  0.00    -0.200 F 
ATOM     90  F   UNL A   1      50.901  26.866  23.266  1.00  0.00    -0.200 F 
ENDBRANCH  56  80
BRANCH  68  91
ATOM     91  C   UNL A   1      45.530  33.745  28.451  1.00  0.00     0.064 A 
ATOM     92  C   UNL A   1      46.441  34.082  29.463  1.00  0.00     0.173 A 
ATOM     93  C   UNL A   1      45.239  34.718  27.482  1.00  0.00     0.173 A 
ATOM     94  F   UNL A   1      46.747  33.192  30.420  1.00  0.00    -0.203 F 
ATOM     95  C   UNL A   1      46.998  35.357  29.532  1.00  0.00     0.198 A 
ATOM     96  C   UNL A   1      45.829  35.979  27.531  1.00  0.00     0.198 A 
ATOM     97  F   UNL A   1      44.387  34.446  26.483  1.00  0.00    -0.203 F 
ATOM     98  F   UNL A   1      47.808  35.676  30.550  1.00  0.00    -0.200 F 
ATOM     99  C   UNL A   1      46.696  36.302  28.563  1.00  0.00     0.200 A 
ATOM    100  F   UNL A   1      45.551  36.884  26.583  1.00  0.00    -0.200 F 
ATOM    101  F   UNL A   1      47.230  37.528  28.633  1.00  0.00    -0.200 F 
ENDBRANCH  68  91
ENDBRANCH  42  43
ENDBRANCH  35  37
ENDBRANCH  34  35
ENDBRANCH  33  34
ENDBRANCH  32  33
ENDBRANCH  31  32
ENDBRANCH  30  31
ENDBRANCH  29  30
ENDBRANCH  28  29
ENDBRANCH   1  28
TORSDOF 23
ENDMDL
