MODEL 1
REMARK VINA RESULT:     -10.4      0.000      0.000
REMARK SMILES O=C(CCC(=O)N1Cc2[nH]cnc2C[C@H]1C(=O)NCc1ccccc1)OCCOCCOCCOCCOC(=O)c1ccc(-c2c3nc(c(-c4c(F)c(F)c(F)c(F)c4F)c4ccc([nH]4)c(-c4c(F)c(F)c(F)c(F)c4F)c4nc(c(-c5c(F)c(F)c(F)c(F)c5F)c5ccc2[nH]5)C=C4)C=C3)cc1
REMARK SMILES IDX 30 1 29 2 28 3 27 4 26 5 2 6 1 7 3 8 4 9 5 10 6 11 7 12 8 13
REMARK SMILES IDX 15 14 9 15 14 16 10 17 13 18 11 19 12 21 16 22 17 23 18 24
REMARK SMILES IDX 19 26 20 27 21 28 25 29 22 30 24 31 23 32 31 33 32 34 33 35
REMARK SMILES IDX 34 36 35 37 36 38 37 39 38 40 39 41 40 42 41 43 42 44 103 45
REMARK SMILES IDX 43 46 102 47 44 48 45 49 46 50 96 51 47 52 101 53 95 54
REMARK SMILES IDX 97 55 48 56 100 57 94 58 93 59 49 61 81 62 61 63 80 64 62 65
REMARK SMILES IDX 65 66 79 67 98 68 63 69 64 70 78 72 99 73 66 74 50 75 51 76
REMARK SMILES IDX 59 77 52 78 53 79 57 80 60 81 54 82 55 83 58 84 56 85 82 86
REMARK SMILES IDX 83 87 91 88 84 89 85 90 89 91 92 92 86 93 87 94 90 95 88 96
REMARK SMILES IDX 67 97 68 98 76 99 69 100 70 101 74 102 77 103 71 104 72 105
REMARK SMILES IDX 75 106 73 107
REMARK H PARENT 10 20 18 25 97 60 65 71
REMARK Flexibility Score: inf
ROOT
ATOM      1  C   UNL A   1      32.528  30.890  27.172  1.00  0.00     0.188 C 
ENDROOT
BRANCH   1   2
ATOM      2  O   UNL A   1      33.038  29.780  26.431  1.00  0.00    -0.376 OA
BRANCH   2   3
ATOM      3  C   UNL A   1      32.844  29.709  25.031  1.00  0.00     0.202 C 
BRANCH   3   4
ATOM      4  C   UNL A   1      31.604  28.954  24.576  1.00  0.00     0.261 C 
BRANCH   4   5
ATOM      5  O   UNL A   1      31.920  28.005  23.545  1.00  0.00    -0.463 OA
BRANCH   5   6
ATOM      6  C   UNL A   1      31.036  27.434  22.699  1.00  0.00     0.306 C 
ATOM      7  O   UNL A   1      30.300  28.130  22.006  1.00  0.00    -0.252 OA
BRANCH   6   8
ATOM      8  C   UNL A   1      31.121  25.964  22.524  1.00  0.00     0.132 C 
BRANCH   8   9
ATOM      9  C   UNL A   1      29.957  25.346  23.282  1.00  0.00     0.112 C 
BRANCH   9  10
ATOM     10  C   UNL A   1      30.297  25.128  24.741  1.00  0.00     0.224 C 
ATOM     11  O   UNL A   1      29.648  25.773  25.574  1.00  0.00    -0.275 OA
BRANCH  10  12
ATOM     12  N   UNL A   1      31.336  24.283  25.142  1.00  0.00    -0.324 N 
ATOM     13  C   UNL A   1      31.232  22.941  24.540  1.00  0.00     0.176 C 
ATOM     14  C   UNL A   1      32.429  24.604  26.153  1.00  0.00     0.180 C 
ATOM     15  C   UNL A   1      32.184  21.999  25.126  1.00  0.00     0.058 A 
ATOM     16  C   UNL A   1      32.950  23.422  27.019  1.00  0.00     0.093 C 
ATOM     17  N   UNL A   1      32.524  20.773  24.632  1.00  0.00    -0.347 N 
ATOM     18  C   UNL A   1      32.961  22.177  26.236  1.00  0.00     0.066 A 
ATOM     19  C   UNL A   1      33.496  20.272  25.458  1.00  0.00     0.197 A 
ATOM     20  H   UNL A   1      32.143  20.332  23.838  1.00  0.00     0.167 HD
ATOM     21  N   UNL A   1      33.780  21.104  26.439  1.00  0.00    -0.242 NA
BRANCH  14  22
ATOM     22  C   UNL A   1      33.578  25.559  25.756  1.00  0.00     0.243 C 
ATOM     23  O   UNL A   1      33.690  26.646  26.340  1.00  0.00    -0.273 OA
ATOM     24  N   UNL A   1      34.527  25.293  24.837  1.00  0.00    -0.350 N 
ATOM     25  H   UNL A   1      35.163  26.031  24.687  1.00  0.00     0.163 HD
BRANCH  24  26
ATOM     26  C   UNL A   1      34.777  24.127  24.037  1.00  0.00     0.151 C 
BRANCH  26  27
ATOM     27  C   UNL A   1      35.979  23.335  24.478  1.00  0.00    -0.029 A 
ATOM     28  C   UNL A   1      36.729  23.795  25.567  1.00  0.00     0.005 A 
ATOM     29  C   UNL A   1      36.326  22.105  23.902  1.00  0.00     0.005 A 
ATOM     30  C   UNL A   1      37.782  23.034  26.076  1.00  0.00     0.000 A 
ATOM     31  C   UNL A   1      37.352  21.325  24.434  1.00  0.00     0.000 A 
ATOM     32  C   UNL A   1      38.080  21.792  25.522  1.00  0.00     0.000 A 
ENDBRANCH  26  27
ENDBRANCH  24  26
ENDBRANCH  14  22
ENDBRANCH  10  12
ENDBRANCH   9  10
ENDBRANCH   8   9
ENDBRANCH   6   8
ENDBRANCH   5   6
ENDBRANCH   4   5
ENDBRANCH   3   4
ENDBRANCH   2   3
ENDBRANCH   1   2
BRANCH   1  33
ATOM     33  C   UNL A   1      33.646  31.737  27.829  1.00  0.00     0.188 C 
BRANCH  33  34
ATOM     34  O   UNL A   1      34.948  31.521  27.265  1.00  0.00    -0.377 OA
BRANCH  34  35
ATOM     35  C   UNL A   1      36.000  32.081  28.042  1.00  0.00     0.188 C 
BRANCH  35  36
ATOM     36  C   UNL A   1      35.607  32.924  29.282  1.00  0.00     0.188 C 
BRANCH  36  37
ATOM     37  O   UNL A   1      36.503  33.650  30.125  1.00  0.00    -0.376 OA
BRANCH  37  38
ATOM     38  C   UNL A   1      37.259  33.045  31.162  1.00  0.00     0.202 C 
BRANCH  38  39
ATOM     39  C   UNL A   1      38.265  31.955  30.812  1.00  0.00     0.261 C 
BRANCH  39  40
ATOM     40  O   UNL A   1      38.147  30.851  31.683  1.00  0.00    -0.460 OA
BRANCH  40  41
ATOM     41  C   UNL A   1      37.059  30.110  31.404  1.00  0.00     0.338 C 
ATOM     42  O   UNL A   1      35.910  30.311  31.754  1.00  0.00    -0.246 OA
BRANCH  41  43
ATOM     43  C   UNL A   1      37.473  28.932  30.636  1.00  0.00     0.060 A 
ATOM     44  C   UNL A   1      38.206  28.009  31.376  1.00  0.00     0.016 A 
ATOM     45  C   UNL A   1      37.516  28.997  29.236  1.00  0.00     0.016 A 
ATOM     46  C   UNL A   1      39.303  27.473  30.764  1.00  0.00     0.010 A 
ATOM     47  C   UNL A   1      38.608  28.449  28.618  1.00  0.00     0.010 A 
ATOM     48  C   UNL A   1      39.552  27.843  29.437  1.00  0.00    -0.014 A 
BRANCH  48  49
ATOM     49  C   UNL A   1      40.917  27.696  29.001  1.00  0.00     0.031 A 
ATOM     50  C   UNL A   1      41.221  26.363  28.466  1.00  0.00     0.074 A 
ATOM     51  C   UNL A   1      41.802  28.700  29.135  1.00  0.00     0.049 A 
ATOM     52  N   UNL A   1      42.035  25.479  28.937  1.00  0.00    -0.248 NA
ATOM     53  C   UNL A   1      40.391  25.908  27.342  1.00  0.00     0.031 C 
ATOM     54  C   UNL A   1      41.558  30.119  29.420  1.00  0.00     0.029 A 
ATOM     55  N   UNL A   1      43.145  28.651  28.952  1.00  0.00    -0.354 N 
ATOM     56  C   UNL A   1      41.934  24.399  28.071  1.00  0.00     0.074 A 
ATOM     57  C   UNL A   1      40.818  24.656  27.199  1.00  0.00     0.031 C 
ATOM     58  C   UNL A   1      42.684  30.820  29.157  1.00  0.00     0.029 A 
ATOM     59  C   UNL A   1      43.748  29.888  28.822  1.00  0.00     0.049 A 
ATOM     60  H   UNL A   1      43.647  27.805  28.914  1.00  0.00     0.167 HD
ATOM     61  C   UNL A   1      42.909  23.458  27.991  1.00  0.00     0.037 A 
ATOM     62  C   UNL A   1      45.004  30.098  28.361  1.00  0.00     0.037 A 
ATOM     63  C   UNL A   1      43.723  23.418  29.174  1.00  0.00     0.049 A 
ATOM     64  C   UNL A   1      45.745  28.813  28.476  1.00  0.00     0.074 A 
ATOM     65  C   UNL A   1      43.469  23.115  30.497  1.00  0.00     0.029 A 
ATOM     66  N   UNL A   1      44.929  24.074  29.169  1.00  0.00    -0.354 N 
ATOM     67  N   UNL A   1      46.094  28.268  29.609  1.00  0.00    -0.248 NA
ATOM     68  C   UNL A   1      45.700  27.903  27.337  1.00  0.00     0.031 C 
ATOM     69  C   UNL A   1      44.286  24.007  31.252  1.00  0.00     0.029 A 
ATOM     70  C   UNL A   1      45.015  24.778  30.346  1.00  0.00     0.049 A 
ATOM     71  H   UNL A   1      45.606  24.046  28.456  1.00  0.00     0.167 HD
ATOM     72  C   UNL A   1      45.921  26.903  29.420  1.00  0.00     0.074 A 
ATOM     73  C   UNL A   1      45.760  26.734  27.980  1.00  0.00     0.031 C 
ATOM     74  C   UNL A   1      45.644  26.073  30.468  1.00  0.00     0.037 A 
BRANCH  61  75
ATOM     75  C   UNL A   1      43.269  22.796  26.698  1.00  0.00     0.064 A 
ATOM     76  C   UNL A   1      43.030  21.425  26.517  1.00  0.00     0.173 A 
ATOM     77  C   UNL A   1      44.071  23.419  25.713  1.00  0.00     0.173 A 
ATOM     78  F   UNL A   1      42.322  20.732  27.420  1.00  0.00    -0.203 F 
ATOM     79  C   UNL A   1      43.574  20.726  25.437  1.00  0.00     0.198 A 
ATOM     80  C   UNL A   1      44.559  22.735  24.607  1.00  0.00     0.198 A 
ATOM     81  F   UNL A   1      44.494  24.684  25.842  1.00  0.00    -0.203 F 
ATOM     82  F   UNL A   1      43.405  19.400  25.352  1.00  0.00    -0.200 F 
ATOM     83  C   UNL A   1      44.332  21.381  24.481  1.00  0.00     0.200 A 
ATOM     84  F   UNL A   1      45.309  23.384  23.707  1.00  0.00    -0.200 F 
ATOM     85  F   UNL A   1      44.885  20.703  23.467  1.00  0.00    -0.200 F 
ENDBRANCH  61  75
BRANCH  62  86
ATOM     86  C   UNL A   1      45.455  31.207  27.489  1.00  0.00     0.064 A 
ATOM     87  C   UNL A   1      44.637  31.694  26.459  1.00  0.00     0.173 A 
ATOM     88  C   UNL A   1      46.582  31.988  27.818  1.00  0.00     0.173 A 
ATOM     89  F   UNL A   1      43.518  31.036  26.121  1.00  0.00    -0.203 F 
ATOM     90  C   UNL A   1      44.922  32.897  25.806  1.00  0.00     0.198 A 
ATOM     91  C   UNL A   1      46.871  33.182  27.160  1.00  0.00     0.198 A 
ATOM     92  F   UNL A   1      47.375  31.657  28.848  1.00  0.00    -0.203 F 
ATOM     93  F   UNL A   1      44.087  33.362  24.867  1.00  0.00    -0.200 F 
ATOM     94  C   UNL A   1      46.034  33.644  26.163  1.00  0.00     0.200 A 
ATOM     95  F   UNL A   1      47.929  33.912  27.542  1.00  0.00    -0.200 F 
ATOM     96  F   UNL A   1      46.275  34.824  25.577  1.00  0.00    -0.200 F 
ENDBRANCH  62  86
BRANCH  74  97
ATOM     97  C   UNL A   1      45.759  26.646  31.854  1.00  0.00     0.064 A 
ATOM     98  C   UNL A   1      44.691  27.267  32.528  1.00  0.00     0.173 A 
ATOM     99  C   UNL A   1      46.939  26.434  32.580  1.00  0.00     0.173 A 
ATOM    100  F   UNL A   1      43.497  27.407  31.939  1.00  0.00    -0.203 F 
ATOM    101  C   UNL A   1      44.819  27.699  33.847  1.00  0.00     0.198 A 
ATOM    102  C   UNL A   1      47.051  26.833  33.910  1.00  0.00     0.198 A 
ATOM    103  F   UNL A   1      47.971  25.791  32.012  1.00  0.00    -0.203 F 
ATOM    104  F   UNL A   1      43.789  28.303  34.460  1.00  0.00    -0.200 F 
ATOM    105  C   UNL A   1      45.996  27.476  34.539  1.00  0.00     0.200 A 
ATOM    106  F   UNL A   1      48.173  26.568  34.593  1.00  0.00    -0.200 F 
ATOM    107  F   UNL A   1      46.106  27.853  35.821  1.00  0.00    -0.200 F 
ENDBRANCH  74  97
ENDBRANCH  48  49
ENDBRANCH  41  43
ENDBRANCH  40  41
ENDBRANCH  39  40
ENDBRANCH  38  39
ENDBRANCH  37  38
ENDBRANCH  36  37
ENDBRANCH  35  36
ENDBRANCH  34  35
ENDBRANCH  33  34
ENDBRANCH   1  33
TORSDOF 26
ENDMDL
MODEL 2
REMARK VINA RESULT:     -10.0      2.332      7.245
REMARK SMILES O=C(CCC(=O)N1Cc2[nH]cnc2C[C@H]1C(=O)NCc1ccccc1)OCCOCCOCCOCCOC(=O)c1ccc(-c2c3nc(c(-c4c(F)c(F)c(F)c(F)c4F)c4ccc([nH]4)c(-c4c(F)c(F)c(F)c(F)c4F)c4nc(c(-c5c(F)c(F)c(F)c(F)c5F)c5ccc2[nH]5)C=C4)C=C3)cc1
REMARK SMILES IDX 30 1 29 2 28 3 27 4 26 5 2 6 1 7 3 8 4 9 5 10 6 11 7 12 8 13
REMARK SMILES IDX 15 14 9 15 14 16 10 17 13 18 11 19 12 21 16 22 17 23 18 24
REMARK SMILES IDX 19 26 20 27 21 28 25 29 22 30 24 31 23 32 31 33 32 34 33 35
REMARK SMILES IDX 34 36 35 37 36 38 37 39 38 40 39 41 40 42 41 43 42 44 103 45
REMARK SMILES IDX 43 46 102 47 44 48 45 49 46 50 96 51 47 52 101 53 95 54
REMARK SMILES IDX 97 55 48 56 100 57 94 58 93 59 49 61 81 62 61 63 80 64 62 65
REMARK SMILES IDX 65 66 79 67 98 68 63 69 64 70 78 72 99 73 66 74 50 75 51 76
REMARK SMILES IDX 59 77 52 78 53 79 57 80 60 81 54 82 55 83 58 84 56 85 82 86
REMARK SMILES IDX 83 87 91 88 84 89 85 90 89 91 92 92 86 93 87 94 90 95 88 96
REMARK SMILES IDX 67 97 68 98 76 99 69 100 70 101 74 102 77 103 71 104 72 105
REMARK SMILES IDX 75 106 73 107
REMARK H PARENT 10 20 18 25 97 60 65 71
REMARK Flexibility Score: inf
ROOT
ATOM      1  C   UNL A   1      36.240  32.943  28.511  1.00  0.00     0.188 C 
ENDROOT
BRANCH   1   2
ATOM      2  O   UNL A   1      35.380  31.812  28.643  1.00  0.00    -0.376 OA
BRANCH   2   3
ATOM      3  C   UNL A   1      35.012  31.059  27.502  1.00  0.00     0.202 C 
BRANCH   3   4
ATOM      4  C   UNL A   1      33.517  30.905  27.269  1.00  0.00     0.261 C 
BRANCH   4   5
ATOM      5  O   UNL A   1      33.246  30.313  25.989  1.00  0.00    -0.463 OA
BRANCH   5   6
ATOM      6  C   UNL A   1      33.192  28.990  25.727  1.00  0.00     0.306 C 
ATOM      7  O   UNL A   1      34.192  28.389  25.347  1.00  0.00    -0.252 OA
BRANCH   6   8
ATOM      8  C   UNL A   1      31.939  28.281  26.085  1.00  0.00     0.132 C 
BRANCH   8   9
ATOM      9  C   UNL A   1      32.306  27.163  27.048  1.00  0.00     0.112 C 
BRANCH   9  10
ATOM     10  C   UNL A   1      31.888  25.810  26.512  1.00  0.00     0.224 C 
ATOM     11  O   UNL A   1      30.921  25.263  27.057  1.00  0.00    -0.275 OA
BRANCH  10  12
ATOM     12  N   UNL A   1      32.589  25.168  25.488  1.00  0.00    -0.324 N 
ATOM     13  C   UNL A   1      33.662  24.297  26.002  1.00  0.00     0.176 C 
ATOM     14  C   UNL A   1      32.392  25.364  23.990  1.00  0.00     0.180 C 
ATOM     15  C   UNL A   1      34.529  23.802  24.935  1.00  0.00     0.058 A 
ATOM     16  C   UNL A   1      33.657  25.234  23.095  1.00  0.00     0.093 C 
ATOM     17  N   UNL A   1      35.441  22.790  25.030  1.00  0.00    -0.347 N 
ATOM     18  C   UNL A   1      34.560  24.202  23.628  1.00  0.00     0.066 A 
ATOM     19  C   UNL A   1      35.970  22.619  23.778  1.00  0.00     0.197 A 
ATOM     20  H   UNL A   1      35.674  22.283  25.841  1.00  0.00     0.167 HD
ATOM     21  N   UNL A   1      35.453  23.463  22.909  1.00  0.00    -0.242 NA
BRANCH  14  22
ATOM     22  C   UNL A   1      31.149  24.757  23.299  1.00  0.00     0.243 C 
ATOM     23  O   UNL A   1      31.276  23.730  22.619  1.00  0.00    -0.273 OA
ATOM     24  N   UNL A   1      29.892  25.229  23.409  1.00  0.00    -0.350 N 
ATOM     25  H   UNL A   1      29.226  24.738  22.873  1.00  0.00     0.163 HD
BRANCH  24  26
ATOM     26  C   UNL A   1      29.347  26.321  24.167  1.00  0.00     0.151 C 
BRANCH  26  27
ATOM     27  C   UNL A   1      29.082  27.556  23.349  1.00  0.00    -0.029 A 
ATOM     28  C   UNL A   1      27.798  28.114  23.366  1.00  0.00     0.005 A 
ATOM     29  C   UNL A   1      30.090  28.224  22.641  1.00  0.00     0.005 A 
ATOM     30  C   UNL A   1      27.539  29.319  22.711  1.00  0.00     0.000 A 
ATOM     31  C   UNL A   1      29.843  29.448  22.020  1.00  0.00     0.000 A 
ATOM     32  C   UNL A   1      28.565  29.994  22.055  1.00  0.00     0.000 A 
ENDBRANCH  26  27
ENDBRANCH  24  26
ENDBRANCH  14  22
ENDBRANCH  10  12
ENDBRANCH   9  10
ENDBRANCH   8   9
ENDBRANCH   6   8
ENDBRANCH   5   6
ENDBRANCH   4   5
ENDBRANCH   3   4
ENDBRANCH   2   3
ENDBRANCH   1   2
BRANCH   1  33
ATOM     33  C   UNL A   1      35.634  34.233  29.119  1.00  0.00     0.188 C 
BRANCH  33  34
ATOM     34  O   UNL A   1      34.294  34.071  29.608  1.00  0.00    -0.377 OA
BRANCH  34  35
ATOM     35  C   UNL A   1      34.215  34.016  31.028  1.00  0.00     0.188 C 
BRANCH  35  36
ATOM     36  C   UNL A   1      34.236  35.360  31.801  1.00  0.00     0.188 C 
BRANCH  36  37
ATOM     37  O   UNL A   1      35.089  35.685  32.900  1.00  0.00    -0.376 OA
BRANCH  37  38
ATOM     38  C   UNL A   1      35.460  34.750  33.901  1.00  0.00     0.202 C 
BRANCH  38  39
ATOM     39  C   UNL A   1      36.857  34.142  33.872  1.00  0.00     0.261 C 
BRANCH  39  40
ATOM     40  O   UNL A   1      37.101  33.479  32.651  1.00  0.00    -0.460 OA
BRANCH  40  41
ATOM     41  C   UNL A   1      37.292  32.159  32.830  1.00  0.00     0.338 C 
ATOM     42  O   UNL A   1      37.161  31.520  33.858  1.00  0.00    -0.246 OA
BRANCH  41  43
ATOM     43  C   UNL A   1      37.765  31.574  31.572  1.00  0.00     0.060 A 
ATOM     44  C   UNL A   1      37.307  30.280  31.347  1.00  0.00     0.016 A 
ATOM     45  C   UNL A   1      38.905  32.102  30.948  1.00  0.00     0.016 A 
ATOM     46  C   UNL A   1      38.222  29.386  30.871  1.00  0.00     0.010 A 
ATOM     47  C   UNL A   1      39.818  31.209  30.457  1.00  0.00     0.010 A 
ATOM     48  C   UNL A   1      39.509  29.861  30.588  1.00  0.00    -0.014 A 
BRANCH  48  49
ATOM     49  C   UNL A   1      40.549  28.865  30.589  1.00  0.00     0.031 A 
ATOM     50  C   UNL A   1      41.125  28.618  31.917  1.00  0.00     0.074 A 
ATOM     51  C   UNL A   1      40.950  28.277  29.447  1.00  0.00     0.049 A 
ATOM     52  N   UNL A   1      42.331  28.839  32.319  1.00  0.00    -0.248 NA
ATOM     53  C   UNL A   1      40.183  28.214  32.970  1.00  0.00     0.031 C 
ATOM     54  C   UNL A   1      40.296  28.264  28.133  1.00  0.00     0.029 A 
ATOM     55  N   UNL A   1      42.028  27.476  29.261  1.00  0.00    -0.354 N 
ATOM     56  C   UNL A   1      42.344  28.452  33.651  1.00  0.00     0.074 A 
ATOM     57  C   UNL A   1      40.978  28.211  34.037  1.00  0.00     0.031 C 
ATOM     58  C   UNL A   1      40.869  27.307  27.367  1.00  0.00     0.029 A 
ATOM     59  C   UNL A   1      42.001  26.748  28.087  1.00  0.00     0.049 A 
ATOM     60  H   UNL A   1      42.767  27.418  29.910  1.00  0.00     0.167 HD
ATOM     61  C   UNL A   1      43.501  28.150  34.293  1.00  0.00     0.037 A 
ATOM     62  C   UNL A   1      42.800  25.691  27.806  1.00  0.00     0.037 A 
ATOM     63  C   UNL A   1      44.645  28.741  33.656  1.00  0.00     0.049 A 
ATOM     64  C   UNL A   1      43.969  25.756  28.725  1.00  0.00     0.074 A 
ATOM     65  C   UNL A   1      45.048  30.044  33.436  1.00  0.00     0.029 A 
ATOM     66  N   UNL A   1      45.399  27.971  32.806  1.00  0.00    -0.354 N 
ATOM     67  N   UNL A   1      44.901  26.667  28.660  1.00  0.00    -0.248 NA
ATOM     68  C   UNL A   1      43.859  25.071  30.008  1.00  0.00     0.031 C 
ATOM     69  C   UNL A   1      45.669  30.034  32.153  1.00  0.00     0.029 A 
ATOM     70  C   UNL A   1      45.638  28.722  31.680  1.00  0.00     0.049 A 
ATOM     71  H   UNL A   1      45.711  27.053  32.972  1.00  0.00     0.167 HD
ATOM     72  C   UNL A   1      45.220  26.952  29.981  1.00  0.00     0.074 A 
ATOM     73  C   UNL A   1      44.609  25.880  30.761  1.00  0.00     0.031 C 
ATOM     74  C   UNL A   1      45.706  28.175  30.345  1.00  0.00     0.037 A 
BRANCH  61  75
ATOM     75  C   UNL A   1      43.577  27.073  35.329  1.00  0.00     0.064 A 
ATOM     76  C   UNL A   1      43.849  27.398  36.667  1.00  0.00     0.173 A 
ATOM     77  C   UNL A   1      43.631  25.697  35.003  1.00  0.00     0.173 A 
ATOM     78  F   UNL A   1      43.870  28.678  37.066  1.00  0.00    -0.203 F 
ATOM     79  C   UNL A   1      44.174  26.416  37.605  1.00  0.00     0.198 A 
ATOM     80  C   UNL A   1      43.894  24.717  35.952  1.00  0.00     0.198 A 
ATOM     81  F   UNL A   1      43.535  25.265  33.739  1.00  0.00    -0.203 F 
ATOM     82  F   UNL A   1      44.523  26.773  38.847  1.00  0.00    -0.200 F 
ATOM     83  C   UNL A   1      44.190  25.077  37.249  1.00  0.00     0.200 A 
ATOM     84  F   UNL A   1      43.926  23.430  35.580  1.00  0.00    -0.200 F 
ATOM     85  F   UNL A   1      44.538  24.139  38.139  1.00  0.00    -0.200 F 
ENDBRANCH  61  75
BRANCH  62  86
ATOM     86  C   UNL A   1      42.417  24.456  27.085  1.00  0.00     0.064 A 
ATOM     87  C   UNL A   1      43.250  23.908  26.098  1.00  0.00     0.173 A 
ATOM     88  C   UNL A   1      41.357  23.642  27.534  1.00  0.00     0.173 A 
ATOM     89  F   UNL A   1      44.311  24.598  25.655  1.00  0.00    -0.203 F 
ATOM     90  C   UNL A   1      43.043  22.617  25.601  1.00  0.00     0.198 A 
ATOM     91  C   UNL A   1      41.146  22.360  27.031  1.00  0.00     0.198 A 
ATOM     92  F   UNL A   1      40.560  24.038  28.539  1.00  0.00    -0.203 F 
ATOM     93  F   UNL A   1      43.893  22.104  24.702  1.00  0.00    -0.200 F 
ATOM     94  C   UNL A   1      41.996  21.842  26.074  1.00  0.00     0.200 A 
ATOM     95  F   UNL A   1      40.152  21.608  27.525  1.00  0.00    -0.200 F 
ATOM     96  F   UNL A   1      41.833  20.585  25.639  1.00  0.00    -0.200 F 
ENDBRANCH  62  86
BRANCH  74  97
ATOM     97  C   UNL A   1      46.100  29.119  29.241  1.00  0.00     0.064 A 
ATOM     98  C   UNL A   1      47.371  29.119  28.637  1.00  0.00     0.173 A 
ATOM     99  C   UNL A   1      45.122  29.949  28.678  1.00  0.00     0.173 A 
ATOM    100  F   UNL A   1      48.326  28.275  29.048  1.00  0.00    -0.203 F 
ATOM    101  C   UNL A   1      47.660  29.949  27.555  1.00  0.00     0.198 A 
ATOM    102  C   UNL A   1      45.402  30.749  27.572  1.00  0.00     0.198 A 
ATOM    103  F   UNL A   1      43.874  29.946  29.170  1.00  0.00    -0.203 F 
ATOM    104  F   UNL A   1      48.885  29.940  27.009  1.00  0.00    -0.200 F 
ATOM    105  C   UNL A   1      46.673  30.758  27.019  1.00  0.00     0.200 A 
ATOM    106  F   UNL A   1      44.431  31.492  27.025  1.00  0.00    -0.200 F 
ATOM    107  F   UNL A   1      46.937  31.526  25.953  1.00  0.00    -0.200 F 
ENDBRANCH  74  97
ENDBRANCH  48  49
ENDBRANCH  41  43
ENDBRANCH  40  41
ENDBRANCH  39  40
ENDBRANCH  38  39
ENDBRANCH  37  38
ENDBRANCH  36  37
ENDBRANCH  35  36
ENDBRANCH  34  35
ENDBRANCH  33  34
ENDBRANCH   1  33
TORSDOF 26
ENDMDL
MODEL 3
REMARK VINA RESULT:      -9.5      2.583      7.460
REMARK SMILES O=C(CCC(=O)N1Cc2[nH]cnc2C[C@H]1C(=O)NCc1ccccc1)OCCOCCOCCOCCOC(=O)c1ccc(-c2c3nc(c(-c4c(F)c(F)c(F)c(F)c4F)c4ccc([nH]4)c(-c4c(F)c(F)c(F)c(F)c4F)c4nc(c(-c5c(F)c(F)c(F)c(F)c5F)c5ccc2[nH]5)C=C4)C=C3)cc1
REMARK SMILES IDX 30 1 29 2 28 3 27 4 26 5 2 6 1 7 3 8 4 9 5 10 6 11 7 12 8 13
REMARK SMILES IDX 15 14 9 15 14 16 10 17 13 18 11 19 12 21 16 22 17 23 18 24
REMARK SMILES IDX 19 26 20 27 21 28 25 29 22 30 24 31 23 32 31 33 32 34 33 35
REMARK SMILES IDX 34 36 35 37 36 38 37 39 38 40 39 41 40 42 41 43 42 44 103 45
REMARK SMILES IDX 43 46 102 47 44 48 45 49 46 50 96 51 47 52 101 53 95 54
REMARK SMILES IDX 97 55 48 56 100 57 94 58 93 59 49 61 81 62 61 63 80 64 62 65
REMARK SMILES IDX 65 66 79 67 98 68 63 69 64 70 78 72 99 73 66 74 50 75 51 76
REMARK SMILES IDX 59 77 52 78 53 79 57 80 60 81 54 82 55 83 58 84 56 85 82 86
REMARK SMILES IDX 83 87 91 88 84 89 85 90 89 91 92 92 86 93 87 94 90 95 88 96
REMARK SMILES IDX 67 97 68 98 76 99 69 100 70 101 74 102 77 103 71 104 72 105
REMARK SMILES IDX 75 106 73 107
REMARK H PARENT 10 20 18 25 97 60 65 71
REMARK Flexibility Score: inf
ROOT
ATOM      1  C   UNL A   1      37.442  32.261  28.455  1.00  0.00     0.188 C 
ENDROOT
BRANCH   1   2
ATOM      2  O   UNL A   1      36.826  31.013  28.772  1.00  0.00    -0.376 OA
BRANCH   2   3
ATOM      3  C   UNL A   1      36.179  30.261  27.762  1.00  0.00     0.202 C 
BRANCH   3   4
ATOM      4  C   UNL A   1      34.702  29.980  27.995  1.00  0.00     0.261 C 
BRANCH   4   5
ATOM      5  O   UNL A   1      33.915  30.337  26.848  1.00  0.00    -0.463 OA
BRANCH   5   6
ATOM      6  C   UNL A   1      33.065  29.520  26.189  1.00  0.00     0.306 C 
ATOM      7  O   UNL A   1      33.024  29.523  24.963  1.00  0.00    -0.252 OA
BRANCH   6   8
ATOM      8  C   UNL A   1      32.329  28.517  26.997  1.00  0.00     0.132 C 
BRANCH   8   9
ATOM      9  C   UNL A   1      32.997  27.170  26.770  1.00  0.00     0.112 C 
BRANCH   9  10
ATOM     10  C   UNL A   1      32.058  26.191  26.100  1.00  0.00     0.224 C 
ATOM     11  O   UNL A   1      31.304  25.540  26.835  1.00  0.00    -0.275 OA
BRANCH  10  12
ATOM     12  N   UNL A   1      32.070  25.978  24.719  1.00  0.00    -0.324 N 
ATOM     13  C   UNL A   1      32.722  24.707  24.353  1.00  0.00     0.176 C 
ATOM     14  C   UNL A   1      31.573  26.939  23.646  1.00  0.00     0.180 C 
ATOM     15  C   UNL A   1      32.929  24.590  22.910  1.00  0.00     0.058 A 
ATOM     16  C   UNL A   1      32.330  26.924  22.289  1.00  0.00     0.093 C 
ATOM     17  N   UNL A   1      33.264  23.457  22.226  1.00  0.00    -0.347 N 
ATOM     18  C   UNL A   1      32.772  25.560  21.961  1.00  0.00     0.066 A 
ATOM     19  C   UNL A   1      33.281  23.792  20.897  1.00  0.00     0.197 A 
ATOM     20  H   UNL A   1      33.456  22.572  22.612  1.00  0.00     0.167 HD
ATOM     21  N   UNL A   1      32.987  25.062  20.709  1.00  0.00    -0.242 NA
BRANCH  14  22
ATOM     22  C   UNL A   1      30.052  27.131  23.440  1.00  0.00     0.243 C 
ATOM     23  O   UNL A   1      29.322  26.134  23.364  1.00  0.00    -0.273 OA
ATOM     24  N   UNL A   1      29.421  28.320  23.381  1.00  0.00    -0.350 N 
ATOM     25  H   UNL A   1      28.452  28.256  23.211  1.00  0.00     0.163 HD
BRANCH  24  26
ATOM     26  C   UNL A   1      29.907  29.664  23.520  1.00  0.00     0.151 C 
BRANCH  26  27
ATOM     27  C   UNL A   1      29.135  30.675  22.716  1.00  0.00    -0.029 A 
ATOM     28  C   UNL A   1      29.012  31.980  23.210  1.00  0.00     0.005 A 
ATOM     29  C   UNL A   1      28.610  30.391  21.448  1.00  0.00     0.005 A 
ATOM     30  C   UNL A   1      28.400  32.974  22.445  1.00  0.00     0.000 A 
ATOM     31  C   UNL A   1      28.035  31.391  20.666  1.00  0.00     0.000 A 
ATOM     32  C   UNL A   1      27.930  32.684  21.167  1.00  0.00     0.000 A 
ENDBRANCH  26  27
ENDBRANCH  24  26
ENDBRANCH  14  22
ENDBRANCH  10  12
ENDBRANCH   9  10
ENDBRANCH   8   9
ENDBRANCH   6   8
ENDBRANCH   5   6
ENDBRANCH   4   5
ENDBRANCH   3   4
ENDBRANCH   2   3
ENDBRANCH   1   2
BRANCH   1  33
ATOM     33  C   UNL A   1      36.726  33.469  29.110  1.00  0.00     0.188 C 
BRANCH  33  34
ATOM     34  O   UNL A   1      35.333  33.247  29.374  1.00  0.00    -0.377 OA
BRANCH  34  35
ATOM     35  C   UNL A   1      35.045  33.037  30.751  1.00  0.00     0.188 C 
BRANCH  35  36
ATOM     36  C   UNL A   1      34.333  34.181  31.517  1.00  0.00     0.188 C 
BRANCH  36  37
ATOM     37  O   UNL A   1      34.644  34.633  32.836  1.00  0.00    -0.376 OA
BRANCH  37  38
ATOM     38  C   UNL A   1      34.899  33.753  33.920  1.00  0.00     0.202 C 
BRANCH  38  39
ATOM     39  C   UNL A   1      36.276  33.754  34.573  1.00  0.00     0.261 C 
BRANCH  39  40
ATOM     40  O   UNL A   1      37.282  33.418  33.644  1.00  0.00    -0.460 OA
BRANCH  40  41
ATOM     41  C   UNL A   1      37.634  32.122  33.737  1.00  0.00     0.338 C 
ATOM     42  O   UNL A   1      37.714  31.442  34.745  1.00  0.00    -0.246 OA
BRANCH  41  43
ATOM     43  C   UNL A   1      37.989  31.631  32.403  1.00  0.00     0.060 A 
ATOM     44  C   UNL A   1      37.551  30.335  32.146  1.00  0.00     0.016 A 
ATOM     45  C   UNL A   1      39.040  32.237  31.699  1.00  0.00     0.016 A 
ATOM     46  C   UNL A   1      38.438  29.506  31.522  1.00  0.00     0.010 A 
ATOM     47  C   UNL A   1      39.923  31.409  31.060  1.00  0.00     0.010 A 
ATOM     48  C   UNL A   1      39.672  30.045  31.139  1.00  0.00    -0.014 A 
BRANCH  48  49
ATOM     49  C   UNL A   1      40.737  29.091  30.969  1.00  0.00     0.031 A 
ATOM     50  C   UNL A   1      41.483  28.818  32.204  1.00  0.00     0.074 A 
ATOM     51  C   UNL A   1      41.011  28.562  29.762  1.00  0.00     0.049 A 
ATOM     52  N   UNL A   1      42.722  29.070  32.462  1.00  0.00    -0.248 NA
ATOM     53  C   UNL A   1      40.695  28.338  33.347  1.00  0.00     0.031 C 
ATOM     54  C   UNL A   1      40.199  28.572  28.540  1.00  0.00     0.029 A 
ATOM     55  N   UNL A   1      42.084  27.811  29.411  1.00  0.00    -0.354 N 
ATOM     56  C   UNL A   1      42.915  28.634  33.765  1.00  0.00     0.074 A 
ATOM     57  C   UNL A   1      41.617  28.327  34.306  1.00  0.00     0.031 C 
ATOM     58  C   UNL A   1      40.703  27.668  27.670  1.00  0.00     0.029 A 
ATOM     59  C   UNL A   1      41.935  27.127  28.219  1.00  0.00     0.049 A 
ATOM     60  H   UNL A   1      42.900  27.757  29.960  1.00  0.00     0.167 HD
ATOM     61  C   UNL A   1      44.152  28.354  34.246  1.00  0.00     0.037 A 
ATOM     62  C   UNL A   1      42.728  26.113  27.799  1.00  0.00     0.037 A 
ATOM     63  C   UNL A   1      45.187  29.012  33.497  1.00  0.00     0.049 A 
ATOM     64  C   UNL A   1      44.000  26.189  28.567  1.00  0.00     0.074 A 
ATOM     65  C   UNL A   1      45.515  30.337  33.283  1.00  0.00     0.029 A 
ATOM     66  N   UNL A   1      45.854  28.304  32.529  1.00  0.00    -0.354 N 
ATOM     67  N   UNL A   1      44.885  27.137  28.425  1.00  0.00    -0.248 NA
ATOM     68  C   UNL A   1      44.075  25.453  29.824  1.00  0.00     0.031 C 
ATOM     69  C   UNL A   1      45.970  30.399  31.934  1.00  0.00     0.029 A 
ATOM     70  C   UNL A   1      45.925  29.105  31.414  1.00  0.00     0.049 A 
ATOM     71  H   UNL A   1      46.216  27.393  32.616  1.00  0.00     0.167 HD
ATOM     72  C   UNL A   1      45.357  27.384  29.708  1.00  0.00     0.074 A 
ATOM     73  C   UNL A   1      44.886  26.261  30.512  1.00  0.00     0.031 C 
ATOM     74  C   UNL A   1      45.844  28.611  30.059  1.00  0.00     0.037 A 
BRANCH  61  75
ATOM     75  C   UNL A   1      44.394  27.243  35.218  1.00  0.00     0.064 A 
ATOM     76  C   UNL A   1      44.106  25.917  34.860  1.00  0.00     0.173 A 
ATOM     77  C   UNL A   1      44.674  27.467  36.587  1.00  0.00     0.173 A 
ATOM     78  F   UNL A   1      43.781  25.607  33.597  1.00  0.00    -0.203 F 
ATOM     79  C   UNL A   1      44.080  24.894  35.810  1.00  0.00     0.198 A 
ATOM     80  C   UNL A   1      44.707  26.438  37.519  1.00  0.00     0.198 A 
ATOM     81  F   UNL A   1      44.822  28.702  37.085  1.00  0.00    -0.203 F 
ATOM     82  F   UNL A   1      43.705  23.660  35.448  1.00  0.00    -0.200 F 
ATOM     83  C   UNL A   1      44.386  25.153  37.137  1.00  0.00     0.200 A 
ATOM     84  F   UNL A   1      44.984  26.715  38.800  1.00  0.00    -0.200 F 
ATOM     85  F   UNL A   1      44.323  24.179  38.054  1.00  0.00    -0.200 F 
ENDBRANCH  61  75
BRANCH  62  86
ATOM     86  C   UNL A   1      42.300  24.891  27.079  1.00  0.00     0.064 A 
ATOM     87  C   UNL A   1      43.048  24.385  26.007  1.00  0.00     0.173 A 
ATOM     88  C   UNL A   1      41.295  24.048  27.598  1.00  0.00     0.173 A 
ATOM     89  F   UNL A   1      44.056  25.104  25.491  1.00  0.00    -0.203 F 
ATOM     90  C   UNL A   1      42.816  23.104  25.494  1.00  0.00     0.198 A 
ATOM     91  C   UNL A   1      41.058  22.776  27.079  1.00  0.00     0.198 A 
ATOM     92  F   UNL A   1      40.587  24.403  28.680  1.00  0.00    -0.203 F 
ATOM     93  F   UNL A   1      43.589  22.629  24.508  1.00  0.00    -0.200 F 
ATOM     94  C   UNL A   1      41.827  22.299  26.036  1.00  0.00     0.200 A 
ATOM     95  F   UNL A   1      40.123  21.995  27.638  1.00  0.00    -0.200 F 
ATOM     96  F   UNL A   1      41.643  21.052  25.582  1.00  0.00    -0.200 F 
ENDBRANCH  62  86
BRANCH  74  97
ATOM     97  C   UNL A   1      46.064  29.610  28.955  1.00  0.00     0.064 A 
ATOM     98  C   UNL A   1      45.055  30.463  28.470  1.00  0.00     0.173 A 
ATOM     99  C   UNL A   1      47.363  29.814  28.475  1.00  0.00     0.173 A 
ATOM    100  F   UNL A   1      43.811  30.404  28.960  1.00  0.00    -0.203 F 
ATOM    101  C   UNL A   1      45.330  31.437  27.511  1.00  0.00     0.198 A 
ATOM    102  C   UNL A   1      47.642  30.814  27.545  1.00  0.00     0.198 A 
ATOM    103  F   UNL A   1      48.378  29.073  28.946  1.00  0.00    -0.203 F 
ATOM    104  F   UNL A   1      44.346  32.227  27.054  1.00  0.00    -0.200 F 
ATOM    105  C   UNL A   1      46.624  31.616  27.055  1.00  0.00     0.200 A 
ATOM    106  F   UNL A   1      48.904  31.017  27.144  1.00  0.00    -0.200 F 
ATOM    107  F   UNL A   1      46.897  32.580  26.164  1.00  0.00    -0.200 F 
ENDBRANCH  74  97
ENDBRANCH  48  49
ENDBRANCH  41  43
ENDBRANCH  40  41
ENDBRANCH  39  40
ENDBRANCH  38  39
ENDBRANCH  37  38
ENDBRANCH  36  37
ENDBRANCH  35  36
ENDBRANCH  34  35
ENDBRANCH  33  34
ENDBRANCH   1  33
TORSDOF 26
ENDMDL
