MODEL 1
REMARK VINA RESULT:      -9.9      0.000      0.000
REMARK SMILES Cc1nc(N2CCN(c3ccccc3)CC2)nc(OCC(=O)OCCOCCOCCOCCOC(=O)c2ccc(-c3c4nc(c(-c5c(F)c(F)c(F)c(F)c5F)c5ccc([nH]5)c(-c5c(F)c(F)c(F)c(F)c5F)c5nc(c(-c6c(F)c(F)c(F)c(F)c6F)c6ccc3[nH]6)C=C5)C=C4)cc2)c1C
REMARK SMILES IDX 28 1 27 2 26 3 25 4 24 5 23 6 21 7 22 8 20 9 19 10 18 11
REMARK SMILES IDX 1 12 2 13 3 14 101 15 4 16 102 17 17 18 5 19 6 20 16 21 7 22
REMARK SMILES IDX 15 23 8 24 9 25 10 26 14 27 11 28 13 29 12 30 29 31 30 32
REMARK SMILES IDX 31 33 32 34 33 35 34 36 35 37 36 38 37 39 38 40 39 41 100 42
REMARK SMILES IDX 40 43 99 44 41 45 42 46 43 47 93 48 44 49 98 50 92 51 94 52
REMARK SMILES IDX 45 53 97 54 91 55 90 56 46 58 78 59 58 60 77 61 59 62 62 63
REMARK SMILES IDX 76 64 95 65 60 66 61 67 75 69 96 70 63 71 47 72 48 73 56 74
REMARK SMILES IDX 49 75 50 76 54 77 57 78 51 79 52 80 55 81 53 82 79 83 80 84
REMARK SMILES IDX 88 85 81 86 82 87 86 88 89 89 83 90 84 91 87 92 85 93 64 94
REMARK SMILES IDX 65 95 73 96 66 97 67 98 71 99 74 100 68 101 69 102 72 103
REMARK SMILES IDX 70 104
REMARK H PARENT 94 57 62 68
REMARK Flexibility Score: inf
ROOT
ATOM      1  C   UNL A   1      31.790  30.543  25.980  1.00  0.00     0.188 C 
ENDROOT
BRANCH   1   2
ATOM      2  C   UNL A   1      32.063  29.187  25.289  1.00  0.00     0.188 C 
BRANCH   2   3
ATOM      3  O   UNL A   1      31.980  28.058  26.123  1.00  0.00    -0.376 OA
BRANCH   3   4
ATOM      4  C   UNL A   1      33.116  27.267  26.387  1.00  0.00     0.202 C 
BRANCH   4   5
ATOM      5  C   UNL A   1      33.669  26.172  25.448  1.00  0.00     0.261 C 
BRANCH   5   6
ATOM      6  O   UNL A   1      33.756  26.418  24.033  1.00  0.00    -0.461 OA
BRANCH   6   7
ATOM      7  C   UNL A   1      32.752  25.960  23.241  1.00  0.00     0.344 C 
ATOM      8  O   UNL A   1      31.563  26.153  23.474  1.00  0.00    -0.248 OA
BRANCH   7   9
ATOM      9  C   UNL A   1      33.244  25.117  22.036  1.00  0.00     0.353 C 
BRANCH   9  10
ATOM     10  O   UNL A   1      33.996  23.932  22.125  1.00  0.00    -0.465 OA
BRANCH  10  11
ATOM     11  C   UNL A   1      34.017  23.016  23.128  1.00  0.00     0.221 A 
ATOM     12  C   UNL A   1      32.926  19.713  24.558  1.00  0.00     0.067 C 
ATOM     13  C   UNL A   1      33.640  21.013  24.288  1.00  0.00     0.050 A 
ATOM     14  N   UNL A   1      34.837  21.124  24.912  1.00  0.00    -0.218 NA
ATOM     15  C   UNL A   1      33.146  21.968  23.385  1.00  0.00     0.033 A 
ATOM     16  C   UNL A   1      35.559  22.220  24.682  1.00  0.00     0.229 A 
ATOM     17  C   UNL A   1      31.785  21.814  22.785  1.00  0.00     0.052 C 
ATOM     18  N   UNL A   1      35.170  23.164  23.819  1.00  0.00    -0.177 NA
BRANCH  16  19
ATOM     19  N   UNL A   1      36.804  22.359  25.244  1.00  0.00    -0.337 N 
ATOM     20  C   UNL A   1      37.382  23.696  25.366  1.00  0.00     0.141 C 
ATOM     21  C   UNL A   1      37.775  21.291  25.004  1.00  0.00     0.141 C 
ATOM     22  C   UNL A   1      38.417  23.712  26.515  1.00  0.00     0.138 C 
ATOM     23  C   UNL A   1      38.871  21.303  26.102  1.00  0.00     0.138 C 
ATOM     24  N   UNL A   1      39.414  22.663  26.289  1.00  0.00    -0.368 N 
BRANCH  24  25
ATOM     25  C   UNL A   1      40.717  22.831  26.709  1.00  0.00     0.037 A 
ATOM     26  C   UNL A   1      41.782  22.070  26.216  1.00  0.00     0.026 A 
ATOM     27  C   UNL A   1      40.990  23.769  27.712  1.00  0.00     0.026 A 
ATOM     28  C   UNL A   1      43.080  22.238  26.716  1.00  0.00     0.002 A 
ATOM     29  C   UNL A   1      42.277  23.928  28.230  1.00  0.00     0.002 A 
ATOM     30  C   UNL A   1      43.324  23.161  27.729  1.00  0.00     0.000 A 
ENDBRANCH  24  25
ENDBRANCH  16  19
ENDBRANCH  10  11
ENDBRANCH   9  10
ENDBRANCH   7   9
ENDBRANCH   6   7
ENDBRANCH   5   6
ENDBRANCH   4   5
ENDBRANCH   3   4
ENDBRANCH   2   3
ENDBRANCH   1   2
BRANCH   1  31
ATOM     31  O   UNL A   1      32.359  30.962  27.210  1.00  0.00    -0.377 OA
BRANCH  31  32
ATOM     32  C   UNL A   1      33.743  31.203  27.263  1.00  0.00     0.188 C 
BRANCH  32  33
ATOM     33  C   UNL A   1      34.169  32.274  28.277  1.00  0.00     0.188 C 
BRANCH  33  34
ATOM     34  O   UNL A   1      34.759  33.421  27.681  1.00  0.00    -0.376 OA
BRANCH  34  35
ATOM     35  C   UNL A   1      34.638  34.662  28.362  1.00  0.00     0.202 C 
BRANCH  35  36
ATOM     36  C   UNL A   1      33.271  35.073  28.922  1.00  0.00     0.261 C 
BRANCH  36  37
ATOM     37  O   UNL A   1      32.927  34.581  30.220  1.00  0.00    -0.460 OA
BRANCH  37  38
ATOM     38  C   UNL A   1      33.159  35.365  31.295  1.00  0.00     0.338 C 
ATOM     39  O   UNL A   1      32.504  36.289  31.695  1.00  0.00    -0.246 OA
BRANCH  38  40
ATOM     40  C   UNL A   1      34.272  34.700  32.014  1.00  0.00     0.060 A 
ATOM     41  C   UNL A   1      35.549  35.261  31.918  1.00  0.00     0.016 A 
ATOM     42  C   UNL A   1      34.031  33.613  32.861  1.00  0.00     0.016 A 
ATOM     43  C   UNL A   1      36.582  34.762  32.705  1.00  0.00     0.010 A 
ATOM     44  C   UNL A   1      35.079  33.079  33.614  1.00  0.00     0.010 A 
ATOM     45  C   UNL A   1      36.359  33.648  33.527  1.00  0.00    -0.014 A 
BRANCH  45  46
ATOM     46  C   UNL A   1      37.541  32.934  34.052  1.00  0.00     0.031 A 
ATOM     47  C   UNL A   1      38.120  31.859  33.180  1.00  0.00     0.074 A 
ATOM     48  C   UNL A   1      38.132  33.291  35.205  1.00  0.00     0.049 A 
ATOM     49  N   UNL A   1      39.212  31.160  33.336  1.00  0.00    -0.248 NA
ATOM     50  C   UNL A   1      37.371  31.543  31.950  1.00  0.00     0.031 C 
ATOM     51  C   UNL A   1      37.671  34.350  36.099  1.00  0.00     0.029 A 
ATOM     52  N   UNL A   1      39.265  32.808  35.808  1.00  0.00    -0.354 N 
ATOM     53  C   UNL A   1      39.292  30.348  32.214  1.00  0.00     0.074 A 
ATOM     54  C   UNL A   1      38.121  30.597  31.408  1.00  0.00     0.031 C 
ATOM     55  C   UNL A   1      38.522  34.442  37.137  1.00  0.00     0.029 A 
ATOM     56  C   UNL A   1      39.577  33.440  36.986  1.00  0.00     0.049 A 
ATOM     57  H   UNL A   1      39.805  32.076  35.430  1.00  0.00     0.167 HD
ATOM     58  C   UNL A   1      40.275  29.485  31.874  1.00  0.00     0.037 A 
ATOM     59  C   UNL A   1      40.600  33.224  37.837  1.00  0.00     0.037 A 
ATOM     60  C   UNL A   1      41.422  29.226  32.695  1.00  0.00     0.049 A 
ATOM     61  C   UNL A   1      41.626  32.171  37.491  1.00  0.00     0.074 A 
ATOM     62  C   UNL A   1      42.470  28.359  32.458  1.00  0.00     0.029 A 
ATOM     63  N   UNL A   1      41.660  29.827  33.923  1.00  0.00    -0.354 N 
ATOM     64  N   UNL A   1      41.720  31.432  36.411  1.00  0.00    -0.248 NA
ATOM     65  C   UNL A   1      42.687  31.922  38.478  1.00  0.00     0.031 C 
ATOM     66  C   UNL A   1      43.316  28.392  33.570  1.00  0.00     0.029 A 
ATOM     67  C   UNL A   1      42.826  29.325  34.473  1.00  0.00     0.049 A 
ATOM     68  H   UNL A   1      41.086  30.510  34.341  1.00  0.00     0.167 HD
ATOM     69  C   UNL A   1      42.857  30.652  36.575  1.00  0.00     0.074 A 
ATOM     70  C   UNL A   1      43.430  31.016  37.855  1.00  0.00     0.031 C 
ATOM     71  C   UNL A   1      43.379  29.716  35.745  1.00  0.00     0.037 A 
BRANCH  58  72
ATOM     72  C   UNL A   1      40.137  28.753  30.575  1.00  0.00     0.064 A 
ATOM     73  C   UNL A   1      39.421  27.549  30.486  1.00  0.00     0.173 A 
ATOM     74  C   UNL A   1      40.693  29.277  29.400  1.00  0.00     0.173 A 
ATOM     75  F   UNL A   1      38.891  26.995  31.586  1.00  0.00    -0.203 F 
ATOM     76  C   UNL A   1      39.279  26.890  29.268  1.00  0.00     0.198 A 
ATOM     77  C   UNL A   1      40.524  28.631  28.179  1.00  0.00     0.198 A 
ATOM     78  F   UNL A   1      41.393  30.422  29.434  1.00  0.00    -0.203 F 
ATOM     79  F   UNL A   1      38.625  25.722  29.212  1.00  0.00    -0.200 F 
ATOM     80  C   UNL A   1      39.821  27.437  28.114  1.00  0.00     0.200 A 
ATOM     81  F   UNL A   1      41.039  29.165  27.064  1.00  0.00    -0.200 F 
ATOM     82  F   UNL A   1      39.669  26.811  26.940  1.00  0.00    -0.200 F 
ENDBRANCH  58  72
BRANCH  59  83
ATOM     83  C   UNL A   1      40.715  34.028  39.084  1.00  0.00     0.064 A 
ATOM     84  C   UNL A   1      41.441  35.228  39.110  1.00  0.00     0.173 A 
ATOM     85  C   UNL A   1      40.100  33.616  40.276  1.00  0.00     0.173 A 
ATOM     86  F   UNL A   1      42.071  35.653  38.006  1.00  0.00    -0.203 F 
ATOM     87  C   UNL A   1      41.550  35.979  40.280  1.00  0.00     0.198 A 
ATOM     88  C   UNL A   1      40.187  34.383  41.437  1.00  0.00     0.198 A 
ATOM     89  F   UNL A   1      39.400  32.473  40.311  1.00  0.00    -0.203 F 
ATOM     90  F   UNL A   1      42.278  37.105  40.286  1.00  0.00    -0.200 F 
ATOM     91  C   UNL A   1      40.915  35.561  41.439  1.00  0.00     0.200 A 
ATOM     92  F   UNL A   1      39.562  33.979  42.553  1.00  0.00    -0.200 F 
ATOM     93  F   UNL A   1      41.011  36.291  42.560  1.00  0.00    -0.200 F 
ENDBRANCH  59  83
BRANCH  71  94
ATOM     94  C   UNL A   1      44.640  29.020  36.169  1.00  0.00     0.064 A 
ATOM     95  C   UNL A   1      45.901  29.585  35.928  1.00  0.00     0.173 A 
ATOM     96  C   UNL A   1      44.579  27.850  36.942  1.00  0.00     0.173 A 
ATOM     97  F   UNL A   1      46.010  30.699  35.188  1.00  0.00    -0.203 F 
ATOM     98  C   UNL A   1      47.053  29.001  36.443  1.00  0.00     0.198 A 
ATOM     99  C   UNL A   1      45.731  27.288  37.481  1.00  0.00     0.198 A 
ATOM    100  F   UNL A   1      43.394  27.280  37.213  1.00  0.00    -0.203 F 
ATOM    101  F   UNL A   1      48.250  29.546  36.185  1.00  0.00    -0.200 F 
ATOM    102  C   UNL A   1      46.967  27.863  37.232  1.00  0.00     0.200 A 
ATOM    103  F   UNL A   1      45.642  26.202  38.262  1.00  0.00    -0.200 F 
ATOM    104  F   UNL A   1      48.076  27.323  37.755  1.00  0.00    -0.200 F 
ENDBRANCH  71  94
ENDBRANCH  45  46
ENDBRANCH  38  40
ENDBRANCH  37  38
ENDBRANCH  36  37
ENDBRANCH  35  36
ENDBRANCH  34  35
ENDBRANCH  33  34
ENDBRANCH  32  33
ENDBRANCH  31  32
ENDBRANCH   1  31
TORSDOF 24
ENDMDL
MODEL 2
REMARK VINA RESULT:      -8.6     10.918     15.696
REMARK SMILES Cc1nc(N2CCN(c3ccccc3)CC2)nc(OCC(=O)OCCOCCOCCOCCOC(=O)c2ccc(-c3c4nc(c(-c5c(F)c(F)c(F)c(F)c5F)c5ccc([nH]5)c(-c5c(F)c(F)c(F)c(F)c5F)c5nc(c(-c6c(F)c(F)c(F)c(F)c6F)c6ccc3[nH]6)C=C5)C=C4)cc2)c1C
REMARK SMILES IDX 28 1 27 2 26 3 25 4 24 5 23 6 21 7 22 8 20 9 19 10 18 11
REMARK SMILES IDX 1 12 2 13 3 14 101 15 4 16 102 17 17 18 5 19 6 20 16 21 7 22
REMARK SMILES IDX 15 23 8 24 9 25 10 26 14 27 11 28 13 29 12 30 29 31 30 32
REMARK SMILES IDX 31 33 32 34 33 35 34 36 35 37 36 38 37 39 38 40 39 41 100 42
REMARK SMILES IDX 40 43 99 44 41 45 42 46 43 47 93 48 44 49 98 50 92 51 94 52
REMARK SMILES IDX 45 53 97 54 91 55 90 56 46 58 78 59 58 60 77 61 59 62 62 63
REMARK SMILES IDX 76 64 95 65 60 66 61 67 75 69 96 70 63 71 47 72 48 73 56 74
REMARK SMILES IDX 49 75 50 76 54 77 57 78 51 79 52 80 55 81 53 82 79 83 80 84
REMARK SMILES IDX 88 85 81 86 82 87 86 88 89 89 83 90 84 91 87 92 85 93 64 94
REMARK SMILES IDX 65 95 73 96 66 97 67 98 71 99 74 100 68 101 69 102 72 103
REMARK SMILES IDX 70 104
REMARK H PARENT 94 57 62 68
REMARK Flexibility Score: inf
ROOT
ATOM      1  C   UNL A   1      47.938  44.727  26.702  1.00  0.00     0.188 C 
ENDROOT
BRANCH   1   2
ATOM      2  C   UNL A   1      46.397  44.624  26.614  1.00  0.00     0.188 C 
BRANCH   2   3
ATOM      3  O   UNL A   1      45.907  43.528  25.882  1.00  0.00    -0.376 OA
BRANCH   3   4
ATOM      4  C   UNL A   1      44.522  43.335  25.706  1.00  0.00     0.202 C 
BRANCH   4   5
ATOM      5  C   UNL A   1      43.871  42.673  24.472  1.00  0.00     0.261 C 
BRANCH   5   6
ATOM      6  O   UNL A   1      42.618  43.171  23.969  1.00  0.00    -0.461 OA
BRANCH   6   7
ATOM      7  C   UNL A   1      41.721  42.272  23.484  1.00  0.00     0.344 C 
ATOM      8  O   UNL A   1      41.263  41.347  24.147  1.00  0.00    -0.248 OA
BRANCH   7   9
ATOM      9  C   UNL A   1      41.367  42.489  21.990  1.00  0.00     0.353 C 
BRANCH   9  10
ATOM     10  O   UNL A   1      41.589  43.673  21.265  1.00  0.00    -0.465 OA
BRANCH  10  11
ATOM     11  C   UNL A   1      42.273  43.838  20.103  1.00  0.00     0.221 A 
ATOM     12  C   UNL A   1      42.532  45.290  16.643  1.00  0.00     0.067 C 
ATOM     13  C   UNL A   1      42.829  44.643  17.971  1.00  0.00     0.050 A 
ATOM     14  N   UNL A   1      44.150  44.572  18.266  1.00  0.00    -0.218 NA
ATOM     15  C   UNL A   1      41.816  44.250  18.859  1.00  0.00     0.033 A 
ATOM     16  C   UNL A   1      44.497  44.064  19.448  1.00  0.00     0.229 A 
ATOM     17  C   UNL A   1      40.381  44.290  18.441  1.00  0.00     0.052 C 
ATOM     18  N   UNL A   1      43.592  43.688  20.358  1.00  0.00    -0.177 NA
BRANCH  16  19
ATOM     19  N   UNL A   1      45.817  44.020  19.822  1.00  0.00    -0.337 N 
ATOM     20  C   UNL A   1      46.738  45.022  19.291  1.00  0.00     0.141 C 
ATOM     21  C   UNL A   1      46.410  42.701  20.047  1.00  0.00     0.141 C 
ATOM     22  C   UNL A   1      47.938  45.186  20.253  1.00  0.00     0.138 C 
ATOM     23  C   UNL A   1      47.658  42.820  20.962  1.00  0.00     0.138 C 
ATOM     24  N   UNL A   1      48.564  43.881  20.480  1.00  0.00    -0.368 N 
BRANCH  24  25
ATOM     25  C   UNL A   1      49.920  43.783  20.711  1.00  0.00     0.037 A 
ATOM     26  C   UNL A   1      50.554  44.377  21.807  1.00  0.00     0.026 A 
ATOM     27  C   UNL A   1      50.717  43.102  19.782  1.00  0.00     0.026 A 
ATOM     28  C   UNL A   1      51.943  44.298  21.967  1.00  0.00     0.002 A 
ATOM     29  C   UNL A   1      52.105  43.037  19.922  1.00  0.00     0.002 A 
ATOM     30  C   UNL A   1      52.719  43.635  21.019  1.00  0.00     0.000 A 
ENDBRANCH  24  25
ENDBRANCH  16  19
ENDBRANCH  10  11
ENDBRANCH   9  10
ENDBRANCH   7   9
ENDBRANCH   6   7
ENDBRANCH   5   6
ENDBRANCH   4   5
ENDBRANCH   3   4
ENDBRANCH   2   3
ENDBRANCH   1   2
BRANCH   1  31
ATOM     31  O   UNL A   1      48.826  43.624  26.800  1.00  0.00    -0.377 OA
BRANCH  31  32
ATOM     32  C   UNL A   1      49.225  43.195  28.077  1.00  0.00     0.188 C 
BRANCH  32  33
ATOM     33  C   UNL A   1      49.290  41.671  28.250  1.00  0.00     0.188 C 
BRANCH  33  34
ATOM     34  O   UNL A   1      48.436  40.960  27.365  1.00  0.00    -0.376 OA
BRANCH  34  35
ATOM     35  C   UNL A   1      47.834  39.764  27.838  1.00  0.00     0.202 C 
BRANCH  35  36
ATOM     36  C   UNL A   1      48.665  38.476  27.873  1.00  0.00     0.261 C 
BRANCH  36  37
ATOM     37  O   UNL A   1      47.948  37.243  27.983  1.00  0.00    -0.460 OA
BRANCH  37  38
ATOM     38  C   UNL A   1      48.344  36.340  28.905  1.00  0.00     0.338 C 
ATOM     39  O   UNL A   1      49.152  36.481  29.784  1.00  0.00    -0.246 OA
BRANCH  38  40
ATOM     40  C   UNL A   1      47.403  35.204  28.751  1.00  0.00     0.060 A 
ATOM     41  C   UNL A   1      47.488  34.148  29.664  1.00  0.00     0.016 A 
ATOM     42  C   UNL A   1      46.382  35.243  27.795  1.00  0.00     0.016 A 
ATOM     43  C   UNL A   1      46.522  33.147  29.651  1.00  0.00     0.010 A 
ATOM     44  C   UNL A   1      45.441  34.213  27.749  1.00  0.00     0.010 A 
ATOM     45  C   UNL A   1      45.519  33.158  28.671  1.00  0.00    -0.014 A 
BRANCH  45  46
ATOM     46  C   UNL A   1      44.750  31.913  28.462  1.00  0.00     0.031 A 
ATOM     47  C   UNL A   1      45.411  30.845  27.640  1.00  0.00     0.074 A 
ATOM     48  C   UNL A   1      43.563  31.703  29.056  1.00  0.00     0.049 A 
ATOM     49  N   UNL A   1      45.020  29.623  27.397  1.00  0.00    -0.248 NA
ATOM     50  C   UNL A   1      46.702  31.200  27.024  1.00  0.00     0.031 C 
ATOM     51  C   UNL A   1      42.862  32.661  29.907  1.00  0.00     0.029 A 
ATOM     52  N   UNL A   1      42.749  30.599  29.047  1.00  0.00    -0.354 N 
ATOM     53  C   UNL A   1      46.029  29.061  26.628  1.00  0.00     0.074 A 
ATOM     54  C   UNL A   1      47.024  30.081  26.399  1.00  0.00     0.031 C 
ATOM     55  C   UNL A   1      41.721  32.098  30.345  1.00  0.00     0.029 A 
ATOM     56  C   UNL A   1      41.608  30.748  29.795  1.00  0.00     0.049 A 
ATOM     57  H   UNL A   1      42.964  29.776  28.549  1.00  0.00     0.167 HD
ATOM     58  C   UNL A   1      46.126  27.792  26.173  1.00  0.00     0.037 A 
ATOM     59  C   UNL A   1      40.594  29.883  30.003  1.00  0.00     0.037 A 
ATOM     60  C   UNL A   1      45.118  26.794  26.385  1.00  0.00     0.049 A 
ATOM     61  C   UNL A   1      40.671  28.507  29.387  1.00  0.00     0.074 A 
ATOM     62  C   UNL A   1      45.104  25.482  25.955  1.00  0.00     0.029 A 
ATOM     63  N   UNL A   1      43.936  27.007  27.080  1.00  0.00    -0.354 N 
ATOM     64  N   UNL A   1      41.643  27.966  28.691  1.00  0.00    -0.248 NA
ATOM     65  C   UNL A   1      39.515  27.621  29.583  1.00  0.00     0.031 C 
ATOM     66  C   UNL A   1      43.886  24.916  26.339  1.00  0.00     0.029 A 
ATOM     67  C   UNL A   1      43.168  25.858  27.062  1.00  0.00     0.049 A 
ATOM     68  H   UNL A   1      43.682  27.851  27.521  1.00  0.00     0.167 HD
ATOM     69  C   UNL A   1      41.230  26.675  28.390  1.00  0.00     0.074 A 
ATOM     70  C   UNL A   1      39.922  26.506  28.989  1.00  0.00     0.031 C 
ATOM     71  C   UNL A   1      41.873  25.715  27.679  1.00  0.00     0.037 A 
BRANCH  58  72
ATOM     72  C   UNL A   1      47.350  27.428  25.391  1.00  0.00     0.064 A 
ATOM     73  C   UNL A   1      47.424  27.642  24.006  1.00  0.00     0.173 A 
ATOM     74  C   UNL A   1      48.473  26.892  26.036  1.00  0.00     0.173 A 
ATOM     75  F   UNL A   1      46.367  28.129  23.340  1.00  0.00    -0.203 F 
ATOM     76  C   UNL A   1      48.576  27.322  23.294  1.00  0.00     0.198 A 
ATOM     77  C   UNL A   1      49.634  26.601  25.325  1.00  0.00     0.198 A 
ATOM     78  F   UNL A   1      48.449  26.661  27.358  1.00  0.00    -0.203 F 
ATOM     79  F   UNL A   1      48.612  27.499  21.967  1.00  0.00    -0.200 F 
ATOM     80  C   UNL A   1      49.684  26.812  23.955  1.00  0.00     0.200 A 
ATOM     81  F   UNL A   1      50.706  26.117  25.967  1.00  0.00    -0.200 F 
ATOM     82  F   UNL A   1      50.798  26.520  23.272  1.00  0.00    -0.200 F 
ENDBRANCH  58  72
BRANCH  59  83
ATOM     83  C   UNL A   1      39.432  30.285  30.841  1.00  0.00     0.064 A 
ATOM     84  C   UNL A   1      38.301  30.888  30.273  1.00  0.00     0.173 A 
ATOM     85  C   UNL A   1      39.425  30.072  32.228  1.00  0.00     0.173 A 
ATOM     86  F   UNL A   1      38.266  31.140  28.956  1.00  0.00    -0.203 F 
ATOM     87  C   UNL A   1      37.213  31.266  31.059  1.00  0.00     0.198 A 
ATOM     88  C   UNL A   1      38.325  30.425  33.009  1.00  0.00     0.198 A 
ATOM     89  F   UNL A   1      40.484  29.507  32.826  1.00  0.00    -0.203 F 
ATOM     90  F   UNL A   1      36.158  31.872  30.494  1.00  0.00    -0.200 F 
ATOM     91  C   UNL A   1      37.222  31.025  32.424  1.00  0.00     0.200 A 
ATOM     92  F   UNL A   1      38.335  30.181  34.327  1.00  0.00    -0.200 F 
ATOM     93  F   UNL A   1      36.170  31.378  33.177  1.00  0.00    -0.200 F 
ENDBRANCH  59  83
BRANCH  71  94
ATOM     94  C   UNL A   1      41.193  24.387  27.512  1.00  0.00     0.064 A 
ATOM     95  C   UNL A   1      40.096  24.233  26.652  1.00  0.00     0.173 A 
ATOM     96  C   UNL A   1      41.729  23.236  28.110  1.00  0.00     0.173 A 
ATOM     97  F   UNL A   1      39.545  25.305  26.064  1.00  0.00    -0.203 F 
ATOM     98  C   UNL A   1      39.559  22.975  26.400  1.00  0.00     0.198 A 
ATOM     99  C   UNL A   1      41.209  21.977  27.830  1.00  0.00     0.198 A 
ATOM    100  F   UNL A   1      42.789  23.329  28.928  1.00  0.00    -0.203 F 
ATOM    101  F   UNL A   1      38.499  22.852  25.590  1.00  0.00    -0.200 F 
ATOM    102  C   UNL A   1      40.125  21.846  26.976  1.00  0.00     0.200 A 
ATOM    103  F   UNL A   1      41.773  20.886  28.368  1.00  0.00    -0.200 F 
ATOM    104  F   UNL A   1      39.627  20.633  26.704  1.00  0.00    -0.200 F 
ENDBRANCH  71  94
ENDBRANCH  45  46
ENDBRANCH  38  40
ENDBRANCH  37  38
ENDBRANCH  36  37
ENDBRANCH  35  36
ENDBRANCH  34  35
ENDBRANCH  33  34
ENDBRANCH  32  33
ENDBRANCH  31  32
ENDBRANCH   1  31
TORSDOF 24
ENDMDL
MODEL 3
REMARK VINA RESULT:      -8.5      6.124     10.756
REMARK SMILES Cc1nc(N2CCN(c3ccccc3)CC2)nc(OCC(=O)OCCOCCOCCOCCOC(=O)c2ccc(-c3c4nc(c(-c5c(F)c(F)c(F)c(F)c5F)c5ccc([nH]5)c(-c5c(F)c(F)c(F)c(F)c5F)c5nc(c(-c6c(F)c(F)c(F)c(F)c6F)c6ccc3[nH]6)C=C5)C=C4)cc2)c1C
REMARK SMILES IDX 28 1 27 2 26 3 25 4 24 5 23 6 21 7 22 8 20 9 19 10 18 11
REMARK SMILES IDX 1 12 2 13 3 14 101 15 4 16 102 17 17 18 5 19 6 20 16 21 7 22
REMARK SMILES IDX 15 23 8 24 9 25 10 26 14 27 11 28 13 29 12 30 29 31 30 32
REMARK SMILES IDX 31 33 32 34 33 35 34 36 35 37 36 38 37 39 38 40 39 41 100 42
REMARK SMILES IDX 40 43 99 44 41 45 42 46 43 47 93 48 44 49 98 50 92 51 94 52
REMARK SMILES IDX 45 53 97 54 91 55 90 56 46 58 78 59 58 60 77 61 59 62 62 63
REMARK SMILES IDX 76 64 95 65 60 66 61 67 75 69 96 70 63 71 47 72 48 73 56 74
REMARK SMILES IDX 49 75 50 76 54 77 57 78 51 79 52 80 55 81 53 82 79 83 80 84
REMARK SMILES IDX 88 85 81 86 82 87 86 88 89 89 83 90 84 91 87 92 85 93 64 94
REMARK SMILES IDX 65 95 73 96 66 97 67 98 71 99 74 100 68 101 69 102 72 103
REMARK SMILES IDX 70 104
REMARK H PARENT 94 57 62 68
REMARK Flexibility Score: inf
ROOT
ATOM      1  C   UNL A   1      44.161  23.505  25.074  1.00  0.00     0.188 C 
ENDROOT
BRANCH   1   2
ATOM      2  C   UNL A   1      42.699  23.040  25.271  1.00  0.00     0.188 C 
BRANCH   2   3
ATOM      3  O   UNL A   1      42.359  22.662  26.582  1.00  0.00    -0.376 OA
BRANCH   3   4
ATOM      4  C   UNL A   1      41.665  23.546  27.434  1.00  0.00     0.202 C 
BRANCH   4   5
ATOM      5  C   UNL A   1      40.138  23.539  27.660  1.00  0.00     0.261 C 
BRANCH   5   6
ATOM      6  O   UNL A   1      39.255  23.964  26.605  1.00  0.00    -0.461 OA
BRANCH   6   7
ATOM      7  C   UNL A   1      38.360  23.064  26.120  1.00  0.00     0.344 C 
ATOM      8  O   UNL A   1      38.593  21.864  26.017  1.00  0.00    -0.248 OA
BRANCH   7   9
ATOM      9  C   UNL A   1      37.026  23.702  25.653  1.00  0.00     0.353 C 
BRANCH   9  10
ATOM     10  O   UNL A   1      35.741  23.226  25.972  1.00  0.00    -0.465 OA
BRANCH  10  11
ATOM     11  C   UNL A   1      34.767  22.792  25.131  1.00  0.00     0.221 A 
ATOM     12  C   UNL A   1      32.527  20.047  23.869  1.00  0.00     0.067 C 
ATOM     13  C   UNL A   1      33.162  21.381  24.163  1.00  0.00     0.050 A 
ATOM     14  N   UNL A   1      32.369  22.443  23.880  1.00  0.00    -0.218 NA
ATOM     15  C   UNL A   1      34.420  21.496  24.775  1.00  0.00     0.033 A 
ATOM     16  C   UNL A   1      32.833  23.659  24.164  1.00  0.00     0.229 A 
ATOM     17  C   UNL A   1      35.272  20.287  24.995  1.00  0.00     0.052 C 
ATOM     18  N   UNL A   1      34.011  23.852  24.767  1.00  0.00    -0.177 NA
BRANCH  16  19
ATOM     19  N   UNL A   1      32.050  24.766  23.949  1.00  0.00    -0.337 N 
ATOM     20  C   UNL A   1      30.657  24.583  23.551  1.00  0.00     0.141 C 
ATOM     21  C   UNL A   1      32.698  25.951  23.385  1.00  0.00     0.141 C 
ATOM     22  C   UNL A   1      29.832  25.827  23.956  1.00  0.00     0.138 C 
ATOM     23  C   UNL A   1      31.874  27.224  23.714  1.00  0.00     0.138 C 
ATOM     24  N   UNL A   1      30.448  27.028  23.386  1.00  0.00    -0.368 N 
BRANCH  24  25
ATOM     25  C   UNL A   1      29.674  28.107  23.017  1.00  0.00     0.037 A 
ATOM     26  C   UNL A   1      28.289  28.154  23.205  1.00  0.00     0.026 A 
ATOM     27  C   UNL A   1      30.286  29.192  22.376  1.00  0.00     0.026 A 
ATOM     28  C   UNL A   1      27.537  29.249  22.761  1.00  0.00     0.002 A 
ATOM     29  C   UNL A   1      29.541  30.278  21.911  1.00  0.00     0.002 A 
ATOM     30  C   UNL A   1      28.163  30.307  22.105  1.00  0.00     0.000 A 
ENDBRANCH  24  25
ENDBRANCH  16  19
ENDBRANCH  10  11
ENDBRANCH   9  10
ENDBRANCH   7   9
ENDBRANCH   6   7
ENDBRANCH   5   6
ENDBRANCH   4   5
ENDBRANCH   3   4
ENDBRANCH   2   3
ENDBRANCH   1   2
BRANCH   1  31
ATOM     31  O   UNL A   1      44.806  24.513  25.835  1.00  0.00    -0.377 OA
BRANCH  31  32
ATOM     32  C   UNL A   1      44.306  25.825  25.773  1.00  0.00     0.188 C 
BRANCH  32  33
ATOM     33  C   UNL A   1      44.112  26.502  27.138  1.00  0.00     0.188 C 
BRANCH  33  34
ATOM     34  O   UNL A   1      42.766  26.495  27.591  1.00  0.00    -0.376 OA
BRANCH  34  35
ATOM     35  C   UNL A   1      41.894  27.506  27.104  1.00  0.00     0.202 C 
BRANCH  35  36
ATOM     36  C   UNL A   1      40.415  27.471  27.509  1.00  0.00     0.261 C 
BRANCH  36  37
ATOM     37  O   UNL A   1      39.831  28.704  27.939  1.00  0.00    -0.460 OA
BRANCH  37  38
ATOM     38  C   UNL A   1      39.462  28.832  29.232  1.00  0.00     0.338 C 
ATOM     39  O   UNL A   1      38.981  28.000  29.954  1.00  0.00    -0.246 OA
BRANCH  38  40
ATOM     40  C   UNL A   1      39.989  30.155  29.646  1.00  0.00     0.060 A 
ATOM     41  C   UNL A   1      41.367  30.283  29.847  1.00  0.00     0.016 A 
ATOM     42  C   UNL A   1      39.150  31.272  29.715  1.00  0.00     0.016 A 
ATOM     43  C   UNL A   1      41.916  31.540  30.077  1.00  0.00     0.010 A 
ATOM     44  C   UNL A   1      39.694  32.527  29.995  1.00  0.00     0.010 A 
ATOM     45  C   UNL A   1      41.078  32.659  30.187  1.00  0.00    -0.014 A 
BRANCH  45  46
ATOM     46  C   UNL A   1      41.644  33.885  30.785  1.00  0.00     0.031 A 
ATOM     47  C   UNL A   1      41.496  34.041  32.270  1.00  0.00     0.074 A 
ATOM     48  C   UNL A   1      42.345  34.772  30.057  1.00  0.00     0.049 A 
ATOM     49  N   UNL A   1      41.994  34.950  33.065  1.00  0.00    -0.248 NA
ATOM     50  C   UNL A   1      40.689  33.015  32.956  1.00  0.00     0.031 C 
ATOM     51  C   UNL A   1      42.581  34.686  28.618  1.00  0.00     0.029 A 
ATOM     52  N   UNL A   1      43.005  35.911  30.441  1.00  0.00    -0.354 N 
ATOM     53  C   UNL A   1      41.584  34.587  34.340  1.00  0.00     0.074 A 
ATOM     54  C   UNL A   1      40.758  33.410  34.216  1.00  0.00     0.031 C 
ATOM     55  C   UNL A   1      43.342  35.729  28.241  1.00  0.00     0.029 A 
ATOM     56  C   UNL A   1      43.633  36.561  29.408  1.00  0.00     0.049 A 
ATOM     57  H   UNL A   1      43.026  36.233  31.372  1.00  0.00     0.167 HD
ATOM     58  C   UNL A   1      41.894  35.175  35.517  1.00  0.00     0.037 A 
ATOM     59  C   UNL A   1      44.358  37.698  29.417  1.00  0.00     0.037 A 
ATOM     60  C   UNL A   1      42.695  36.359  35.626  1.00  0.00     0.049 A 
ATOM     61  C   UNL A   1      44.594  38.401  30.732  1.00  0.00     0.074 A 
ATOM     62  C   UNL A   1      43.057  37.050  36.765  1.00  0.00     0.029 A 
ATOM     63  N   UNL A   1      43.247  37.036  34.546  1.00  0.00    -0.354 N 
ATOM     64  N   UNL A   1      44.238  38.036  31.942  1.00  0.00    -0.248 NA
ATOM     65  C   UNL A   1      45.332  39.672  30.688  1.00  0.00     0.031 C 
ATOM     66  C   UNL A   1      43.781  38.179  36.372  1.00  0.00     0.029 A 
ATOM     67  C   UNL A   1      43.921  38.158  34.992  1.00  0.00     0.049 A 
ATOM     68  H   UNL A   1      43.170  36.758  33.604  1.00  0.00     0.167 HD
ATOM     69  C   UNL A   1      44.726  39.012  32.800  1.00  0.00     0.074 A 
ATOM     70  C   UNL A   1      45.417  39.982  31.976  1.00  0.00     0.031 C 
ATOM     71  C   UNL A   1      44.612  39.100  34.148  1.00  0.00     0.037 A 
BRANCH  58  72
ATOM     72  C   UNL A   1      41.349  34.554  36.766  1.00  0.00     0.064 A 
ATOM     73  C   UNL A   1      40.095  34.920  37.278  1.00  0.00     0.173 A 
ATOM     74  C   UNL A   1      42.071  33.558  37.439  1.00  0.00     0.173 A 
ATOM     75  F   UNL A   1      39.378  35.885  36.683  1.00  0.00    -0.203 F 
ATOM     76  C   UNL A   1      39.588  34.319  38.426  1.00  0.00     0.198 A 
ATOM     77  C   UNL A   1      41.548  32.938  38.571  1.00  0.00     0.198 A 
ATOM     78  F   UNL A   1      43.278  33.179  36.994  1.00  0.00    -0.203 F 
ATOM     79  F   UNL A   1      38.406  34.710  38.919  1.00  0.00    -0.200 F 
ATOM     80  C   UNL A   1      40.310  33.320  39.065  1.00  0.00     0.200 A 
ATOM     81  F   UNL A   1      42.241  31.968  39.181  1.00  0.00    -0.200 F 
ATOM     82  F   UNL A   1      39.814  32.731  40.161  1.00  0.00    -0.200 F 
ENDBRANCH  58  72
BRANCH  59  83
ATOM     83  C   UNL A   1      44.925  38.232  28.149  1.00  0.00     0.064 A 
ATOM     84  C   UNL A   1      44.278  39.254  27.439  1.00  0.00     0.173 A 
ATOM     85  C   UNL A   1      46.126  37.735  27.621  1.00  0.00     0.173 A 
ATOM     86  F   UNL A   1      43.114  39.746  27.885  1.00  0.00    -0.203 F 
ATOM     87  C   UNL A   1      44.809  39.752  26.249  1.00  0.00     0.198 A 
ATOM     88  C   UNL A   1      46.669  38.253  26.446  1.00  0.00     0.198 A 
ATOM     89  F   UNL A   1      46.782  36.751  28.254  1.00  0.00    -0.203 F 
ATOM     90  F   UNL A   1      44.152  40.706  25.573  1.00  0.00    -0.200 F 
ATOM     91  C   UNL A   1      46.008  39.259  25.759  1.00  0.00     0.200 A 
ATOM     92  F   UNL A   1      47.834  37.779  25.982  1.00  0.00    -0.200 F 
ATOM     93  F   UNL A   1      46.522  39.747  24.622  1.00  0.00    -0.200 F 
ENDBRANCH  59  83
BRANCH  71  94
ATOM     94  C   UNL A   1      45.252  40.271  34.836  1.00  0.00     0.064 A 
ATOM     95  C   UNL A   1      46.523  40.167  35.419  1.00  0.00     0.173 A 
ATOM     96  C   UNL A   1      44.649  41.538  34.790  1.00  0.00     0.173 A 
ATOM     97  F   UNL A   1      47.136  38.976  35.493  1.00  0.00    -0.203 F 
ATOM     98  C   UNL A   1      47.165  41.289  35.933  1.00  0.00     0.198 A 
ATOM     99  C   UNL A   1      45.308  42.661  35.276  1.00  0.00     0.198 A 
ATOM    100  F   UNL A   1      43.440  41.691  34.228  1.00  0.00    -0.203 F 
ATOM    101  F   UNL A   1      48.371  41.165  36.504  1.00  0.00    -0.200 F 
ATOM    102  C   UNL A   1      46.565  42.537  35.847  1.00  0.00     0.200 A 
ATOM    103  F   UNL A   1      44.737  43.869  35.171  1.00  0.00    -0.200 F 
ATOM    104  F   UNL A   1      47.201  43.621  36.313  1.00  0.00    -0.200 F 
ENDBRANCH  71  94
ENDBRANCH  45  46
ENDBRANCH  38  40
ENDBRANCH  37  38
ENDBRANCH  36  37
ENDBRANCH  35  36
ENDBRANCH  34  35
ENDBRANCH  33  34
ENDBRANCH  32  33
ENDBRANCH  31  32
ENDBRANCH   1  31
TORSDOF 24
ENDMDL
