MODEL 1
REMARK VINA RESULT:     -10.3      0.000      0.000
REMARK SMILES Cc1cc(=O)c(Oc2ccc(C(=O)OCCOCCOCCOCCOC(=O)c3ccc(-c4c5nc(c(-c6c(F)c(F)c(F)c(F)c6F)c6ccc([nH]6)c(-c6c(F)c(F)c(F)c(F)c6F)c6nc(c(-c7c(F)c(F)c(F)c(F)c7F)c7ccc4[nH]7)C=C6)C=C5)cc3)cc2)c(-c2ccc(S(C)(=O)=O)cc2)o1
REMARK SMILES IDX 19 1 18 2 17 3 16 4 15 5 14 6 12 7 13 8 11 9 8 10 9 11 93 12
REMARK SMILES IDX 10 13 92 14 7 15 6 16 1 17 2 18 3 19 105 20 4 21 94 22 5 23
REMARK SMILES IDX 95 24 96 25 104 26 97 27 103 28 98 29 99 30 100 31 101 32
REMARK SMILES IDX 102 33 20 34 21 35 22 36 23 37 24 38 25 39 26 40 27 41 28 42
REMARK SMILES IDX 29 43 30 44 91 45 31 46 90 47 32 48 33 49 34 50 84 51 35 52
REMARK SMILES IDX 89 53 83 54 85 55 36 56 88 57 82 58 81 59 37 61 69 62 49 63
REMARK SMILES IDX 68 64 50 65 53 66 67 67 86 68 51 69 52 70 66 72 87 73 54 74
REMARK SMILES IDX 38 75 39 76 47 77 40 78 41 79 45 80 48 81 42 82 43 83 46 84
REMARK SMILES IDX 44 85 70 86 71 87 79 88 72 89 73 90 77 91 80 92 74 93 75 94
REMARK SMILES IDX 78 95 76 96 55 97 56 98 64 99 57 100 58 101 62 102 65 103
REMARK SMILES IDX 59 104 60 105 63 106 61 107
REMARK H PARENT 85 60 53 71
REMARK Flexibility Score: inf
ROOT
ATOM      1  C   UNL A   1      34.754  23.796  24.436  1.00  0.00     0.188 C 
ENDROOT
BRANCH   1   2
ATOM      2  C   UNL A   1      34.238  25.208  24.419  1.00  0.00     0.188 C 
BRANCH   2   3
ATOM      3  O   UNL A   1      33.109  25.433  25.252  1.00  0.00    -0.376 OA
BRANCH   3   4
ATOM      4  C   UNL A   1      33.268  26.580  26.101  1.00  0.00     0.202 C 
BRANCH   4   5
ATOM      5  C   UNL A   1      31.959  27.096  26.733  1.00  0.00     0.261 C 
BRANCH   5   6
ATOM      6  O   UNL A   1      32.021  28.462  27.216  1.00  0.00    -0.460 OA
BRANCH   6   7
ATOM      7  C   UNL A   1      31.872  29.470  26.318  1.00  0.00     0.338 C 
ATOM      8  O   UNL A   1      31.249  29.396  25.273  1.00  0.00    -0.246 OA
BRANCH   7   9
ATOM      9  C   UNL A   1      32.405  30.753  26.897  1.00  0.00     0.060 A 
ATOM     10  C   UNL A   1      33.584  33.172  27.779  1.00  0.00     0.127 A 
ATOM     11  C   UNL A   1      34.287  31.977  27.880  1.00  0.00     0.048 A 
ATOM     12  C   UNL A   1      32.273  33.150  27.283  1.00  0.00     0.048 A 
ATOM     13  C   UNL A   1      33.712  30.778  27.414  1.00  0.00     0.019 A 
ATOM     14  C   UNL A   1      31.685  31.954  26.848  1.00  0.00     0.019 A 
BRANCH  10  15
ATOM     15  O   UNL A   1      33.983  34.365  28.313  1.00  0.00    -0.449 OA
BRANCH  15  16
ATOM     16  C   UNL A   1      33.918  34.785  29.629  1.00  0.00     0.217 A 
ATOM     17  C   UNL A   1      33.767  36.814  33.450  1.00  0.00     0.088 C 
ATOM     18  C   UNL A   1      33.679  36.169  32.104  1.00  0.00     0.105 A 
ATOM     19  C   UNL A   1      32.953  36.653  31.095  1.00  0.00     0.098 A 
ATOM     20  O   UNL A   1      34.427  35.022  31.984  1.00  0.00    -0.457 OA
ATOM     21  C   UNL A   1      32.983  35.952  29.802  1.00  0.00     0.228 A 
ATOM     22  C   UNL A   1      34.581  34.401  30.748  1.00  0.00     0.180 A 
ATOM     23  O   UNL A   1      32.269  36.358  28.889  1.00  0.00    -0.285 OA
BRANCH  22  24
ATOM     24  C   UNL A   1      35.572  33.330  30.882  1.00  0.00     0.021 A 
ATOM     25  C   UNL A   1      35.256  32.178  31.628  1.00  0.00     0.013 A 
ATOM     26  C   UNL A   1      36.864  33.487  30.385  1.00  0.00     0.013 A 
ATOM     27  C   UNL A   1      36.187  31.148  31.790  1.00  0.00     0.021 A 
ATOM     28  C   UNL A   1      37.796  32.471  30.574  1.00  0.00     0.021 A 
ATOM     29  C   UNL A   1      37.453  31.294  31.237  1.00  0.00     0.067 A 
BRANCH  29  30
ATOM     30  S   UNL A   1      38.595  29.930  31.225  1.00  0.00     0.175 S 
ATOM     31  C   UNL A   1      37.802  28.699  30.227  1.00  0.00     0.163 C 
ATOM     32  O   UNL A   1      39.788  30.375  30.529  1.00  0.00    -0.224 OA
ATOM     33  O   UNL A   1      38.682  29.443  32.588  1.00  0.00    -0.224 OA
ENDBRANCH  29  30
ENDBRANCH  22  24
ENDBRANCH  15  16
ENDBRANCH  10  15
ENDBRANCH   7   9
ENDBRANCH   6   7
ENDBRANCH   5   6
ENDBRANCH   4   5
ENDBRANCH   3   4
ENDBRANCH   2   3
ENDBRANCH   1   2
BRANCH   1  34
ATOM     34  O   UNL A   1      36.157  23.675  24.328  1.00  0.00    -0.377 OA
BRANCH  34  35
ATOM     35  C   UNL A   1      36.575  22.328  24.189  1.00  0.00     0.188 C 
BRANCH  35  36
ATOM     36  C   UNL A   1      37.354  21.668  25.353  1.00  0.00     0.188 C 
BRANCH  36  37
ATOM     37  O   UNL A   1      38.351  22.356  26.111  1.00  0.00    -0.376 OA
BRANCH  37  38
ATOM     38  C   UNL A   1      39.687  21.882  26.207  1.00  0.00     0.202 C 
BRANCH  38  39
ATOM     39  C   UNL A   1      40.687  22.806  26.886  1.00  0.00     0.261 C 
BRANCH  39  40
ATOM     40  O   UNL A   1      41.711  23.128  25.942  1.00  0.00    -0.460 OA
BRANCH  40  41
ATOM     41  C   UNL A   1      42.972  22.894  26.351  1.00  0.00     0.338 C 
ATOM     42  O   UNL A   1      43.532  21.810  26.429  1.00  0.00    -0.246 OA
BRANCH  41  43
ATOM     43  C   UNL A   1      43.664  24.194  26.469  1.00  0.00     0.060 A 
ATOM     44  C   UNL A   1      44.218  24.629  27.680  1.00  0.00     0.016 A 
ATOM     45  C   UNL A   1      43.650  25.043  25.352  1.00  0.00     0.016 A 
ATOM     46  C   UNL A   1      44.784  25.897  27.764  1.00  0.00     0.010 A 
ATOM     47  C   UNL A   1      44.196  26.320  25.440  1.00  0.00     0.010 A 
ATOM     48  C   UNL A   1      44.801  26.732  26.636  1.00  0.00    -0.014 A 
BRANCH  48  49
ATOM     49  C   UNL A   1      45.717  27.887  26.618  1.00  0.00     0.031 A 
ATOM     50  C   UNL A   1      45.257  29.285  26.847  1.00  0.00     0.074 A 
ATOM     51  C   UNL A   1      47.009  27.601  26.378  1.00  0.00     0.049 A 
ATOM     52  N   UNL A   1      45.981  30.372  26.940  1.00  0.00    -0.248 NA
ATOM     53  C   UNL A   1      43.811  29.504  26.982  1.00  0.00     0.031 C 
ATOM     54  C   UNL A   1      47.527  26.252  26.122  1.00  0.00     0.029 A 
ATOM     55  N   UNL A   1      48.115  28.400  26.319  1.00  0.00    -0.354 N 
ATOM     56  C   UNL A   1      45.084  31.404  27.171  1.00  0.00     0.074 A 
ATOM     57  C   UNL A   1      43.758  30.819  27.158  1.00  0.00     0.031 C 
ATOM     58  C   UNL A   1      48.853  26.315  25.958  1.00  0.00     0.029 A 
ATOM     59  C   UNL A   1      49.272  27.706  26.074  1.00  0.00     0.049 A 
ATOM     60  H   UNL A   1      48.085  29.377  26.439  1.00  0.00     0.167 HD
ATOM     61  C   UNL A   1      45.365  32.712  27.387  1.00  0.00     0.037 A 
ATOM     62  C   UNL A   1      50.538  28.142  25.965  1.00  0.00     0.037 A 
ATOM     63  C   UNL A   1      46.698  33.264  27.366  1.00  0.00     0.049 A 
ATOM     64  C   UNL A   1      50.809  29.601  26.168  1.00  0.00     0.074 A 
ATOM     65  C   UNL A   1      47.097  34.568  27.603  1.00  0.00     0.029 A 
ATOM     66  N   UNL A   1      47.850  32.544  27.074  1.00  0.00    -0.354 N 
ATOM     67  N   UNL A   1      49.965  30.561  26.463  1.00  0.00    -0.248 NA
ATOM     68  C   UNL A   1      52.202  30.039  26.035  1.00  0.00     0.031 C 
ATOM     69  C   UNL A   1      48.478  34.649  27.399  1.00  0.00     0.029 A 
ATOM     70  C   UNL A   1      48.954  33.384  27.092  1.00  0.00     0.049 A 
ATOM     71  H   UNL A   1      47.879  31.579  26.882  1.00  0.00     0.167 HD
ATOM     72  C   UNL A   1      50.724  31.716  26.566  1.00  0.00     0.074 A 
ATOM     73  C   UNL A   1      52.101  31.330  26.324  1.00  0.00     0.031 C 
ATOM     74  C   UNL A   1      50.316  32.981  26.833  1.00  0.00     0.037 A 
BRANCH  61  75
ATOM     75  C   UNL A   1      44.218  33.641  27.668  1.00  0.00     0.064 A 
ATOM     76  C   UNL A   1      43.646  33.730  28.946  1.00  0.00     0.173 A 
ATOM     77  C   UNL A   1      43.741  34.513  26.677  1.00  0.00     0.173 A 
ATOM     78  F   UNL A   1      44.062  32.918  29.931  1.00  0.00    -0.203 F 
ATOM     79  C   UNL A   1      42.630  34.644  29.216  1.00  0.00     0.198 A 
ATOM     80  C   UNL A   1      42.744  35.445  26.958  1.00  0.00     0.198 A 
ATOM     81  F   UNL A   1      44.259  34.478  25.440  1.00  0.00    -0.203 F 
ATOM     82  F   UNL A   1      42.079  34.689  30.438  1.00  0.00    -0.200 F 
ATOM     83  C   UNL A   1      42.186  35.506  28.225  1.00  0.00     0.200 A 
ATOM     84  F   UNL A   1      42.329  36.288  26.003  1.00  0.00    -0.200 F 
ATOM     85  F   UNL A   1      41.221  36.398  28.493  1.00  0.00    -0.200 F 
ENDBRANCH  61  75
BRANCH  62  86
ATOM     86  C   UNL A   1      51.620  27.163  25.706  1.00  0.00     0.064 A 
ATOM     87  C   UNL A   1      51.984  26.826  24.397  1.00  0.00     0.173 A 
ATOM     88  C   UNL A   1      52.365  26.606  26.758  1.00  0.00     0.173 A 
ATOM     89  F   UNL A   1      51.297  27.332  23.361  1.00  0.00    -0.203 F 
ATOM     90  C   UNL A   1      53.049  25.965  24.147  1.00  0.00     0.198 A 
ATOM     91  C   UNL A   1      53.447  25.768  26.505  1.00  0.00     0.198 A 
ATOM     92  F   UNL A   1      52.068  26.914  28.029  1.00  0.00    -0.203 F 
ATOM     93  F   UNL A   1      53.364  25.643  22.885  1.00  0.00    -0.200 F 
ATOM     94  C   UNL A   1      53.786  25.445  25.200  1.00  0.00     0.200 A 
ATOM     95  F   UNL A   1      54.173  25.288  27.525  1.00  0.00    -0.200 F 
ATOM     96  F   UNL A   1      54.825  24.634  24.957  1.00  0.00    -0.200 F 
ENDBRANCH  62  86
BRANCH  74  97
ATOM     97  C   UNL A   1      51.376  34.043  26.875  1.00  0.00     0.064 A 
ATOM     98  C   UNL A   1      51.712  34.783  25.732  1.00  0.00     0.173 A 
ATOM     99  C   UNL A   1      52.022  34.358  28.079  1.00  0.00     0.173 A 
ATOM    100  F   UNL A   1      51.135  34.507  24.553  1.00  0.00    -0.203 F 
ATOM    101  C   UNL A   1      52.670  35.792  25.791  1.00  0.00     0.198 A 
ATOM    102  C   UNL A   1      52.956  35.388  28.140  1.00  0.00     0.198 A 
ATOM    103  F   UNL A   1      51.733  33.681  29.201  1.00  0.00    -0.203 F 
ATOM    104  F   UNL A   1      53.007  36.458  24.679  1.00  0.00    -0.200 F 
ATOM    105  C   UNL A   1      53.283  36.100  26.996  1.00  0.00     0.200 A 
ATOM    106  F   UNL A   1      53.536  35.696  29.308  1.00  0.00    -0.200 F 
ATOM    107  F   UNL A   1      54.194  37.081  27.053  1.00  0.00    -0.200 F 
ENDBRANCH  74  97
ENDBRANCH  48  49
ENDBRANCH  41  43
ENDBRANCH  40  41
ENDBRANCH  39  40
ENDBRANCH  38  39
ENDBRANCH  37  38
ENDBRANCH  36  37
ENDBRANCH  35  36
ENDBRANCH  34  35
ENDBRANCH   1  34
TORSDOF 24
ENDMDL
MODEL 2
REMARK VINA RESULT:      -9.6      4.701     10.039
REMARK SMILES Cc1cc(=O)c(Oc2ccc(C(=O)OCCOCCOCCOCCOC(=O)c3ccc(-c4c5nc(c(-c6c(F)c(F)c(F)c(F)c6F)c6ccc([nH]6)c(-c6c(F)c(F)c(F)c(F)c6F)c6nc(c(-c7c(F)c(F)c(F)c(F)c7F)c7ccc4[nH]7)C=C6)C=C5)cc3)cc2)c(-c2ccc(S(C)(=O)=O)cc2)o1
REMARK SMILES IDX 19 1 18 2 17 3 16 4 15 5 14 6 12 7 13 8 11 9 8 10 9 11 93 12
REMARK SMILES IDX 10 13 92 14 7 15 6 16 1 17 2 18 3 19 105 20 4 21 94 22 5 23
REMARK SMILES IDX 95 24 96 25 104 26 97 27 103 28 98 29 99 30 100 31 101 32
REMARK SMILES IDX 102 33 20 34 21 35 22 36 23 37 24 38 25 39 26 40 27 41 28 42
REMARK SMILES IDX 29 43 30 44 91 45 31 46 90 47 32 48 33 49 34 50 84 51 35 52
REMARK SMILES IDX 89 53 83 54 85 55 36 56 88 57 82 58 81 59 37 61 69 62 49 63
REMARK SMILES IDX 68 64 50 65 53 66 67 67 86 68 51 69 52 70 66 72 87 73 54 74
REMARK SMILES IDX 38 75 39 76 47 77 40 78 41 79 45 80 48 81 42 82 43 83 46 84
REMARK SMILES IDX 44 85 70 86 71 87 79 88 72 89 73 90 77 91 80 92 74 93 75 94
REMARK SMILES IDX 78 95 76 96 55 97 56 98 64 99 57 100 58 101 62 102 65 103
REMARK SMILES IDX 59 104 60 105 63 106 61 107
REMARK H PARENT 85 60 53 71
REMARK Flexibility Score: inf
ROOT
ATOM      1  C   UNL A   1      36.304  33.818  30.656  1.00  0.00     0.188 C 
ENDROOT
BRANCH   1   2
ATOM      2  C   UNL A   1      36.259  32.347  30.965  1.00  0.00     0.188 C 
BRANCH   2   3
ATOM      3  O   UNL A   1      35.340  31.607  30.173  1.00  0.00    -0.376 OA
BRANCH   3   4
ATOM      4  C   UNL A   1      34.475  32.449  29.397  1.00  0.00     0.202 C 
BRANCH   4   5
ATOM      5  C   UNL A   1      34.735  32.409  27.877  1.00  0.00     0.261 C 
BRANCH   5   6
ATOM      6  O   UNL A   1      34.373  31.159  27.238  1.00  0.00    -0.460 OA
BRANCH   6   7
ATOM      7  C   UNL A   1      33.054  30.874  27.079  1.00  0.00     0.338 C 
ATOM      8  O   UNL A   1      32.179  31.692  26.859  1.00  0.00    -0.246 OA
BRANCH   7   9
ATOM      9  C   UNL A   1      32.859  29.384  27.004  1.00  0.00     0.060 A 
ATOM     10  C   UNL A   1      32.325  26.625  26.653  1.00  0.00     0.127 A 
ATOM     11  C   UNL A   1      31.343  27.465  27.167  1.00  0.00     0.048 A 
ATOM     12  C   UNL A   1      33.589  27.154  26.362  1.00  0.00     0.048 A 
ATOM     13  C   UNL A   1      31.600  28.843  27.314  1.00  0.00     0.019 A 
ATOM     14  C   UNL A   1      33.859  28.519  26.536  1.00  0.00     0.019 A 
BRANCH  10  15
ATOM     15  O   UNL A   1      32.238  25.263  26.591  1.00  0.00    -0.449 OA
BRANCH  15  16
ATOM     16  C   UNL A   1      32.025  24.463  25.482  1.00  0.00     0.217 A 
ATOM     17  C   UNL A   1      32.125  21.827  22.050  1.00  0.00     0.088 C 
ATOM     18  C   UNL A   1      32.118  22.614  23.321  1.00  0.00     0.105 A 
ATOM     19  C   UNL A   1      32.802  22.267  24.412  1.00  0.00     0.098 A 
ATOM     20  O   UNL A   1      31.343  23.748  23.272  1.00  0.00    -0.457 OA
ATOM     21  C   UNL A   1      32.751  23.148  25.590  1.00  0.00     0.228 A 
ATOM     22  C   UNL A   1      31.367  24.669  24.315  1.00  0.00     0.180 A 
ATOM     23  O   UNL A   1      33.329  22.803  26.616  1.00  0.00    -0.285 OA
BRANCH  22  24
ATOM     24  C   UNL A   1      30.607  25.856  23.910  1.00  0.00     0.021 A 
ATOM     25  C   UNL A   1      29.206  25.865  24.046  1.00  0.00     0.013 A 
ATOM     26  C   UNL A   1      31.238  26.926  23.280  1.00  0.00     0.013 A 
ATOM     27  C   UNL A   1      28.452  26.973  23.652  1.00  0.00     0.021 A 
ATOM     28  C   UNL A   1      30.480  28.015  22.861  1.00  0.00     0.021 A 
ATOM     29  C   UNL A   1      29.103  28.059  23.078  1.00  0.00     0.067 A 
BRANCH  29  30
ATOM     30  S   UNL A   1      28.226  29.574  22.762  1.00  0.00     0.175 S 
ATOM     31  C   UNL A   1      29.232  30.830  23.502  1.00  0.00     0.163 C 
ATOM     32  O   UNL A   1      28.229  29.781  21.326  1.00  0.00    -0.224 OA
ATOM     33  O   UNL A   1      26.972  29.491  23.486  1.00  0.00    -0.224 OA
ENDBRANCH  29  30
ENDBRANCH  22  24
ENDBRANCH  15  16
ENDBRANCH  10  15
ENDBRANCH   7   9
ENDBRANCH   6   7
ENDBRANCH   5   6
ENDBRANCH   4   5
ENDBRANCH   3   4
ENDBRANCH   2   3
ENDBRANCH   1   2
BRANCH   1  34
ATOM     34  O   UNL A   1      36.228  34.664  31.784  1.00  0.00    -0.377 OA
BRANCH  34  35
ATOM     35  C   UNL A   1      35.019  34.500  32.504  1.00  0.00     0.188 C 
BRANCH  35  36
ATOM     36  C   UNL A   1      34.987  34.888  34.002  1.00  0.00     0.188 C 
BRANCH  36  37
ATOM     37  O   UNL A   1      35.181  33.942  35.056  1.00  0.00    -0.376 OA
BRANCH  37  38
ATOM     38  C   UNL A   1      36.376  33.900  35.823  1.00  0.00     0.202 C 
BRANCH  38  39
ATOM     39  C   UNL A   1      37.432  32.898  35.378  1.00  0.00     0.261 C 
BRANCH  39  40
ATOM     40  O   UNL A   1      38.093  32.400  36.544  1.00  0.00    -0.460 OA
BRANCH  40  41
ATOM     41  C   UNL A   1      38.398  31.089  36.522  1.00  0.00     0.338 C 
ATOM     42  O   UNL A   1      37.749  30.173  37.007  1.00  0.00    -0.246 OA
BRANCH  41  43
ATOM     43  C   UNL A   1      39.538  30.899  35.601  1.00  0.00     0.060 A 
ATOM     44  C   UNL A   1      40.777  31.515  35.823  1.00  0.00     0.016 A 
ATOM     45  C   UNL A   1      39.310  30.172  34.423  1.00  0.00     0.016 A 
ATOM     46  C   UNL A   1      41.794  31.377  34.884  1.00  0.00     0.010 A 
ATOM     47  C   UNL A   1      40.320  30.051  33.473  1.00  0.00     0.010 A 
ATOM     48  C   UNL A   1      41.577  30.619  33.723  1.00  0.00    -0.014 A 
BRANCH  48  49
ATOM     49  C   UNL A   1      42.740  30.165  32.939  1.00  0.00     0.031 A 
ATOM     50  C   UNL A   1      43.303  30.946  31.804  1.00  0.00     0.074 A 
ATOM     51  C   UNL A   1      43.270  28.987  33.316  1.00  0.00     0.049 A 
ATOM     52  N   UNL A   1      44.374  30.692  31.096  1.00  0.00    -0.248 NA
ATOM     53  C   UNL A   1      42.581  32.160  31.399  1.00  0.00     0.031 C 
ATOM     54  C   UNL A   1      42.753  28.155  34.408  1.00  0.00     0.029 A 
ATOM     55  N   UNL A   1      44.346  28.290  32.845  1.00  0.00    -0.354 N 
ATOM     56  C   UNL A   1      44.474  31.724  30.176  1.00  0.00     0.074 A 
ATOM     57  C   UNL A   1      43.328  32.586  30.386  1.00  0.00     0.031 C 
ATOM     58  C   UNL A   1      43.528  27.072  34.539  1.00  0.00     0.029 A 
ATOM     59  C   UNL A   1      44.577  27.124  33.530  1.00  0.00     0.049 A 
ATOM     60  H   UNL A   1      44.900  28.593  32.089  1.00  0.00     0.167 HD
ATOM     61  C   UNL A   1      45.451  31.925  29.258  1.00  0.00     0.037 A 
ATOM     62  C   UNL A   1      45.538  26.199  33.367  1.00  0.00     0.037 A 
ATOM     63  C   UNL A   1      46.565  31.029  29.059  1.00  0.00     0.049 A 
ATOM     64  C   UNL A   1      46.579  26.431  32.316  1.00  0.00     0.074 A 
ATOM     65  C   UNL A   1      47.626  31.154  28.180  1.00  0.00     0.029 A 
ATOM     66  N   UNL A   1      46.752  29.832  29.740  1.00  0.00    -0.354 N 
ATOM     67  N   UNL A   1      46.712  27.449  31.499  1.00  0.00    -0.248 NA
ATOM     68  C   UNL A   1      47.607  25.397  32.166  1.00  0.00     0.031 C 
ATOM     69  C   UNL A   1      48.423  30.008  28.287  1.00  0.00     0.029 A 
ATOM     70  C   UNL A   1      47.893  29.194  29.275  1.00  0.00     0.049 A 
ATOM     71  H   UNL A   1      46.162  29.488  30.448  1.00  0.00     0.167 HD
ATOM     72  C   UNL A   1      47.846  27.188  30.747  1.00  0.00     0.074 A 
ATOM     73  C   UNL A   1      48.376  25.925  31.222  1.00  0.00     0.031 C 
ATOM     74  C   UNL A   1      48.395  27.927  29.753  1.00  0.00     0.037 A 
BRANCH  61  75
ATOM     75  C   UNL A   1      45.369  33.155  28.400  1.00  0.00     0.064 A 
ATOM     76  C   UNL A   1      44.679  33.151  27.179  1.00  0.00     0.173 A 
ATOM     77  C   UNL A   1      45.910  34.373  28.839  1.00  0.00     0.173 A 
ATOM     78  F   UNL A   1      44.144  32.012  26.710  1.00  0.00    -0.203 F 
ATOM     79  C   UNL A   1      44.548  34.313  26.422  1.00  0.00     0.198 A 
ATOM     80  C   UNL A   1      45.754  35.540  28.094  1.00  0.00     0.198 A 
ATOM     81  F   UNL A   1      46.571  34.438  30.005  1.00  0.00    -0.203 F 
ATOM     82  F   UNL A   1      43.910  34.275  25.244  1.00  0.00    -0.200 F 
ATOM     83  C   UNL A   1      45.078  35.508  26.885  1.00  0.00     0.200 A 
ATOM     84  F   UNL A   1      46.252  36.698  28.551  1.00  0.00    -0.200 F 
ATOM     85  F   UNL A   1      44.935  36.629  26.164  1.00  0.00    -0.200 F 
ENDBRANCH  61  75
BRANCH  62  86
ATOM     86  C   UNL A   1      45.566  25.021  34.266  1.00  0.00     0.064 A 
ATOM     87  C   UNL A   1      46.180  25.092  35.522  1.00  0.00     0.173 A 
ATOM     88  C   UNL A   1      44.911  23.828  33.923  1.00  0.00     0.173 A 
ATOM     89  F   UNL A   1      46.821  26.212  35.891  1.00  0.00    -0.203 F 
ATOM     90  C   UNL A   1      46.143  24.013  36.401  1.00  0.00     0.198 A 
ATOM     91  C   UNL A   1      44.852  22.760  34.814  1.00  0.00     0.198 A 
ATOM     92  F   UNL A   1      44.291  23.718  32.739  1.00  0.00    -0.203 F 
ATOM     93  F   UNL A   1      46.757  24.100  37.589  1.00  0.00    -0.200 F 
ATOM     94  C   UNL A   1      45.471  22.852  36.050  1.00  0.00     0.200 A 
ATOM     95  F   UNL A   1      44.179  21.650  34.481  1.00  0.00    -0.200 F 
ATOM     96  F   UNL A   1      45.418  21.822  36.906  1.00  0.00    -0.200 F 
ENDBRANCH  62  86
BRANCH  74  97
ATOM     97  C   UNL A   1      49.636  27.383  29.107  1.00  0.00     0.064 A 
ATOM     98  C   UNL A   1      50.901  27.575  29.681  1.00  0.00     0.173 A 
ATOM     99  C   UNL A   1      49.554  26.620  27.933  1.00  0.00     0.173 A 
ATOM    100  F   UNL A   1      51.034  28.314  30.792  1.00  0.00    -0.203 F 
ATOM    101  C   UNL A   1      52.042  27.035  29.093  1.00  0.00     0.198 A 
ATOM    102  C   UNL A   1      50.692  26.054  27.367  1.00  0.00     0.198 A 
ATOM    103  F   UNL A   1      48.366  26.404  27.348  1.00  0.00    -0.203 F 
ATOM    104  F   UNL A   1      53.245  27.266  29.634  1.00  0.00    -0.200 F 
ATOM    105  C   UNL A   1      51.934  26.267  27.943  1.00  0.00     0.200 A 
ATOM    106  F   UNL A   1      50.585  25.299  26.265  1.00  0.00    -0.200 F 
ATOM    107  F   UNL A   1      53.032  25.735  27.388  1.00  0.00    -0.200 F 
ENDBRANCH  74  97
ENDBRANCH  48  49
ENDBRANCH  41  43
ENDBRANCH  40  41
ENDBRANCH  39  40
ENDBRANCH  38  39
ENDBRANCH  37  38
ENDBRANCH  36  37
ENDBRANCH  35  36
ENDBRANCH  34  35
ENDBRANCH   1  34
TORSDOF 24
ENDMDL
MODEL 3
REMARK VINA RESULT:      -9.6      4.868     12.362
REMARK SMILES Cc1cc(=O)c(Oc2ccc(C(=O)OCCOCCOCCOCCOC(=O)c3ccc(-c4c5nc(c(-c6c(F)c(F)c(F)c(F)c6F)c6ccc([nH]6)c(-c6c(F)c(F)c(F)c(F)c6F)c6nc(c(-c7c(F)c(F)c(F)c(F)c7F)c7ccc4[nH]7)C=C6)C=C5)cc3)cc2)c(-c2ccc(S(C)(=O)=O)cc2)o1
REMARK SMILES IDX 19 1 18 2 17 3 16 4 15 5 14 6 12 7 13 8 11 9 8 10 9 11 93 12
REMARK SMILES IDX 10 13 92 14 7 15 6 16 1 17 2 18 3 19 105 20 4 21 94 22 5 23
REMARK SMILES IDX 95 24 96 25 104 26 97 27 103 28 98 29 99 30 100 31 101 32
REMARK SMILES IDX 102 33 20 34 21 35 22 36 23 37 24 38 25 39 26 40 27 41 28 42
REMARK SMILES IDX 29 43 30 44 91 45 31 46 90 47 32 48 33 49 34 50 84 51 35 52
REMARK SMILES IDX 89 53 83 54 85 55 36 56 88 57 82 58 81 59 37 61 69 62 49 63
REMARK SMILES IDX 68 64 50 65 53 66 67 67 86 68 51 69 52 70 66 72 87 73 54 74
REMARK SMILES IDX 38 75 39 76 47 77 40 78 41 79 45 80 48 81 42 82 43 83 46 84
REMARK SMILES IDX 44 85 70 86 71 87 79 88 72 89 73 90 77 91 80 92 74 93 75 94
REMARK SMILES IDX 78 95 76 96 55 97 56 98 64 99 57 100 58 101 62 102 65 103
REMARK SMILES IDX 59 104 60 105 63 106 61 107
REMARK H PARENT 85 60 53 71
REMARK Flexibility Score: inf
ROOT
ATOM      1  C   UNL A   1      46.025  32.927  26.506  1.00  0.00     0.188 C 
ENDROOT
BRANCH   1   2
ATOM      2  C   UNL A   1      46.042  31.473  26.122  1.00  0.00     0.188 C 
BRANCH   2   3
ATOM      3  O   UNL A   1      44.862  30.760  26.465  1.00  0.00    -0.376 OA
BRANCH   3   4
ATOM      4  C   UNL A   1      44.865  30.309  27.828  1.00  0.00     0.202 C 
BRANCH   4   5
ATOM      5  C   UNL A   1      45.245  28.825  28.012  1.00  0.00     0.261 C 
BRANCH   5   6
ATOM      6  O   UNL A   1      46.554  28.472  27.499  1.00  0.00    -0.460 OA
BRANCH   6   7
ATOM      7  C   UNL A   1      47.163  27.363  27.995  1.00  0.00     0.338 C 
ATOM      8  O   UNL A   1      47.821  27.320  29.021  1.00  0.00    -0.246 OA
BRANCH   7   9
ATOM      9  C   UNL A   1      46.737  26.152  27.212  1.00  0.00     0.060 A 
ATOM     10  C   UNL A   1      46.174  23.882  25.614  1.00  0.00     0.127 A 
ATOM     11  C   UNL A   1      46.213  25.147  25.038  1.00  0.00     0.048 A 
ATOM     12  C   UNL A   1      46.367  23.757  26.996  1.00  0.00     0.048 A 
ATOM     13  C   UNL A   1      46.522  26.273  25.828  1.00  0.00     0.019 A 
ATOM     14  C   UNL A   1      46.643  24.878  27.791  1.00  0.00     0.019 A 
BRANCH  10  15
ATOM     15  O   UNL A   1      45.760  22.745  24.980  1.00  0.00    -0.449 OA
BRANCH  15  16
ATOM     16  C   UNL A   1      44.819  21.820  25.396  1.00  0.00     0.217 A 
ATOM     17  C   UNL A   1      41.923  18.655  25.973  1.00  0.00     0.088 C 
ATOM     18  C   UNL A   1      43.030  19.638  25.765  1.00  0.00     0.105 A 
ATOM     19  C   UNL A   1      44.155  19.362  25.105  1.00  0.00     0.098 A 
ATOM     20  O   UNL A   1      42.787  20.876  26.313  1.00  0.00    -0.457 OA
ATOM     21  C   UNL A   1      45.153  20.429  24.929  1.00  0.00     0.228 A 
ATOM     22  C   UNL A   1      43.644  21.943  26.062  1.00  0.00     0.180 A 
ATOM     23  O   UNL A   1      46.216  20.163  24.375  1.00  0.00    -0.285 OA
BRANCH  22  24
ATOM     24  C   UNL A   1      43.041  23.165  26.602  1.00  0.00     0.021 A 
ATOM     25  C   UNL A   1      42.724  24.227  25.733  1.00  0.00     0.013 A 
ATOM     26  C   UNL A   1      42.890  23.339  27.976  1.00  0.00     0.013 A 
ATOM     27  C   UNL A   1      42.166  25.412  26.220  1.00  0.00     0.021 A 
ATOM     28  C   UNL A   1      42.361  24.533  28.459  1.00  0.00     0.021 A 
ATOM     29  C   UNL A   1      41.966  25.548  27.589  1.00  0.00     0.067 A 
BRANCH  29  30
ATOM     30  S   UNL A   1      41.062  26.937  28.235  1.00  0.00     0.175 S 
ATOM     31  C   UNL A   1      40.403  27.743  26.801  1.00  0.00     0.163 C 
ATOM     32  O   UNL A   1      39.952  26.407  29.005  1.00  0.00    -0.224 OA
ATOM     33  O   UNL A   1      42.034  27.814  28.860  1.00  0.00    -0.224 OA
ENDBRANCH  29  30
ENDBRANCH  22  24
ENDBRANCH  15  16
ENDBRANCH  10  15
ENDBRANCH   7   9
ENDBRANCH   6   7
ENDBRANCH   5   6
ENDBRANCH   4   5
ENDBRANCH   3   4
ENDBRANCH   2   3
ENDBRANCH   1   2
BRANCH   1  34
ATOM     34  O   UNL A   1      46.511  33.809  25.515  1.00  0.00    -0.377 OA
BRANCH  34  35
ATOM     35  C   UNL A   1      46.148  35.156  25.765  1.00  0.00     0.188 C 
BRANCH  35  36
ATOM     36  C   UNL A   1      47.260  36.170  26.127  1.00  0.00     0.188 C 
BRANCH  36  37
ATOM     37  O   UNL A   1      46.996  37.418  26.772  1.00  0.00    -0.376 OA
BRANCH  37  38
ATOM     38  C   UNL A   1      47.360  38.661  26.188  1.00  0.00     0.202 C 
BRANCH  38  39
ATOM     39  C   UNL A   1      46.216  39.559  25.737  1.00  0.00     0.261 C 
BRANCH  39  40
ATOM     40  O   UNL A   1      45.557  40.060  26.902  1.00  0.00    -0.460 OA
BRANCH  40  41
ATOM     41  C   UNL A   1      44.222  39.888  26.933  1.00  0.00     0.338 C 
ATOM     42  O   UNL A   1      43.379  40.563  26.361  1.00  0.00    -0.246 OA
BRANCH  41  43
ATOM     43  C   UNL A   1      43.942  38.591  27.585  1.00  0.00     0.060 A 
ATOM     44  C   UNL A   1      43.402  37.509  26.876  1.00  0.00     0.016 A 
ATOM     45  C   UNL A   1      44.124  38.508  28.973  1.00  0.00     0.016 A 
ATOM     46  C   UNL A   1      43.076  36.337  27.551  1.00  0.00     0.010 A 
ATOM     47  C   UNL A   1      43.778  37.344  29.653  1.00  0.00     0.010 A 
ATOM     48  C   UNL A   1      43.292  36.242  28.935  1.00  0.00    -0.014 A 
BRANCH  48  49
ATOM     49  C   UNL A   1      43.308  34.909  29.564  1.00  0.00     0.031 A 
ATOM     50  C   UNL A   1      42.068  34.197  29.977  1.00  0.00     0.074 A 
ATOM     51  C   UNL A   1      44.527  34.368  29.746  1.00  0.00     0.049 A 
ATOM     52  N   UNL A   1      41.951  32.986  30.461  1.00  0.00    -0.248 NA
ATOM     53  C   UNL A   1      40.799  34.923  29.843  1.00  0.00     0.031 C 
ATOM     54  C   UNL A   1      45.789  35.022  29.384  1.00  0.00     0.029 A 
ATOM     55  N   UNL A   1      44.911  33.162  30.261  1.00  0.00    -0.354 N 
ATOM     56  C   UNL A   1      40.594  32.791  30.667  1.00  0.00     0.074 A 
ATOM     57  C   UNL A   1      39.931  34.026  30.298  1.00  0.00     0.031 C 
ATOM     58  C   UNL A   1      46.806  34.199  29.666  1.00  0.00     0.029 A 
ATOM     59  C   UNL A   1      46.269  32.976  30.247  1.00  0.00     0.049 A 
ATOM     60  H   UNL A   1      44.276  32.495  30.609  1.00  0.00     0.167 HD
ATOM     61  C   UNL A   1      39.976  31.669  31.110  1.00  0.00     0.037 A 
ATOM     62  C   UNL A   1      47.004  31.926  30.649  1.00  0.00     0.037 A 
ATOM     63  C   UNL A   1      40.672  30.464  31.494  1.00  0.00     0.049 A 
ATOM     64  C   UNL A   1      46.292  30.716  31.173  1.00  0.00     0.074 A 
ATOM     65  C   UNL A   1      40.142  29.262  31.926  1.00  0.00     0.029 A 
ATOM     66  N   UNL A   1      42.054  30.317  31.509  1.00  0.00    -0.354 N 
ATOM     67  N   UNL A   1      45.002  30.509  31.293  1.00  0.00    -0.248 NA
ATOM     68  C   UNL A   1      47.129  29.594  31.607  1.00  0.00     0.031 C 
ATOM     69  C   UNL A   1      41.200  28.408  32.256  1.00  0.00     0.029 A 
ATOM     70  C   UNL A   1      42.393  29.055  31.975  1.00  0.00     0.049 A 
ATOM     71  H   UNL A   1      42.698  31.007  31.229  1.00  0.00     0.167 HD
ATOM     72  C   UNL A   1      44.870  29.227  31.803  1.00  0.00     0.074 A 
ATOM     73  C   UNL A   1      46.212  28.698  31.947  1.00  0.00     0.031 C 
ATOM     74  C   UNL A   1      43.739  28.553  32.125  1.00  0.00     0.037 A 
BRANCH  61  75
ATOM     75  C   UNL A   1      38.477  31.680  31.202  1.00  0.00     0.064 A 
ATOM     76  C   UNL A   1      37.820  31.996  32.401  1.00  0.00     0.173 A 
ATOM     77  C   UNL A   1      37.686  31.458  30.064  1.00  0.00     0.173 A 
ATOM     78  F   UNL A   1      38.527  32.215  33.521  1.00  0.00    -0.203 F 
ATOM     79  C   UNL A   1      36.430  32.073  32.461  1.00  0.00     0.198 A 
ATOM     80  C   UNL A   1      36.298  31.563  30.120  1.00  0.00     0.198 A 
ATOM     81  F   UNL A   1      38.261  31.163  28.888  1.00  0.00    -0.203 F 
ATOM     82  F   UNL A   1      35.825  32.347  33.625  1.00  0.00    -0.200 F 
ATOM     83  C   UNL A   1      35.672  31.865  31.320  1.00  0.00     0.200 A 
ATOM     84  F   UNL A   1      35.567  31.378  29.012  1.00  0.00    -0.200 F 
ATOM     85  F   UNL A   1      34.335  31.958  31.375  1.00  0.00    -0.200 F 
ENDBRANCH  61  75
BRANCH  62  86
ATOM     86  C   UNL A   1      48.479  31.979  30.508  1.00  0.00     0.064 A 
ATOM     87  C   UNL A   1      49.105  31.506  29.349  1.00  0.00     0.173 A 
ATOM     88  C   UNL A   1      49.283  32.577  31.492  1.00  0.00     0.173 A 
ATOM     89  F   UNL A   1      48.377  30.924  28.385  1.00  0.00    -0.203 F 
ATOM     90  C   UNL A   1      50.482  31.623  29.179  1.00  0.00     0.198 A 
ATOM     91  C   UNL A   1      50.655  32.718  31.307  1.00  0.00     0.198 A 
ATOM     92  F   UNL A   1      48.726  33.064  32.610  1.00  0.00    -0.203 F 
ATOM     93  F   UNL A   1      51.060  31.144  28.069  1.00  0.00    -0.200 F 
ATOM     94  C   UNL A   1      51.254  32.238  30.154  1.00  0.00     0.200 A 
ATOM     95  F   UNL A   1      51.394  33.337  32.240  1.00  0.00    -0.200 F 
ATOM     96  F   UNL A   1      52.577  32.369  29.979  1.00  0.00    -0.200 F 
ENDBRANCH  62  86
BRANCH  74  97
ATOM     97  C   UNL A   1      43.906  27.165  32.669  1.00  0.00     0.064 A 
ATOM     98  C   UNL A   1      44.153  26.074  31.823  1.00  0.00     0.173 A 
ATOM     99  C   UNL A   1      43.871  26.932  34.052  1.00  0.00     0.173 A 
ATOM    100  F   UNL A   1      44.177  26.242  30.493  1.00  0.00    -0.203 F 
ATOM    101  C   UNL A   1      44.344  24.796  32.342  1.00  0.00     0.198 A 
ATOM    102  C   UNL A   1      44.094  25.659  34.569  1.00  0.00     0.198 A 
ATOM    103  F   UNL A   1      43.642  27.943  34.904  1.00  0.00    -0.203 F 
ATOM    104  F   UNL A   1      44.536  23.761  31.514  1.00  0.00    -0.200 F 
ATOM    105  C   UNL A   1      44.324  24.592  33.714  1.00  0.00     0.200 A 
ATOM    106  F   UNL A   1      44.090  25.466  35.895  1.00  0.00    -0.200 F 
ATOM    107  F   UNL A   1      44.523  23.364  34.212  1.00  0.00    -0.200 F 
ENDBRANCH  74  97
ENDBRANCH  48  49
ENDBRANCH  41  43
ENDBRANCH  40  41
ENDBRANCH  39  40
ENDBRANCH  38  39
ENDBRANCH  37  38
ENDBRANCH  36  37
ENDBRANCH  35  36
ENDBRANCH  34  35
ENDBRANCH   1  34
TORSDOF 24
ENDMDL
