MODEL 1
REMARK VINA RESULT:     -11.7      0.000      0.000
REMARK SMILES C[C@@H](C(=O)OCCOCCOCCOCCOC(=O)c1ccc(-c2c3nc(c(-c4c(F)c(F)c(F)c(F)c4F)c4ccc([nH]4)c(-c4c(F)c(F)c(F)c(F)c4F)c4nc(c(-c5c(F)c(F)c(F)c(F)c5F)c5ccc2[nH]5)C=C4)C=C3)cc1)[N@@H+]1CCc2n[nH]c(C(c3ccccc3)c3ccccc3)c2C1
REMARK SMILES IDX 10 1 9 2 8 3 7 4 6 5 5 6 3 7 4 8 2 9 1 10 83 11 84 12 104 13
REMARK SMILES IDX 85 15 103 16 86 17 89 18 87 19 88 20 90 22 91 23 92 24 96 25
REMARK SMILES IDX 93 26 95 27 94 28 97 29 98 30 102 31 99 32 101 33 100 34
REMARK SMILES IDX 11 35 12 36 13 37 14 38 15 39 16 40 17 41 18 42 19 43 20 44
REMARK SMILES IDX 21 45 82 46 22 47 81 48 23 49 24 50 25 51 75 52 26 53 80 54
REMARK SMILES IDX 74 55 76 56 27 57 79 58 73 59 72 60 28 62 60 63 40 64 59 65
REMARK SMILES IDX 41 66 44 67 58 68 77 69 42 70 43 71 57 73 78 74 45 75 29 76
REMARK SMILES IDX 30 77 38 78 31 79 32 80 36 81 39 82 33 83 34 84 37 85 35 86
REMARK SMILES IDX 61 87 62 88 70 89 63 90 64 91 68 92 71 93 65 94 66 95 69 96
REMARK SMILES IDX 67 97 46 98 47 99 55 100 48 101 49 102 53 103 56 104 50 105
REMARK SMILES IDX 51 106 54 107 52 108
REMARK H PARENT 83 14 88 21 76 61 44 72
REMARK Flexibility Score: inf
ROOT
ATOM      1  C   UNL A   1      33.811  29.521  27.343  1.00  0.00     0.188 C 
ENDROOT
BRANCH   1   2
ATOM      2  C   UNL A   1      33.849  28.700  26.037  1.00  0.00     0.188 C 
BRANCH   2   3
ATOM      3  O   UNL A   1      32.898  29.075  25.033  1.00  0.00    -0.376 OA
BRANCH   3   4
ATOM      4  C   UNL A   1      33.366  29.214  23.682  1.00  0.00     0.202 C 
BRANCH   4   5
ATOM      5  C   UNL A   1      32.760  28.117  22.705  1.00  0.00     0.261 C 
BRANCH   5   6
ATOM      6  O   UNL A   1      33.653  26.966  22.508  1.00  0.00    -0.459 OA
BRANCH   6   7
ATOM      7  C   UNL A   1      33.705  25.931  23.420  1.00  0.00     0.364 C 
ATOM      8  O   UNL A   1      34.313  26.029  24.482  1.00  0.00    -0.245 OA
BRANCH   7   9
ATOM      9  C   UNL A   1      32.735  24.669  23.066  1.00  0.00     0.292 C 
ATOM     10  C   UNL A   1      32.921  24.007  21.702  1.00  0.00     0.088 C 
BRANCH   9  11
ATOM     11  N   UNL A   1      31.307  24.939  23.450  1.00  0.00    -0.319 N 
ATOM     12  C   UNL A   1      30.991  25.894  24.557  1.00  0.00     0.269 C 
ATOM     13  C   UNL A   1      30.628  23.677  23.699  1.00  0.00     0.303 C 
ATOM     14  H   UNL A   1      30.969  25.447  22.634  1.00  0.00     0.349 HD
ATOM     15  C   UNL A   1      30.209  25.311  25.803  1.00  0.00     0.120 C 
ATOM     16  C   UNL A   1      31.132  23.107  25.000  1.00  0.00     0.052 A 
ATOM     17  C   UNL A   1      30.705  23.935  26.071  1.00  0.00     0.077 A 
ATOM     18  C   UNL A   1      32.017  22.198  25.637  1.00  0.00     0.056 A 
ATOM     19  N   UNL A   1      30.793  23.328  27.239  1.00  0.00    -0.180 NA
ATOM     20  N   UNL A   1      31.351  22.164  26.869  1.00  0.00    -0.281 N 
ATOM     21  H   UNL A   1      31.295  21.349  27.420  1.00  0.00     0.190 HD
BRANCH  18  22
ATOM     22  C   UNL A   1      33.227  21.141  25.459  1.00  0.00     0.098 C 
BRANCH  22  23
ATOM     23  C   UNL A   1      33.192  19.917  24.479  1.00  0.00    -0.035 A 
ATOM     24  C   UNL A   1      32.326  19.928  23.363  1.00  0.00     0.005 A 
ATOM     25  C   UNL A   1      33.861  18.698  24.690  1.00  0.00     0.005 A 
ATOM     26  C   UNL A   1      32.216  18.832  22.483  1.00  0.00     0.000 A 
ATOM     27  C   UNL A   1      33.748  17.593  23.828  1.00  0.00     0.000 A 
ATOM     28  C   UNL A   1      32.935  17.665  22.711  1.00  0.00     0.000 A 
ENDBRANCH  22  23
BRANCH  22  29
ATOM     29  C   UNL A   1      34.579  21.928  25.286  1.00  0.00    -0.035 A 
ATOM     30  C   UNL A   1      35.205  22.163  24.045  1.00  0.00     0.005 A 
ATOM     31  C   UNL A   1      35.098  22.617  26.392  1.00  0.00     0.005 A 
ATOM     32  C   UNL A   1      36.211  23.119  23.886  1.00  0.00     0.000 A 
ATOM     33  C   UNL A   1      36.014  23.654  26.202  1.00  0.00     0.000 A 
ATOM     34  C   UNL A   1      36.581  23.903  24.960  1.00  0.00     0.000 A 
ENDBRANCH  22  29
ENDBRANCH  18  22
ENDBRANCH   9  11
ENDBRANCH   7   9
ENDBRANCH   6   7
ENDBRANCH   5   6
ENDBRANCH   4   5
ENDBRANCH   3   4
ENDBRANCH   2   3
ENDBRANCH   1   2
BRANCH   1  35
ATOM     35  O   UNL A   1      34.386  30.830  27.188  1.00  0.00    -0.377 OA
BRANCH  35  36
ATOM     36  C   UNL A   1      33.521  31.859  27.684  1.00  0.00     0.188 C 
BRANCH  36  37
ATOM     37  C   UNL A   1      34.200  33.209  28.004  1.00  0.00     0.188 C 
BRANCH  37  38
ATOM     38  O   UNL A   1      33.415  34.057  28.835  1.00  0.00    -0.376 OA
BRANCH  38  39
ATOM     39  C   UNL A   1      34.189  34.906  29.691  1.00  0.00     0.202 C 
BRANCH  39  40
ATOM     40  C   UNL A   1      34.517  34.256  31.041  1.00  0.00     0.261 C 
BRANCH  40  41
ATOM     41  O   UNL A   1      35.683  33.410  31.011  1.00  0.00    -0.460 OA
BRANCH  41  42
ATOM     42  C   UNL A   1      35.580  32.221  31.661  1.00  0.00     0.338 C 
ATOM     43  O   UNL A   1      34.769  31.889  32.482  1.00  0.00    -0.246 OA
BRANCH  42  44
ATOM     44  C   UNL A   1      36.695  31.380  31.180  1.00  0.00     0.060 A 
ATOM     45  C   UNL A   1      37.616  30.839  32.079  1.00  0.00     0.016 A 
ATOM     46  C   UNL A   1      36.820  31.149  29.810  1.00  0.00     0.016 A 
ATOM     47  C   UNL A   1      38.663  30.047  31.606  1.00  0.00     0.010 A 
ATOM     48  C   UNL A   1      37.833  30.318  29.338  1.00  0.00     0.010 A 
ATOM     49  C   UNL A   1      38.785  29.804  30.231  1.00  0.00    -0.014 A 
BRANCH  49  50
ATOM     50  C   UNL A   1      40.058  29.284  29.688  1.00  0.00     0.031 A 
ATOM     51  C   UNL A   1      41.206  30.250  29.592  1.00  0.00     0.074 A 
ATOM     52  C   UNL A   1      40.193  28.008  29.290  1.00  0.00     0.049 A 
ATOM     53  N   UNL A   1      42.406  30.075  29.106  1.00  0.00    -0.248 NA
ATOM     54  C   UNL A   1      40.959  31.607  30.114  1.00  0.00     0.031 C 
ATOM     55  C   UNL A   1      39.156  26.982  29.362  1.00  0.00     0.029 A 
ATOM     56  N   UNL A   1      41.269  27.366  28.733  1.00  0.00    -0.354 N 
ATOM     57  C   UNL A   1      43.050  31.296  29.260  1.00  0.00     0.074 A 
ATOM     58  C   UNL A   1      42.105  32.213  29.852  1.00  0.00     0.031 C 
ATOM     59  C   UNL A   1      39.645  25.835  28.856  1.00  0.00     0.029 A 
ATOM     60  C   UNL A   1      41.017  26.058  28.401  1.00  0.00     0.049 A 
ATOM     61  H   UNL A   1      42.139  27.801  28.586  1.00  0.00     0.167 HD
ATOM     62  C   UNL A   1      44.323  31.620  28.943  1.00  0.00     0.037 A 
ATOM     63  C   UNL A   1      41.807  25.160  27.781  1.00  0.00     0.037 A 
ATOM     64  C   UNL A   1      45.256  30.709  28.345  1.00  0.00     0.049 A 
ATOM     65  C   UNL A   1      43.202  25.567  27.375  1.00  0.00     0.074 A 
ATOM     66  C   UNL A   1      46.573  30.930  27.989  1.00  0.00     0.029 A 
ATOM     67  N   UNL A   1      44.959  29.397  28.008  1.00  0.00    -0.354 N 
ATOM     68  N   UNL A   1      43.819  26.712  27.554  1.00  0.00    -0.248 NA
ATOM     69  C   UNL A   1      44.013  24.556  26.680  1.00  0.00     0.031 C 
ATOM     70  C   UNL A   1      47.062  29.762  27.395  1.00  0.00     0.029 A 
ATOM     71  C   UNL A   1      46.064  28.799  27.427  1.00  0.00     0.049 A 
ATOM     72  H   UNL A   1      44.093  28.955  28.159  1.00  0.00     0.167 HD
ATOM     73  C   UNL A   1      45.092  26.549  27.025  1.00  0.00     0.074 A 
ATOM     74  C   UNL A   1      45.166  25.191  26.526  1.00  0.00     0.031 C 
ATOM     75  C   UNL A   1      46.113  27.440  26.956  1.00  0.00     0.037 A 
BRANCH  62  76
ATOM     76  C   UNL A   1      44.757  33.028  29.215  1.00  0.00     0.064 A 
ATOM     77  C   UNL A   1      45.349  33.392  30.434  1.00  0.00     0.173 A 
ATOM     78  C   UNL A   1      44.577  34.026  28.246  1.00  0.00     0.173 A 
ATOM     79  F   UNL A   1      45.518  32.478  31.401  1.00  0.00    -0.203 F 
ATOM     80  C   UNL A   1      45.724  34.709  30.681  1.00  0.00     0.198 A 
ATOM     81  C   UNL A   1      44.976  35.337  28.488  1.00  0.00     0.198 A 
ATOM     82  F   UNL A   1      44.006  33.730  27.069  1.00  0.00    -0.203 F 
ATOM     83  F   UNL A   1      46.242  35.044  31.871  1.00  0.00    -0.200 F 
ATOM     84  C   UNL A   1      45.543  35.679  29.706  1.00  0.00     0.200 A 
ATOM     85  F   UNL A   1      44.804  36.272  27.543  1.00  0.00    -0.200 F 
ATOM     86  F   UNL A   1      45.905  36.947  29.946  1.00  0.00    -0.200 F 
ENDBRANCH  62  76
BRANCH  63  87
ATOM     87  C   UNL A   1      41.307  23.790  27.495  1.00  0.00     0.064 A 
ATOM     88  C   UNL A   1      41.866  22.670  28.126  1.00  0.00     0.173 A 
ATOM     89  C   UNL A   1      40.287  23.567  26.559  1.00  0.00     0.173 A 
ATOM     90  F   UNL A   1      42.862  22.829  29.009  1.00  0.00    -0.203 F 
ATOM     91  C   UNL A   1      41.439  21.380  27.817  1.00  0.00     0.198 A 
ATOM     92  C   UNL A   1      39.842  22.278  26.270  1.00  0.00     0.198 A 
ATOM     93  F   UNL A   1      39.721  24.604  25.922  1.00  0.00    -0.203 F 
ATOM     94  F   UNL A   1      42.026  20.325  28.399  1.00  0.00    -0.200 F 
ATOM     95  C   UNL A   1      40.425  21.185  26.892  1.00  0.00     0.200 A 
ATOM     96  F   UNL A   1      38.856  22.095  25.380  1.00  0.00    -0.200 F 
ATOM     97  F   UNL A   1      40.017  19.944  26.593  1.00  0.00    -0.200 F 
ENDBRANCH  63  87
BRANCH  75  98
ATOM     98  C   UNL A   1      47.406  26.966  26.362  1.00  0.00     0.064 A 
ATOM     99  C   UNL A   1      47.679  27.099  24.994  1.00  0.00     0.173 A 
ATOM    100  C   UNL A   1      48.407  26.430  27.186  1.00  0.00     0.173 A 
ATOM    101  F   UNL A   1      46.748  27.595  24.164  1.00  0.00    -0.203 F 
ATOM    102  C   UNL A   1      48.902  26.693  24.467  1.00  0.00     0.198 A 
ATOM    103  C   UNL A   1      49.640  26.053  26.662  1.00  0.00     0.198 A 
ATOM    104  F   UNL A   1      48.197  26.292  28.504  1.00  0.00    -0.203 F 
ATOM    105  F   UNL A   1      49.129  26.794  23.150  1.00  0.00    -0.200 F 
ATOM    106  C   UNL A   1      49.884  26.179  25.302  1.00  0.00     0.200 A 
ATOM    107  F   UNL A   1      50.592  25.570  27.471  1.00  0.00    -0.200 F 
ATOM    108  F   UNL A   1      51.065  25.800  24.795  1.00  0.00    -0.200 F 
ENDBRANCH  75  98
ENDBRANCH  49  50
ENDBRANCH  42  44
ENDBRANCH  41  42
ENDBRANCH  40  41
ENDBRANCH  39  40
ENDBRANCH  38  39
ENDBRANCH  37  38
ENDBRANCH  36  37
ENDBRANCH  35  36
ENDBRANCH   1  35
TORSDOF 24
ENDMDL
MODEL 2
REMARK VINA RESULT:     -10.8      2.141      3.098
REMARK SMILES C[C@@H](C(=O)OCCOCCOCCOCCOC(=O)c1ccc(-c2c3nc(c(-c4c(F)c(F)c(F)c(F)c4F)c4ccc([nH]4)c(-c4c(F)c(F)c(F)c(F)c4F)c4nc(c(-c5c(F)c(F)c(F)c(F)c5F)c5ccc2[nH]5)C=C4)C=C3)cc1)[N@@H+]1CCc2n[nH]c(C(c3ccccc3)c3ccccc3)c2C1
REMARK SMILES IDX 10 1 9 2 8 3 7 4 6 5 5 6 3 7 4 8 2 9 1 10 83 11 84 12 104 13
REMARK SMILES IDX 85 15 103 16 86 17 89 18 87 19 88 20 90 22 91 23 92 24 96 25
REMARK SMILES IDX 93 26 95 27 94 28 97 29 98 30 102 31 99 32 101 33 100 34
REMARK SMILES IDX 11 35 12 36 13 37 14 38 15 39 16 40 17 41 18 42 19 43 20 44
REMARK SMILES IDX 21 45 82 46 22 47 81 48 23 49 24 50 25 51 75 52 26 53 80 54
REMARK SMILES IDX 74 55 76 56 27 57 79 58 73 59 72 60 28 62 60 63 40 64 59 65
REMARK SMILES IDX 41 66 44 67 58 68 77 69 42 70 43 71 57 73 78 74 45 75 29 76
REMARK SMILES IDX 30 77 38 78 31 79 32 80 36 81 39 82 33 83 34 84 37 85 35 86
REMARK SMILES IDX 61 87 62 88 70 89 63 90 64 91 68 92 71 93 65 94 66 95 69 96
REMARK SMILES IDX 67 97 46 98 47 99 55 100 48 101 49 102 53 103 56 104 50 105
REMARK SMILES IDX 51 106 54 107 52 108
REMARK H PARENT 83 14 88 21 76 61 44 72
REMARK Flexibility Score: inf
ROOT
ATOM      1  C   UNL A   1      34.443  29.922  27.835  1.00  0.00     0.188 C 
ENDROOT
BRANCH   1   2
ATOM      2  C   UNL A   1      34.393  28.900  26.680  1.00  0.00     0.188 C 
BRANCH   2   3
ATOM      3  O   UNL A   1      33.248  28.981  25.821  1.00  0.00    -0.376 OA
BRANCH   3   4
ATOM      4  C   UNL A   1      33.455  29.394  24.462  1.00  0.00     0.202 C 
BRANCH   4   5
ATOM      5  C   UNL A   1      32.786  28.410  23.409  1.00  0.00     0.261 C 
BRANCH   5   6
ATOM      6  O   UNL A   1      33.645  27.270  23.061  1.00  0.00    -0.459 OA
BRANCH   6   7
ATOM      7  C   UNL A   1      33.573  26.077  23.753  1.00  0.00     0.364 C 
ATOM      8  O   UNL A   1      34.052  25.945  24.875  1.00  0.00    -0.245 OA
BRANCH   7   9
ATOM      9  C   UNL A   1      32.633  24.944  23.050  1.00  0.00     0.292 C 
ATOM     10  C   UNL A   1      32.881  24.651  21.572  1.00  0.00     0.088 C 
BRANCH   9  11
ATOM     11  N   UNL A   1      31.188  25.105  23.431  1.00  0.00    -0.319 N 
ATOM     12  C   UNL A   1      30.797  26.040  24.531  1.00  0.00     0.269 C 
ATOM     13  C   UNL A   1      30.608  23.796  23.687  1.00  0.00     0.303 C 
ATOM     14  H   UNL A   1      30.813  25.580  22.611  1.00  0.00     0.349 HD
ATOM     15  C   UNL A   1      30.061  25.407  25.780  1.00  0.00     0.120 C 
ATOM     16  C   UNL A   1      31.153  23.275  24.993  1.00  0.00     0.052 A 
ATOM     17  C   UNL A   1      30.662  24.075  26.058  1.00  0.00     0.077 A 
ATOM     18  C   UNL A   1      32.106  22.442  25.637  1.00  0.00     0.056 A 
ATOM     19  N   UNL A   1      30.795  23.484  27.230  1.00  0.00    -0.180 NA
ATOM     20  N   UNL A   1      31.442  22.364  26.868  1.00  0.00    -0.281 N 
ATOM     21  H   UNL A   1      31.449  21.552  27.425  1.00  0.00     0.190 HD
BRANCH  18  22
ATOM     22  C   UNL A   1      33.394  21.481  25.468  1.00  0.00     0.098 C 
BRANCH  22  23
ATOM     23  C   UNL A   1      33.405  20.162  24.618  1.00  0.00    -0.035 A 
ATOM     24  C   UNL A   1      32.371  19.909  23.690  1.00  0.00     0.005 A 
ATOM     25  C   UNL A   1      34.305  19.096  24.800  1.00  0.00     0.005 A 
ATOM     26  C   UNL A   1      32.304  18.715  22.943  1.00  0.00     0.000 A 
ATOM     27  C   UNL A   1      34.240  17.895  24.072  1.00  0.00     0.000 A 
ATOM     28  C   UNL A   1      33.246  17.710  23.127  1.00  0.00     0.000 A 
ENDBRANCH  22  23
BRANCH  22  29
ATOM     29  C   UNL A   1      34.650  22.360  25.110  1.00  0.00    -0.035 A 
ATOM     30  C   UNL A   1      35.519  22.925  26.066  1.00  0.00     0.005 A 
ATOM     31  C   UNL A   1      35.062  22.424  23.772  1.00  0.00     0.005 A 
ATOM     32  C   UNL A   1      36.781  23.418  25.729  1.00  0.00     0.000 A 
ATOM     33  C   UNL A   1      36.369  22.805  23.461  1.00  0.00     0.000 A 
ATOM     34  C   UNL A   1      37.227  23.311  24.427  1.00  0.00     0.000 A 
ENDBRANCH  22  29
ENDBRANCH  18  22
ENDBRANCH   9  11
ENDBRANCH   7   9
ENDBRANCH   6   7
ENDBRANCH   5   6
ENDBRANCH   4   5
ENDBRANCH   3   4
ENDBRANCH   2   3
ENDBRANCH   1   2
BRANCH   1  35
ATOM     35  O   UNL A   1      34.546  31.277  27.368  1.00  0.00    -0.377 OA
BRANCH  35  36
ATOM     36  C   UNL A   1      33.464  32.091  27.838  1.00  0.00     0.188 C 
BRANCH  36  37
ATOM     37  C   UNL A   1      33.699  33.617  27.782  1.00  0.00     0.188 C 
BRANCH  37  38
ATOM     38  O   UNL A   1      32.721  34.368  28.493  1.00  0.00    -0.376 OA
BRANCH  38  39
ATOM     39  C   UNL A   1      33.269  35.437  29.274  1.00  0.00     0.202 C 
BRANCH  39  40
ATOM     40  C   UNL A   1      33.556  35.032  30.726  1.00  0.00     0.261 C 
BRANCH  40  41
ATOM     41  O   UNL A   1      34.854  34.438  30.918  1.00  0.00    -0.460 OA
BRANCH  41  42
ATOM     42  C   UNL A   1      34.867  33.164  31.390  1.00  0.00     0.338 C 
ATOM     43  O   UNL A   1      33.993  32.573  31.964  1.00  0.00    -0.246 OA
BRANCH  42  44
ATOM     44  C   UNL A   1      36.202  32.614  31.080  1.00  0.00     0.060 A 
ATOM     45  C   UNL A   1      36.927  31.919  32.050  1.00  0.00     0.016 A 
ATOM     46  C   UNL A   1      36.732  32.813  29.805  1.00  0.00     0.016 A 
ATOM     47  C   UNL A   1      38.187  31.406  31.739  1.00  0.00     0.010 A 
ATOM     48  C   UNL A   1      37.967  32.261  29.475  1.00  0.00     0.010 A 
ATOM     49  C   UNL A   1      38.718  31.597  30.456  1.00  0.00    -0.014 A 
BRANCH  49  50
ATOM     50  C   UNL A   1      40.162  31.386  30.221  1.00  0.00     0.031 A 
ATOM     51  C   UNL A   1      41.062  32.580  30.374  1.00  0.00     0.074 A 
ATOM     52  C   UNL A   1      40.658  30.184  29.881  1.00  0.00     0.049 A 
ATOM     53  N   UNL A   1      42.348  32.687  30.174  1.00  0.00    -0.248 NA
ATOM     54  C   UNL A   1      40.414  33.831  30.810  1.00  0.00     0.031 C 
ATOM     55  C   UNL A   1      39.883  28.956  29.730  1.00  0.00     0.029 A 
ATOM     56  N   UNL A   1      41.946  29.812  29.589  1.00  0.00    -0.354 N 
ATOM     57  C   UNL A   1      42.658  34.011  30.453  1.00  0.00     0.074 A 
ATOM     58  C   UNL A   1      41.428  34.680  30.806  1.00  0.00     0.031 C 
ATOM     59  C   UNL A   1      40.712  27.962  29.363  1.00  0.00     0.029 A 
ATOM     60  C   UNL A   1      42.067  28.493  29.226  1.00  0.00     0.049 A 
ATOM     61  H   UNL A   1      42.710  30.430  29.637  1.00  0.00     0.167 HD
ATOM     62  C   UNL A   1      43.867  34.615  30.428  1.00  0.00     0.037 A 
ATOM     63  C   UNL A   1      43.153  27.812  28.812  1.00  0.00     0.037 A 
ATOM     64  C   UNL A   1      45.086  33.950  30.068  1.00  0.00     0.049 A 
ATOM     65  C   UNL A   1      44.480  28.526  28.726  1.00  0.00     0.074 A 
ATOM     66  C   UNL A   1      46.368  34.465  30.015  1.00  0.00     0.029 A 
ATOM     67  N   UNL A   1      45.168  32.619  29.690  1.00  0.00    -0.354 N 
ATOM     68  N   UNL A   1      44.774  29.769  29.025  1.00  0.00    -0.248 NA
ATOM     69  C   UNL A   1      45.626  27.741  28.245  1.00  0.00     0.031 C 
ATOM     70  C   UNL A   1      47.221  33.453  29.563  1.00  0.00     0.029 A 
ATOM     71  C   UNL A   1      46.478  32.297  29.381  1.00  0.00     0.049 A 
ATOM     72  H   UNL A   1      44.408  31.995  29.647  1.00  0.00     0.167 HD
ATOM     73  C   UNL A   1      46.138  29.905  28.799  1.00  0.00     0.074 A 
ATOM     74  C   UNL A   1      46.616  28.616  28.347  1.00  0.00     0.031 C 
ATOM     75  C   UNL A   1      46.927  30.998  28.951  1.00  0.00     0.037 A 
BRANCH  62  76
ATOM     76  C   UNL A   1      43.910  36.073  30.772  1.00  0.00     0.064 A 
ATOM     77  C   UNL A   1      44.091  36.510  32.093  1.00  0.00     0.173 A 
ATOM     78  C   UNL A   1      43.767  37.043  29.771  1.00  0.00     0.173 A 
ATOM     79  F   UNL A   1      44.206  35.619  33.090  1.00  0.00    -0.203 F 
ATOM     80  C   UNL A   1      44.103  37.868  32.401  1.00  0.00     0.198 A 
ATOM     81  C   UNL A   1      43.805  38.400  30.079  1.00  0.00     0.198 A 
ATOM     82  F   UNL A   1      43.583  36.675  28.494  1.00  0.00    -0.203 F 
ATOM     83  F   UNL A   1      44.226  38.262  33.676  1.00  0.00    -0.200 F 
ATOM     84  C   UNL A   1      43.967  38.811  31.394  1.00  0.00     0.200 A 
ATOM     85  F   UNL A   1      43.677  39.310  29.104  1.00  0.00    -0.200 F 
ATOM     86  F   UNL A   1      43.980  40.117  31.691  1.00  0.00    -0.200 F 
ENDBRANCH  62  76
BRANCH  63  87
ATOM     87  C   UNL A   1      43.042  26.377  28.438  1.00  0.00     0.064 A 
ATOM     88  C   UNL A   1      42.637  25.994  27.152  1.00  0.00     0.173 A 
ATOM     89  C   UNL A   1      43.302  25.360  29.367  1.00  0.00     0.173 A 
ATOM     90  F   UNL A   1      42.350  26.931  26.235  1.00  0.00    -0.203 F 
ATOM     91  C   UNL A   1      42.475  24.652  26.816  1.00  0.00     0.198 A 
ATOM     92  C   UNL A   1      43.167  24.016  29.022  1.00  0.00     0.198 A 
ATOM     93  F   UNL A   1      43.688  25.671  30.614  1.00  0.00    -0.203 F 
ATOM     94  F   UNL A   1      42.038  24.317  25.594  1.00  0.00    -0.200 F 
ATOM     95  C   UNL A   1      42.744  23.663  27.750  1.00  0.00     0.200 A 
ATOM     96  F   UNL A   1      43.435  23.064  29.927  1.00  0.00    -0.200 F 
ATOM     97  F   UNL A   1      42.586  22.372  27.427  1.00  0.00    -0.200 F 
ENDBRANCH  63  87
BRANCH  75  98
ATOM     98  C   UNL A   1      48.392  30.838  28.670  1.00  0.00     0.064 A 
ATOM     99  C   UNL A   1      48.962  31.277  27.467  1.00  0.00     0.173 A 
ATOM    100  C   UNL A   1      49.242  30.295  29.645  1.00  0.00     0.173 A 
ATOM    101  F   UNL A   1      48.187  31.791  26.500  1.00  0.00    -0.203 F 
ATOM    102  C   UNL A   1      50.331  31.159  27.242  1.00  0.00     0.198 A 
ATOM    103  C   UNL A   1      50.614  30.206  29.429  1.00  0.00     0.198 A 
ATOM    104  F   UNL A   1      48.744  29.871  30.817  1.00  0.00    -0.203 F 
ATOM    105  F   UNL A   1      50.851  31.549  26.070  1.00  0.00    -0.200 F 
ATOM    106  C   UNL A   1      51.156  30.632  28.226  1.00  0.00     0.200 A 
ATOM    107  F   UNL A   1      51.411  29.711  30.385  1.00  0.00    -0.200 F 
ATOM    108  F   UNL A   1      52.475  30.531  28.011  1.00  0.00    -0.200 F 
ENDBRANCH  75  98
ENDBRANCH  49  50
ENDBRANCH  42  44
ENDBRANCH  41  42
ENDBRANCH  40  41
ENDBRANCH  39  40
ENDBRANCH  38  39
ENDBRANCH  37  38
ENDBRANCH  36  37
ENDBRANCH  35  36
ENDBRANCH   1  35
TORSDOF 24
ENDMDL
MODEL 3
REMARK VINA RESULT:      -9.9      2.671      4.211
REMARK SMILES C[C@@H](C(=O)OCCOCCOCCOCCOC(=O)c1ccc(-c2c3nc(c(-c4c(F)c(F)c(F)c(F)c4F)c4ccc([nH]4)c(-c4c(F)c(F)c(F)c(F)c4F)c4nc(c(-c5c(F)c(F)c(F)c(F)c5F)c5ccc2[nH]5)C=C4)C=C3)cc1)[N@@H+]1CCc2n[nH]c(C(c3ccccc3)c3ccccc3)c2C1
REMARK SMILES IDX 10 1 9 2 8 3 7 4 6 5 5 6 3 7 4 8 2 9 1 10 83 11 84 12 104 13
REMARK SMILES IDX 85 15 103 16 86 17 89 18 87 19 88 20 90 22 91 23 92 24 96 25
REMARK SMILES IDX 93 26 95 27 94 28 97 29 98 30 102 31 99 32 101 33 100 34
REMARK SMILES IDX 11 35 12 36 13 37 14 38 15 39 16 40 17 41 18 42 19 43 20 44
REMARK SMILES IDX 21 45 82 46 22 47 81 48 23 49 24 50 25 51 75 52 26 53 80 54
REMARK SMILES IDX 74 55 76 56 27 57 79 58 73 59 72 60 28 62 60 63 40 64 59 65
REMARK SMILES IDX 41 66 44 67 58 68 77 69 42 70 43 71 57 73 78 74 45 75 29 76
REMARK SMILES IDX 30 77 38 78 31 79 32 80 36 81 39 82 33 83 34 84 37 85 35 86
REMARK SMILES IDX 61 87 62 88 70 89 63 90 64 91 68 92 71 93 65 94 66 95 69 96
REMARK SMILES IDX 67 97 46 98 47 99 55 100 48 101 49 102 53 103 56 104 50 105
REMARK SMILES IDX 51 106 54 107 52 108
REMARK H PARENT 83 14 88 21 76 61 44 72
REMARK Flexibility Score: inf
ROOT
ATOM      1  C   UNL A   1      36.160  30.717  28.882  1.00  0.00     0.188 C 
ENDROOT
BRANCH   1   2
ATOM      2  C   UNL A   1      35.789  29.524  27.976  1.00  0.00     0.188 C 
BRANCH   2   3
ATOM      3  O   UNL A   1      34.433  29.489  27.511  1.00  0.00    -0.376 OA
BRANCH   3   4
ATOM      4  C   UNL A   1      34.199  29.678  26.107  1.00  0.00     0.202 C 
BRANCH   4   5
ATOM      5  C   UNL A   1      33.104  28.684  25.525  1.00  0.00     0.261 C 
BRANCH   5   6
ATOM      6  O   UNL A   1      33.661  27.703  24.584  1.00  0.00    -0.459 OA
BRANCH   6   7
ATOM      7  C   UNL A   1      33.625  26.349  24.850  1.00  0.00     0.364 C 
ATOM      8  O   UNL A   1      34.044  25.881  25.905  1.00  0.00    -0.245 OA
BRANCH   7   9
ATOM      9  C   UNL A   1      32.803  25.465  23.753  1.00  0.00     0.292 C 
ATOM     10  C   UNL A   1      33.292  25.519  22.307  1.00  0.00     0.088 C 
BRANCH   9  11
ATOM     11  N   UNL A   1      31.316  25.607  23.925  1.00  0.00    -0.319 N 
ATOM     12  C   UNL A   1      30.759  26.311  25.121  1.00  0.00     0.269 C 
ATOM     13  C   UNL A   1      30.691  24.299  23.807  1.00  0.00     0.303 C 
ATOM     14  H   UNL A   1      31.085  26.256  23.174  1.00  0.00     0.349 HD
ATOM     15  C   UNL A   1      29.823  25.468  26.077  1.00  0.00     0.120 C 
ATOM     16  C   UNL A   1      31.011  23.499  25.043  1.00  0.00     0.052 A 
ATOM     17  C   UNL A   1      30.359  24.083  26.161  1.00  0.00     0.077 A 
ATOM     18  C   UNL A   1      31.838  22.510  25.641  1.00  0.00     0.056 A 
ATOM     19  N   UNL A   1      30.293  23.258  27.189  1.00  0.00    -0.180 NA
ATOM     20  N   UNL A   1      30.980  22.210  26.708  1.00  0.00    -0.281 N 
ATOM     21  H   UNL A   1      30.889  21.301  27.076  1.00  0.00     0.190 HD
BRANCH  18  22
ATOM     22  C   UNL A   1      33.128  21.551  25.480  1.00  0.00     0.098 C 
BRANCH  22  23
ATOM     23  C   UNL A   1      33.128  20.199  24.683  1.00  0.00    -0.035 A 
ATOM     24  C   UNL A   1      34.112  19.221  24.949  1.00  0.00     0.005 A 
ATOM     25  C   UNL A   1      32.297  19.912  23.585  1.00  0.00     0.005 A 
ATOM     26  C   UNL A   1      34.190  18.014  24.225  1.00  0.00     0.000 A 
ATOM     27  C   UNL A   1      32.375  18.719  22.846  1.00  0.00     0.000 A 
ATOM     28  C   UNL A   1      33.314  17.758  23.177  1.00  0.00     0.000 A 
ENDBRANCH  22  23
BRANCH  22  29
ATOM     29  C   UNL A   1      34.370  22.421  25.060  1.00  0.00    -0.035 A 
ATOM     30  C   UNL A   1      35.341  22.902  25.962  1.00  0.00     0.005 A 
ATOM     31  C   UNL A   1      34.655  22.564  23.695  1.00  0.00     0.005 A 
ATOM     32  C   UNL A   1      36.580  23.387  25.536  1.00  0.00     0.000 A 
ATOM     33  C   UNL A   1      35.938  22.934  23.284  1.00  0.00     0.000 A 
ATOM     34  C   UNL A   1      36.898  23.355  24.193  1.00  0.00     0.000 A 
ENDBRANCH  22  29
ENDBRANCH  18  22
ENDBRANCH   9  11
ENDBRANCH   7   9
ENDBRANCH   6   7
ENDBRANCH   5   6
ENDBRANCH   4   5
ENDBRANCH   3   4
ENDBRANCH   2   3
ENDBRANCH   1   2
BRANCH   1  35
ATOM     35  O   UNL A   1      35.472  31.925  28.514  1.00  0.00    -0.377 OA
BRANCH  35  36
ATOM     36  C   UNL A   1      34.677  32.439  29.589  1.00  0.00     0.188 C 
BRANCH  36  37
ATOM     37  C   UNL A   1      34.417  33.962  29.562  1.00  0.00     0.188 C 
BRANCH  37  38
ATOM     38  O   UNL A   1      33.512  34.402  30.569  1.00  0.00    -0.376 OA
BRANCH  38  39
ATOM     39  C   UNL A   1      34.062  35.387  31.451  1.00  0.00     0.202 C 
BRANCH  39  40
ATOM     40  C   UNL A   1      34.623  34.785  32.745  1.00  0.00     0.261 C 
BRANCH  40  41
ATOM     41  O   UNL A   1      35.995  34.358  32.641  1.00  0.00    -0.460 OA
BRANCH  41  42
ATOM     42  C   UNL A   1      36.239  33.050  32.916  1.00  0.00     0.338 C 
ATOM     43  O   UNL A   1      35.572  32.287  33.561  1.00  0.00    -0.246 OA
BRANCH  42  44
ATOM     44  C   UNL A   1      37.530  32.719  32.278  1.00  0.00     0.060 A 
ATOM     45  C   UNL A   1      38.513  32.022  32.983  1.00  0.00     0.016 A 
ATOM     46  C   UNL A   1      37.754  33.129  30.964  1.00  0.00     0.016 A 
ATOM     47  C   UNL A   1      39.726  31.718  32.364  1.00  0.00     0.010 A 
ATOM     48  C   UNL A   1      38.943  32.785  30.325  1.00  0.00     0.010 A 
ATOM     49  C   UNL A   1      39.950  32.119  31.040  1.00  0.00    -0.014 A 
BRANCH  49  50
ATOM     50  C   UNL A   1      41.326  32.128  30.499  1.00  0.00     0.031 A 
ATOM     51  C   UNL A   1      42.117  33.396  30.662  1.00  0.00     0.074 A 
ATOM     52  C   UNL A   1      41.855  31.057  29.884  1.00  0.00     0.049 A 
ATOM     53  N   UNL A   1      43.316  33.693  30.236  1.00  0.00    -0.248 NA
ATOM     54  C   UNL A   1      41.456  34.484  31.406  1.00  0.00     0.031 C 
ATOM     55  C   UNL A   1      41.188  29.771  29.695  1.00  0.00     0.029 A 
ATOM     56  N   UNL A   1      43.082  30.894  29.293  1.00  0.00    -0.354 N 
ATOM     57  C   UNL A   1      43.546  34.996  30.655  1.00  0.00     0.074 A 
ATOM     58  C   UNL A   1      42.359  35.448  31.340  1.00  0.00     0.031 C 
ATOM     59  C   UNL A   1      42.015  28.949  29.021  1.00  0.00     0.029 A 
ATOM     60  C   UNL A   1      43.252  29.663  28.710  1.00  0.00     0.049 A 
ATOM     61  H   UNL A   1      43.775  31.593  29.289  1.00  0.00     0.167 HD
ATOM     62  C   UNL A   1      44.658  35.747  30.492  1.00  0.00     0.037 A 
ATOM     63  C   UNL A   1      44.288  29.188  27.992  1.00  0.00     0.037 A 
ATOM     64  C   UNL A   1      45.833  35.298  29.802  1.00  0.00     0.049 A 
ATOM     65  C   UNL A   1      45.491  30.071  27.764  1.00  0.00     0.074 A 
ATOM     66  C   UNL A   1      47.019  35.975  29.585  1.00  0.00     0.029 A 
ATOM     67  N   UNL A   1      45.963  34.051  29.210  1.00  0.00    -0.354 N 
ATOM     68  N   UNL A   1      45.719  31.290  28.193  1.00  0.00    -0.248 NA
ATOM     69  C   UNL A   1      46.582  29.511  26.953  1.00  0.00     0.031 C 
ATOM     70  C   UNL A   1      47.852  35.150  28.821  1.00  0.00     0.029 A 
ATOM     71  C   UNL A   1      47.204  33.944  28.607  1.00  0.00     0.049 A 
ATOM     72  H   UNL A   1      45.276  33.346  29.217  1.00  0.00     0.167 HD
ATOM     73  C   UNL A   1      46.984  31.629  27.732  1.00  0.00     0.074 A 
ATOM     74  C   UNL A   1      47.481  30.483  26.998  1.00  0.00     0.031 C 
ATOM     75  C   UNL A   1      47.677  32.783  27.899  1.00  0.00     0.037 A 
BRANCH  62  76
ATOM     76  C   UNL A   1      44.630  37.139  31.047  1.00  0.00     0.064 A 
ATOM     77  C   UNL A   1      45.099  37.424  32.338  1.00  0.00     0.173 A 
ATOM     78  C   UNL A   1      44.126  38.199  30.280  1.00  0.00     0.173 A 
ATOM     79  F   UNL A   1      45.565  36.438  33.120  1.00  0.00    -0.203 F 
ATOM     80  C   UNL A   1      45.042  38.717  32.850  1.00  0.00     0.198 A 
ATOM     81  C   UNL A   1      44.095  39.495  30.785  1.00  0.00     0.198 A 
ATOM     82  F   UNL A   1      43.658  37.975  29.043  1.00  0.00    -0.203 F 
ATOM     83  F   UNL A   1      45.449  38.958  34.103  1.00  0.00    -0.200 F 
ATOM     84  C   UNL A   1      44.547  39.752  32.071  1.00  0.00     0.200 A 
ATOM     85  F   UNL A   1      43.619  40.495  30.030  1.00  0.00    -0.200 F 
ATOM     86  F   UNL A   1      44.494  40.997  32.564  1.00  0.00    -0.200 F 
ENDBRANCH  62  76
BRANCH  63  87
ATOM     87  C   UNL A   1      44.242  27.815  27.425  1.00  0.00     0.064 A 
ATOM     88  C   UNL A   1      43.514  27.538  26.259  1.00  0.00     0.173 A 
ATOM     89  C   UNL A   1      44.891  26.744  28.056  1.00  0.00     0.173 A 
ATOM     90  F   UNL A   1      42.853  28.524  25.634  1.00  0.00    -0.203 F 
ATOM     91  C   UNL A   1      43.421  26.241  25.758  1.00  0.00     0.198 A 
ATOM     92  C   UNL A   1      44.820  25.451  27.538  1.00  0.00     0.198 A 
ATOM     93  F   UNL A   1      45.597  26.953  29.177  1.00  0.00    -0.203 F 
ATOM     94  F   UNL A   1      42.677  25.997  24.669  1.00  0.00    -0.200 F 
ATOM     95  C   UNL A   1      44.077  25.199  26.395  1.00  0.00     0.200 A 
ATOM     96  F   UNL A   1      45.461  24.449  28.154  1.00  0.00    -0.200 F 
ATOM     97  F   UNL A   1      43.984  23.952  25.915  1.00  0.00    -0.200 F 
ENDBRANCH  63  87
BRANCH  75  98
ATOM     98  C   UNL A   1      49.058  32.850  27.317  1.00  0.00     0.064 A 
ATOM     99  C   UNL A   1      49.328  33.567  26.143  1.00  0.00     0.173 A 
ATOM    100  C   UNL A   1      50.134  32.241  27.981  1.00  0.00     0.173 A 
ATOM    101  F   UNL A   1      48.330  34.156  25.467  1.00  0.00    -0.203 F 
ATOM    102  C   UNL A   1      50.624  33.655  25.643  1.00  0.00     0.198 A 
ATOM    103  C   UNL A   1      51.433  32.356  27.495  1.00  0.00     0.198 A 
ATOM    104  F   UNL A   1      49.927  31.553  29.115  1.00  0.00    -0.203 F 
ATOM    105  F   UNL A   1      50.855  34.312  24.498  1.00  0.00    -0.200 F 
ATOM    106  C   UNL A   1      51.676  33.057  26.324  1.00  0.00     0.200 A 
ATOM    107  F   UNL A   1      52.448  31.791  28.161  1.00  0.00    -0.200 F 
ATOM    108  F   UNL A   1      52.925  33.153  25.846  1.00  0.00    -0.200 F 
ENDBRANCH  75  98
ENDBRANCH  49  50
ENDBRANCH  42  44
ENDBRANCH  41  42
ENDBRANCH  40  41
ENDBRANCH  39  40
ENDBRANCH  38  39
ENDBRANCH  37  38
ENDBRANCH  36  37
ENDBRANCH  35  36
ENDBRANCH   1  35
TORSDOF 24
ENDMDL
