MODEL 1
REMARK VINA RESULT:     -10.8      0.000      0.000
REMARK SMILES Cc1cccc([C@H]2[C@@H](C(=O)OCCOCCOCCOCCOC(=O)c3ccc(-c4c5nc(c(-c6c(F)c(F)c(F)c(F)c6F)c6ccc([nH]6)c(-c6c(F)c(F)c(F)c(F)c6F)c6nc(c(-c7c(F)c(F)c(F)c(F)c7F)c7ccc4[nH]7)C=C6)C=C5)cc3)CC(=O)N2C)c1
REMARK SMILES IDX 18 1 17 2 16 3 15 4 14 5 13 6 12 7 11 8 9 9 10 10 8 11 7 12
REMARK SMILES IDX 92 13 89 14 90 15 93 16 91 17 6 18 1 19 2 20 3 21 94 22 4 23
REMARK SMILES IDX 5 24 19 25 20 26 21 27 22 28 23 29 24 30 25 31 26 32 27 33
REMARK SMILES IDX 88 34 28 35 87 36 29 37 30 38 31 39 81 40 32 41 86 42 80 43
REMARK SMILES IDX 82 44 33 45 85 46 79 47 78 48 34 50 66 51 46 52 65 53 47 54
REMARK SMILES IDX 50 55 64 56 83 57 48 58 49 59 63 61 84 62 51 63 35 64 36 65
REMARK SMILES IDX 44 66 37 67 38 68 42 69 45 70 39 71 40 72 43 73 41 74 67 75
REMARK SMILES IDX 68 76 76 77 69 78 70 79 74 80 77 81 71 82 72 83 75 84 73 85
REMARK SMILES IDX 52 86 53 87 61 88 54 89 55 90 59 91 62 92 56 93 57 94 60 95
REMARK SMILES IDX 58 96
REMARK H PARENT 82 49 50 60
REMARK Flexibility Score: inf
ROOT
ATOM      1  C   UNL A   1      35.869  21.385  24.974  1.00  0.00     0.188 C 
ENDROOT
BRANCH   1   2
ATOM      2  O   UNL A   1      35.630  22.797  24.983  1.00  0.00    -0.377 OA
BRANCH   2   3
ATOM      3  C   UNL A   1      35.228  23.241  26.277  1.00  0.00     0.188 C 
BRANCH   3   4
ATOM      4  C   UNL A   1      34.220  22.339  26.991  1.00  0.00     0.188 C 
BRANCH   4   5
ATOM      5  O   UNL A   1      32.868  22.791  27.038  1.00  0.00    -0.376 OA
BRANCH   5   6
ATOM      6  C   UNL A   1      32.201  22.859  25.777  1.00  0.00     0.202 C 
BRANCH   6   7
ATOM      7  C   UNL A   1      30.721  23.261  25.876  1.00  0.00     0.261 C 
BRANCH   7   8
ATOM      8  O   UNL A   1      30.523  24.548  25.252  1.00  0.00    -0.463 OA
BRANCH   8   9
ATOM      9  C   UNL A   1      31.240  25.593  25.719  1.00  0.00     0.312 C 
ATOM     10  O   UNL A   1      31.307  25.933  26.895  1.00  0.00    -0.252 OA
BRANCH   9  11
ATOM     11  C   UNL A   1      32.130  26.176  24.654  1.00  0.00     0.135 C 
ATOM     12  C   UNL A   1      31.987  27.629  24.225  1.00  0.00     0.130 C 
ATOM     13  N   UNL A   1      33.010  27.650  23.187  1.00  0.00    -0.338 N 
ATOM     14  C   UNL A   1      32.285  25.444  23.325  1.00  0.00     0.118 C 
ATOM     15  C   UNL A   1      33.109  26.429  22.546  1.00  0.00     0.223 C 
ATOM     16  C   UNL A   1      33.813  28.814  22.908  1.00  0.00     0.147 C 
ATOM     17  O   UNL A   1      33.770  26.168  21.544  1.00  0.00    -0.275 OA
BRANCH  12  18
ATOM     18  C   UNL A   1      30.666  28.176  23.678  1.00  0.00    -0.024 A 
ATOM     19  C   UNL A   1      28.798  31.520  23.483  1.00  0.00     0.044 C 
ATOM     20  C   UNL A   1      29.079  30.048  23.415  1.00  0.00    -0.051 A 
ATOM     21  C   UNL A   1      28.041  29.144  23.222  1.00  0.00     0.003 A 
ATOM     22  C   UNL A   1      30.384  29.558  23.586  1.00  0.00     0.009 A 
ATOM     23  C   UNL A   1      28.308  27.779  23.238  1.00  0.00     0.001 A 
ATOM     24  C   UNL A   1      29.605  27.301  23.463  1.00  0.00     0.006 A 
ENDBRANCH  12  18
ENDBRANCH   9  11
ENDBRANCH   8   9
ENDBRANCH   7   8
ENDBRANCH   6   7
ENDBRANCH   5   6
ENDBRANCH   4   5
ENDBRANCH   3   4
ENDBRANCH   2   3
ENDBRANCH   1   2
BRANCH   1  25
ATOM     25  C   UNL A   1      37.340  21.113  24.708  1.00  0.00     0.188 C 
BRANCH  25  26
ATOM     26  O   UNL A   1      38.262  21.539  25.704  1.00  0.00    -0.376 OA
BRANCH  26  27
ATOM     27  C   UNL A   1      39.482  20.827  25.884  1.00  0.00     0.202 C 
BRANCH  27  28
ATOM     28  C   UNL A   1      40.340  21.262  27.077  1.00  0.00     0.261 C 
BRANCH  28  29
ATOM     29  O   UNL A   1      39.943  22.586  27.483  1.00  0.00    -0.460 OA
BRANCH  29  30
ATOM     30  C   UNL A   1      40.846  23.569  27.227  1.00  0.00     0.338 C 
ATOM     31  O   UNL A   1      42.056  23.419  27.194  1.00  0.00    -0.246 OA
BRANCH  30  32
ATOM     32  C   UNL A   1      40.176  24.902  27.340  1.00  0.00     0.060 A 
ATOM     33  C   UNL A   1      40.439  25.878  26.361  1.00  0.00     0.016 A 
ATOM     34  C   UNL A   1      39.667  25.291  28.576  1.00  0.00     0.016 A 
ATOM     35  C   UNL A   1      40.402  27.241  26.692  1.00  0.00     0.010 A 
ATOM     36  C   UNL A   1      39.744  26.626  28.926  1.00  0.00     0.010 A 
ATOM     37  C   UNL A   1      40.173  27.612  28.014  1.00  0.00    -0.014 A 
BRANCH  37  38
ATOM     38  C   UNL A   1      40.614  28.887  28.633  1.00  0.00     0.031 A 
ATOM     39  C   UNL A   1      39.596  29.986  28.807  1.00  0.00     0.074 A 
ATOM     40  C   UNL A   1      41.759  28.880  29.370  1.00  0.00     0.049 A 
ATOM     41  N   UNL A   1      39.722  31.020  29.569  1.00  0.00    -0.248 NA
ATOM     42  C   UNL A   1      38.306  29.996  28.107  1.00  0.00     0.031 C 
ATOM     43  C   UNL A   1      41.988  29.629  30.595  1.00  0.00     0.029 A 
ATOM     44  N   UNL A   1      42.946  28.136  29.262  1.00  0.00    -0.354 N 
ATOM     45  C   UNL A   1      38.511  31.688  29.644  1.00  0.00     0.074 A 
ATOM     46  C   UNL A   1      37.669  31.020  28.689  1.00  0.00     0.031 C 
ATOM     47  C   UNL A   1      43.219  29.445  31.074  1.00  0.00     0.029 A 
ATOM     48  C   UNL A   1      43.942  28.823  30.018  1.00  0.00     0.049 A 
ATOM     49  H   UNL A   1      43.067  27.298  28.761  1.00  0.00     0.167 HD
ATOM     50  C   UNL A   1      38.349  32.698  30.551  1.00  0.00     0.037 A 
ATOM     51  C   UNL A   1      44.966  29.469  29.387  1.00  0.00     0.037 A 
ATOM     52  C   UNL A   1      39.642  33.161  31.090  1.00  0.00     0.049 A 
ATOM     53  C   UNL A   1      44.805  31.000  29.337  1.00  0.00     0.074 A 
ATOM     54  C   UNL A   1      40.122  33.544  32.329  1.00  0.00     0.029 A 
ATOM     55  N   UNL A   1      40.749  33.205  30.239  1.00  0.00    -0.354 N 
ATOM     56  N   UNL A   1      43.778  31.668  29.830  1.00  0.00    -0.248 NA
ATOM     57  C   UNL A   1      45.764  31.905  28.709  1.00  0.00     0.031 C 
ATOM     58  C   UNL A   1      41.490  33.900  32.177  1.00  0.00     0.029 A 
ATOM     59  C   UNL A   1      41.889  33.625  30.878  1.00  0.00     0.049 A 
ATOM     60  H   UNL A   1      40.716  32.962  29.287  1.00  0.00     0.167 HD
ATOM     61  C   UNL A   1      43.920  33.018  29.620  1.00  0.00     0.074 A 
ATOM     62  C   UNL A   1      45.163  33.101  28.863  1.00  0.00     0.031 C 
ATOM     63  C   UNL A   1      43.052  33.984  30.077  1.00  0.00     0.037 A 
BRANCH  50  64
ATOM     64  C   UNL A   1      37.010  33.257  31.058  1.00  0.00     0.064 A 
ATOM     65  C   UNL A   1      36.545  32.962  32.365  1.00  0.00     0.173 A 
ATOM     66  C   UNL A   1      36.072  33.960  30.268  1.00  0.00     0.173 A 
ATOM     67  F   UNL A   1      37.330  32.356  33.265  1.00  0.00    -0.203 F 
ATOM     68  C   UNL A   1      35.252  33.276  32.811  1.00  0.00     0.198 A 
ATOM     69  C   UNL A   1      34.805  34.342  30.742  1.00  0.00     0.198 A 
ATOM     70  F   UNL A   1      36.317  34.269  28.990  1.00  0.00    -0.203 F 
ATOM     71  F   UNL A   1      34.852  32.884  34.029  1.00  0.00    -0.200 F 
ATOM     72  C   UNL A   1      34.384  33.975  32.003  1.00  0.00     0.200 A 
ATOM     73  F   UNL A   1      33.983  35.047  29.950  1.00  0.00    -0.200 F 
ATOM     74  F   UNL A   1      33.153  34.289  32.430  1.00  0.00    -0.200 F 
ENDBRANCH  50  64
BRANCH  51  75
ATOM     75  C   UNL A   1      45.684  28.455  28.535  1.00  0.00     0.064 A 
ATOM     76  C   UNL A   1      45.576  28.758  27.147  1.00  0.00     0.173 A 
ATOM     77  C   UNL A   1      46.933  27.989  28.977  1.00  0.00     0.173 A 
ATOM     78  F   UNL A   1      44.394  29.161  26.650  1.00  0.00    -0.203 F 
ATOM     79  C   UNL A   1      46.717  28.972  26.371  1.00  0.00     0.198 A 
ATOM     80  C   UNL A   1      48.071  28.151  28.171  1.00  0.00     0.198 A 
ATOM     81  F   UNL A   1      47.097  27.628  30.257  1.00  0.00    -0.203 F 
ATOM     82  F   UNL A   1      46.613  29.577  25.178  1.00  0.00    -0.200 F 
ATOM     83  C   UNL A   1      47.968  28.722  26.908  1.00  0.00     0.200 A 
ATOM     84  F   UNL A   1      49.288  27.910  28.680  1.00  0.00    -0.200 F 
ATOM     85  F   UNL A   1      49.070  29.120  26.254  1.00  0.00    -0.200 F 
ENDBRANCH  51  75
BRANCH  63  86
ATOM     86  C   UNL A   1      43.183  35.462  29.787  1.00  0.00     0.064 A 
ATOM     87  C   UNL A   1      42.546  36.102  28.722  1.00  0.00     0.173 A 
ATOM     88  C   UNL A   1      44.046  36.275  30.568  1.00  0.00     0.173 A 
ATOM     89  F   UNL A   1      41.877  35.400  27.797  1.00  0.00    -0.203 F 
ATOM     90  C   UNL A   1      42.616  37.487  28.561  1.00  0.00     0.198 A 
ATOM     91  C   UNL A   1      44.177  37.643  30.355  1.00  0.00     0.198 A 
ATOM     92  F   UNL A   1      44.784  35.774  31.569  1.00  0.00    -0.203 F 
ATOM     93  F   UNL A   1      41.892  38.076  27.599  1.00  0.00    -0.200 F 
ATOM     94  C   UNL A   1      43.420  38.257  29.384  1.00  0.00     0.200 A 
ATOM     95  F   UNL A   1      45.023  38.357  31.111  1.00  0.00    -0.200 F 
ATOM     96  F   UNL A   1      43.471  39.587  29.235  1.00  0.00    -0.200 F 
ENDBRANCH  63  86
ENDBRANCH  37  38
ENDBRANCH  30  32
ENDBRANCH  29  30
ENDBRANCH  28  29
ENDBRANCH  27  28
ENDBRANCH  26  27
ENDBRANCH  25  26
ENDBRANCH   1  25
TORSDOF 21
ENDMDL
MODEL 2
REMARK VINA RESULT:     -10.7      0.986      2.076
REMARK SMILES Cc1cccc([C@H]2[C@@H](C(=O)OCCOCCOCCOCCOC(=O)c3ccc(-c4c5nc(c(-c6c(F)c(F)c(F)c(F)c6F)c6ccc([nH]6)c(-c6c(F)c(F)c(F)c(F)c6F)c6nc(c(-c7c(F)c(F)c(F)c(F)c7F)c7ccc4[nH]7)C=C6)C=C5)cc3)CC(=O)N2C)c1
REMARK SMILES IDX 18 1 17 2 16 3 15 4 14 5 13 6 12 7 11 8 9 9 10 10 8 11 7 12
REMARK SMILES IDX 92 13 89 14 90 15 93 16 91 17 6 18 1 19 2 20 3 21 94 22 4 23
REMARK SMILES IDX 5 24 19 25 20 26 21 27 22 28 23 29 24 30 25 31 26 32 27 33
REMARK SMILES IDX 88 34 28 35 87 36 29 37 30 38 31 39 81 40 32 41 86 42 80 43
REMARK SMILES IDX 82 44 33 45 85 46 79 47 78 48 34 50 66 51 46 52 65 53 47 54
REMARK SMILES IDX 50 55 64 56 83 57 48 58 49 59 63 61 84 62 51 63 35 64 36 65
REMARK SMILES IDX 44 66 37 67 38 68 42 69 45 70 39 71 40 72 43 73 41 74 67 75
REMARK SMILES IDX 68 76 76 77 69 78 70 79 74 80 77 81 71 82 72 83 75 84 73 85
REMARK SMILES IDX 52 86 53 87 61 88 54 89 55 90 59 91 62 92 56 93 57 94 60 95
REMARK SMILES IDX 58 96
REMARK H PARENT 82 49 50 60
REMARK Flexibility Score: inf
ROOT
ATOM      1  C   UNL A   1      36.285  21.757  25.270  1.00  0.00     0.188 C 
ENDROOT
BRANCH   1   2
ATOM      2  O   UNL A   1      35.802  23.105  25.282  1.00  0.00    -0.377 OA
BRANCH   2   3
ATOM      3  C   UNL A   1      35.061  23.374  26.470  1.00  0.00     0.188 C 
BRANCH   3   4
ATOM      4  C   UNL A   1      34.289  22.183  27.040  1.00  0.00     0.188 C 
BRANCH   4   5
ATOM      5  O   UNL A   1      32.981  22.442  27.543  1.00  0.00    -0.376 OA
BRANCH   5   6
ATOM      6  C   UNL A   1      31.907  21.984  26.720  1.00  0.00     0.202 C 
BRANCH   6   7
ATOM      7  C   UNL A   1      31.042  23.115  26.140  1.00  0.00     0.261 C 
BRANCH   7   8
ATOM      8  O   UNL A   1      31.742  23.752  25.049  1.00  0.00    -0.463 OA
BRANCH   8   9
ATOM      9  C   UNL A   1      32.184  25.014  25.235  1.00  0.00     0.312 C 
ATOM     10  O   UNL A   1      32.302  25.567  26.323  1.00  0.00    -0.252 OA
BRANCH   9  11
ATOM     11  C   UNL A   1      32.725  25.606  23.962  1.00  0.00     0.135 C 
ATOM     12  C   UNL A   1      32.555  27.088  23.654  1.00  0.00     0.130 C 
ATOM     13  N   UNL A   1      33.190  27.111  22.342  1.00  0.00    -0.338 N 
ATOM     14  C   UNL A   1      32.394  24.943  22.628  1.00  0.00     0.118 C 
ATOM     15  C   UNL A   1      32.992  25.925  21.660  1.00  0.00     0.223 C 
ATOM     16  C   UNL A   1      33.942  28.243  21.861  1.00  0.00     0.147 C 
ATOM     17  O   UNL A   1      33.278  25.684  20.490  1.00  0.00    -0.275 OA
BRANCH  12  18
ATOM     18  C   UNL A   1      31.171  27.736  23.583  1.00  0.00    -0.024 A 
ATOM     19  C   UNL A   1      27.489  26.699  23.879  1.00  0.00     0.044 C 
ATOM     20  C   UNL A   1      28.712  27.519  23.590  1.00  0.00    -0.051 A 
ATOM     21  C   UNL A   1      28.602  28.724  22.905  1.00  0.00     0.003 A 
ATOM     22  C   UNL A   1      29.987  27.067  23.968  1.00  0.00     0.009 A 
ATOM     23  C   UNL A   1      29.752  29.435  22.578  1.00  0.00     0.001 A 
ATOM     24  C   UNL A   1      31.020  28.947  22.913  1.00  0.00     0.006 A 
ENDBRANCH  12  18
ENDBRANCH   9  11
ENDBRANCH   8   9
ENDBRANCH   7   8
ENDBRANCH   6   7
ENDBRANCH   5   6
ENDBRANCH   4   5
ENDBRANCH   3   4
ENDBRANCH   2   3
ENDBRANCH   1   2
BRANCH   1  25
ATOM     25  C   UNL A   1      37.790  21.751  25.060  1.00  0.00     0.188 C 
BRANCH  25  26
ATOM     26  O   UNL A   1      38.600  21.621  26.222  1.00  0.00    -0.376 OA
BRANCH  26  27
ATOM     27  C   UNL A   1      39.880  21.007  26.122  1.00  0.00     0.202 C 
BRANCH  27  28
ATOM     28  C   UNL A   1      40.763  21.096  27.371  1.00  0.00     0.261 C 
BRANCH  28  29
ATOM     29  O   UNL A   1      40.745  22.450  27.863  1.00  0.00    -0.460 OA
BRANCH  29  30
ATOM     30  C   UNL A   1      41.319  23.374  27.048  1.00  0.00     0.338 C 
ATOM     31  O   UNL A   1      42.427  23.275  26.546  1.00  0.00    -0.246 OA
BRANCH  30  32
ATOM     32  C   UNL A   1      40.561  24.660  27.141  1.00  0.00     0.060 A 
ATOM     33  C   UNL A   1      40.735  25.624  26.131  1.00  0.00     0.016 A 
ATOM     34  C   UNL A   1      40.051  25.047  28.377  1.00  0.00     0.016 A 
ATOM     35  C   UNL A   1      40.609  26.989  26.426  1.00  0.00     0.010 A 
ATOM     36  C   UNL A   1      40.041  26.393  28.690  1.00  0.00     0.010 A 
ATOM     37  C   UNL A   1      40.382  27.381  27.743  1.00  0.00    -0.014 A 
BRANCH  37  38
ATOM     38  C   UNL A   1      40.745  28.700  28.318  1.00  0.00     0.031 A 
ATOM     39  C   UNL A   1      39.649  29.716  28.524  1.00  0.00     0.074 A 
ATOM     40  C   UNL A   1      41.921  28.802  28.997  1.00  0.00     0.049 A 
ATOM     41  N   UNL A   1      39.725  30.771  29.262  1.00  0.00    -0.248 NA
ATOM     42  C   UNL A   1      38.331  29.605  27.890  1.00  0.00     0.031 C 
ATOM     43  C   UNL A   1      42.145  29.593  30.197  1.00  0.00     0.029 A 
ATOM     44  N   UNL A   1      43.159  28.155  28.843  1.00  0.00    -0.354 N 
ATOM     45  C   UNL A   1      38.468  31.339  29.386  1.00  0.00     0.074 A 
ATOM     46  C   UNL A   1      37.639  30.585  28.485  1.00  0.00     0.031 C 
ATOM     47  C   UNL A   1      43.409  29.520  30.617  1.00  0.00     0.029 A 
ATOM     48  C   UNL A   1      44.129  28.937  29.537  1.00  0.00     0.049 A 
ATOM     49  H   UNL A   1      43.324  27.320  28.351  1.00  0.00     0.167 HD
ATOM     50  C   UNL A   1      38.267  32.351  30.284  1.00  0.00     0.037 A 
ATOM     51  C   UNL A   1      45.064  29.652  28.846  1.00  0.00     0.037 A 
ATOM     52  C   UNL A   1      39.542  32.929  30.750  1.00  0.00     0.049 A 
ATOM     53  C   UNL A   1      44.775  31.164  28.778  1.00  0.00     0.074 A 
ATOM     54  C   UNL A   1      40.047  33.375  31.957  1.00  0.00     0.029 A 
ATOM     55  N   UNL A   1      40.599  33.047  29.844  1.00  0.00    -0.354 N 
ATOM     56  N   UNL A   1      43.722  31.755  29.311  1.00  0.00    -0.248 NA
ATOM     57  C   UNL A   1      45.625  32.131  28.089  1.00  0.00     0.031 C 
ATOM     58  C   UNL A   1      41.372  33.840  31.731  1.00  0.00     0.029 A 
ATOM     59  C   UNL A   1      41.729  33.571  30.419  1.00  0.00     0.049 A 
ATOM     60  H   UNL A   1      40.540  32.782  28.899  1.00  0.00     0.167 HD
ATOM     61  C   UNL A   1      43.741  33.107  29.071  1.00  0.00     0.074 A 
ATOM     62  C   UNL A   1      44.935  33.276  28.253  1.00  0.00     0.031 C 
ATOM     63  C   UNL A   1      42.819  34.008  29.555  1.00  0.00     0.037 A 
BRANCH  50  64
ATOM     64  C   UNL A   1      36.912  32.809  30.847  1.00  0.00     0.064 A 
ATOM     65  C   UNL A   1      36.021  33.585  30.062  1.00  0.00     0.173 A 
ATOM     66  C   UNL A   1      36.494  32.648  32.188  1.00  0.00     0.173 A 
ATOM     67  F   UNL A   1      36.233  33.781  28.755  1.00  0.00    -0.203 F 
ATOM     68  C   UNL A   1      34.869  34.194  30.582  1.00  0.00     0.198 A 
ATOM     69  C   UNL A   1      35.299  33.196  32.688  1.00  0.00     0.198 A 
ATOM     70  F   UNL A   1      37.241  31.998  33.087  1.00  0.00    -0.203 F 
ATOM     71  F   UNL A   1      34.123  34.988  29.800  1.00  0.00    -0.200 F 
ATOM     72  C   UNL A   1      34.501  33.991  31.893  1.00  0.00     0.200 A 
ATOM     73  F   UNL A   1      34.943  32.964  33.960  1.00  0.00    -0.200 F 
ATOM     74  F   UNL A   1      33.394  34.560  32.390  1.00  0.00    -0.200 F 
ENDBRANCH  50  64
BRANCH  51  75
ATOM     75  C   UNL A   1      45.823  28.683  27.976  1.00  0.00     0.064 A 
ATOM     76  C   UNL A   1      46.647  27.813  28.746  1.00  0.00     0.173 A 
ATOM     77  C   UNL A   1      45.147  28.105  26.889  1.00  0.00     0.173 A 
ATOM     78  F   UNL A   1      47.360  28.313  29.769  1.00  0.00    -0.203 F 
ATOM     79  C   UNL A   1      46.476  26.428  28.685  1.00  0.00     0.198 A 
ATOM     80  C   UNL A   1      45.027  26.709  26.797  1.00  0.00     0.198 A 
ATOM     81  F   UNL A   1      44.399  28.871  26.083  1.00  0.00    -0.203 F 
ATOM     82  F   UNL A   1      47.003  25.645  29.639  1.00  0.00    -0.200 F 
ATOM     83  C   UNL A   1      45.619  25.883  27.746  1.00  0.00     0.200 A 
ATOM     84  F   UNL A   1      44.200  26.170  25.889  1.00  0.00    -0.200 F 
ATOM     85  F   UNL A   1      45.286  24.586  27.814  1.00  0.00    -0.200 F 
ENDBRANCH  51  75
BRANCH  63  86
ATOM     86  C   UNL A   1      42.813  35.485  29.235  1.00  0.00     0.064 A 
ATOM     87  C   UNL A   1      42.302  36.020  28.050  1.00  0.00     0.173 A 
ATOM     88  C   UNL A   1      43.414  36.417  30.122  1.00  0.00     0.173 A 
ATOM     89  F   UNL A   1      41.903  35.221  27.050  1.00  0.00    -0.203 F 
ATOM     90  C   UNL A   1      42.225  37.399  27.849  1.00  0.00     0.198 A 
ATOM     91  C   UNL A   1      43.407  37.786  29.883  1.00  0.00     0.198 A 
ATOM     92  F   UNL A   1      44.017  36.033  31.257  1.00  0.00    -0.203 F 
ATOM     93  F   UNL A   1      41.617  37.872  26.754  1.00  0.00    -0.200 F 
ATOM     94  C   UNL A   1      42.766  38.281  28.770  1.00  0.00     0.200 A 
ATOM     95  F   UNL A   1      44.008  38.617  30.747  1.00  0.00    -0.200 F 
ATOM     96  F   UNL A   1      42.675  39.603  28.580  1.00  0.00    -0.200 F 
ENDBRANCH  63  86
ENDBRANCH  37  38
ENDBRANCH  30  32
ENDBRANCH  29  30
ENDBRANCH  28  29
ENDBRANCH  27  28
ENDBRANCH  26  27
ENDBRANCH  25  26
ENDBRANCH   1  25
TORSDOF 21
ENDMDL
MODEL 3
REMARK VINA RESULT:     -10.5      3.323      7.492
REMARK SMILES Cc1cccc([C@H]2[C@@H](C(=O)OCCOCCOCCOCCOC(=O)c3ccc(-c4c5nc(c(-c6c(F)c(F)c(F)c(F)c6F)c6ccc([nH]6)c(-c6c(F)c(F)c(F)c(F)c6F)c6nc(c(-c7c(F)c(F)c(F)c(F)c7F)c7ccc4[nH]7)C=C6)C=C5)cc3)CC(=O)N2C)c1
REMARK SMILES IDX 18 1 17 2 16 3 15 4 14 5 13 6 12 7 11 8 9 9 10 10 8 11 7 12
REMARK SMILES IDX 92 13 89 14 90 15 93 16 91 17 6 18 1 19 2 20 3 21 94 22 4 23
REMARK SMILES IDX 5 24 19 25 20 26 21 27 22 28 23 29 24 30 25 31 26 32 27 33
REMARK SMILES IDX 88 34 28 35 87 36 29 37 30 38 31 39 81 40 32 41 86 42 80 43
REMARK SMILES IDX 82 44 33 45 85 46 79 47 78 48 34 50 66 51 46 52 65 53 47 54
REMARK SMILES IDX 50 55 64 56 83 57 48 58 49 59 63 61 84 62 51 63 35 64 36 65
REMARK SMILES IDX 44 66 37 67 38 68 42 69 45 70 39 71 40 72 43 73 41 74 67 75
REMARK SMILES IDX 68 76 76 77 69 78 70 79 74 80 77 81 71 82 72 83 75 84 73 85
REMARK SMILES IDX 52 86 53 87 61 88 54 89 55 90 59 91 62 92 56 93 57 94 60 95
REMARK SMILES IDX 58 96
REMARK H PARENT 82 49 50 60
REMARK Flexibility Score: inf
ROOT
ATOM      1  C   UNL A   1      45.099  19.670  24.285  1.00  0.00     0.188 C 
ENDROOT
BRANCH   1   2
ATOM      2  O   UNL A   1      43.728  19.827  24.668  1.00  0.00    -0.377 OA
BRANCH   2   3
ATOM      3  C   UNL A   1      43.314  18.775  25.537  1.00  0.00     0.188 C 
BRANCH   3   4
ATOM      4  C   UNL A   1      42.131  19.109  26.446  1.00  0.00     0.188 C 
BRANCH   4   5
ATOM      5  O   UNL A   1      42.144  20.385  27.081  1.00  0.00    -0.376 OA
BRANCH   5   6
ATOM      6  C   UNL A   1      40.862  20.983  27.281  1.00  0.00     0.202 C 
BRANCH   6   7
ATOM      7  C   UNL A   1      39.968  20.972  26.030  1.00  0.00     0.261 C 
BRANCH   7   8
ATOM      8  O   UNL A   1      38.663  21.495  26.361  1.00  0.00    -0.463 OA
BRANCH   8   9
ATOM      9  C   UNL A   1      37.733  21.535  25.383  1.00  0.00     0.312 C 
ATOM     10  O   UNL A   1      37.718  20.811  24.394  1.00  0.00    -0.252 OA
BRANCH   9  11
ATOM     11  C   UNL A   1      36.582  22.433  25.748  1.00  0.00     0.135 C 
ATOM     12  C   UNL A   1      35.202  21.857  26.038  1.00  0.00     0.130 C 
ATOM     13  N   UNL A   1      34.492  23.107  26.278  1.00  0.00    -0.338 N 
ATOM     14  C   UNL A   1      36.267  23.641  24.871  1.00  0.00     0.118 C 
ATOM     15  C   UNL A   1      34.997  24.135  25.504  1.00  0.00     0.223 C 
ATOM     16  C   UNL A   1      33.414  23.221  27.228  1.00  0.00     0.147 C 
ATOM     17  O   UNL A   1      34.531  25.264  25.372  1.00  0.00    -0.275 OA
BRANCH  12  18
ATOM     18  C   UNL A   1      34.454  21.012  25.004  1.00  0.00    -0.024 A 
ATOM     19  C   UNL A   1      31.731  21.473  22.342  1.00  0.00     0.044 C 
ATOM     20  C   UNL A   1      32.694  20.814  23.285  1.00  0.00    -0.051 A 
ATOM     21  C   UNL A   1      32.643  19.440  23.494  1.00  0.00     0.003 A 
ATOM     22  C   UNL A   1      33.634  21.575  24.000  1.00  0.00     0.009 A 
ATOM     23  C   UNL A   1      33.492  18.856  24.427  1.00  0.00     0.001 A 
ATOM     24  C   UNL A   1      34.387  19.632  25.173  1.00  0.00     0.006 A 
ENDBRANCH  12  18
ENDBRANCH   9  11
ENDBRANCH   8   9
ENDBRANCH   7   8
ENDBRANCH   6   7
ENDBRANCH   5   6
ENDBRANCH   4   5
ENDBRANCH   3   4
ENDBRANCH   2   3
ENDBRANCH   1   2
BRANCH   1  25
ATOM     25  C   UNL A   1      45.945  20.745  24.945  1.00  0.00     0.188 C 
BRANCH  25  26
ATOM     26  O   UNL A   1      46.310  21.859  24.141  1.00  0.00    -0.376 OA
BRANCH  26  27
ATOM     27  C   UNL A   1      45.579  23.076  24.250  1.00  0.00     0.202 C 
BRANCH  27  28
ATOM     28  C   UNL A   1      45.873  23.923  25.493  1.00  0.00     0.261 C 
BRANCH  28  29
ATOM     29  O   UNL A   1      45.391  25.263  25.272  1.00  0.00    -0.460 OA
BRANCH  29  30
ATOM     30  C   UNL A   1      46.352  26.197  25.043  1.00  0.00     0.338 C 
ATOM     31  O   UNL A   1      47.320  26.043  24.317  1.00  0.00    -0.246 OA
BRANCH  30  32
ATOM     32  C   UNL A   1      46.242  27.287  26.062  1.00  0.00     0.060 A 
ATOM     33  C   UNL A   1      46.090  26.935  27.415  1.00  0.00     0.016 A 
ATOM     34  C   UNL A   1      45.878  28.563  25.639  1.00  0.00     0.016 A 
ATOM     35  C   UNL A   1      45.378  27.771  28.288  1.00  0.00     0.010 A 
ATOM     36  C   UNL A   1      45.082  29.326  26.472  1.00  0.00     0.010 A 
ATOM     37  C   UNL A   1      44.764  28.915  27.783  1.00  0.00    -0.014 A 
BRANCH  37  38
ATOM     38  C   UNL A   1      43.586  29.589  28.382  1.00  0.00     0.031 A 
ATOM     39  C   UNL A   1      43.777  30.956  28.990  1.00  0.00     0.074 A 
ATOM     40  C   UNL A   1      42.347  29.162  28.014  1.00  0.00     0.049 A 
ATOM     41  N   UNL A   1      42.839  31.792  29.283  1.00  0.00    -0.248 NA
ATOM     42  C   UNL A   1      45.098  31.503  29.321  1.00  0.00     0.031 C 
ATOM     43  C   UNL A   1      41.183  30.007  27.802  1.00  0.00     0.029 A 
ATOM     44  N   UNL A   1      41.855  27.897  27.647  1.00  0.00    -0.354 N 
ATOM     45  C   UNL A   1      43.397  33.016  29.611  1.00  0.00     0.074 A 
ATOM     46  C   UNL A   1      44.813  32.771  29.646  1.00  0.00     0.031 C 
ATOM     47  C   UNL A   1      40.100  29.299  27.477  1.00  0.00     0.029 A 
ATOM     48  C   UNL A   1      40.435  27.948  27.773  1.00  0.00     0.049 A 
ATOM     49  H   UNL A   1      42.389  27.124  27.357  1.00  0.00     0.167 HD
ATOM     50  C   UNL A   1      42.590  34.110  29.761  1.00  0.00     0.037 A 
ATOM     51  C   UNL A   1      39.804  27.268  28.774  1.00  0.00     0.037 A 
ATOM     52  C   UNL A   1      41.171  33.729  29.890  1.00  0.00     0.049 A 
ATOM     53  C   UNL A   1      39.338  28.159  29.941  1.00  0.00     0.074 A 
ATOM     54  C   UNL A   1      39.966  34.215  29.419  1.00  0.00     0.029 A 
ATOM     55  N   UNL A   1      40.847  32.566  30.593  1.00  0.00    -0.354 N 
ATOM     56  N   UNL A   1      39.524  29.463  30.015  1.00  0.00    -0.248 NA
ATOM     57  C   UNL A   1      38.649  27.661  31.128  1.00  0.00     0.031 C 
ATOM     58  C   UNL A   1      38.930  33.384  29.927  1.00  0.00     0.029 A 
ATOM     59  C   UNL A   1      39.498  32.318  30.607  1.00  0.00     0.049 A 
ATOM     60  H   UNL A   1      41.513  31.987  31.027  1.00  0.00     0.167 HD
ATOM     61  C   UNL A   1      39.005  29.971  31.181  1.00  0.00     0.074 A 
ATOM     62  C   UNL A   1      38.514  28.781  31.864  1.00  0.00     0.031 C 
ATOM     63  C   UNL A   1      38.979  31.305  31.519  1.00  0.00     0.037 A 
BRANCH  50  64
ATOM     64  C   UNL A   1      43.037  35.580  29.713  1.00  0.00     0.064 A 
ATOM     65  C   UNL A   1      43.701  36.177  30.816  1.00  0.00     0.173 A 
ATOM     66  C   UNL A   1      42.715  36.494  28.684  1.00  0.00     0.173 A 
ATOM     67  F   UNL A   1      44.134  35.444  31.849  1.00  0.00    -0.203 F 
ATOM     68  C   UNL A   1      43.954  37.554  30.908  1.00  0.00     0.198 A 
ATOM     69  C   UNL A   1      43.038  37.861  28.744  1.00  0.00     0.198 A 
ATOM     70  F   UNL A   1      42.033  36.119  27.596  1.00  0.00    -0.203 F 
ATOM     71  F   UNL A   1      44.505  38.058  32.022  1.00  0.00    -0.200 F 
ATOM     72  C   UNL A   1      43.632  38.396  29.867  1.00  0.00     0.200 A 
ATOM     73  F   UNL A   1      42.741  38.661  27.709  1.00  0.00    -0.200 F 
ATOM     74  F   UNL A   1      43.884  39.710  29.947  1.00  0.00    -0.200 F 
ENDBRANCH  50  64
BRANCH  51  75
ATOM     75  C   UNL A   1      40.182  25.815  28.642  1.00  0.00     0.064 A 
ATOM     76  C   UNL A   1      39.481  25.181  27.577  1.00  0.00     0.173 A 
ATOM     77  C   UNL A   1      41.534  25.468  28.794  1.00  0.00     0.173 A 
ATOM     78  F   UNL A   1      38.171  25.429  27.407  1.00  0.00    -0.203 F 
ATOM     79  C   UNL A   1      40.174  24.586  26.520  1.00  0.00     0.198 A 
ATOM     80  C   UNL A   1      42.215  24.816  27.754  1.00  0.00     0.198 A 
ATOM     81  F   UNL A   1      42.245  25.979  29.810  1.00  0.00    -0.203 F 
ATOM     82  F   UNL A   1      39.535  24.297  25.376  1.00  0.00    -0.200 F 
ATOM     83  C   UNL A   1      41.550  24.458  26.588  1.00  0.00     0.200 A 
ATOM     84  F   UNL A   1      43.549  24.687  27.811  1.00  0.00    -0.200 F 
ATOM     85  F   UNL A   1      42.244  24.087  25.501  1.00  0.00    -0.200 F 
ENDBRANCH  51  75
BRANCH  63  86
ATOM     86  C   UNL A   1      38.462  31.849  32.832  1.00  0.00     0.064 A 
ATOM     87  C   UNL A   1      39.221  31.901  34.002  1.00  0.00     0.173 A 
ATOM     88  C   UNL A   1      37.113  32.274  32.953  1.00  0.00     0.173 A 
ATOM     89  F   UNL A   1      40.434  31.333  34.062  1.00  0.00    -0.203 F 
ATOM     90  C   UNL A   1      38.731  32.508  35.160  1.00  0.00     0.198 A 
ATOM     91  C   UNL A   1      36.601  32.806  34.131  1.00  0.00     0.198 A 
ATOM     92  F   UNL A   1      36.248  32.200  31.930  1.00  0.00    -0.203 F 
ATOM     93  F   UNL A   1      39.534  32.646  36.222  1.00  0.00    -0.200 F 
ATOM     94  C   UNL A   1      37.427  32.971  35.220  1.00  0.00     0.200 A 
ATOM     95  F   UNL A   1      35.313  33.173  34.193  1.00  0.00    -0.200 F 
ATOM     96  F   UNL A   1      36.967  33.567  36.327  1.00  0.00    -0.200 F 
ENDBRANCH  63  86
ENDBRANCH  37  38
ENDBRANCH  30  32
ENDBRANCH  29  30
ENDBRANCH  28  29
ENDBRANCH  27  28
ENDBRANCH  26  27
ENDBRANCH  25  26
ENDBRANCH   1  25
TORSDOF 21
ENDMDL
