MODEL 1
REMARK VINA RESULT:      -9.8      0.000      0.000
REMARK SMILES O=C(OCCOCCOCCOCCOC(=O)[C@H]1C[NH2+]CCN1c1ncc(C(F)(F)F)cc1Cl)c1ccc(-c2c3nc(c(-c4c(F)c(F)c(F)c(F)c4F)c4ccc([nH]4)c(-c4c(F)c(F)c(F)c(F)c4F)c4nc(c(-c5c(F)c(F)c(F)c(F)c5F)c5ccc2[nH]5)C=C4)C=C3)cc1
REMARK SMILES IDX 9 1 8 2 7 3 6 4 5 5 4 6 3 7 2 8 1 9 35 10 36 11 97 12 37 13
REMARK SMILES IDX 96 14 38 15 39 16 40 17 90 18 41 19 95 20 89 21 91 22 42 23
REMARK SMILES IDX 94 24 88 25 87 26 43 28 75 29 55 30 74 31 56 32 59 33 73 34
REMARK SMILES IDX 92 35 57 36 58 37 72 39 93 40 60 41 44 42 45 43 53 44 46 45
REMARK SMILES IDX 47 46 51 47 54 48 48 49 49 50 52 51 50 52 76 53 77 54 85 55
REMARK SMILES IDX 78 56 79 57 83 58 86 59 80 60 81 61 84 62 82 63 61 64 62 65
REMARK SMILES IDX 70 66 63 67 64 68 68 69 71 70 65 71 66 72 69 73 67 74 10 75
REMARK SMILES IDX 11 76 12 77 13 78 14 79 15 80 16 81 17 82 18 83 19 84 23 85
REMARK SMILES IDX 20 86 22 87 21 88 24 91 25 92 33 93 26 94 32 95 34 96 27 97
REMARK SMILES IDX 28 98 29 99 30 100 31 101
REMARK H PARENT 91 27 59 38 20 89 20 90
REMARK Flexibility Score: inf
ROOT
ATOM      1  O   UNL A   1      41.946  20.915  26.988  1.00  0.00    -0.377 OA
ENDROOT
BRANCH   1   2
ATOM      2  C   UNL A   1      42.163  22.311  27.219  1.00  0.00     0.188 C 
BRANCH   2   3
ATOM      3  C   UNL A   1      43.584  22.750  26.896  1.00  0.00     0.188 C 
BRANCH   3   4
ATOM      4  O   UNL A   1      43.769  22.520  25.503  1.00  0.00    -0.376 OA
BRANCH   4   5
ATOM      5  C   UNL A   1      44.153  23.655  24.740  1.00  0.00     0.202 C 
BRANCH   5   6
ATOM      6  C   UNL A   1      45.225  24.481  25.445  1.00  0.00     0.261 C 
BRANCH   6   7
ATOM      7  O   UNL A   1      45.548  25.679  24.721  1.00  0.00    -0.460 OA
BRANCH   7   8
ATOM      8  C   UNL A   1      45.372  26.961  25.118  1.00  0.00     0.338 C 
ATOM      9  O   UNL A   1      45.802  27.862  24.383  1.00  0.00    -0.246 OA
BRANCH   8  10
ATOM     10  C   UNL A   1      44.681  27.385  26.377  1.00  0.00     0.060 A 
ATOM     11  C   UNL A   1      43.966  26.544  27.233  1.00  0.00     0.016 A 
ATOM     12  C   UNL A   1      44.863  28.719  26.787  1.00  0.00     0.016 A 
ATOM     13  C   UNL A   1      43.457  26.986  28.447  1.00  0.00     0.010 A 
ATOM     14  C   UNL A   1      44.349  29.181  28.004  1.00  0.00     0.010 A 
ATOM     15  C   UNL A   1      43.643  28.308  28.836  1.00  0.00    -0.014 A 
BRANCH  15  16
ATOM     16  C   UNL A   1      42.949  28.770  30.048  1.00  0.00     0.031 A 
ATOM     17  C   UNL A   1      41.526  29.207  29.909  1.00  0.00     0.074 A 
ATOM     18  C   UNL A   1      43.545  28.669  31.250  1.00  0.00     0.049 A 
ATOM     19  N   UNL A   1      40.735  29.756  30.788  1.00  0.00    -0.248 NA
ATOM     20  C   UNL A   1      40.899  28.973  28.596  1.00  0.00     0.031 C 
ATOM     21  C   UNL A   1      44.872  28.097  31.488  1.00  0.00     0.029 A 
ATOM     22  N   UNL A   1      43.106  29.028  32.497  1.00  0.00    -0.354 N 
ATOM     23  C   UNL A   1      39.537  29.975  30.124  1.00  0.00     0.074 A 
ATOM     24  C   UNL A   1      39.688  29.476  28.777  1.00  0.00     0.031 C 
ATOM     25  C   UNL A   1      45.140  28.150  32.804  1.00  0.00     0.029 A 
ATOM     26  C   UNL A   1      44.042  28.828  33.483  1.00  0.00     0.049 A 
ATOM     27  H   UNL A   1      42.208  29.392  32.671  1.00  0.00     0.167 HD
ATOM     28  C   UNL A   1      38.423  30.569  30.606  1.00  0.00     0.037 A 
ATOM     29  C   UNL A   1      44.023  29.214  34.774  1.00  0.00     0.037 A 
ATOM     30  C   UNL A   1      38.310  31.040  31.957  1.00  0.00     0.049 A 
ATOM     31  C   UNL A   1      42.810  29.971  35.256  1.00  0.00     0.074 A 
ATOM     32  C   UNL A   1      37.257  31.696  32.563  1.00  0.00     0.029 A 
ATOM     33  N   UNL A   1      39.306  30.895  32.916  1.00  0.00    -0.354 N 
ATOM     34  N   UNL A   1      41.699  30.248  34.614  1.00  0.00    -0.248 NA
ATOM     35  C   UNL A   1      42.859  30.500  36.625  1.00  0.00     0.031 C 
ATOM     36  C   UNL A   1      37.637  31.992  33.877  1.00  0.00     0.029 A 
ATOM     37  C   UNL A   1      38.908  31.483  34.101  1.00  0.00     0.049 A 
ATOM     38  H   UNL A   1      40.168  30.441  32.770  1.00  0.00     0.167 HD
ATOM     39  C   UNL A   1      40.920  30.982  35.494  1.00  0.00     0.074 A 
ATOM     40  C   UNL A   1      41.671  31.080  36.730  1.00  0.00     0.031 C 
ATOM     41  C   UNL A   1      39.700  31.546  35.303  1.00  0.00     0.037 A 
BRANCH  28  42
ATOM     42  C   UNL A   1      37.306  30.818  29.642  1.00  0.00     0.064 A 
ATOM     43  C   UNL A   1      36.394  29.819  29.275  1.00  0.00     0.173 A 
ATOM     44  C   UNL A   1      37.164  32.086  29.057  1.00  0.00     0.173 A 
ATOM     45  F   UNL A   1      36.508  28.582  29.780  1.00  0.00    -0.203 F 
ATOM     46  C   UNL A   1      35.389  30.077  28.344  1.00  0.00     0.198 A 
ATOM     47  C   UNL A   1      36.146  32.346  28.144  1.00  0.00     0.198 A 
ATOM     48  F   UNL A   1      38.021  33.072  29.365  1.00  0.00    -0.203 F 
ATOM     49  F   UNL A   1      34.555  29.096  27.972  1.00  0.00    -0.200 F 
ATOM     50  C   UNL A   1      35.263  31.340  27.784  1.00  0.00     0.200 A 
ATOM     51  F   UNL A   1      36.029  33.566  27.602  1.00  0.00    -0.200 F 
ATOM     52  F   UNL A   1      34.299  31.584  26.886  1.00  0.00    -0.200 F 
ENDBRANCH  28  42
BRANCH  29  53
ATOM     53  C   UNL A   1      45.205  28.999  35.653  1.00  0.00     0.064 A 
ATOM     54  C   UNL A   1      45.304  27.880  36.491  1.00  0.00     0.173 A 
ATOM     55  C   UNL A   1      46.248  29.940  35.706  1.00  0.00     0.173 A 
ATOM     56  F   UNL A   1      44.325  26.965  36.504  1.00  0.00    -0.203 F 
ATOM     57  C   UNL A   1      46.385  27.721  37.360  1.00  0.00     0.198 A 
ATOM     58  C   UNL A   1      47.345  29.762  36.548  1.00  0.00     0.198 A 
ATOM     59  F   UNL A   1      46.205  31.038  34.939  1.00  0.00    -0.203 F 
ATOM     60  F   UNL A   1      46.425  26.671  38.192  1.00  0.00    -0.200 F 
ATOM     61  C   UNL A   1      47.407  28.659  37.384  1.00  0.00     0.200 A 
ATOM     62  F   UNL A   1      48.332  30.667  36.558  1.00  0.00    -0.200 F 
ATOM     63  F   UNL A   1      48.442  28.507  38.221  1.00  0.00    -0.200 F 
ENDBRANCH  29  53
BRANCH  41  64
ATOM     64  C   UNL A   1      39.121  32.307  36.453  1.00  0.00     0.064 A 
ATOM     65  C   UNL A   1      38.198  31.711  37.323  1.00  0.00     0.173 A 
ATOM     66  C   UNL A   1      39.548  33.614  36.728  1.00  0.00     0.173 A 
ATOM     67  F   UNL A   1      37.751  30.469  37.087  1.00  0.00    -0.203 F 
ATOM     68  C   UNL A   1      37.712  32.404  38.426  1.00  0.00     0.198 A 
ATOM     69  C   UNL A   1      39.081  34.293  37.847  1.00  0.00     0.198 A 
ATOM     70  F   UNL A   1      40.436  34.218  35.924  1.00  0.00    -0.203 F 
ATOM     71  F   UNL A   1      36.806  31.830  39.230  1.00  0.00    -0.200 F 
ATOM     72  C   UNL A   1      38.162  33.690  38.693  1.00  0.00     0.200 A 
ATOM     73  F   UNL A   1      39.527  35.529  38.112  1.00  0.00    -0.200 F 
ATOM     74  F   UNL A   1      37.707  34.349  39.767  1.00  0.00    -0.200 F 
ENDBRANCH  41  64
ENDBRANCH  15  16
ENDBRANCH   8  10
ENDBRANCH   7   8
ENDBRANCH   6   7
ENDBRANCH   5   6
ENDBRANCH   4   5
ENDBRANCH   3   4
ENDBRANCH   2   3
ENDBRANCH   1   2
BRANCH   1  75
ATOM     75  C   UNL A   1      40.683  20.535  26.458  1.00  0.00     0.188 C 
BRANCH  75  76
ATOM     76  C   UNL A   1      39.642  21.616  26.187  1.00  0.00     0.188 C 
BRANCH  76  77
ATOM     77  O   UNL A   1      38.516  21.304  25.391  1.00  0.00    -0.376 OA
BRANCH  77  78
ATOM     78  C   UNL A   1      37.592  22.334  25.043  1.00  0.00     0.202 C 
BRANCH  78  79
ATOM     79  C   UNL A   1      36.159  21.976  24.614  1.00  0.00     0.261 C 
BRANCH  79  80
ATOM     80  O   UNL A   1      35.174  22.988  24.955  1.00  0.00    -0.462 OA
BRANCH  80  81
ATOM     81  C   UNL A   1      34.238  23.289  24.012  1.00  0.00     0.334 C 
ATOM     82  O   UNL A   1      34.522  23.783  22.917  1.00  0.00    -0.250 OA
BRANCH  81  83
ATOM     83  C   UNL A   1      32.772  22.962  24.402  1.00  0.00     0.249 C 
ATOM     84  C   UNL A   1      32.411  21.575  24.987  1.00  0.00     0.298 C 
ATOM     85  N   UNL A   1      32.196  23.972  25.309  1.00  0.00    -0.331 N 
ATOM     86  N   UNL A   1      32.816  21.346  26.388  1.00  0.00    -0.343 N 
ATOM     87  C   UNL A   1      32.612  23.890  26.705  1.00  0.00     0.180 C 
ATOM     88  C   UNL A   1      32.322  22.454  27.233  1.00  0.00     0.282 C 
ATOM     89  H   UNL A   1      33.834  21.302  26.446  1.00  0.00     0.346 HD
ATOM     90  H   UNL A   1      32.418  20.466  26.717  1.00  0.00     0.346 HD
BRANCH  85  91
ATOM     91  C   UNL A   1      31.775  25.141  24.721  1.00  0.00     0.148 A 
ATOM     92  N   UNL A   1      30.631  25.106  24.003  1.00  0.00    -0.237 NA
ATOM     93  C   UNL A   1      32.460  26.352  24.943  1.00  0.00     0.084 A 
ATOM     94  C   UNL A   1      30.123  26.286  23.567  1.00  0.00     0.126 A 
ATOM     95  C   UNL A   1      31.919  27.546  24.482  1.00  0.00     0.039 A 
ATOM     96  Cl  UNL A   1      33.991  26.433  25.751  1.00  0.00    -0.080 Cl
ATOM     97  C   UNL A   1      30.712  27.523  23.789  1.00  0.00     0.075 A 
BRANCH  97  98
ATOM     98  C   UNL A   1      30.057  28.774  23.300  1.00  0.00     0.417 C 
ATOM     99  F   UNL A   1      30.328  29.848  24.089  1.00  0.00    -0.166 F 
ATOM    100  F   UNL A   1      30.456  29.115  22.046  1.00  0.00    -0.166 F 
ATOM    101  F   UNL A   1      28.699  28.683  23.248  1.00  0.00    -0.166 F 
ENDBRANCH  97  98
ENDBRANCH  85  91
ENDBRANCH  81  83
ENDBRANCH  80  81
ENDBRANCH  79  80
ENDBRANCH  78  79
ENDBRANCH  77  78
ENDBRANCH  76  77
ENDBRANCH  75  76
ENDBRANCH   1  75
TORSDOF 22
ENDMDL
MODEL 2
REMARK VINA RESULT:      -9.2      5.360      7.994
REMARK SMILES O=C(OCCOCCOCCOCCOC(=O)[C@H]1C[NH2+]CCN1c1ncc(C(F)(F)F)cc1Cl)c1ccc(-c2c3nc(c(-c4c(F)c(F)c(F)c(F)c4F)c4ccc([nH]4)c(-c4c(F)c(F)c(F)c(F)c4F)c4nc(c(-c5c(F)c(F)c(F)c(F)c5F)c5ccc2[nH]5)C=C4)C=C3)cc1
REMARK SMILES IDX 9 1 8 2 7 3 6 4 5 5 4 6 3 7 2 8 1 9 35 10 36 11 97 12 37 13
REMARK SMILES IDX 96 14 38 15 39 16 40 17 90 18 41 19 95 20 89 21 91 22 42 23
REMARK SMILES IDX 94 24 88 25 87 26 43 28 75 29 55 30 74 31 56 32 59 33 73 34
REMARK SMILES IDX 92 35 57 36 58 37 72 39 93 40 60 41 44 42 45 43 53 44 46 45
REMARK SMILES IDX 47 46 51 47 54 48 48 49 49 50 52 51 50 52 76 53 77 54 85 55
REMARK SMILES IDX 78 56 79 57 83 58 86 59 80 60 81 61 84 62 82 63 61 64 62 65
REMARK SMILES IDX 70 66 63 67 64 68 68 69 71 70 65 71 66 72 69 73 67 74 10 75
REMARK SMILES IDX 11 76 12 77 13 78 14 79 15 80 16 81 17 82 18 83 19 84 23 85
REMARK SMILES IDX 20 86 22 87 21 88 24 91 25 92 33 93 26 94 32 95 34 96 27 97
REMARK SMILES IDX 28 98 29 99 30 100 31 101
REMARK H PARENT 91 27 59 38 20 89 20 90
REMARK Flexibility Score: inf
ROOT
ATOM      1  O   UNL A   1      42.809  25.110  28.157  1.00  0.00    -0.377 OA
ENDROOT
BRANCH   1   2
ATOM      2  C   UNL A   1      44.004  24.818  27.424  1.00  0.00     0.188 C 
BRANCH   2   3
ATOM      3  C   UNL A   1      44.266  23.325  27.293  1.00  0.00     0.188 C 
BRANCH   3   4
ATOM      4  O   UNL A   1      45.110  23.162  26.157  1.00  0.00    -0.376 OA
BRANCH   4   5
ATOM      5  C   UNL A   1      45.347  24.337  25.396  1.00  0.00     0.202 C 
BRANCH   5   6
ATOM      6  C   UNL A   1      46.828  24.696  25.344  1.00  0.00     0.261 C 
BRANCH   6   7
ATOM      7  O   UNL A   1      47.115  25.667  24.324  1.00  0.00    -0.460 OA
BRANCH   7   8
ATOM      8  C   UNL A   1      46.990  27.012  24.402  1.00  0.00     0.338 C 
ATOM      9  O   UNL A   1      47.280  27.682  23.400  1.00  0.00    -0.246 OA
BRANCH   8  10
ATOM     10  C   UNL A   1      46.512  27.765  25.605  1.00  0.00     0.060 A 
ATOM     11  C   UNL A   1      47.329  28.409  26.536  1.00  0.00     0.016 A 
ATOM     12  C   UNL A   1      45.121  27.929  25.744  1.00  0.00     0.016 A 
ATOM     13  C   UNL A   1      46.808  29.193  27.558  1.00  0.00     0.010 A 
ATOM     14  C   UNL A   1      44.581  28.708  26.774  1.00  0.00     0.010 A 
ATOM     15  C   UNL A   1      45.432  29.342  27.684  1.00  0.00    -0.014 A 
BRANCH  15  16
ATOM     16  C   UNL A   1      44.924  30.044  28.873  1.00  0.00     0.031 A 
ATOM     17  C   UNL A   1      44.621  31.502  28.743  1.00  0.00     0.074 A 
ATOM     18  C   UNL A   1      44.623  29.355  29.988  1.00  0.00     0.049 A 
ATOM     19  N   UNL A   1      44.274  32.364  29.657  1.00  0.00    -0.248 NA
ATOM     20  C   UNL A   1      44.702  32.064  27.382  1.00  0.00     0.031 C 
ATOM     21  C   UNL A   1      44.733  27.902  30.138  1.00  0.00     0.029 A 
ATOM     22  N   UNL A   1      44.145  29.780  31.200  1.00  0.00    -0.354 N 
ATOM     23  C   UNL A   1      44.141  33.575  28.994  1.00  0.00     0.074 A 
ATOM     24  C   UNL A   1      44.414  33.338  27.595  1.00  0.00     0.031 C 
ATOM     25  C   UNL A   1      44.340  27.559  31.377  1.00  0.00     0.029 A 
ATOM     26  C   UNL A   1      44.027  28.771  32.125  1.00  0.00     0.049 A 
ATOM     27  H   UNL A   1      43.909  30.717  31.389  1.00  0.00     0.167 HD
ATOM     28  C   UNL A   1      43.842  34.780  29.528  1.00  0.00     0.037 A 
ATOM     29  C   UNL A   1      43.757  28.845  33.443  1.00  0.00     0.037 A 
ATOM     30  C   UNL A   1      43.565  34.969  30.923  1.00  0.00     0.049 A 
ATOM     31  C   UNL A   1      43.533  30.215  34.033  1.00  0.00     0.074 A 
ATOM     32  C   UNL A   1      43.289  36.140  31.602  1.00  0.00     0.029 A 
ATOM     33  N   UNL A   1      43.529  33.939  31.854  1.00  0.00    -0.354 N 
ATOM     34  N   UNL A   1      43.477  31.378  33.425  1.00  0.00    -0.248 NA
ATOM     35  C   UNL A   1      43.371  30.293  35.491  1.00  0.00     0.031 C 
ATOM     36  C   UNL A   1      43.135  35.822  32.956  1.00  0.00     0.029 A 
ATOM     37  C   UNL A   1      43.273  34.450  33.112  1.00  0.00     0.049 A 
ATOM     38  H   UNL A   1      43.668  32.986  31.648  1.00  0.00     0.167 HD
ATOM     39  C   UNL A   1      43.276  32.322  34.420  1.00  0.00     0.074 A 
ATOM     40  C   UNL A   1      43.187  31.593  35.670  1.00  0.00     0.031 C 
ATOM     41  C   UNL A   1      43.192  33.672  34.323  1.00  0.00     0.037 A 
BRANCH  28  42
ATOM     42  C   UNL A   1      43.901  35.967  28.619  1.00  0.00     0.064 A 
ATOM     43  C   UNL A   1      45.096  36.647  28.348  1.00  0.00     0.173 A 
ATOM     44  C   UNL A   1      42.723  36.444  28.023  1.00  0.00     0.173 A 
ATOM     45  F   UNL A   1      46.243  36.251  28.920  1.00  0.00    -0.203 F 
ATOM     46  C   UNL A   1      45.107  37.772  27.526  1.00  0.00     0.198 A 
ATOM     47  C   UNL A   1      42.742  37.557  27.186  1.00  0.00     0.198 A 
ATOM     48  F   UNL A   1      41.551  35.837  28.262  1.00  0.00    -0.203 F 
ATOM     49  F   UNL A   1      46.253  38.436  27.317  1.00  0.00    -0.200 F 
ATOM     50  C   UNL A   1      43.932  38.223  26.942  1.00  0.00     0.200 A 
ATOM     51  F   UNL A   1      41.604  37.991  26.626  1.00  0.00    -0.200 F 
ATOM     52  F   UNL A   1      43.945  39.308  26.157  1.00  0.00    -0.200 F 
ENDBRANCH  28  42
BRANCH  29  53
ATOM     53  C   UNL A   1      43.793  27.627  34.299  1.00  0.00     0.064 A 
ATOM     54  C   UNL A   1      44.990  27.150  34.850  1.00  0.00     0.173 A 
ATOM     55  C   UNL A   1      42.627  26.881  34.546  1.00  0.00     0.173 A 
ATOM     56  F   UNL A   1      46.139  27.805  34.622  1.00  0.00    -0.203 F 
ATOM     57  C   UNL A   1      45.025  25.971  35.595  1.00  0.00     0.198 A 
ATOM     58  C   UNL A   1      42.657  25.722  35.320  1.00  0.00     0.198 A 
ATOM     59  F   UNL A   1      41.453  27.277  34.035  1.00  0.00    -0.203 F 
ATOM     60  F   UNL A   1      46.193  25.509  36.061  1.00  0.00    -0.200 F 
ATOM     61  C   UNL A   1      43.858  25.261  35.835  1.00  0.00     0.200 A 
ATOM     62  F   UNL A   1      41.524  25.048  35.556  1.00  0.00    -0.200 F 
ATOM     63  F   UNL A   1      43.892  24.127  36.547  1.00  0.00    -0.200 F 
ENDBRANCH  29  53
BRANCH  41  64
ATOM     64  C   UNL A   1      42.993  34.429  35.598  1.00  0.00     0.064 A 
ATOM     65  C   UNL A   1      44.080  34.752  36.423  1.00  0.00     0.173 A 
ATOM     66  C   UNL A   1      41.722  34.897  35.957  1.00  0.00     0.173 A 
ATOM     67  F   UNL A   1      45.310  34.311  36.125  1.00  0.00    -0.203 F 
ATOM     68  C   UNL A   1      43.895  35.511  37.574  1.00  0.00     0.198 A 
ATOM     69  C   UNL A   1      41.546  35.677  37.093  1.00  0.00     0.198 A 
ATOM     70  F   UNL A   1      40.657  34.615  35.191  1.00  0.00    -0.203 F 
ATOM     71  F   UNL A   1      44.939  35.784  38.368  1.00  0.00    -0.200 F 
ATOM     72  C   UNL A   1      42.631  35.981  37.902  1.00  0.00     0.200 A 
ATOM     73  F   UNL A   1      40.328  36.144  37.402  1.00  0.00    -0.200 F 
ATOM     74  F   UNL A   1      42.459  36.728  39.002  1.00  0.00    -0.200 F 
ENDBRANCH  41  64
ENDBRANCH  15  16
ENDBRANCH   8  10
ENDBRANCH   7   8
ENDBRANCH   6   7
ENDBRANCH   5   6
ENDBRANCH   4   5
ENDBRANCH   3   4
ENDBRANCH   2   3
ENDBRANCH   1   2
BRANCH   1  75
ATOM     75  C   UNL A   1      41.676  25.530  27.408  1.00  0.00     0.188 C 
BRANCH  75  76
ATOM     76  C   UNL A   1      40.560  26.286  28.122  1.00  0.00     0.188 C 
BRANCH  76  77
ATOM     77  O   UNL A   1      40.490  27.692  27.996  1.00  0.00    -0.376 OA
BRANCH  77  78
ATOM     78  C   UNL A   1      41.563  28.497  28.481  1.00  0.00     0.202 C 
BRANCH  78  79
ATOM     79  C   UNL A   1      41.278  29.874  29.106  1.00  0.00     0.261 C 
BRANCH  79  80
ATOM     80  O   UNL A   1      41.119  29.842  30.549  1.00  0.00    -0.462 OA
BRANCH  80  81
ATOM     81  C   UNL A   1      40.388  30.841  31.117  1.00  0.00     0.334 C 
ATOM     82  O   UNL A   1      40.884  31.906  31.496  1.00  0.00    -0.250 OA
BRANCH  81  83
ATOM     83  C   UNL A   1      38.869  30.556  31.257  1.00  0.00     0.249 C 
ATOM     84  C   UNL A   1      38.069  29.986  30.060  1.00  0.00     0.298 C 
ATOM     85  N   UNL A   1      38.563  29.704  32.420  1.00  0.00    -0.331 N 
ATOM     86  N   UNL A   1      38.290  28.558  29.763  1.00  0.00    -0.343 N 
ATOM     87  C   UNL A   1      38.840  28.280  32.261  1.00  0.00     0.180 C 
ATOM     88  C   UNL A   1      38.097  27.761  30.994  1.00  0.00     0.282 C 
ATOM     89  H   UNL A   1      39.241  28.425  29.419  1.00  0.00     0.346 HD
ATOM     90  H   UNL A   1      37.625  28.251  29.054  1.00  0.00     0.346 HD
BRANCH  85  91
ATOM     91  C   UNL A   1      38.554  30.332  33.643  1.00  0.00     0.148 A 
ATOM     92  N   UNL A   1      39.547  30.036  34.509  1.00  0.00    -0.237 NA
ATOM     93  C   UNL A   1      37.598  31.325  33.940  1.00  0.00     0.084 A 
ATOM     94  C   UNL A   1      39.638  30.776  35.643  1.00  0.00     0.126 A 
ATOM     95  C   UNL A   1      37.714  32.066  35.110  1.00  0.00     0.039 A 
ATOM     96  Cl  UNL A   1      36.238  31.658  32.919  1.00  0.00    -0.080 Cl
ATOM     97  C   UNL A   1      38.767  31.802  35.981  1.00  0.00     0.075 A 
BRANCH  97  98
ATOM     98  C   UNL A   1      38.970  32.587  37.236  1.00  0.00     0.417 C 
ATOM     99  F   UNL A   1      38.226  32.118  38.272  1.00  0.00    -0.166 F 
ATOM    100  F   UNL A   1      40.262  32.567  37.659  1.00  0.00    -0.166 F 
ATOM    101  F   UNL A   1      38.641  33.903  37.105  1.00  0.00    -0.166 F 
ENDBRANCH  97  98
ENDBRANCH  85  91
ENDBRANCH  81  83
ENDBRANCH  80  81
ENDBRANCH  79  80
ENDBRANCH  78  79
ENDBRANCH  77  78
ENDBRANCH  76  77
ENDBRANCH  75  76
ENDBRANCH   1  75
TORSDOF 22
ENDMDL
MODEL 3
REMARK VINA RESULT:      -9.1      2.621      3.647
REMARK SMILES O=C(OCCOCCOCCOCCOC(=O)[C@H]1C[NH2+]CCN1c1ncc(C(F)(F)F)cc1Cl)c1ccc(-c2c3nc(c(-c4c(F)c(F)c(F)c(F)c4F)c4ccc([nH]4)c(-c4c(F)c(F)c(F)c(F)c4F)c4nc(c(-c5c(F)c(F)c(F)c(F)c5F)c5ccc2[nH]5)C=C4)C=C3)cc1
REMARK SMILES IDX 9 1 8 2 7 3 6 4 5 5 4 6 3 7 2 8 1 9 35 10 36 11 97 12 37 13
REMARK SMILES IDX 96 14 38 15 39 16 40 17 90 18 41 19 95 20 89 21 91 22 42 23
REMARK SMILES IDX 94 24 88 25 87 26 43 28 75 29 55 30 74 31 56 32 59 33 73 34
REMARK SMILES IDX 92 35 57 36 58 37 72 39 93 40 60 41 44 42 45 43 53 44 46 45
REMARK SMILES IDX 47 46 51 47 54 48 48 49 49 50 52 51 50 52 76 53 77 54 85 55
REMARK SMILES IDX 78 56 79 57 83 58 86 59 80 60 81 61 84 62 82 63 61 64 62 65
REMARK SMILES IDX 70 66 63 67 64 68 68 69 71 70 65 71 66 72 69 73 67 74 10 75
REMARK SMILES IDX 11 76 12 77 13 78 14 79 15 80 16 81 17 82 18 83 19 84 23 85
REMARK SMILES IDX 20 86 22 87 21 88 24 91 25 92 33 93 26 94 32 95 34 96 27 97
REMARK SMILES IDX 28 98 29 99 30 100 31 101
REMARK H PARENT 91 27 59 38 20 89 20 90
REMARK Flexibility Score: inf
ROOT
ATOM      1  O   UNL A   1      42.240  21.796  27.277  1.00  0.00    -0.377 OA
ENDROOT
BRANCH   1   2
ATOM      2  C   UNL A   1      43.031  22.967  27.506  1.00  0.00     0.188 C 
BRANCH   2   3
ATOM      3  C   UNL A   1      44.407  22.886  26.859  1.00  0.00     0.188 C 
BRANCH   3   4
ATOM      4  O   UNL A   1      44.198  22.981  25.454  1.00  0.00    -0.376 OA
BRANCH   4   5
ATOM      5  C   UNL A   1      44.455  24.255  24.880  1.00  0.00     0.202 C 
BRANCH   5   6
ATOM      6  C   UNL A   1      45.733  24.881  25.430  1.00  0.00     0.261 C 
BRANCH   6   7
ATOM      7  O   UNL A   1      46.064  26.109  24.763  1.00  0.00    -0.460 OA
BRANCH   7   8
ATOM      8  C   UNL A   1      45.671  27.362  25.090  1.00  0.00     0.338 C 
ATOM      9  O   UNL A   1      45.900  28.274  24.281  1.00  0.00    -0.246 OA
BRANCH   8  10
ATOM     10  C   UNL A   1      44.965  27.740  26.355  1.00  0.00     0.060 A 
ATOM     11  C   UNL A   1      44.399  26.847  27.267  1.00  0.00     0.016 A 
ATOM     12  C   UNL A   1      44.972  29.103  26.708  1.00  0.00     0.016 A 
ATOM     13  C   UNL A   1      43.870  27.266  28.481  1.00  0.00     0.010 A 
ATOM     14  C   UNL A   1      44.435  29.542  27.923  1.00  0.00     0.010 A 
ATOM     15  C   UNL A   1      43.882  28.616  28.812  1.00  0.00    -0.014 A 
BRANCH  15  16
ATOM     16  C   UNL A   1      43.165  29.030  30.029  1.00  0.00     0.031 A 
ATOM     17  C   UNL A   1      41.725  29.406  29.893  1.00  0.00     0.074 A 
ATOM     18  C   UNL A   1      43.763  28.936  31.231  1.00  0.00     0.049 A 
ATOM     19  N   UNL A   1      40.910  29.907  30.778  1.00  0.00    -0.248 NA
ATOM     20  C   UNL A   1      41.112  29.166  28.574  1.00  0.00     0.031 C 
ATOM     21  C   UNL A   1      45.113  28.418  31.465  1.00  0.00     0.029 A 
ATOM     22  N   UNL A   1      43.307  29.257  32.482  1.00  0.00    -0.354 N 
ATOM     23  C   UNL A   1      39.705  30.085  30.114  1.00  0.00     0.074 A 
ATOM     24  C   UNL A   1      39.880  29.613  28.760  1.00  0.00     0.031 C 
ATOM     25  C   UNL A   1      45.376  28.463  32.781  1.00  0.00     0.029 A 
ATOM     26  C   UNL A   1      44.248  29.082  33.467  1.00  0.00     0.049 A 
ATOM     27  H   UNL A   1      42.394  29.579  32.659  1.00  0.00     0.167 HD
ATOM     28  C   UNL A   1      38.565  30.623  30.602  1.00  0.00     0.037 A 
ATOM     29  C   UNL A   1      44.209  29.448  34.764  1.00  0.00     0.037 A 
ATOM     30  C   UNL A   1      38.430  31.068  31.959  1.00  0.00     0.049 A 
ATOM     31  C   UNL A   1      42.965  30.144  35.254  1.00  0.00     0.074 A 
ATOM     32  C   UNL A   1      37.348  31.669  32.572  1.00  0.00     0.029 A 
ATOM     33  N   UNL A   1      39.428  30.952  32.918  1.00  0.00    -0.354 N 
ATOM     34  N   UNL A   1      41.844  30.383  34.614  1.00  0.00    -0.248 NA
ATOM     35  C   UNL A   1      42.987  30.654  36.631  1.00  0.00     0.031 C 
ATOM     36  C   UNL A   1      37.711  31.961  33.891  1.00  0.00     0.029 A 
ATOM     37  C   UNL A   1      39.003  31.504  34.111  1.00  0.00     0.049 A 
ATOM     38  H   UNL A   1      40.309  30.538  32.768  1.00  0.00     0.167 HD
ATOM     39  C   UNL A   1      41.031  31.070  35.502  1.00  0.00     0.074 A 
ATOM     40  C   UNL A   1      41.775  31.181  36.741  1.00  0.00     0.031 C 
ATOM     41  C   UNL A   1      39.790  31.583  35.316  1.00  0.00     0.037 A 
BRANCH  28  42
ATOM     42  C   UNL A   1      37.441  30.839  29.638  1.00  0.00     0.064 A 
ATOM     43  C   UNL A   1      36.557  29.813  29.274  1.00  0.00     0.173 A 
ATOM     44  C   UNL A   1      37.261  32.101  29.052  1.00  0.00     0.173 A 
ATOM     45  F   UNL A   1      36.708  28.580  29.780  1.00  0.00    -0.203 F 
ATOM     46  C   UNL A   1      35.544  30.041  28.343  1.00  0.00     0.198 A 
ATOM     47  C   UNL A   1      36.235  32.330  28.139  1.00  0.00     0.198 A 
ATOM     48  F   UNL A   1      38.090  33.112  29.357  1.00  0.00    -0.203 F 
ATOM     49  F   UNL A   1      34.739  29.035  27.973  1.00  0.00    -0.200 F 
ATOM     50  C   UNL A   1      35.381  31.298  27.781  1.00  0.00     0.200 A 
ATOM     51  F   UNL A   1      36.083  33.545  27.596  1.00  0.00    -0.200 F 
ATOM     52  F   UNL A   1      34.410  31.513  26.884  1.00  0.00    -0.200 F 
ENDBRANCH  28  42
BRANCH  29  53
ATOM     53  C   UNL A   1      45.398  29.270  35.643  1.00  0.00     0.064 A 
ATOM     54  C   UNL A   1      46.393  30.252  35.741  1.00  0.00     0.173 A 
ATOM     55  C   UNL A   1      45.587  28.085  36.374  1.00  0.00     0.173 A 
ATOM     56  F   UNL A   1      46.280  31.391  35.042  1.00  0.00    -0.203 F 
ATOM     57  C   UNL A   1      47.536  30.049  36.515  1.00  0.00     0.198 A 
ATOM     58  C   UNL A   1      46.712  27.897  37.175  1.00  0.00     0.198 A 
ATOM     59  F   UNL A   1      44.678  27.102  36.310  1.00  0.00    -0.203 F 
ATOM     60  F   UNL A   1      48.499  30.981  36.544  1.00  0.00    -0.200 F 
ATOM     61  C   UNL A   1      47.693  28.874  37.236  1.00  0.00     0.200 A 
ATOM     62  F   UNL A   1      46.851  26.763  37.876  1.00  0.00    -0.200 F 
ATOM     63  F   UNL A   1      48.792  28.678  37.976  1.00  0.00    -0.200 F 
ENDBRANCH  29  53
BRANCH  41  64
ATOM     64  C   UNL A   1      39.175  32.301  36.476  1.00  0.00     0.064 A 
ATOM     65  C   UNL A   1      38.221  31.676  37.290  1.00  0.00     0.173 A 
ATOM     66  C   UNL A   1      39.598  33.593  36.817  1.00  0.00     0.173 A 
ATOM     67  F   UNL A   1      37.777  30.447  36.990  1.00  0.00    -0.203 F 
ATOM     68  C   UNL A   1      37.702  32.328  38.404  1.00  0.00     0.198 A 
ATOM     69  C   UNL A   1      39.098  34.230  37.946  1.00  0.00     0.198 A 
ATOM     70  F   UNL A   1      40.515  34.224  36.068  1.00  0.00    -0.203 F 
ATOM     71  F   UNL A   1      36.768  31.727  39.153  1.00  0.00    -0.200 F 
ATOM     72  C   UNL A   1      38.148  33.599  38.736  1.00  0.00     0.200 A 
ATOM     73  F   UNL A   1      39.540  35.452  38.275  1.00  0.00    -0.200 F 
ATOM     74  F   UNL A   1      37.660  34.217  39.820  1.00  0.00    -0.200 F 
ENDBRANCH  41  64
ENDBRANCH  15  16
ENDBRANCH   8  10
ENDBRANCH   7   8
ENDBRANCH   6   7
ENDBRANCH   5   6
ENDBRANCH   4   5
ENDBRANCH   3   4
ENDBRANCH   2   3
ENDBRANCH   1   2
BRANCH   1  75
ATOM     75  C   UNL A   1      40.828  21.956  27.291  1.00  0.00     0.188 C 
BRANCH  75  76
ATOM     76  C   UNL A   1      40.242  23.349  27.083  1.00  0.00     0.188 C 
BRANCH  76  77
ATOM     77  O   UNL A   1      38.848  23.539  27.225  1.00  0.00    -0.376 OA
BRANCH  77  78
ATOM     78  C   UNL A   1      38.047  23.769  26.068  1.00  0.00     0.202 C 
BRANCH  78  79
ATOM     79  C   UNL A   1      37.184  22.636  25.485  1.00  0.00     0.261 C 
BRANCH  79  80
ATOM     80  O   UNL A   1      35.823  22.616  25.989  1.00  0.00    -0.462 OA
BRANCH  80  81
ATOM     81  C   UNL A   1      34.903  23.374  25.329  1.00  0.00     0.334 C 
ATOM     82  O   UNL A   1      35.209  24.224  24.488  1.00  0.00    -0.250 OA
BRANCH  81  83
ATOM     83  C   UNL A   1      33.422  23.094  25.701  1.00  0.00     0.249 C 
ATOM     84  C   UNL A   1      32.506  24.248  26.178  1.00  0.00     0.298 C 
ATOM     85  N   UNL A   1      32.698  22.391  24.626  1.00  0.00    -0.331 N 
ATOM     86  N   UNL A   1      32.047  25.178  25.128  1.00  0.00    -0.343 N 
ATOM     87  C   UNL A   1      32.284  23.208  23.491  1.00  0.00     0.180 C 
ATOM     88  C   UNL A   1      31.446  24.411  24.016  1.00  0.00     0.282 C 
ATOM     89  H   UNL A   1      32.841  25.716  24.780  1.00  0.00     0.346 HD
ATOM     90  H   UNL A   1      31.351  25.813  25.518  1.00  0.00     0.346 HD
BRANCH  85  91
ATOM     91  C   UNL A   1      32.925  21.038  24.531  1.00  0.00     0.148 A 
ATOM     92  N   UNL A   1      33.532  20.428  25.573  1.00  0.00    -0.237 NA
ATOM     93  C   UNL A   1      32.451  20.299  23.428  1.00  0.00     0.084 A 
ATOM     94  C   UNL A   1      33.603  19.074  25.557  1.00  0.00     0.126 A 
ATOM     95  C   UNL A   1      32.540  18.913  23.437  1.00  0.00     0.039 A 
ATOM     96  Cl  UNL A   1      31.777  21.044  22.016  1.00  0.00    -0.080 Cl
ATOM     97  C   UNL A   1      33.115  18.275  24.532  1.00  0.00     0.075 A 
BRANCH  97  98
ATOM     98  C   UNL A   1      33.206  16.786  24.622  1.00  0.00     0.417 C 
ATOM     99  F   UNL A   1      32.040  16.215  25.026  1.00  0.00    -0.166 F 
ATOM    100  F   UNL A   1      33.516  16.211  23.429  1.00  0.00    -0.166 F 
ATOM    101  F   UNL A   1      34.155  16.358  25.500  1.00  0.00    -0.166 F 
ENDBRANCH  97  98
ENDBRANCH  85  91
ENDBRANCH  81  83
ENDBRANCH  80  81
ENDBRANCH  79  80
ENDBRANCH  78  79
ENDBRANCH  77  78
ENDBRANCH  76  77
ENDBRANCH  75  76
ENDBRANCH   1  75
TORSDOF 22
ENDMDL
