MODEL 1
REMARK VINA RESULT:     -10.3      0.000      0.000
REMARK SMILES Cc1ccc(NC(=O)C[NH+]2CCN(c3ccc(C(=O)OCCOCCOCCOCCOC(=O)c4ccc(-c5c6nc(c(-c7c(F)c(F)c(F)c(F)c7F)c7ccc([nH]7)c(-c7c(F)c(F)c(F)c(F)c7F)c7nc(c(-c8c(F)c(F)c(F)c(F)c8F)c8ccc5[nH]8)C=C7)C=C6)cc4)cc3NS(C)(=O)=O)CC2)cc1
REMARK SMILES IDX 25 1 24 2 23 3 22 4 21 5 20 6 18 7 19 8 17 9 14 10 15 11
REMARK SMILES IDX 99 12 16 13 98 14 13 15 10 16 11 17 106 18 12 20 105 21 9 22
REMARK SMILES IDX 7 23 6 24 8 26 5 27 1 28 2 29 3 30 108 31 4 32 107 33 100 34
REMARK SMILES IDX 101 36 102 37 103 38 104 39 26 40 27 41 28 42 29 43 30 44
REMARK SMILES IDX 31 45 32 46 33 47 34 48 35 49 36 50 97 51 37 52 96 53 38 54
REMARK SMILES IDX 39 55 40 56 90 57 41 58 95 59 89 60 91 61 42 62 94 63 88 64
REMARK SMILES IDX 87 65 43 67 75 68 55 69 74 70 56 71 59 72 73 73 92 74 57 75
REMARK SMILES IDX 58 76 72 78 93 79 60 80 44 81 45 82 53 83 46 84 47 85 51 86
REMARK SMILES IDX 54 87 48 88 49 89 52 90 50 91 76 92 77 93 85 94 78 95 79 96
REMARK SMILES IDX 83 97 86 98 80 99 81 100 84 101 82 102 61 103 62 104 70 105
REMARK SMILES IDX 63 106 64 107 68 108 71 109 65 110 66 111 69 112 67 113
REMARK H PARENT 10 19 6 25 100 35 91 66 59 77
REMARK Flexibility Score: inf
ROOT
ATOM      1  C   UNL A   1      32.391  22.711  26.609  1.00  0.00     0.188 C 
ENDROOT
BRANCH   1   2
ATOM      2  C   UNL A   1      31.741  22.955  25.237  1.00  0.00     0.188 C 
BRANCH   2   3
ATOM      3  O   UNL A   1      32.023  22.049  24.176  1.00  0.00    -0.376 OA
BRANCH   3   4
ATOM      4  C   UNL A   1      32.996  22.476  23.225  1.00  0.00     0.202 C 
BRANCH   4   5
ATOM      5  C   UNL A   1      32.448  23.157  21.986  1.00  0.00     0.261 C 
BRANCH   5   6
ATOM      6  O   UNL A   1      33.507  23.826  21.313  1.00  0.00    -0.460 OA
BRANCH   6   7
ATOM      7  C   UNL A   1      33.171  25.060  20.927  1.00  0.00     0.338 C 
ATOM      8  O   UNL A   1      32.524  25.396  19.951  1.00  0.00    -0.246 OA
BRANCH   7   9
ATOM      9  C   UNL A   1      33.221  25.863  22.134  1.00  0.00     0.062 A 
ATOM     10  C   UNL A   1      32.995  27.687  24.197  1.00  0.00     0.062 A 
ATOM     11  C   UNL A   1      33.721  26.472  24.357  1.00  0.00     0.029 A 
ATOM     12  C   UNL A   1      32.365  27.957  22.949  1.00  0.00     0.073 A 
ATOM     13  C   UNL A   1      33.875  25.574  23.312  1.00  0.00     0.018 A 
ATOM     14  C   UNL A   1      32.389  26.961  22.012  1.00  0.00     0.044 A 
BRANCH  10  15
ATOM     15  N   UNL A   1      32.925  28.544  25.316  1.00  0.00    -0.359 N 
ATOM     16  N   UNL A   1      32.834  30.078  27.686  1.00  0.00    -0.324 N 
ATOM     17  C   UNL A   1      31.687  29.185  27.452  1.00  0.00     0.284 C 
ATOM     18  C   UNL A   1      34.045  29.255  27.470  1.00  0.00     0.284 C 
ATOM     19  H   UNL A   1      32.790  30.460  28.631  1.00  0.00     0.348 HD
ATOM     20  C   UNL A   1      31.700  28.361  26.140  1.00  0.00     0.178 C 
ATOM     21  C   UNL A   1      34.207  28.653  26.050  1.00  0.00     0.178 C 
BRANCH  16  22
ATOM     22  C   UNL A   1      32.842  31.258  26.779  1.00  0.00     0.364 C 
BRANCH  22  23
ATOM     23  C   UNL A   1      32.895  32.598  27.530  1.00  0.00     0.279 C 
ATOM     24  N   UNL A   1      33.846  32.924  28.462  1.00  0.00    -0.321 N 
ATOM     25  H   UNL A   1      33.727  33.822  28.847  1.00  0.00     0.170 HD
ATOM     26  O   UNL A   1      32.076  33.487  27.257  1.00  0.00    -0.268 OA
BRANCH  24  27
ATOM     27  C   UNL A   1      34.954  32.238  28.975  1.00  0.00     0.041 A 
ATOM     28  C   UNL A   1      37.682  29.085  29.891  1.00  0.00     0.044 C 
ATOM     29  C   UNL A   1      36.927  30.348  29.623  1.00  0.00    -0.051 A 
ATOM     30  C   UNL A   1      36.007  30.796  30.562  1.00  0.00     0.005 A 
ATOM     31  C   UNL A   1      36.979  31.004  28.403  1.00  0.00     0.005 A 
ATOM     32  C   UNL A   1      35.038  31.753  30.264  1.00  0.00     0.026 A 
ATOM     33  C   UNL A   1      36.007  31.963  28.089  1.00  0.00     0.026 A 
ENDBRANCH  24  27
ENDBRANCH  22  23
ENDBRANCH  16  22
ENDBRANCH  10  15
BRANCH  12  34
ATOM     34  N   UNL A   1      31.661  29.174  22.625  1.00  0.00    -0.282 N 
ATOM     35  H   UNL A   1      32.194  29.948  22.330  1.00  0.00     0.180 HD
BRANCH  34  36
ATOM     36  S   UNL A   1      29.967  29.365  22.720  1.00  0.00     0.229 S 
ATOM     37  C   UNL A   1      29.401  27.772  23.329  1.00  0.00     0.183 C 
ATOM     38  O   UNL A   1      29.740  30.326  23.783  1.00  0.00    -0.207 OA
ATOM     39  O   UNL A   1      29.384  29.587  21.420  1.00  0.00    -0.207 OA
ENDBRANCH  34  36
ENDBRANCH  12  34
ENDBRANCH   7   9
ENDBRANCH   6   7
ENDBRANCH   5   6
ENDBRANCH   4   5
ENDBRANCH   3   4
ENDBRANCH   2   3
ENDBRANCH   1   2
BRANCH   1  40
ATOM     40  O   UNL A   1      33.305  21.632  26.596  1.00  0.00    -0.377 OA
BRANCH  40  41
ATOM     41  C   UNL A   1      34.677  21.939  26.354  1.00  0.00     0.188 C 
BRANCH  41  42
ATOM     42  C   UNL A   1      35.541  20.916  25.614  1.00  0.00     0.188 C 
BRANCH  42  43
ATOM     43  O   UNL A   1      36.748  21.514  25.160  1.00  0.00    -0.376 OA
BRANCH  43  44
ATOM     44  C   UNL A   1      37.095  22.733  25.821  1.00  0.00     0.202 C 
BRANCH  44  45
ATOM     45  C   UNL A   1      38.603  23.020  25.815  1.00  0.00     0.261 C 
BRANCH  45  46
ATOM     46  O   UNL A   1      39.208  22.418  26.976  1.00  0.00    -0.460 OA
BRANCH  46  47
ATOM     47  C   UNL A   1      40.341  21.703  26.733  1.00  0.00     0.338 C 
ATOM     48  O   UNL A   1      40.387  20.496  26.561  1.00  0.00    -0.246 OA
BRANCH  47  49
ATOM     49  C   UNL A   1      41.540  22.546  27.008  1.00  0.00     0.060 A 
ATOM     50  C   UNL A   1      41.927  22.816  28.333  1.00  0.00     0.016 A 
ATOM     51  C   UNL A   1      42.055  23.323  25.982  1.00  0.00     0.016 A 
ATOM     52  C   UNL A   1      42.677  23.969  28.639  1.00  0.00     0.010 A 
ATOM     53  C   UNL A   1      42.710  24.496  26.304  1.00  0.00     0.010 A 
ATOM     54  C   UNL A   1      42.997  24.875  27.628  1.00  0.00    -0.014 A 
BRANCH  54  55
ATOM     55  C   UNL A   1      43.415  26.291  27.811  1.00  0.00     0.031 A 
ATOM     56  C   UNL A   1      42.391  27.350  28.192  1.00  0.00     0.074 A 
ATOM     57  C   UNL A   1      44.729  26.539  28.065  1.00  0.00     0.049 A 
ATOM     58  N   UNL A   1      42.654  28.567  28.556  1.00  0.00    -0.248 NA
ATOM     59  C   UNL A   1      40.943  27.119  28.160  1.00  0.00     0.031 C 
ATOM     60  C   UNL A   1      45.204  27.439  29.111  1.00  0.00     0.029 A 
ATOM     61  N   UNL A   1      45.920  25.977  27.587  1.00  0.00    -0.354 N 
ATOM     62  C   UNL A   1      41.509  29.127  29.115  1.00  0.00     0.074 A 
ATOM     63  C   UNL A   1      40.455  28.227  28.733  1.00  0.00     0.031 C 
ATOM     64  C   UNL A   1      46.536  27.450  29.175  1.00  0.00     0.029 A 
ATOM     65  C   UNL A   1      46.997  26.801  27.989  1.00  0.00     0.049 A 
ATOM     66  H   UNL A   1      45.994  25.149  27.061  1.00  0.00     0.167 HD
ATOM     67  C   UNL A   1      41.605  30.202  29.964  1.00  0.00     0.037 A 
ATOM     68  C   UNL A   1      47.824  27.437  27.108  1.00  0.00     0.037 A 
ATOM     69  C   UNL A   1      42.972  30.745  30.019  1.00  0.00     0.049 A 
ATOM     70  C   UNL A   1      47.696  28.952  27.161  1.00  0.00     0.074 A 
ATOM     71  C   UNL A   1      43.796  31.179  31.040  1.00  0.00     0.029 A 
ATOM     72  N   UNL A   1      43.740  30.852  28.861  1.00  0.00    -0.354 N 
ATOM     73  N   UNL A   1      46.626  29.554  27.623  1.00  0.00    -0.248 NA
ATOM     74  C   UNL A   1      48.746  29.905  26.812  1.00  0.00     0.031 C 
ATOM     75  C   UNL A   1      45.098  31.393  30.522  1.00  0.00     0.029 A 
ATOM     76  C   UNL A   1      45.011  31.287  29.146  1.00  0.00     0.049 A 
ATOM     77  H   UNL A   1      43.414  30.642  27.956  1.00  0.00     0.167 HD
ATOM     78  C   UNL A   1      46.823  30.910  27.644  1.00  0.00     0.074 A 
ATOM     79  C   UNL A   1      48.162  31.080  27.119  1.00  0.00     0.031 C 
ATOM     80  C   UNL A   1      45.883  31.787  28.103  1.00  0.00     0.037 A 
BRANCH  67  81
ATOM     81  C   UNL A   1      40.529  30.696  30.960  1.00  0.00     0.064 A 
ATOM     82  C   UNL A   1      39.925  31.972  30.794  1.00  0.00     0.173 A 
ATOM     83  C   UNL A   1      40.148  30.048  32.157  1.00  0.00     0.173 A 
ATOM     84  F   UNL A   1      40.105  32.684  29.674  1.00  0.00    -0.203 F 
ATOM     85  C   UNL A   1      39.098  32.570  31.761  1.00  0.00     0.198 A 
ATOM     86  C   UNL A   1      39.251  30.612  33.083  1.00  0.00     0.198 A 
ATOM     87  F   UNL A   1      40.653  28.863  32.512  1.00  0.00    -0.203 F 
ATOM     88  F   UNL A   1      38.637  33.815  31.571  1.00  0.00    -0.200 F 
ATOM     89  C   UNL A   1      38.752  31.883  32.902  1.00  0.00     0.200 A 
ATOM     90  F   UNL A   1      38.892  29.911  34.170  1.00  0.00    -0.200 F 
ATOM     91  F   UNL A   1      37.940  32.436  33.815  1.00  0.00    -0.200 F 
ENDBRANCH  67  81
BRANCH  68  92
ATOM     92  C   UNL A   1      48.277  26.502  26.034  1.00  0.00     0.064 A 
ATOM     93  C   UNL A   1      47.742  26.858  24.773  1.00  0.00     0.173 A 
ATOM     94  C   UNL A   1      49.613  26.069  26.066  1.00  0.00     0.173 A 
ATOM     95  F   UNL A   1      46.457  27.244  24.685  1.00  0.00    -0.203 F 
ATOM     96  C   UNL A   1      48.585  27.129  23.697  1.00  0.00     0.198 A 
ATOM     97  C   UNL A   1      50.450  26.314  24.971  1.00  0.00     0.198 A 
ATOM     98  F   UNL A   1      50.162  25.672  27.223  1.00  0.00    -0.203 F 
ATOM     99  F   UNL A   1      48.104  27.764  22.618  1.00  0.00    -0.200 F 
ATOM    100  C   UNL A   1      49.947  26.910  23.820  1.00  0.00     0.200 A 
ATOM    101  F   UNL A   1      51.775  26.141  25.092  1.00  0.00    -0.200 F 
ATOM    102  F   UNL A   1      50.785  27.374  22.880  1.00  0.00    -0.200 F 
ENDBRANCH  68  92
BRANCH  80 103
ATOM    103  C   UNL A   1      45.697  33.244  27.703  1.00  0.00     0.064 A 
ATOM    104  C   UNL A   1      44.671  33.693  26.862  1.00  0.00     0.173 A 
ATOM    105  C   UNL A   1      46.430  34.281  28.352  1.00  0.00     0.173 A 
ATOM    106  F   UNL A   1      43.837  32.840  26.256  1.00  0.00    -0.203 F 
ATOM    107  C   UNL A   1      44.417  35.054  26.661  1.00  0.00     0.198 A 
ATOM    108  C   UNL A   1      46.143  35.634  28.187  1.00  0.00     0.198 A 
ATOM    109  F   UNL A   1      47.422  34.034  29.216  1.00  0.00    -0.203 F 
ATOM    110  F   UNL A   1      43.429  35.422  25.834  1.00  0.00    -0.200 F 
ATOM    111  C   UNL A   1      45.138  36.022  27.334  1.00  0.00     0.200 A 
ATOM    112  F   UNL A   1      46.824  36.551  28.890  1.00  0.00    -0.200 F 
ATOM    113  F   UNL A   1      44.847  37.320  27.180  1.00  0.00    -0.200 F 
ENDBRANCH  80 103
ENDBRANCH  54  55
ENDBRANCH  47  49
ENDBRANCH  46  47
ENDBRANCH  45  46
ENDBRANCH  44  45
ENDBRANCH  43  44
ENDBRANCH  42  43
ENDBRANCH  41  42
ENDBRANCH  40  41
ENDBRANCH   1  40
TORSDOF 26
ENDMDL
MODEL 2
REMARK VINA RESULT:     -10.2      2.178      3.780
REMARK SMILES Cc1ccc(NC(=O)C[NH+]2CCN(c3ccc(C(=O)OCCOCCOCCOCCOC(=O)c4ccc(-c5c6nc(c(-c7c(F)c(F)c(F)c(F)c7F)c7ccc([nH]7)c(-c7c(F)c(F)c(F)c(F)c7F)c7nc(c(-c8c(F)c(F)c(F)c(F)c8F)c8ccc5[nH]8)C=C7)C=C6)cc4)cc3NS(C)(=O)=O)CC2)cc1
REMARK SMILES IDX 25 1 24 2 23 3 22 4 21 5 20 6 18 7 19 8 17 9 14 10 15 11
REMARK SMILES IDX 99 12 16 13 98 14 13 15 10 16 11 17 106 18 12 20 105 21 9 22
REMARK SMILES IDX 7 23 6 24 8 26 5 27 1 28 2 29 3 30 108 31 4 32 107 33 100 34
REMARK SMILES IDX 101 36 102 37 103 38 104 39 26 40 27 41 28 42 29 43 30 44
REMARK SMILES IDX 31 45 32 46 33 47 34 48 35 49 36 50 97 51 37 52 96 53 38 54
REMARK SMILES IDX 39 55 40 56 90 57 41 58 95 59 89 60 91 61 42 62 94 63 88 64
REMARK SMILES IDX 87 65 43 67 75 68 55 69 74 70 56 71 59 72 73 73 92 74 57 75
REMARK SMILES IDX 58 76 72 78 93 79 60 80 44 81 45 82 53 83 46 84 47 85 51 86
REMARK SMILES IDX 54 87 48 88 49 89 52 90 50 91 76 92 77 93 85 94 78 95 79 96
REMARK SMILES IDX 83 97 86 98 80 99 81 100 84 101 82 102 61 103 62 104 70 105
REMARK SMILES IDX 63 106 64 107 68 108 71 109 65 110 66 111 69 112 67 113
REMARK H PARENT 10 19 6 25 100 35 91 66 59 77
REMARK Flexibility Score: inf
ROOT
ATOM      1  C   UNL A   1      35.712  21.666  24.879  1.00  0.00     0.188 C 
ENDROOT
BRANCH   1   2
ATOM      2  C   UNL A   1      34.735  20.581  25.361  1.00  0.00     0.188 C 
BRANCH   2   3
ATOM      3  O   UNL A   1      34.617  19.382  24.603  1.00  0.00    -0.376 OA
BRANCH   3   4
ATOM      4  C   UNL A   1      33.372  18.692  24.702  1.00  0.00     0.202 C 
BRANCH   4   5
ATOM      5  C   UNL A   1      32.250  19.237  23.840  1.00  0.00     0.261 C 
BRANCH   5   6
ATOM      6  O   UNL A   1      32.402  20.645  23.711  1.00  0.00    -0.460 OA
BRANCH   6   7
ATOM      7  C   UNL A   1      32.265  21.062  22.449  1.00  0.00     0.338 C 
ATOM      8  O   UNL A   1      31.745  20.481  21.514  1.00  0.00    -0.246 OA
BRANCH   7   9
ATOM      9  C   UNL A   1      32.330  22.510  22.518  1.00  0.00     0.062 A 
ATOM     10  C   UNL A   1      32.140  25.219  23.029  1.00  0.00     0.062 A 
ATOM     11  C   UNL A   1      33.065  24.707  22.075  1.00  0.00     0.029 A 
ATOM     12  C   UNL A   1      31.306  24.310  23.740  1.00  0.00     0.073 A 
ATOM     13  C   UNL A   1      33.133  23.353  21.782  1.00  0.00     0.018 A 
ATOM     14  C   UNL A   1      31.539  22.976  23.552  1.00  0.00     0.044 A 
BRANCH  10  15
ATOM     15  N   UNL A   1      32.133  26.616  23.229  1.00  0.00    -0.359 N 
ATOM     16  N   UNL A   1      32.135  29.435  23.402  1.00  0.00    -0.324 N 
ATOM     17  C   UNL A   1      33.436  28.806  23.117  1.00  0.00     0.284 C 
ATOM     18  C   UNL A   1      31.169  28.825  22.462  1.00  0.00     0.284 C 
ATOM     19  H   UNL A   1      32.206  30.446  23.284  1.00  0.00     0.348 HD
ATOM     20  C   UNL A   1      33.463  27.258  23.052  1.00  0.00     0.178 C 
ATOM     21  C   UNL A   1      30.980  27.292  22.588  1.00  0.00     0.178 C 
BRANCH  16  22
ATOM     22  C   UNL A   1      31.691  29.228  24.808  1.00  0.00     0.364 C 
BRANCH  22  23
ATOM     23  C   UNL A   1      31.354  30.540  25.535  1.00  0.00     0.279 C 
ATOM     24  N   UNL A   1      32.112  31.083  26.540  1.00  0.00    -0.321 N 
ATOM     25  H   UNL A   1      31.747  31.925  26.896  1.00  0.00     0.170 HD
ATOM     26  O   UNL A   1      30.375  31.207  25.173  1.00  0.00    -0.268 OA
BRANCH  24  27
ATOM     27  C   UNL A   1      33.301  30.680  27.162  1.00  0.00     0.041 A 
ATOM     28  C   UNL A   1      37.438  29.861  27.819  1.00  0.00     0.044 C 
ATOM     29  C   UNL A   1      35.970  30.148  27.849  1.00  0.00    -0.051 A 
ATOM     30  C   UNL A   1      35.078  29.130  27.540  1.00  0.00     0.005 A 
ATOM     31  C   UNL A   1      35.463  31.428  28.008  1.00  0.00     0.005 A 
ATOM     32  C   UNL A   1      33.743  29.375  27.222  1.00  0.00     0.026 A 
ATOM     33  C   UNL A   1      34.125  31.688  27.685  1.00  0.00     0.026 A 
ENDBRANCH  24  27
ENDBRANCH  22  23
ENDBRANCH  16  22
ENDBRANCH  10  15
BRANCH  12  34
ATOM     34  N   UNL A   1      30.280  24.693  24.679  1.00  0.00    -0.282 N 
ATOM     35  H   UNL A   1      29.375  24.861  24.327  1.00  0.00     0.180 HD
BRANCH  34  36
ATOM     36  S   UNL A   1      30.525  24.875  26.359  1.00  0.00     0.229 S 
ATOM     37  C   UNL A   1      32.260  24.458  26.574  1.00  0.00     0.183 C 
ATOM     38  O   UNL A   1      30.398  26.296  26.622  1.00  0.00    -0.207 OA
ATOM     39  O   UNL A   1      29.736  23.935  27.115  1.00  0.00    -0.207 OA
ENDBRANCH  34  36
ENDBRANCH  12  34
ENDBRANCH   7   9
ENDBRANCH   6   7
ENDBRANCH   5   6
ENDBRANCH   4   5
ENDBRANCH   3   4
ENDBRANCH   2   3
ENDBRANCH   1   2
BRANCH   1  40
ATOM     40  O   UNL A   1      36.831  21.811  25.732  1.00  0.00    -0.377 OA
BRANCH  40  41
ATOM     41  C   UNL A   1      38.112  21.496  25.190  1.00  0.00     0.188 C 
BRANCH  41  42
ATOM     42  C   UNL A   1      39.346  21.648  26.082  1.00  0.00     0.188 C 
BRANCH  42  43
ATOM     43  O   UNL A   1      40.061  20.422  26.163  1.00  0.00    -0.376 OA
BRANCH  43  44
ATOM     44  C   UNL A   1      41.156  20.431  27.081  1.00  0.00     0.202 C 
BRANCH  44  45
ATOM     45  C   UNL A   1      41.266  21.736  27.882  1.00  0.00     0.261 C 
BRANCH  45  46
ATOM     46  O   UNL A   1      42.607  22.253  27.771  1.00  0.00    -0.460 OA
BRANCH  46  47
ATOM     47  C   UNL A   1      42.749  23.317  26.935  1.00  0.00     0.338 C 
ATOM     48  O   UNL A   1      42.536  23.302  25.734  1.00  0.00    -0.246 OA
BRANCH  47  49
ATOM     49  C   UNL A   1      43.489  24.411  27.630  1.00  0.00     0.060 A 
ATOM     50  C   UNL A   1      43.190  24.729  28.967  1.00  0.00     0.016 A 
ATOM     51  C   UNL A   1      44.213  25.313  26.866  1.00  0.00     0.016 A 
ATOM     52  C   UNL A   1      43.455  26.017  29.472  1.00  0.00     0.010 A 
ATOM     53  C   UNL A   1      44.384  26.597  27.344  1.00  0.00     0.010 A 
ATOM     54  C   UNL A   1      43.974  26.999  28.628  1.00  0.00    -0.014 A 
BRANCH  54  55
ATOM     55  C   UNL A   1      43.945  28.469  28.860  1.00  0.00     0.031 A 
ATOM     56  C   UNL A   1      42.617  29.198  28.994  1.00  0.00     0.074 A 
ATOM     57  C   UNL A   1      45.061  29.054  29.374  1.00  0.00     0.049 A 
ATOM     58  N   UNL A   1      42.459  30.428  29.376  1.00  0.00    -0.248 NA
ATOM     59  C   UNL A   1      41.324  28.585  28.669  1.00  0.00     0.031 C 
ATOM     60  C   UNL A   1      45.049  30.013  30.474  1.00  0.00     0.029 A 
ATOM     61  N   UNL A   1      46.432  28.851  29.167  1.00  0.00    -0.354 N 
ATOM     62  C   UNL A   1      41.116  30.638  29.671  1.00  0.00     0.074 A 
ATOM     63  C   UNL A   1      40.447  29.500  29.101  1.00  0.00     0.031 C 
ATOM     64  C   UNL A   1      46.285  30.381  30.813  1.00  0.00     0.029 A 
ATOM     65  C   UNL A   1      47.138  29.921  29.763  1.00  0.00     0.049 A 
ATOM     66  H   UNL A   1      46.835  28.091  28.688  1.00  0.00     0.167 HD
ATOM     67  C   UNL A   1      40.739  31.670  30.496  1.00  0.00     0.037 A 
ATOM     68  C   UNL A   1      47.925  30.786  29.058  1.00  0.00     0.037 A 
ATOM     69  C   UNL A   1      41.866  32.561  30.819  1.00  0.00     0.049 A 
ATOM     70  C   UNL A   1      47.382  32.207  29.047  1.00  0.00     0.074 A 
ATOM     71  C   UNL A   1      42.313  33.167  31.979  1.00  0.00     0.029 A 
ATOM     72  N   UNL A   1      42.798  32.909  29.844  1.00  0.00    -0.354 N 
ATOM     73  N   UNL A   1      46.117  32.482  29.263  1.00  0.00    -0.248 NA
ATOM     74  C   UNL A   1      48.183  33.420  28.900  1.00  0.00     0.031 C 
ATOM     75  C   UNL A   1      43.585  33.741  31.737  1.00  0.00     0.029 A 
ATOM     76  C   UNL A   1      43.815  33.662  30.376  1.00  0.00     0.049 A 
ATOM     77  H   UNL A   1      42.734  32.649  28.896  1.00  0.00     0.167 HD
ATOM     78  C   UNL A   1      45.931  33.839  29.290  1.00  0.00     0.074 A 
ATOM     79  C   UNL A   1      47.252  34.382  29.051  1.00  0.00     0.031 C 
ATOM     80  C   UNL A   1      44.714  34.414  29.524  1.00  0.00     0.037 A 
BRANCH  67  81
ATOM     81  C   UNL A   1      39.389  31.821  31.235  1.00  0.00     0.064 A 
ATOM     82  C   UNL A   1      39.212  31.269  32.533  1.00  0.00     0.173 A 
ATOM     83  C   UNL A   1      38.202  32.362  30.691  1.00  0.00     0.173 A 
ATOM     84  F   UNL A   1      40.251  30.796  33.233  1.00  0.00    -0.203 F 
ATOM     85  C   UNL A   1      37.966  31.189  33.178  1.00  0.00     0.198 A 
ATOM     86  C   UNL A   1      36.972  32.358  31.376  1.00  0.00     0.198 A 
ATOM     87  F   UNL A   1      38.160  32.879  29.459  1.00  0.00    -0.203 F 
ATOM     88  F   UNL A   1      37.863  30.572  34.365  1.00  0.00    -0.200 F 
ATOM     89  C   UNL A   1      36.846  31.745  32.602  1.00  0.00     0.200 A 
ATOM     90  F   UNL A   1      35.900  32.942  30.817  1.00  0.00    -0.200 F 
ATOM     91  F   UNL A   1      35.659  31.697  33.225  1.00  0.00    -0.200 F 
ENDBRANCH  67  81
BRANCH  68  92
ATOM     92  C   UNL A   1      48.825  30.044  28.124  1.00  0.00     0.064 A 
ATOM     93  C   UNL A   1      49.819  29.320  28.824  1.00  0.00     0.173 A 
ATOM     94  C   UNL A   1      48.239  29.419  27.011  1.00  0.00     0.173 A 
ATOM     95  F   UNL A   1      50.436  29.888  29.875  1.00  0.00    -0.203 F 
ATOM     96  C   UNL A   1      49.937  27.941  28.659  1.00  0.00     0.198 A 
ATOM     97  C   UNL A   1      48.386  28.039  26.830  1.00  0.00     0.198 A 
ATOM     98  F   UNL A   1      47.327  30.073  26.278  1.00  0.00    -0.203 F 
ATOM     99  F   UNL A   1      50.648  27.223  29.543  1.00  0.00    -0.200 F 
ATOM    100  C   UNL A   1      49.175  27.295  27.700  1.00  0.00     0.200 A 
ATOM    101  F   UNL A   1      47.626  27.399  25.929  1.00  0.00    -0.200 F 
ATOM    102  F   UNL A   1      49.116  25.955  27.686  1.00  0.00    -0.200 F 
ENDBRANCH  68  92
BRANCH  80 103
ATOM    103  C   UNL A   1      44.227  35.778  29.059  1.00  0.00     0.064 A 
ATOM    104  C   UNL A   1      43.487  35.981  27.887  1.00  0.00     0.173 A 
ATOM    105  C   UNL A   1      44.302  36.915  29.918  1.00  0.00     0.173 A 
ATOM    106  F   UNL A   1      43.249  34.983  27.028  1.00  0.00    -0.203 F 
ATOM    107  C   UNL A   1      42.898  37.213  27.584  1.00  0.00     0.198 A 
ATOM    108  C   UNL A   1      43.675  38.126  29.634  1.00  0.00     0.198 A 
ATOM    109  F   UNL A   1      44.940  36.891  31.094  1.00  0.00    -0.203 F 
ATOM    110  F   UNL A   1      42.212  37.348  26.441  1.00  0.00    -0.200 F 
ATOM    111  C   UNL A   1      42.976  38.278  28.461  1.00  0.00     0.200 A 
ATOM    112  F   UNL A   1      43.724  39.127  30.526  1.00  0.00    -0.200 F 
ATOM    113  F   UNL A   1      42.360  39.434  28.188  1.00  0.00    -0.200 F 
ENDBRANCH  80 103
ENDBRANCH  54  55
ENDBRANCH  47  49
ENDBRANCH  46  47
ENDBRANCH  45  46
ENDBRANCH  44  45
ENDBRANCH  43  44
ENDBRANCH  42  43
ENDBRANCH  41  42
ENDBRANCH  40  41
ENDBRANCH   1  40
TORSDOF 26
ENDMDL
MODEL 3
REMARK VINA RESULT:      -9.3      3.898      9.333
REMARK SMILES Cc1ccc(NC(=O)C[NH+]2CCN(c3ccc(C(=O)OCCOCCOCCOCCOC(=O)c4ccc(-c5c6nc(c(-c7c(F)c(F)c(F)c(F)c7F)c7ccc([nH]7)c(-c7c(F)c(F)c(F)c(F)c7F)c7nc(c(-c8c(F)c(F)c(F)c(F)c8F)c8ccc5[nH]8)C=C7)C=C6)cc4)cc3NS(C)(=O)=O)CC2)cc1
REMARK SMILES IDX 25 1 24 2 23 3 22 4 21 5 20 6 18 7 19 8 17 9 14 10 15 11
REMARK SMILES IDX 99 12 16 13 98 14 13 15 10 16 11 17 106 18 12 20 105 21 9 22
REMARK SMILES IDX 7 23 6 24 8 26 5 27 1 28 2 29 3 30 108 31 4 32 107 33 100 34
REMARK SMILES IDX 101 36 102 37 103 38 104 39 26 40 27 41 28 42 29 43 30 44
REMARK SMILES IDX 31 45 32 46 33 47 34 48 35 49 36 50 97 51 37 52 96 53 38 54
REMARK SMILES IDX 39 55 40 56 90 57 41 58 95 59 89 60 91 61 42 62 94 63 88 64
REMARK SMILES IDX 87 65 43 67 75 68 55 69 74 70 56 71 59 72 73 73 92 74 57 75
REMARK SMILES IDX 58 76 72 78 93 79 60 80 44 81 45 82 53 83 46 84 47 85 51 86
REMARK SMILES IDX 54 87 48 88 49 89 52 90 50 91 76 92 77 93 85 94 78 95 79 96
REMARK SMILES IDX 83 97 86 98 80 99 81 100 84 101 82 102 61 103 62 104 70 105
REMARK SMILES IDX 63 106 64 107 68 108 71 109 65 110 66 111 69 112 67 113
REMARK H PARENT 10 19 6 25 100 35 91 66 59 77
REMARK Flexibility Score: inf
ROOT
ATOM      1  C   UNL A   1      35.824  32.621  32.850  1.00  0.00     0.188 C 
ENDROOT
BRANCH   1   2
ATOM      2  C   UNL A   1      35.630  33.210  31.443  1.00  0.00     0.188 C 
BRANCH   2   3
ATOM      3  O   UNL A   1      34.909  32.451  30.478  1.00  0.00    -0.376 OA
BRANCH   3   4
ATOM      4  C   UNL A   1      35.677  31.883  29.419  1.00  0.00     0.202 C 
BRANCH   4   5
ATOM      5  C   UNL A   1      35.258  32.282  28.018  1.00  0.00     0.261 C 
BRANCH   5   6
ATOM      6  O   UNL A   1      34.820  31.126  27.315  1.00  0.00    -0.460 OA
BRANCH   6   7
ATOM      7  C   UNL A   1      33.492  30.986  27.336  1.00  0.00     0.338 C 
ATOM      8  O   UNL A   1      32.640  31.855  27.393  1.00  0.00    -0.246 OA
BRANCH   7   9
ATOM      9  C   UNL A   1      33.236  29.694  26.728  1.00  0.00     0.062 A 
ATOM     10  C   UNL A   1      32.429  27.480  25.284  1.00  0.00     0.062 A 
ATOM     11  C   UNL A   1      33.506  27.408  26.212  1.00  0.00     0.029 A 
ATOM     12  C   UNL A   1      31.764  28.725  25.092  1.00  0.00     0.073 A 
ATOM     13  C   UNL A   1      33.887  28.504  26.972  1.00  0.00     0.018 A 
ATOM     14  C   UNL A   1      32.293  29.816  25.724  1.00  0.00     0.044 A 
BRANCH  10  15
ATOM     15  N   UNL A   1      32.105  26.299  24.584  1.00  0.00    -0.359 N 
ATOM     16  N   UNL A   1      31.368  24.066  23.019  1.00  0.00    -0.324 N 
ATOM     17  C   UNL A   1      30.269  24.756  23.714  1.00  0.00     0.284 C 
ATOM     18  C   UNL A   1      32.156  25.123  22.345  1.00  0.00     0.284 C 
ATOM     19  H   UNL A   1      30.989  23.386  22.359  1.00  0.00     0.348 HD
ATOM     20  C   UNL A   1      30.655  25.963  24.606  1.00  0.00     0.178 C 
ATOM     21  C   UNL A   1      32.791  26.187  23.276  1.00  0.00     0.178 C 
BRANCH  16  22
ATOM     22  C   UNL A   1      32.235  23.285  23.943  1.00  0.00     0.364 C 
BRANCH  22  23
ATOM     23  C   UNL A   1      32.628  21.908  23.384  1.00  0.00     0.279 C 
ATOM     24  N   UNL A   1      33.885  21.367  23.476  1.00  0.00    -0.321 N 
ATOM     25  H   UNL A   1      33.961  20.478  23.060  1.00  0.00     0.170 HD
ATOM     26  O   UNL A   1      31.765  21.188  22.863  1.00  0.00    -0.268 OA
BRANCH  24  27
ATOM     27  C   UNL A   1      35.081  21.824  24.043  1.00  0.00     0.041 A 
ATOM     28  C   UNL A   1      37.830  24.102  26.382  1.00  0.00     0.044 C 
ATOM     29  C   UNL A   1      37.055  23.124  25.557  1.00  0.00    -0.051 A 
ATOM     30  C   UNL A   1      36.906  23.358  24.197  1.00  0.00     0.005 A 
ATOM     31  C   UNL A   1      36.336  22.080  26.119  1.00  0.00     0.005 A 
ATOM     32  C   UNL A   1      35.948  22.701  23.425  1.00  0.00     0.026 A 
ATOM     33  C   UNL A   1      35.366  21.417  25.355  1.00  0.00     0.026 A 
ENDBRANCH  24  27
ENDBRANCH  22  23
ENDBRANCH  16  22
ENDBRANCH  10  15
BRANCH  12  34
ATOM     34  N   UNL A   1      30.616  28.926  24.241  1.00  0.00    -0.282 N 
ATOM     35  H   UNL A   1      29.734  29.000  24.671  1.00  0.00     0.180 HD
BRANCH  34  36
ATOM     36  S   UNL A   1      30.684  29.043  22.538  1.00  0.00     0.229 S 
ATOM     37  C   UNL A   1      29.614  30.439  22.173  1.00  0.00     0.183 C 
ATOM     38  O   UNL A   1      32.039  29.458  22.228  1.00  0.00    -0.207 OA
ATOM     39  O   UNL A   1      30.133  27.871  21.904  1.00  0.00    -0.207 OA
ENDBRANCH  34  36
ENDBRANCH  12  34
ENDBRANCH   7   9
ENDBRANCH   6   7
ENDBRANCH   5   6
ENDBRANCH   4   5
ENDBRANCH   3   4
ENDBRANCH   2   3
ENDBRANCH   1   2
BRANCH   1  40
ATOM     40  O   UNL A   1      36.270  31.280  32.825  1.00  0.00    -0.377 OA
BRANCH  40  41
ATOM     41  C   UNL A   1      37.675  31.060  32.716  1.00  0.00     0.188 C 
BRANCH  41  42
ATOM     42  C   UNL A   1      38.582  31.512  33.862  1.00  0.00     0.188 C 
BRANCH  42  43
ATOM     43  O   UNL A   1      38.045  31.111  35.116  1.00  0.00    -0.376 OA
BRANCH  43  44
ATOM     44  C   UNL A   1      38.975  31.147  36.200  1.00  0.00     0.202 C 
BRANCH  44  45
ATOM     45  C   UNL A   1      40.386  30.686  35.807  1.00  0.00     0.261 C 
BRANCH  45  46
ATOM     46  O   UNL A   1      40.456  29.248  35.879  1.00  0.00    -0.460 OA
BRANCH  46  47
ATOM     47  C   UNL A   1      41.704  28.738  36.067  1.00  0.00     0.338 C 
ATOM     48  O   UNL A   1      42.474  29.072  36.952  1.00  0.00    -0.246 OA
BRANCH  47  49
ATOM     49  C   UNL A   1      42.111  27.945  34.871  1.00  0.00     0.060 A 
ATOM     50  C   UNL A   1      42.998  26.863  35.008  1.00  0.00     0.016 A 
ATOM     51  C   UNL A   1      41.886  28.480  33.612  1.00  0.00     0.016 A 
ATOM     52  C   UNL A   1      43.789  26.444  33.920  1.00  0.00     0.010 A 
ATOM     53  C   UNL A   1      42.731  28.122  32.580  1.00  0.00     0.010 A 
ATOM     54  C   UNL A   1      43.728  27.138  32.711  1.00  0.00    -0.014 A 
BRANCH  54  55
ATOM     55  C   UNL A   1      44.739  27.102  31.620  1.00  0.00     0.031 A 
ATOM     56  C   UNL A   1      46.216  27.285  31.935  1.00  0.00     0.074 A 
ATOM     57  C   UNL A   1      44.397  26.484  30.456  1.00  0.00     0.049 A 
ATOM     58  N   UNL A   1      47.200  27.094  31.112  1.00  0.00    -0.248 NA
ATOM     59  C   UNL A   1      46.710  27.744  33.238  1.00  0.00     0.031 C 
ATOM     60  C   UNL A   1      45.250  25.533  29.753  1.00  0.00     0.029 A 
ATOM     61  N   UNL A   1      43.210  26.431  29.713  1.00  0.00    -0.354 N 
ATOM     62  C   UNL A   1      48.389  27.058  31.833  1.00  0.00     0.074 A 
ATOM     63  C   UNL A   1      48.035  27.584  33.123  1.00  0.00     0.031 C 
ATOM     64  C   UNL A   1      44.643  25.040  28.673  1.00  0.00     0.029 A 
ATOM     65  C   UNL A   1      43.498  25.864  28.450  1.00  0.00     0.049 A 
ATOM     66  H   UNL A   1      42.325  26.736  30.018  1.00  0.00     0.167 HD
ATOM     67  C   UNL A   1      49.501  26.445  31.308  1.00  0.00     0.037 A 
ATOM     68  C   UNL A   1      43.323  26.531  27.270  1.00  0.00     0.037 A 
ATOM     69  C   UNL A   1      49.306  26.052  29.903  1.00  0.00     0.049 A 
ATOM     70  C   UNL A   1      44.631  26.812  26.547  1.00  0.00     0.074 A 
ATOM     71  C   UNL A   1      49.607  24.919  29.169  1.00  0.00     0.029 A 
ATOM     72  N   UNL A   1      48.636  26.892  29.017  1.00  0.00    -0.354 N 
ATOM     73  N   UNL A   1      45.787  26.849  27.167  1.00  0.00    -0.248 NA
ATOM     74  C   UNL A   1      44.784  26.974  25.103  1.00  0.00     0.031 C 
ATOM     75  C   UNL A   1      48.983  25.015  27.900  1.00  0.00     0.029 A 
ATOM     76  C   UNL A   1      48.477  26.297  27.790  1.00  0.00     0.049 A 
ATOM     77  H   UNL A   1      48.317  27.797  29.242  1.00  0.00     0.167 HD
ATOM     78  C   UNL A   1      46.799  27.024  26.260  1.00  0.00     0.074 A 
ATOM     79  C   UNL A   1      46.120  27.104  24.984  1.00  0.00     0.031 C 
ATOM     80  C   UNL A   1      48.115  27.073  26.622  1.00  0.00     0.037 A 
BRANCH  67  81
ATOM     81  C   UNL A   1      50.751  25.968  32.085  1.00  0.00     0.064 A 
ATOM     82  C   UNL A   1      51.909  26.789  32.160  1.00  0.00     0.173 A 
ATOM     83  C   UNL A   1      50.936  24.687  32.652  1.00  0.00     0.173 A 
ATOM     84  F   UNL A   1      51.883  28.065  31.753  1.00  0.00    -0.203 F 
ATOM     85  C   UNL A   1      53.142  26.346  32.668  1.00  0.00     0.198 A 
ATOM     86  C   UNL A   1      52.146  24.275  33.239  1.00  0.00     0.198 A 
ATOM     87  F   UNL A   1      49.975  23.758  32.629  1.00  0.00    -0.203 F 
ATOM     88  F   UNL A   1      54.214  27.150  32.623  1.00  0.00    -0.200 F 
ATOM     89  C   UNL A   1      53.257  25.090  33.219  1.00  0.00     0.200 A 
ATOM     90  F   UNL A   1      52.228  23.062  33.808  1.00  0.00    -0.200 F 
ATOM     91  F   UNL A   1      54.423  24.670  33.732  1.00  0.00    -0.200 F 
ENDBRANCH  67  81
BRANCH  68  92
ATOM     92  C   UNL A   1      41.987  27.199  27.232  1.00  0.00     0.064 A 
ATOM     93  C   UNL A   1      40.936  26.275  27.450  1.00  0.00     0.173 A 
ATOM     94  C   UNL A   1      41.869  28.460  27.840  1.00  0.00     0.173 A 
ATOM     95  F   UNL A   1      40.984  25.068  26.860  1.00  0.00    -0.203 F 
ATOM     96  C   UNL A   1      40.037  26.460  28.499  1.00  0.00     0.198 A 
ATOM     97  C   UNL A   1      40.944  28.652  28.872  1.00  0.00     0.198 A 
ATOM     98  F   UNL A   1      42.807  29.394  27.631  1.00  0.00    -0.203 F 
ATOM     99  F   UNL A   1      39.258  25.442  28.895  1.00  0.00    -0.200 F 
ATOM    100  C   UNL A   1      40.083  27.626  29.246  1.00  0.00     0.200 A 
ATOM    101  F   UNL A   1      41.003  29.761  29.625  1.00  0.00    -0.200 F 
ATOM    102  F   UNL A   1      39.381  27.716  30.386  1.00  0.00    -0.200 F 
ENDBRANCH  68  92
BRANCH  80 103
ATOM    103  C   UNL A   1      49.252  27.781  25.899  1.00  0.00     0.064 A 
ATOM    104  C   UNL A   1      49.937  28.884  26.424  1.00  0.00     0.173 A 
ATOM    105  C   UNL A   1      49.842  27.216  24.730  1.00  0.00     0.173 A 
ATOM    106  F   UNL A   1      49.560  29.465  27.568  1.00  0.00    -0.203 F 
ATOM    107  C   UNL A   1      51.092  29.396  25.822  1.00  0.00     0.198 A 
ATOM    108  C   UNL A   1      51.018  27.699  24.161  1.00  0.00     0.198 A 
ATOM    109  F   UNL A   1      49.339  26.138  24.115  1.00  0.00    -0.203 F 
ATOM    110  F   UNL A   1      51.698  30.461  26.365  1.00  0.00    -0.200 F 
ATOM    111  C   UNL A   1      51.641  28.796  24.704  1.00  0.00     0.200 A 
ATOM    112  F   UNL A   1      51.557  27.068  23.107  1.00  0.00    -0.200 F 
ATOM    113  F   UNL A   1      52.779  29.259  24.171  1.00  0.00    -0.200 F 
ENDBRANCH  80 103
ENDBRANCH  54  55
ENDBRANCH  47  49
ENDBRANCH  46  47
ENDBRANCH  45  46
ENDBRANCH  44  45
ENDBRANCH  43  44
ENDBRANCH  42  43
ENDBRANCH  41  42
ENDBRANCH  40  41
ENDBRANCH   1  40
TORSDOF 26
ENDMDL
