MODEL 1
REMARK VINA RESULT:     -10.6      0.000      0.000
REMARK SMILES C[C@@H]1[C@@H](C(=O)OCCOCCOCCOCCOC(=O)c2ccc(-c3c4nc(c(-c5c(F)c(F)c(F)c(F)c5F)c5ccc([nH]5)c(-c5c(F)c(F)c(F)c(F)c5F)c5nc(c(-c6c(F)c(F)c(F)c(F)c6F)c6ccc3[nH]6)C=C5)C=C4)cc2)CCN1C(=O)N[C@@H](C)Cc1ccco1
REMARK SMILES IDX 11 1 10 2 9 3 8 4 7 5 6 6 4 7 5 8 3 9 1 10 2 11 86 12 84 13
REMARK SMILES IDX 85 14 87 15 88 16 89 17 90 19 91 20 92 21 93 22 94 23 97 24
REMARK SMILES IDX 95 25 96 26 12 27 13 28 14 29 15 30 16 31 17 32 18 33 19 34
REMARK SMILES IDX 20 35 21 36 22 37 83 38 23 39 82 40 24 41 25 42 26 43 76 44
REMARK SMILES IDX 27 45 81 46 75 47 77 48 28 49 80 50 74 51 73 52 29 54 61 55
REMARK SMILES IDX 41 56 60 57 42 58 45 59 59 60 78 61 43 62 44 63 58 65 79 66
REMARK SMILES IDX 46 67 30 68 31 69 39 70 32 71 33 72 37 73 40 74 34 75 35 76
REMARK SMILES IDX 38 77 36 78 62 79 63 80 71 81 64 82 65 83 69 84 72 85 66 86
REMARK SMILES IDX 67 87 70 88 68 89 47 90 48 91 56 92 49 93 50 94 54 95 57 96
REMARK SMILES IDX 51 97 52 98 55 99 53 100
REMARK H PARENT 89 18 77 53 45 64
REMARK Flexibility Score: inf
ROOT
ATOM      1  C   UNL A   1      32.519  28.586  23.668  1.00  0.00     0.188 C 
ENDROOT
BRANCH   1   2
ATOM      2  C   UNL A   1      31.768  29.127  22.441  1.00  0.00     0.188 C 
BRANCH   2   3
ATOM      3  O   UNL A   1      30.625  28.380  22.076  1.00  0.00    -0.376 OA
BRANCH   3   4
ATOM      4  C   UNL A   1      29.523  28.194  22.949  1.00  0.00     0.202 C 
BRANCH   4   5
ATOM      5  C   UNL A   1      29.409  27.129  24.055  1.00  0.00     0.261 C 
BRANCH   5   6
ATOM      6  O   UNL A   1      29.421  25.765  23.651  1.00  0.00    -0.463 OA
BRANCH   6   7
ATOM      7  C   UNL A   1      30.375  24.984  24.209  1.00  0.00     0.311 C 
ATOM      8  O   UNL A   1      30.567  24.885  25.411  1.00  0.00    -0.252 OA
BRANCH   7   9
ATOM      9  C   UNL A   1      31.115  24.219  23.121  1.00  0.00     0.123 C 
ATOM     10  C   UNL A   1      32.194  21.944  22.772  1.00  0.00     0.032 C 
ATOM     11  C   UNL A   1      31.921  23.083  23.761  1.00  0.00     0.098 C 
ATOM     12  N   UNL A   1      33.165  23.733  24.163  1.00  0.00    -0.321 N 
ATOM     13  C   UNL A   1      32.172  25.086  22.464  1.00  0.00     0.039 C 
ATOM     14  C   UNL A   1      33.326  25.001  23.451  1.00  0.00     0.122 C 
BRANCH  12  15
ATOM     15  C   UNL A   1      33.953  23.520  25.250  1.00  0.00     0.317 C 
ATOM     16  O   UNL A   1      34.143  24.414  26.084  1.00  0.00    -0.249 OA
ATOM     17  N   UNL A   1      34.559  22.352  25.516  1.00  0.00    -0.335 N 
ATOM     18  H   UNL A   1      34.944  22.346  26.422  1.00  0.00     0.165 HD
BRANCH  17  19
ATOM     19  C   UNL A   1      34.805  21.082  24.826  1.00  0.00     0.088 C 
ATOM     20  C   UNL A   1      36.287  20.732  24.981  1.00  0.00     0.031 C 
BRANCH  19  21
ATOM     21  C   UNL A   1      33.945  19.933  25.390  1.00  0.00     0.100 C 
BRANCH  21  22
ATOM     22  C   UNL A   1      33.835  18.767  24.477  1.00  0.00     0.105 A 
ATOM     23  C   UNL A   1      34.549  17.593  24.360  1.00  0.00     0.045 A 
ATOM     24  O   UNL A   1      32.880  18.834  23.507  1.00  0.00    -0.469 OA
ATOM     25  C   UNL A   1      33.996  16.896  23.261  1.00  0.00     0.042 A 
ATOM     26  C   UNL A   1      32.998  17.700  22.767  1.00  0.00     0.195 A 
ENDBRANCH  21  22
ENDBRANCH  19  21
ENDBRANCH  17  19
ENDBRANCH  12  15
ENDBRANCH   7   9
ENDBRANCH   6   7
ENDBRANCH   5   6
ENDBRANCH   4   5
ENDBRANCH   3   4
ENDBRANCH   2   3
ENDBRANCH   1   2
BRANCH   1  27
ATOM     27  O   UNL A   1      33.020  29.584  24.537  1.00  0.00    -0.377 OA
BRANCH  27  28
ATOM     28  C   UNL A   1      33.155  29.282  25.924  1.00  0.00     0.188 C 
BRANCH  28  29
ATOM     29  C   UNL A   1      32.761  30.280  27.040  1.00  0.00     0.188 C 
BRANCH  29  30
ATOM     30  O   UNL A   1      31.543  30.976  26.821  1.00  0.00    -0.376 OA
BRANCH  30  31
ATOM     31  C   UNL A   1      31.588  32.394  26.806  1.00  0.00     0.202 C 
BRANCH  31  32
ATOM     32  C   UNL A   1      32.648  33.036  27.711  1.00  0.00     0.261 C 
BRANCH  32  33
ATOM     33  O   UNL A   1      32.812  34.458  27.570  1.00  0.00    -0.460 OA
BRANCH  33  34
ATOM     34  C   UNL A   1      32.962  35.186  28.696  1.00  0.00     0.338 C 
ATOM     35  O   UNL A   1      32.202  36.032  29.136  1.00  0.00    -0.246 OA
BRANCH  34  36
ATOM     36  C   UNL A   1      34.120  34.641  29.434  1.00  0.00     0.060 A 
ATOM     37  C   UNL A   1      35.376  34.628  28.812  1.00  0.00     0.016 A 
ATOM     38  C   UNL A   1      33.969  34.155  30.735  1.00  0.00     0.016 A 
ATOM     39  C   UNL A   1      36.478  34.089  29.475  1.00  0.00     0.010 A 
ATOM     40  C   UNL A   1      35.069  33.594  31.389  1.00  0.00     0.010 A 
ATOM     41  C   UNL A   1      36.319  33.524  30.747  1.00  0.00    -0.014 A 
BRANCH  41  42
ATOM     42  C   UNL A   1      37.390  32.666  31.310  1.00  0.00     0.031 A 
ATOM     43  C   UNL A   1      37.892  32.980  32.693  1.00  0.00     0.074 A 
ATOM     44  C   UNL A   1      37.895  31.624  30.628  1.00  0.00     0.049 A 
ATOM     45  N   UNL A   1      38.853  32.418  33.380  1.00  0.00    -0.248 NA
ATOM     46  C   UNL A   1      37.216  34.084  33.395  1.00  0.00     0.031 C 
ATOM     47  C   UNL A   1      37.462  31.190  29.302  1.00  0.00     0.029 A 
ATOM     48  N   UNL A   1      38.896  30.745  30.962  1.00  0.00    -0.354 N 
ATOM     49  C   UNL A   1      38.901  33.102  34.588  1.00  0.00     0.074 A 
ATOM     50  C   UNL A   1      37.898  34.143  34.528  1.00  0.00     0.031 C 
ATOM     51  C   UNL A   1      38.204  30.133  28.927  1.00  0.00     0.029 A 
ATOM     52  C   UNL A   1      39.186  29.839  29.972  1.00  0.00     0.049 A 
ATOM     53  H   UNL A   1      39.362  30.763  31.829  1.00  0.00     0.167 HD
ATOM     54  C   UNL A   1      39.703  32.879  35.655  1.00  0.00     0.037 A 
ATOM     55  C   UNL A   1      40.151  28.900  29.911  1.00  0.00     0.037 A 
ATOM     56  C   UNL A   1      40.704  31.847  35.711  1.00  0.00     0.049 A 
ATOM     57  C   UNL A   1      41.089  28.724  31.081  1.00  0.00     0.074 A 
ATOM     58  C   UNL A   1      41.559  31.531  36.751  1.00  0.00     0.029 A 
ATOM     59  N   UNL A   1      40.991  30.971  34.675  1.00  0.00    -0.354 N 
ATOM     60  N   UNL A   1      41.112  29.357  32.229  1.00  0.00    -0.248 NA
ATOM     61  C   UNL A   1      42.135  27.700  30.944  1.00  0.00     0.031 C 
ATOM     62  C   UNL A   1      42.404  30.502  36.324  1.00  0.00     0.029 A 
ATOM     63  C   UNL A   1      42.031  30.131  35.042  1.00  0.00     0.049 A 
ATOM     64  H   UNL A   1      40.525  30.947  33.808  1.00  0.00     0.167 HD
ATOM     65  C   UNL A   1      42.147  28.786  32.962  1.00  0.00     0.074 A 
ATOM     66  C   UNL A   1      42.720  27.746  32.133  1.00  0.00     0.031 C 
ATOM     67  C   UNL A   1      42.582  29.092  34.209  1.00  0.00     0.037 A 
BRANCH  54  68
ATOM     68  C   UNL A   1      39.551  33.790  36.839  1.00  0.00     0.064 A 
ATOM     69  C   UNL A   1      40.192  35.037  36.902  1.00  0.00     0.173 A 
ATOM     70  C   UNL A   1      38.730  33.420  37.915  1.00  0.00     0.173 A 
ATOM     71  F   UNL A   1      41.001  35.431  35.907  1.00  0.00    -0.203 F 
ATOM     72  C   UNL A   1      40.037  35.867  38.009  1.00  0.00     0.198 A 
ATOM     73  C   UNL A   1      38.551  34.267  39.005  1.00  0.00     0.198 A 
ATOM     74  F   UNL A   1      38.093  32.239  37.905  1.00  0.00    -0.203 F 
ATOM     75  F   UNL A   1      40.700  37.030  38.069  1.00  0.00    -0.200 F 
ATOM     76  C   UNL A   1      39.211  35.486  39.055  1.00  0.00     0.200 A 
ATOM     77  F   UNL A   1      37.742  33.902  40.009  1.00  0.00    -0.200 F 
ATOM     78  F   UNL A   1      39.056  36.289  40.116  1.00  0.00    -0.200 F 
ENDBRANCH  54  68
BRANCH  55  79
ATOM     79  C   UNL A   1      40.297  28.056  28.694  1.00  0.00     0.064 A 
ATOM     80  C   UNL A   1      39.670  26.806  28.599  1.00  0.00     0.173 A 
ATOM     81  C   UNL A   1      41.096  28.467  27.616  1.00  0.00     0.173 A 
ATOM     82  F   UNL A   1      38.919  26.354  29.614  1.00  0.00    -0.203 F 
ATOM     83  C   UNL A   1      39.855  25.990  27.483  1.00  0.00     0.198 A 
ATOM     84  C   UNL A   1      41.253  27.665  26.488  1.00  0.00     0.198 A 
ATOM     85  F   UNL A   1      41.723  29.652  27.657  1.00  0.00    -0.203 F 
ATOM     86  F   UNL A   1      39.290  24.775  27.443  1.00  0.00    -0.200 F 
ATOM     87  C   UNL A   1      40.642  26.422  26.427  1.00  0.00     0.200 A 
ATOM     88  F   UNL A   1      42.006  28.092  25.464  1.00  0.00    -0.200 F 
ATOM     89  F   UNL A   1      40.818  25.638  25.354  1.00  0.00    -0.200 F 
ENDBRANCH  55  79
BRANCH  67  90
ATOM     90  C   UNL A   1      43.701  28.265  34.779  1.00  0.00     0.064 A 
ATOM     91  C   UNL A   1      43.463  27.050  35.440  1.00  0.00     0.173 A 
ATOM     92  C   UNL A   1      45.035  28.673  34.620  1.00  0.00     0.173 A 
ATOM     93  F   UNL A   1      42.207  26.620  35.630  1.00  0.00    -0.203 F 
ATOM     94  C   UNL A   1      44.516  26.292  35.945  1.00  0.00     0.198 A 
ATOM     95  C   UNL A   1      46.087  27.895  35.095  1.00  0.00     0.198 A 
ATOM     96  F   UNL A   1      45.319  29.821  33.987  1.00  0.00    -0.203 F 
ATOM     97  F   UNL A   1      44.262  25.161  36.619  1.00  0.00    -0.200 F 
ATOM     98  C   UNL A   1      45.826  26.709  35.765  1.00  0.00     0.200 A 
ATOM     99  F   UNL A   1      47.352  28.292  34.903  1.00  0.00    -0.200 F 
ATOM    100  F   UNL A   1      46.839  25.973  36.244  1.00  0.00    -0.200 F 
ENDBRANCH  67  90
ENDBRANCH  41  42
ENDBRANCH  34  36
ENDBRANCH  33  34
ENDBRANCH  32  33
ENDBRANCH  31  32
ENDBRANCH  30  31
ENDBRANCH  29  30
ENDBRANCH  28  29
ENDBRANCH  27  28
ENDBRANCH   1  27
TORSDOF 24
ENDMDL
MODEL 2
REMARK VINA RESULT:     -10.2      1.472      7.426
REMARK SMILES C[C@@H]1[C@@H](C(=O)OCCOCCOCCOCCOC(=O)c2ccc(-c3c4nc(c(-c5c(F)c(F)c(F)c(F)c5F)c5ccc([nH]5)c(-c5c(F)c(F)c(F)c(F)c5F)c5nc(c(-c6c(F)c(F)c(F)c(F)c6F)c6ccc3[nH]6)C=C5)C=C4)cc2)CCN1C(=O)N[C@@H](C)Cc1ccco1
REMARK SMILES IDX 11 1 10 2 9 3 8 4 7 5 6 6 4 7 5 8 3 9 1 10 2 11 86 12 84 13
REMARK SMILES IDX 85 14 87 15 88 16 89 17 90 19 91 20 92 21 93 22 94 23 97 24
REMARK SMILES IDX 95 25 96 26 12 27 13 28 14 29 15 30 16 31 17 32 18 33 19 34
REMARK SMILES IDX 20 35 21 36 22 37 83 38 23 39 82 40 24 41 25 42 26 43 76 44
REMARK SMILES IDX 27 45 81 46 75 47 77 48 28 49 80 50 74 51 73 52 29 54 61 55
REMARK SMILES IDX 41 56 60 57 42 58 45 59 59 60 78 61 43 62 44 63 58 65 79 66
REMARK SMILES IDX 46 67 30 68 31 69 39 70 32 71 33 72 37 73 40 74 34 75 35 76
REMARK SMILES IDX 38 77 36 78 62 79 63 80 71 81 64 82 65 83 69 84 72 85 66 86
REMARK SMILES IDX 67 87 70 88 68 89 47 90 48 91 56 92 49 93 50 94 54 95 57 96
REMARK SMILES IDX 51 97 52 98 55 99 53 100
REMARK H PARENT 89 18 77 53 45 64
REMARK Flexibility Score: inf
ROOT
ATOM      1  C   UNL A   1      33.575  28.204  24.128  1.00  0.00     0.188 C 
ENDROOT
BRANCH   1   2
ATOM      2  C   UNL A   1      32.667  27.772  22.965  1.00  0.00     0.188 C 
BRANCH   2   3
ATOM      3  O   UNL A   1      32.523  26.373  22.821  1.00  0.00    -0.376 OA
BRANCH   3   4
ATOM      4  C   UNL A   1      31.347  25.683  23.210  1.00  0.00     0.202 C 
BRANCH   4   5
ATOM      5  C   UNL A   1      30.541  25.915  24.500  1.00  0.00     0.261 C 
BRANCH   5   6
ATOM      6  O   UNL A   1      30.666  24.944  25.533  1.00  0.00    -0.463 OA
BRANCH   6   7
ATOM      7  C   UNL A   1      31.906  24.775  26.048  1.00  0.00     0.311 C 
ATOM      8  O   UNL A   1      32.748  25.658  26.121  1.00  0.00    -0.252 OA
BRANCH   7   9
ATOM      9  C   UNL A   1      32.059  23.352  26.566  1.00  0.00     0.123 C 
ATOM     10  C   UNL A   1      33.846  21.871  27.603  1.00  0.00     0.032 C 
ATOM     11  C   UNL A   1      33.546  22.979  26.587  1.00  0.00     0.098 C 
ATOM     12  N   UNL A   1      33.802  22.521  25.224  1.00  0.00    -0.321 N 
ATOM     13  C   UNL A   1      31.450  22.351  25.604  1.00  0.00     0.039 C 
ATOM     14  C   UNL A   1      32.541  22.196  24.556  1.00  0.00     0.122 C 
BRANCH  12  15
ATOM     15  C   UNL A   1      34.906  22.663  24.446  1.00  0.00     0.317 C 
ATOM     16  O   UNL A   1      34.995  23.588  23.629  1.00  0.00    -0.249 OA
ATOM     17  N   UNL A   1      35.973  21.849  24.505  1.00  0.00    -0.335 N 
ATOM     18  H   UNL A   1      36.728  22.210  23.988  1.00  0.00     0.165 HD
BRANCH  17  19
ATOM     19  C   UNL A   1      36.319  20.569  25.131  1.00  0.00     0.088 C 
ATOM     20  C   UNL A   1      35.199  19.570  24.829  1.00  0.00     0.031 C 
BRANCH  19  21
ATOM     21  C   UNL A   1      37.659  20.009  24.613  1.00  0.00     0.100 C 
BRANCH  21  22
ATOM     22  C   UNL A   1      38.821  20.357  25.469  1.00  0.00     0.105 A 
ATOM     23  C   UNL A   1      39.188  21.507  26.136  1.00  0.00     0.045 A 
ATOM     24  O   UNL A   1      39.776  19.398  25.629  1.00  0.00    -0.469 OA
ATOM     25  C   UNL A   1      40.435  21.236  26.745  1.00  0.00     0.042 A 
ATOM     26  C   UNL A   1      40.756  19.948  26.392  1.00  0.00     0.195 A 
ENDBRANCH  21  22
ENDBRANCH  19  21
ENDBRANCH  17  19
ENDBRANCH  12  15
ENDBRANCH   7   9
ENDBRANCH   6   7
ENDBRANCH   5   6
ENDBRANCH   4   5
ENDBRANCH   3   4
ENDBRANCH   2   3
ENDBRANCH   1   2
BRANCH   1  27
ATOM     27  O   UNL A   1      33.241  29.454  24.700  1.00  0.00    -0.377 OA
BRANCH  27  28
ATOM     28  C   UNL A   1      33.426  29.638  26.102  1.00  0.00     0.188 C 
BRANCH  28  29
ATOM     29  C   UNL A   1      32.379  30.344  26.998  1.00  0.00     0.188 C 
BRANCH  29  30
ATOM     30  O   UNL A   1      31.511  31.239  26.318  1.00  0.00    -0.376 OA
BRANCH  30  31
ATOM     31  C   UNL A   1      31.456  32.580  26.777  1.00  0.00     0.202 C 
BRANCH  31  32
ATOM     32  C   UNL A   1      32.692  33.074  27.540  1.00  0.00     0.261 C 
BRANCH  32  33
ATOM     33  O   UNL A   1      32.754  34.491  27.778  1.00  0.00    -0.460 OA
BRANCH  33  34
ATOM     34  C   UNL A   1      33.103  34.902  29.015  1.00  0.00     0.338 C 
ATOM     35  O   UNL A   1      32.482  35.654  29.747  1.00  0.00    -0.246 OA
BRANCH  34  36
ATOM     36  C   UNL A   1      34.286  34.122  29.433  1.00  0.00     0.060 A 
ATOM     37  C   UNL A   1      34.112  33.041  30.307  1.00  0.00     0.016 A 
ATOM     38  C   UNL A   1      35.558  34.451  28.958  1.00  0.00     0.016 A 
ATOM     39  C   UNL A   1      35.218  32.309  30.742  1.00  0.00     0.010 A 
ATOM     40  C   UNL A   1      36.666  33.732  29.412  1.00  0.00     0.010 A 
ATOM     41  C   UNL A   1      36.505  32.684  30.336  1.00  0.00    -0.014 A 
BRANCH  41  42
ATOM     42  C   UNL A   1      37.688  32.133  31.041  1.00  0.00     0.031 A 
ATOM     43  C   UNL A   1      38.485  31.060  30.353  1.00  0.00     0.074 A 
ATOM     44  C   UNL A   1      38.063  32.583  32.252  1.00  0.00     0.049 A 
ATOM     45  N   UNL A   1      39.521  30.384  30.780  1.00  0.00    -0.248 NA
ATOM     46  C   UNL A   1      38.049  30.698  28.993  1.00  0.00     0.031 C 
ATOM     47  C   UNL A   1      37.402  33.648  33.001  1.00  0.00     0.029 A 
ATOM     48  N   UNL A   1      39.094  32.184  33.066  1.00  0.00    -0.354 N 
ATOM     49  C   UNL A   1      39.854  29.516  29.748  1.00  0.00     0.074 A 
ATOM     50  C   UNL A   1      38.892  29.724  28.688  1.00  0.00     0.031 C 
ATOM     51  C   UNL A   1      38.037  33.810  34.176  1.00  0.00     0.029 A 
ATOM     52  C   UNL A   1      39.125  32.837  34.273  1.00  0.00     0.049 A 
ATOM     53  H   UNL A   1      39.748  31.495  32.810  1.00  0.00     0.167 HD
ATOM     54  C   UNL A   1      40.876  28.630  29.686  1.00  0.00     0.037 A 
ATOM     55  C   UNL A   1      39.926  32.649  35.341  1.00  0.00     0.037 A 
ATOM     56  C   UNL A   1      41.829  28.421  30.743  1.00  0.00     0.049 A 
ATOM     57  C   UNL A   1      41.007  31.596  35.280  1.00  0.00     0.074 A 
ATOM     58  C   UNL A   1      42.909  27.557  30.773  1.00  0.00     0.029 A 
ATOM     59  N   UNL A   1      41.807  29.078  31.965  1.00  0.00    -0.354 N 
ATOM     60  N   UNL A   1      41.333  30.797  34.293  1.00  0.00    -0.248 NA
ATOM     61  C   UNL A   1      41.833  31.423  36.485  1.00  0.00     0.031 C 
ATOM     62  C   UNL A   1      43.506  27.647  32.034  1.00  0.00     0.029 A 
ATOM     63  C   UNL A   1      42.840  28.617  32.766  1.00  0.00     0.049 A 
ATOM     64  H   UNL A   1      41.157  29.770  32.224  1.00  0.00     0.167 HD
ATOM     65  C   UNL A   1      42.419  30.054  34.743  1.00  0.00     0.074 A 
ATOM     66  C   UNL A   1      42.705  30.507  36.088  1.00  0.00     0.031 C 
ATOM     67  C   UNL A   1      43.119  29.086  34.100  1.00  0.00     0.037 A 
BRANCH  54  68
ATOM     68  C   UNL A   1      40.996  27.797  28.442  1.00  0.00     0.064 A 
ATOM     69  C   UNL A   1      41.846  28.159  27.387  1.00  0.00     0.173 A 
ATOM     70  C   UNL A   1      40.267  26.605  28.318  1.00  0.00     0.173 A 
ATOM     71  F   UNL A   1      42.552  29.299  27.449  1.00  0.00    -0.203 F 
ATOM     72  C   UNL A   1      41.943  27.373  26.242  1.00  0.00     0.198 A 
ATOM     73  C   UNL A   1      40.392  25.803  27.187  1.00  0.00     0.198 A 
ATOM     74  F   UNL A   1      39.440  26.211  29.298  1.00  0.00    -0.203 F 
ATOM     75  F   UNL A   1      42.723  27.766  25.226  1.00  0.00    -0.200 F 
ATOM     76  C   UNL A   1      41.223  26.192  26.146  1.00  0.00     0.200 A 
ATOM     77  F   UNL A   1      39.704  24.656  27.101  1.00  0.00    -0.200 F 
ATOM     78  F   UNL A   1      41.323  25.431  25.048  1.00  0.00    -0.200 F 
ENDBRANCH  54  68
BRANCH  55  79
ATOM     79  C   UNL A   1      39.734  33.462  36.573  1.00  0.00     0.064 A 
ATOM     80  C   UNL A   1      40.383  34.694  36.736  1.00  0.00     0.173 A 
ATOM     81  C   UNL A   1      38.928  33.007  37.626  1.00  0.00     0.173 A 
ATOM     82  F   UNL A   1      41.189  35.161  35.770  1.00  0.00    -0.203 F 
ATOM     83  C   UNL A   1      40.250  35.428  37.914  1.00  0.00     0.198 A 
ATOM     84  C   UNL A   1      38.769  33.757  38.790  1.00  0.00     0.198 A 
ATOM     85  F   UNL A   1      38.289  31.833  37.525  1.00  0.00    -0.203 F 
ATOM     86  F   UNL A   1      40.926  36.576  38.066  1.00  0.00    -0.200 F 
ATOM     87  C   UNL A   1      39.439  34.962  38.938  1.00  0.00     0.200 A 
ATOM     88  F   UNL A   1      37.976  33.307  39.771  1.00  0.00    -0.200 F 
ATOM     89  F   UNL A   1      39.311  35.668  40.069  1.00  0.00    -0.200 F 
ENDBRANCH  55  79
BRANCH  67  90
ATOM     90  C   UNL A   1      44.293  28.482  34.818  1.00  0.00     0.064 A 
ATOM     91  C   UNL A   1      45.575  29.049  34.753  1.00  0.00     0.173 A 
ATOM     92  C   UNL A   1      44.121  27.343  35.622  1.00  0.00     0.173 A 
ATOM     93  F   UNL A   1      45.797  30.130  33.991  1.00  0.00    -0.203 F 
ATOM     94  C   UNL A   1      46.645  28.481  35.441  1.00  0.00     0.198 A 
ATOM     95  C   UNL A   1      45.185  26.799  36.335  1.00  0.00     0.198 A 
ATOM     96  F   UNL A   1      42.915  26.766  35.727  1.00  0.00    -0.203 F 
ATOM     97  F   UNL A   1      47.871  29.010  35.322  1.00  0.00    -0.200 F 
ATOM     98  C   UNL A   1      46.448  27.363  36.238  1.00  0.00     0.200 A 
ATOM     99  F   UNL A   1      44.988  25.730  37.119  1.00  0.00    -0.200 F 
ATOM    100  F   UNL A   1      47.477  26.824  36.906  1.00  0.00    -0.200 F 
ENDBRANCH  67  90
ENDBRANCH  41  42
ENDBRANCH  34  36
ENDBRANCH  33  34
ENDBRANCH  32  33
ENDBRANCH  31  32
ENDBRANCH  30  31
ENDBRANCH  29  30
ENDBRANCH  28  29
ENDBRANCH  27  28
ENDBRANCH   1  27
TORSDOF 24
ENDMDL
MODEL 3
REMARK VINA RESULT:     -10.2      5.139      9.565
REMARK SMILES C[C@@H]1[C@@H](C(=O)OCCOCCOCCOCCOC(=O)c2ccc(-c3c4nc(c(-c5c(F)c(F)c(F)c(F)c5F)c5ccc([nH]5)c(-c5c(F)c(F)c(F)c(F)c5F)c5nc(c(-c6c(F)c(F)c(F)c(F)c6F)c6ccc3[nH]6)C=C5)C=C4)cc2)CCN1C(=O)N[C@@H](C)Cc1ccco1
REMARK SMILES IDX 11 1 10 2 9 3 8 4 7 5 6 6 4 7 5 8 3 9 1 10 2 11 86 12 84 13
REMARK SMILES IDX 85 14 87 15 88 16 89 17 90 19 91 20 92 21 93 22 94 23 97 24
REMARK SMILES IDX 95 25 96 26 12 27 13 28 14 29 15 30 16 31 17 32 18 33 19 34
REMARK SMILES IDX 20 35 21 36 22 37 83 38 23 39 82 40 24 41 25 42 26 43 76 44
REMARK SMILES IDX 27 45 81 46 75 47 77 48 28 49 80 50 74 51 73 52 29 54 61 55
REMARK SMILES IDX 41 56 60 57 42 58 45 59 59 60 78 61 43 62 44 63 58 65 79 66
REMARK SMILES IDX 46 67 30 68 31 69 39 70 32 71 33 72 37 73 40 74 34 75 35 76
REMARK SMILES IDX 38 77 36 78 62 79 63 80 71 81 64 82 65 83 69 84 72 85 66 86
REMARK SMILES IDX 67 87 70 88 68 89 47 90 48 91 56 92 49 93 50 94 54 95 57 96
REMARK SMILES IDX 51 97 52 98 55 99 53 100
REMARK H PARENT 89 18 77 53 45 64
REMARK Flexibility Score: inf
ROOT
ATOM      1  C   UNL A   1      36.076  34.001  34.842  1.00  0.00     0.188 C 
ENDROOT
BRANCH   1   2
ATOM      2  C   UNL A   1      37.417  33.316  35.153  1.00  0.00     0.188 C 
BRANCH   2   3
ATOM      3  O   UNL A   1      37.366  31.903  35.163  1.00  0.00    -0.376 OA
BRANCH   3   4
ATOM      4  C   UNL A   1      38.220  31.103  34.362  1.00  0.00     0.202 C 
BRANCH   4   5
ATOM      5  C   UNL A   1      39.321  30.157  34.873  1.00  0.00     0.261 C 
BRANCH   5   6
ATOM      6  O   UNL A   1      40.467  29.982  34.048  1.00  0.00    -0.463 OA
BRANCH   6   7
ATOM      7  C   UNL A   1      40.746  28.712  33.672  1.00  0.00     0.311 C 
ATOM      8  O   UNL A   1      39.919  27.925  33.237  1.00  0.00    -0.252 OA
BRANCH   7   9
ATOM      9  C   UNL A   1      42.238  28.449  33.819  1.00  0.00     0.123 C 
ATOM     10  C   UNL A   1      43.921  26.615  33.301  1.00  0.00     0.032 C 
ATOM     11  C   UNL A   1      42.493  26.938  33.754  1.00  0.00     0.098 C 
ATOM     12  N   UNL A   1      42.269  26.495  35.128  1.00  0.00    -0.321 N 
ATOM     13  C   UNL A   1      42.729  28.838  35.200  1.00  0.00     0.039 C 
ATOM     14  C   UNL A   1      42.329  27.636  36.042  1.00  0.00     0.122 C 
BRANCH  12  15
ATOM     15  C   UNL A   1      41.725  25.342  35.598  1.00  0.00     0.317 C 
ATOM     16  O   UNL A   1      40.508  25.246  35.796  1.00  0.00    -0.249 OA
ATOM     17  N   UNL A   1      42.436  24.235  35.864  1.00  0.00    -0.335 N 
ATOM     18  H   UNL A   1      41.848  23.464  36.035  1.00  0.00     0.165 HD
BRANCH  17  19
ATOM     19  C   UNL A   1      43.850  23.859  35.969  1.00  0.00     0.088 C 
ATOM     20  C   UNL A   1      44.348  23.476  34.573  1.00  0.00     0.031 C 
BRANCH  19  21
ATOM     21  C   UNL A   1      44.719  25.005  36.527  1.00  0.00     0.100 C 
BRANCH  21  22
ATOM     22  C   UNL A   1      45.555  24.607  37.688  1.00  0.00     0.105 A 
ATOM     23  C   UNL A   1      46.918  24.580  37.900  1.00  0.00     0.045 A 
ATOM     24  O   UNL A   1      44.901  24.119  38.778  1.00  0.00    -0.469 OA
ATOM     25  C   UNL A   1      47.109  24.053  39.198  1.00  0.00     0.042 A 
ATOM     26  C   UNL A   1      45.855  23.772  39.681  1.00  0.00     0.195 A 
ENDBRANCH  21  22
ENDBRANCH  19  21
ENDBRANCH  17  19
ENDBRANCH  12  15
ENDBRANCH   7   9
ENDBRANCH   6   7
ENDBRANCH   5   6
ENDBRANCH   4   5
ENDBRANCH   3   4
ENDBRANCH   2   3
ENDBRANCH   1   2
BRANCH   1  27
ATOM     27  O   UNL A   1      35.103  33.150  34.265  1.00  0.00    -0.377 OA
BRANCH  27  28
ATOM     28  C   UNL A   1      34.818  33.278  32.874  1.00  0.00     0.188 C 
BRANCH  28  29
ATOM     29  C   UNL A   1      33.955  34.428  32.299  1.00  0.00     0.188 C 
BRANCH  29  30
ATOM     30  O   UNL A   1      34.431  34.987  31.083  1.00  0.00    -0.376 OA
BRANCH  30  31
ATOM     31  C   UNL A   1      33.864  34.511  29.872  1.00  0.00     0.202 C 
BRANCH  31  32
ATOM     32  C   UNL A   1      34.696  33.470  29.112  1.00  0.00     0.261 C 
BRANCH  32  33
ATOM     33  O   UNL A   1      34.417  32.095  29.429  1.00  0.00    -0.460 OA
BRANCH  33  34
ATOM     34  C   UNL A   1      34.535  31.188  28.437  1.00  0.00     0.338 C 
ATOM     35  O   UNL A   1      33.800  31.044  27.475  1.00  0.00    -0.246 OA
BRANCH  34  36
ATOM     36  C   UNL A   1      35.838  30.510  28.598  1.00  0.00     0.060 A 
ATOM     37  C   UNL A   1      36.132  29.886  29.819  1.00  0.00     0.016 A 
ATOM     38  C   UNL A   1      36.759  30.482  27.549  1.00  0.00     0.016 A 
ATOM     39  C   UNL A   1      37.368  29.267  30.007  1.00  0.00     0.010 A 
ATOM     40  C   UNL A   1      38.006  29.882  27.747  1.00  0.00     0.010 A 
ATOM     41  C   UNL A   1      38.330  29.307  28.990  1.00  0.00    -0.014 A 
BRANCH  41  42
ATOM     42  C   UNL A   1      39.737  28.953  29.294  1.00  0.00     0.031 A 
ATOM     43  C   UNL A   1      40.560  29.936  30.080  1.00  0.00     0.074 A 
ATOM     44  C   UNL A   1      40.272  27.782  28.904  1.00  0.00     0.049 A 
ATOM     45  N   UNL A   1      41.821  29.884  30.423  1.00  0.00    -0.248 NA
ATOM     46  C   UNL A   1      39.860  31.149  30.538  1.00  0.00     0.031 C 
ATOM     47  C   UNL A   1      39.568  26.729  28.179  1.00  0.00     0.029 A 
ATOM     48  N   UNL A   1      41.546  27.293  29.061  1.00  0.00    -0.354 N 
ATOM     49  C   UNL A   1      42.066  31.055  31.130  1.00  0.00     0.074 A 
ATOM     50  C   UNL A   1      40.835  31.814  31.137  1.00  0.00     0.031 C 
ATOM     51  C   UNL A   1      40.424  25.719  27.940  1.00  0.00     0.029 A 
ATOM     52  C   UNL A   1      41.743  26.072  28.465  1.00  0.00     0.049 A 
ATOM     53  H   UNL A   1      42.251  27.772  29.553  1.00  0.00     0.167 HD
ATOM     54  C   UNL A   1      43.212  31.458  31.726  1.00  0.00     0.037 A 
ATOM     55  C   UNL A   1      42.868  25.340  28.338  1.00  0.00     0.037 A 
ATOM     56  C   UNL A   1      44.438  30.704  31.714  1.00  0.00     0.049 A 
ATOM     57  C   UNL A   1      44.155  25.849  28.940  1.00  0.00     0.074 A 
ATOM     58  C   UNL A   1      45.650  31.019  32.300  1.00  0.00     0.029 A 
ATOM     59  N   UNL A   1      44.607  29.487  31.070  1.00  0.00    -0.354 N 
ATOM     60  N   UNL A   1      44.374  26.944  29.629  1.00  0.00    -0.248 NA
ATOM     61  C   UNL A   1      45.353  25.017  28.749  1.00  0.00     0.031 C 
ATOM     62  C   UNL A   1      46.571  30.022  31.962  1.00  0.00     0.029 A 
ATOM     63  C   UNL A   1      45.914  29.051  31.222  1.00  0.00     0.049 A 
ATOM     64  H   UNL A   1      43.904  29.003  30.580  1.00  0.00     0.167 HD
ATOM     65  C   UNL A   1      45.719  26.914  29.980  1.00  0.00     0.074 A 
ATOM     66  C   UNL A   1      46.264  25.686  29.440  1.00  0.00     0.031 C 
ATOM     67  C   UNL A   1      46.439  27.820  30.688  1.00  0.00     0.037 A 
BRANCH  54  68
ATOM     68  C   UNL A   1      43.202  32.791  32.417  1.00  0.00     0.064 A 
ATOM     69  C   UNL A   1      43.387  33.992  31.714  1.00  0.00     0.173 A 
ATOM     70  C   UNL A   1      42.978  32.869  33.800  1.00  0.00     0.173 A 
ATOM     71  F   UNL A   1      43.623  33.971  30.393  1.00  0.00    -0.203 F 
ATOM     72  C   UNL A   1      43.374  35.218  32.374  1.00  0.00     0.198 A 
ATOM     73  C   UNL A   1      42.932  34.099  34.451  1.00  0.00     0.198 A 
ATOM     74  F   UNL A   1      42.793  31.752  34.520  1.00  0.00    -0.203 F 
ATOM     75  F   UNL A   1      43.604  36.347  31.690  1.00  0.00    -0.200 F 
ATOM     76  C   UNL A   1      43.138  35.271  33.739  1.00  0.00     0.200 A 
ATOM     77  F   UNL A   1      42.691  34.149  35.768  1.00  0.00    -0.200 F 
ATOM     78  F   UNL A   1      43.117  36.452  34.372  1.00  0.00    -0.200 F 
ENDBRANCH  54  68
BRANCH  55  79
ATOM     79  C   UNL A   1      42.841  24.049  27.597  1.00  0.00     0.064 A 
ATOM     80  C   UNL A   1      43.118  23.996  26.224  1.00  0.00     0.173 A 
ATOM     81  C   UNL A   1      42.501  22.849  28.239  1.00  0.00     0.173 A 
ATOM     82  F   UNL A   1      43.419  25.120  25.557  1.00  0.00    -0.203 F 
ATOM     83  C   UNL A   1      43.036  22.797  25.518  1.00  0.00     0.198 A 
ATOM     84  C   UNL A   1      42.451  21.645  27.539  1.00  0.00     0.198 A 
ATOM     85  F   UNL A   1      42.222  22.844  29.551  1.00  0.00    -0.203 F 
ATOM     86  F   UNL A   1      43.251  22.784  24.195  1.00  0.00    -0.200 F 
ATOM     87  C   UNL A   1      42.707  21.622  26.177  1.00  0.00     0.200 A 
ATOM     88  F   UNL A   1      42.145  20.511  28.183  1.00  0.00    -0.200 F 
ATOM     89  F   UNL A   1      42.629  20.469  25.498  1.00  0.00    -0.200 F 
ENDBRANCH  55  79
BRANCH  67  90
ATOM     90  C   UNL A   1      47.881  27.500  30.966  1.00  0.00     0.064 A 
ATOM     91  C   UNL A   1      48.913  27.934  30.120  1.00  0.00     0.173 A 
ATOM     92  C   UNL A   1      48.238  26.787  32.121  1.00  0.00     0.173 A 
ATOM     93  F   UNL A   1      48.627  28.609  28.997  1.00  0.00    -0.203 F 
ATOM     94  C   UNL A   1      50.245  27.641  30.406  1.00  0.00     0.198 A 
ATOM     95  C   UNL A   1      49.572  26.526  32.422  1.00  0.00     0.198 A 
ATOM     96  F   UNL A   1      47.293  26.357  32.969  1.00  0.00    -0.203 F 
ATOM     97  F   UNL A   1      51.209  28.021  29.556  1.00  0.00    -0.200 F 
ATOM     98  C   UNL A   1      50.574  26.946  31.560  1.00  0.00     0.200 A 
ATOM     99  F   UNL A   1      49.889  25.870  33.547  1.00  0.00    -0.200 F 
ATOM    100  F   UNL A   1      51.856  26.673  31.838  1.00  0.00    -0.200 F 
ENDBRANCH  67  90
ENDBRANCH  41  42
ENDBRANCH  34  36
ENDBRANCH  33  34
ENDBRANCH  32  33
ENDBRANCH  31  32
ENDBRANCH  30  31
ENDBRANCH  29  30
ENDBRANCH  28  29
ENDBRANCH  27  28
ENDBRANCH   1  27
TORSDOF 24
ENDMDL
