MODEL 1
REMARK VINA RESULT:      -9.9      0.000      0.000
REMARK SMILES C[C@H]([NH3+])c1ccc(F)cc1OCC(C)(C)C(=O)OCCOCCOCCOCCOC(=O)c1ccc(-c2c3nc(c(-c4c(F)c(F)c(F)c(F)c4F)c4ccc([nH]4)c(-c4c(F)c(F)c(F)c(F)c4F)c4nc(c(-c5c(F)c(F)c(F)c(F)c5F)c5ccc2[nH]5)C=C4)C=C3)cc1
REMARK SMILES IDX 22 1 21 2 20 3 19 4 18 5 16 6 17 7 13 8 14 9 15 10 12 11
REMARK SMILES IDX 11 12 10 13 4 14 5 15 6 16 9 17 7 18 8 19 2 20 1 21 3 22
REMARK SMILES IDX 23 26 24 27 25 28 26 29 27 30 28 31 29 32 30 33 31 34 32 35
REMARK SMILES IDX 33 36 34 37 95 38 35 39 94 40 36 41 37 42 38 43 88 44 39 45
REMARK SMILES IDX 93 46 87 47 89 48 40 49 92 50 86 51 85 52 41 54 73 55 53 56
REMARK SMILES IDX 72 57 54 58 57 59 71 60 90 61 55 62 56 63 70 65 91 66 58 67
REMARK SMILES IDX 42 68 43 69 51 70 44 71 45 72 49 73 52 74 46 75 47 76 50 77
REMARK SMILES IDX 48 78 74 79 75 80 83 81 76 82 77 83 81 84 84 85 78 86 79 87
REMARK SMILES IDX 82 88 80 89 59 90 60 91 68 92 61 93 62 94 66 95 69 96 63 97
REMARK SMILES IDX 64 98 67 99 65 100
REMARK H PARENT 3 23 3 24 3 25 89 53 57 64
REMARK Flexibility Score: inf
ROOT
ATOM      1  C   UNL A   1      38.219  22.639  26.153  1.00  0.00     0.188 C 
ENDROOT
BRANCH   1   2
ATOM      2  O   UNL A   1      37.952  21.850  25.014  1.00  0.00    -0.376 OA
BRANCH   2   3
ATOM      3  C   UNL A   1      36.766  21.936  24.240  1.00  0.00     0.202 C 
BRANCH   3   4
ATOM      4  C   UNL A   1      36.491  22.892  23.072  1.00  0.00     0.261 C 
BRANCH   4   5
ATOM      5  O   UNL A   1      35.597  23.976  23.311  1.00  0.00    -0.463 OA
BRANCH   5   6
ATOM      6  C   UNL A   1      34.291  23.622  23.317  1.00  0.00     0.315 C 
ATOM      7  O   UNL A   1      33.790  22.892  22.467  1.00  0.00    -0.251 OA
BRANCH   6   8
ATOM      8  C   UNL A   1      33.479  24.332  24.392  1.00  0.00     0.096 C 
ATOM      9  C   UNL A   1      33.611  23.346  25.565  1.00  0.00     0.027 C 
ATOM     10  C   UNL A   1      31.953  24.486  24.175  1.00  0.00     0.027 C 
BRANCH   8  11
ATOM     11  C   UNL A   1      34.032  25.793  24.467  1.00  0.00     0.247 C 
BRANCH  11  12
ATOM     12  O   UNL A   1      33.269  26.913  24.040  1.00  0.00    -0.492 OA
BRANCH  12  13
ATOM     13  C   UNL A   1      32.976  27.943  24.872  1.00  0.00     0.131 A 
ATOM     14  C   UNL A   1      31.960  28.904  24.715  1.00  0.00     0.051 A 
ATOM     15  C   UNL A   1      31.837  29.878  25.731  1.00  0.00     0.017 A 
ATOM     16  C   UNL A   1      32.681  29.896  26.845  1.00  0.00     0.040 A 
ATOM     17  C   UNL A   1      33.859  28.001  25.963  1.00  0.00     0.086 A 
ATOM     18  C   UNL A   1      33.697  28.963  26.945  1.00  0.00     0.126 A 
ATOM     19  F   UNL A   1      34.522  28.985  28.000  1.00  0.00    -0.207 F 
BRANCH  14  20
ATOM     20  C   UNL A   1      31.011  28.932  23.528  1.00  0.00     0.212 C 
ATOM     21  C   UNL A   1      29.922  27.872  23.601  1.00  0.00     0.081 C 
BRANCH  20  22
ATOM     22  N   UNL A   1      31.697  28.888  22.229  1.00  0.00    -0.351 N 
ATOM     23  H   UNL A   1      31.917  29.837  21.927  1.00  0.00     0.345 HD
ATOM     24  H   UNL A   1      31.091  28.444  21.538  1.00  0.00     0.345 HD
ATOM     25  H   UNL A   1      32.560  28.350  22.318  1.00  0.00     0.345 HD
ENDBRANCH  20  22
ENDBRANCH  14  20
ENDBRANCH  12  13
ENDBRANCH  11  12
ENDBRANCH   8  11
ENDBRANCH   6   8
ENDBRANCH   5   6
ENDBRANCH   4   5
ENDBRANCH   3   4
ENDBRANCH   2   3
ENDBRANCH   1   2
BRANCH   1  26
ATOM     26  C   UNL A   1      39.661  22.823  26.643  1.00  0.00     0.188 C 
BRANCH  26  27
ATOM     27  O   UNL A   1      40.095  21.956  27.667  1.00  0.00    -0.377 OA
BRANCH  27  28
ATOM     28  C   UNL A   1      41.362  21.325  27.549  1.00  0.00     0.188 C 
BRANCH  28  29
ATOM     29  C   UNL A   1      41.491  19.934  26.898  1.00  0.00     0.188 C 
BRANCH  29  30
ATOM     30  O   UNL A   1      42.258  18.999  27.635  1.00  0.00    -0.376 OA
BRANCH  30  31
ATOM     31  C   UNL A   1      43.107  18.098  26.945  1.00  0.00     0.202 C 
BRANCH  31  32
ATOM     32  C   UNL A   1      43.487  18.418  25.491  1.00  0.00     0.261 C 
BRANCH  32  33
ATOM     33  O   UNL A   1      44.888  18.451  25.179  1.00  0.00    -0.460 OA
BRANCH  33  34
ATOM     34  C   UNL A   1      45.310  19.241  24.172  1.00  0.00     0.338 C 
ATOM     35  O   UNL A   1      45.673  18.900  23.059  1.00  0.00    -0.246 OA
BRANCH  34  36
ATOM     36  C   UNL A   1      45.081  20.636  24.592  1.00  0.00     0.060 A 
ATOM     37  C   UNL A   1      44.608  21.574  23.661  1.00  0.00     0.016 A 
ATOM     38  C   UNL A   1      45.324  21.007  25.914  1.00  0.00     0.016 A 
ATOM     39  C   UNL A   1      44.409  22.901  24.046  1.00  0.00     0.010 A 
ATOM     40  C   UNL A   1      45.155  22.338  26.289  1.00  0.00     0.010 A 
ATOM     41  C   UNL A   1      44.732  23.295  25.349  1.00  0.00    -0.014 A 
BRANCH  41  42
ATOM     42  C   UNL A   1      44.881  24.728  25.689  1.00  0.00     0.031 A 
ATOM     43  C   UNL A   1      46.244  25.338  25.529  1.00  0.00     0.074 A 
ATOM     44  C   UNL A   1      43.858  25.456  26.166  1.00  0.00     0.049 A 
ATOM     45  N   UNL A   1      46.693  26.492  25.943  1.00  0.00    -0.248 NA
ATOM     46  C   UNL A   1      47.241  24.524  24.811  1.00  0.00     0.031 C 
ATOM     47  C   UNL A   1      42.478  24.996  26.291  1.00  0.00     0.029 A 
ATOM     48  N   UNL A   1      43.836  26.737  26.658  1.00  0.00    -0.354 N 
ATOM     49  C   UNL A   1      48.025  26.534  25.553  1.00  0.00     0.074 A 
ATOM     50  C   UNL A   1      48.321  25.286  24.889  1.00  0.00     0.031 C 
ATOM     51  C   UNL A   1      41.744  25.976  26.848  1.00  0.00     0.029 A 
ATOM     52  C   UNL A   1      42.615  27.107  27.168  1.00  0.00     0.049 A 
ATOM     53  H   UNL A   1      44.619  27.334  26.647  1.00  0.00     0.167 HD
ATOM     54  C   UNL A   1      48.918  27.532  25.735  1.00  0.00     0.037 A 
ATOM     55  C   UNL A   1      42.260  28.216  27.850  1.00  0.00     0.037 A 
ATOM     56  C   UNL A   1      48.612  28.770  26.396  1.00  0.00     0.049 A 
ATOM     57  C   UNL A   1      43.300  29.272  28.135  1.00  0.00     0.074 A 
ATOM     58  C   UNL A   1      49.447  29.845  26.637  1.00  0.00     0.029 A 
ATOM     59  N   UNL A   1      47.371  29.094  26.926  1.00  0.00    -0.354 N 
ATOM     60  N   UNL A   1      44.564  29.304  27.784  1.00  0.00    -0.248 NA
ATOM     61  C   UNL A   1      42.872  30.440  28.920  1.00  0.00     0.031 C 
ATOM     62  C   UNL A   1      48.729  30.797  27.363  1.00  0.00     0.029 A 
ATOM     63  C   UNL A   1      47.427  30.346  27.511  1.00  0.00     0.049 A 
ATOM     64  H   UNL A   1      46.574  28.520  26.889  1.00  0.00     0.167 HD
ATOM     65  C   UNL A   1      45.067  30.507  28.265  1.00  0.00     0.074 A 
ATOM     66  C   UNL A   1      43.976  31.175  28.942  1.00  0.00     0.031 C 
ATOM     67  C   UNL A   1      46.319  31.012  28.151  1.00  0.00     0.037 A 
BRANCH  54  68
ATOM     68  C   UNL A   1      50.316  27.327  25.232  1.00  0.00     0.064 A 
ATOM     69  C   UNL A   1      50.619  27.536  23.877  1.00  0.00     0.173 A 
ATOM     70  C   UNL A   1      51.337  26.856  26.068  1.00  0.00     0.173 A 
ATOM     71  F   UNL A   1      49.677  27.986  23.035  1.00  0.00    -0.203 F 
ATOM     72  C   UNL A   1      51.887  27.258  23.377  1.00  0.00     0.198 A 
ATOM     73  C   UNL A   1      52.613  26.609  25.570  1.00  0.00     0.198 A 
ATOM     74  F   UNL A   1      51.102  26.658  27.375  1.00  0.00    -0.203 F 
ATOM     75  F   UNL A   1      52.141  27.425  22.071  1.00  0.00    -0.200 F 
ATOM     76  C   UNL A   1      52.883  26.797  24.223  1.00  0.00     0.200 A 
ATOM     77  F   UNL A   1      53.583  26.189  26.396  1.00  0.00    -0.200 F 
ATOM     78  F   UNL A   1      54.106  26.535  23.740  1.00  0.00    -0.200 F 
ENDBRANCH  54  68
BRANCH  55  79
ATOM     79  C   UNL A   1      40.858  28.378  28.317  1.00  0.00     0.064 A 
ATOM     80  C   UNL A   1      39.873  28.952  27.499  1.00  0.00     0.173 A 
ATOM     81  C   UNL A   1      40.478  27.971  29.603  1.00  0.00     0.173 A 
ATOM     82  F   UNL A   1      40.181  29.356  26.257  1.00  0.00    -0.203 F 
ATOM     83  C   UNL A   1      38.570  29.136  27.958  1.00  0.00     0.198 A 
ATOM     84  C   UNL A   1      39.167  28.128  30.051  1.00  0.00     0.198 A 
ATOM     85  F   UNL A   1      41.375  27.392  30.414  1.00  0.00    -0.203 F 
ATOM     86  F   UNL A   1      37.659  29.721  27.169  1.00  0.00    -0.200 F 
ATOM     87  C   UNL A   1      38.217  28.719  29.232  1.00  0.00     0.200 A 
ATOM     88  F   UNL A   1      38.824  27.698  31.273  1.00  0.00    -0.200 F 
ATOM     89  F   UNL A   1      36.961  28.883  29.669  1.00  0.00    -0.200 F 
ENDBRANCH  55  79
BRANCH  67  90
ATOM     90  C   UNL A   1      46.596  32.377  28.709  1.00  0.00     0.064 A 
ATOM     91  C   UNL A   1      46.487  33.506  27.880  1.00  0.00     0.173 A 
ATOM     92  C   UNL A   1      47.116  32.554  29.998  1.00  0.00     0.173 A 
ATOM     93  F   UNL A   1      46.008  33.386  26.632  1.00  0.00    -0.203 F 
ATOM     94  C   UNL A   1      46.925  34.756  28.309  1.00  0.00     0.198 A 
ATOM     95  C   UNL A   1      47.526  33.812  30.434  1.00  0.00     0.198 A 
ATOM     96  F   UNL A   1      47.231  31.508  30.829  1.00  0.00    -0.203 F 
ATOM     97  F   UNL A   1      46.871  35.805  27.477  1.00  0.00    -0.200 F 
ATOM     98  C   UNL A   1      47.447  34.907  29.584  1.00  0.00     0.200 A 
ATOM     99  F   UNL A   1      48.014  33.962  31.673  1.00  0.00    -0.200 F 
ATOM    100  F   UNL A   1      47.882  36.106  29.993  1.00  0.00    -0.200 F 
ENDBRANCH  67  90
ENDBRANCH  41  42
ENDBRANCH  34  36
ENDBRANCH  33  34
ENDBRANCH  32  33
ENDBRANCH  31  32
ENDBRANCH  30  31
ENDBRANCH  29  30
ENDBRANCH  28  29
ENDBRANCH  27  28
ENDBRANCH  26  27
ENDBRANCH   1  26
TORSDOF 25
ENDMDL
MODEL 2
REMARK VINA RESULT:      -9.3      1.482      2.218
REMARK SMILES C[C@H]([NH3+])c1ccc(F)cc1OCC(C)(C)C(=O)OCCOCCOCCOCCOC(=O)c1ccc(-c2c3nc(c(-c4c(F)c(F)c(F)c(F)c4F)c4ccc([nH]4)c(-c4c(F)c(F)c(F)c(F)c4F)c4nc(c(-c5c(F)c(F)c(F)c(F)c5F)c5ccc2[nH]5)C=C4)C=C3)cc1
REMARK SMILES IDX 22 1 21 2 20 3 19 4 18 5 16 6 17 7 13 8 14 9 15 10 12 11
REMARK SMILES IDX 11 12 10 13 4 14 5 15 6 16 9 17 7 18 8 19 2 20 1 21 3 22
REMARK SMILES IDX 23 26 24 27 25 28 26 29 27 30 28 31 29 32 30 33 31 34 32 35
REMARK SMILES IDX 33 36 34 37 95 38 35 39 94 40 36 41 37 42 38 43 88 44 39 45
REMARK SMILES IDX 93 46 87 47 89 48 40 49 92 50 86 51 85 52 41 54 73 55 53 56
REMARK SMILES IDX 72 57 54 58 57 59 71 60 90 61 55 62 56 63 70 65 91 66 58 67
REMARK SMILES IDX 42 68 43 69 51 70 44 71 45 72 49 73 52 74 46 75 47 76 50 77
REMARK SMILES IDX 48 78 74 79 75 80 83 81 76 82 77 83 81 84 84 85 78 86 79 87
REMARK SMILES IDX 82 88 80 89 59 90 60 91 68 92 61 93 62 94 66 95 69 96 63 97
REMARK SMILES IDX 64 98 67 99 65 100
REMARK H PARENT 3 23 3 24 3 25 89 53 57 64
REMARK Flexibility Score: inf
ROOT
ATOM      1  C   UNL A   1      37.705  23.267  26.090  1.00  0.00     0.188 C 
ENDROOT
BRANCH   1   2
ATOM      2  O   UNL A   1      37.100  23.714  24.897  1.00  0.00    -0.376 OA
BRANCH   2   3
ATOM      3  C   UNL A   1      35.703  23.884  24.722  1.00  0.00     0.202 C 
BRANCH   3   4
ATOM      4  C   UNL A   1      34.677  22.800  24.366  1.00  0.00     0.261 C 
BRANCH   4   5
ATOM      5  O   UNL A   1      33.815  22.347  25.407  1.00  0.00    -0.463 OA
BRANCH   5   6
ATOM      6  C   UNL A   1      32.506  22.613  25.194  1.00  0.00     0.315 C 
ATOM      7  O   UNL A   1      31.933  22.357  24.140  1.00  0.00    -0.251 OA
BRANCH   6   8
ATOM      8  C   UNL A   1      31.855  23.388  26.332  1.00  0.00     0.096 C 
ATOM      9  C   UNL A   1      32.777  23.025  27.506  1.00  0.00     0.027 C 
ATOM     10  C   UNL A   1      30.439  22.959  26.794  1.00  0.00     0.027 C 
BRANCH   8  11
ATOM     11  C   UNL A   1      31.692  24.858  25.825  1.00  0.00     0.247 C 
BRANCH  11  12
ATOM     12  O   UNL A   1      32.683  25.850  26.051  1.00  0.00    -0.492 OA
BRANCH  12  13
ATOM     13  C   UNL A   1      33.028  26.754  25.100  1.00  0.00     0.131 A 
ATOM     14  C   UNL A   1      33.353  28.110  25.288  1.00  0.00     0.051 A 
ATOM     15  C   UNL A   1      33.699  28.852  24.137  1.00  0.00     0.017 A 
ATOM     16  C   UNL A   1      33.721  28.274  22.864  1.00  0.00     0.040 A 
ATOM     17  C   UNL A   1      32.994  26.194  23.811  1.00  0.00     0.086 A 
ATOM     18  C   UNL A   1      33.354  26.950  22.710  1.00  0.00     0.126 A 
ATOM     19  F   UNL A   1      33.353  26.395  21.491  1.00  0.00    -0.207 F 
BRANCH  14  20
ATOM     20  C   UNL A   1      33.349  28.790  26.648  1.00  0.00     0.212 C 
ATOM     21  C   UNL A   1      34.739  28.943  27.249  1.00  0.00     0.081 C 
BRANCH  20  22
ATOM     22  N   UNL A   1      32.429  28.169  27.611  1.00  0.00    -0.351 N 
ATOM     23  H   UNL A   1      31.634  28.789  27.770  1.00  0.00     0.345 HD
ATOM     24  H   UNL A   1      32.916  28.009  28.493  1.00  0.00     0.345 HD
ATOM     25  H   UNL A   1      32.097  27.279  27.239  1.00  0.00     0.345 HD
ENDBRANCH  20  22
ENDBRANCH  14  20
ENDBRANCH  12  13
ENDBRANCH  11  12
ENDBRANCH   8  11
ENDBRANCH   6   8
ENDBRANCH   5   6
ENDBRANCH   4   5
ENDBRANCH   3   4
ENDBRANCH   2   3
ENDBRANCH   1   2
BRANCH   1  26
ATOM     26  C   UNL A   1      38.957  23.970  26.630  1.00  0.00     0.188 C 
BRANCH  26  27
ATOM     27  O   UNL A   1      39.896  23.159  27.301  1.00  0.00    -0.377 OA
BRANCH  27  28
ATOM     28  C   UNL A   1      40.715  22.279  26.546  1.00  0.00     0.188 C 
BRANCH  28  29
ATOM     29  C   UNL A   1      40.406  20.769  26.490  1.00  0.00     0.188 C 
BRANCH  29  30
ATOM     30  O   UNL A   1      40.962  20.007  27.547  1.00  0.00    -0.376 OA
BRANCH  30  31
ATOM     31  C   UNL A   1      42.153  19.273  27.322  1.00  0.00     0.202 C 
BRANCH  31  32
ATOM     32  C   UNL A   1      42.614  19.050  25.873  1.00  0.00     0.261 C 
BRANCH  32  33
ATOM     33  O   UNL A   1      44.026  19.117  25.625  1.00  0.00    -0.460 OA
BRANCH  33  34
ATOM     34  C   UNL A   1      44.457  19.662  24.470  1.00  0.00     0.338 C 
ATOM     35  O   UNL A   1      44.387  19.188  23.349  1.00  0.00    -0.246 OA
BRANCH  34  36
ATOM     36  C   UNL A   1      44.874  21.044  24.775  1.00  0.00     0.060 A 
ATOM     37  C   UNL A   1      45.370  21.356  26.050  1.00  0.00     0.016 A 
ATOM     38  C   UNL A   1      44.785  22.025  23.788  1.00  0.00     0.016 A 
ATOM     39  C   UNL A   1      45.746  22.666  26.352  1.00  0.00     0.010 A 
ATOM     40  C   UNL A   1      45.132  23.338  24.099  1.00  0.00     0.010 A 
ATOM     41  C   UNL A   1      45.579  23.669  25.391  1.00  0.00    -0.014 A 
BRANCH  41  42
ATOM     42  C   UNL A   1      45.619  25.098  25.776  1.00  0.00     0.031 A 
ATOM     43  C   UNL A   1      46.946  25.797  25.698  1.00  0.00     0.074 A 
ATOM     44  C   UNL A   1      44.530  25.745  26.223  1.00  0.00     0.049 A 
ATOM     45  N   UNL A   1      47.300  26.964  26.165  1.00  0.00    -0.248 NA
ATOM     46  C   UNL A   1      48.025  25.070  25.007  1.00  0.00     0.031 C 
ATOM     47  C   UNL A   1      43.178  25.195  26.269  1.00  0.00     0.029 A 
ATOM     48  N   UNL A   1      44.403  27.006  26.748  1.00  0.00    -0.354 N 
ATOM     49  C   UNL A   1      48.644  27.102  25.840  1.00  0.00     0.074 A 
ATOM     50  C   UNL A   1      49.050  25.895  25.157  1.00  0.00     0.031 C 
ATOM     51  C   UNL A   1      42.358  26.110  26.817  1.00  0.00     0.029 A 
ATOM     52  C   UNL A   1      43.139  27.283  27.209  1.00  0.00     0.049 A 
ATOM     53  H   UNL A   1      45.146  27.651  26.791  1.00  0.00     0.167 HD
ATOM     54  C   UNL A   1      49.461  28.148  26.091  1.00  0.00     0.037 A 
ATOM     55  C   UNL A   1      42.683  28.347  27.903  1.00  0.00     0.037 A 
ATOM     56  C   UNL A   1      49.046  29.344  26.771  1.00  0.00     0.049 A 
ATOM     57  C   UNL A   1      43.638  29.457  28.266  1.00  0.00     0.074 A 
ATOM     58  C   UNL A   1      49.798  30.461  27.080  1.00  0.00     0.029 A 
ATOM     59  N   UNL A   1      47.764  29.573  27.249  1.00  0.00    -0.354 N 
ATOM     60  N   UNL A   1      44.912  29.580  27.976  1.00  0.00    -0.248 NA
ATOM     61  C   UNL A   1      43.100  30.572  29.062  1.00  0.00     0.031 C 
ATOM     62  C   UNL A   1      48.987  31.344  27.796  1.00  0.00     0.029 A 
ATOM     63  C   UNL A   1      47.711  30.807  27.870  1.00  0.00     0.049 A 
ATOM     64  H   UNL A   1      47.007  28.951  27.158  1.00  0.00     0.167 HD
ATOM     65  C   UNL A   1      45.314  30.796  28.514  1.00  0.00     0.074 A 
ATOM     66  C   UNL A   1      44.152  31.374  29.155  1.00  0.00     0.031 C 
ATOM     67  C   UNL A   1      46.535  31.382  28.474  1.00  0.00     0.037 A 
BRANCH  54  68
ATOM     68  C   UNL A   1      50.891  28.046  25.650  1.00  0.00     0.064 A 
ATOM     69  C   UNL A   1      51.230  28.231  24.301  1.00  0.00     0.173 A 
ATOM     70  C   UNL A   1      51.913  27.698  26.543  1.00  0.00     0.173 A 
ATOM     71  F   UNL A   1      50.289  28.566  23.406  1.00  0.00    -0.203 F 
ATOM     72  C   UNL A   1      52.537  28.045  23.860  1.00  0.00     0.198 A 
ATOM     73  C   UNL A   1      53.225  27.544  26.104  1.00  0.00     0.198 A 
ATOM     74  F   UNL A   1      51.642  27.529  27.847  1.00  0.00    -0.203 F 
ATOM     75  F   UNL A   1      52.829  28.186  22.559  1.00  0.00    -0.200 F 
ATOM     76  C   UNL A   1      53.533  27.705  24.762  1.00  0.00     0.200 A 
ATOM     77  F   UNL A   1      54.192  27.242  26.982  1.00  0.00    -0.200 F 
ATOM     78  F   UNL A   1      54.793  27.532  24.337  1.00  0.00    -0.200 F 
ENDBRANCH  54  68
BRANCH  55  79
ATOM     79  C   UNL A   1      41.253  28.406  28.307  1.00  0.00     0.064 A 
ATOM     80  C   UNL A   1      40.272  28.946  27.460  1.00  0.00     0.173 A 
ATOM     81  C   UNL A   1      40.840  27.932  29.560  1.00  0.00     0.173 A 
ATOM     82  F   UNL A   1      40.611  29.409  26.248  1.00  0.00    -0.203 F 
ATOM     83  C   UNL A   1      38.940  29.033  27.861  1.00  0.00     0.198 A 
ATOM     84  C   UNL A   1      39.503  27.993  29.949  1.00  0.00     0.198 A 
ATOM     85  F   UNL A   1      41.734  27.383  30.395  1.00  0.00    -0.203 F 
ATOM     86  F   UNL A   1      38.032  29.587  27.048  1.00  0.00    -0.200 F 
ATOM     87  C   UNL A   1      38.556  28.552  29.103  1.00  0.00     0.200 A 
ATOM     88  F   UNL A   1      39.131  27.502  31.138  1.00  0.00    -0.200 F 
ATOM     89  F   UNL A   1      37.273  28.623  29.484  1.00  0.00    -0.200 F 
ENDBRANCH  55  79
BRANCH  67  90
ATOM     90  C   UNL A   1      46.697  32.745  29.081  1.00  0.00     0.064 A 
ATOM     91  C   UNL A   1      46.986  32.871  30.450  1.00  0.00     0.173 A 
ATOM     92  C   UNL A   1      46.415  33.911  28.358  1.00  0.00     0.173 A 
ATOM     93  F   UNL A   1      47.250  31.781  31.188  1.00  0.00    -0.203 F 
ATOM     94  C   UNL A   1      46.947  34.111  31.080  1.00  0.00     0.198 A 
ATOM     95  C   UNL A   1      46.406  35.155  28.986  1.00  0.00     0.198 A 
ATOM     96  F   UNL A   1      46.143  33.844  27.047  1.00  0.00    -0.203 F 
ATOM     97  F   UNL A   1      47.163  34.198  32.400  1.00  0.00    -0.200 F 
ATOM     98  C   UNL A   1      46.654  35.251  30.349  1.00  0.00     0.200 A 
ATOM     99  F   UNL A   1      46.141  36.259  28.275  1.00  0.00    -0.200 F 
ATOM    100  F   UNL A   1      46.603  36.444  30.957  1.00  0.00    -0.200 F 
ENDBRANCH  67  90
ENDBRANCH  41  42
ENDBRANCH  34  36
ENDBRANCH  33  34
ENDBRANCH  32  33
ENDBRANCH  31  32
ENDBRANCH  30  31
ENDBRANCH  29  30
ENDBRANCH  28  29
ENDBRANCH  27  28
ENDBRANCH  26  27
ENDBRANCH   1  26
TORSDOF 25
ENDMDL
MODEL 3
REMARK VINA RESULT:      -9.1      1.602      2.351
REMARK SMILES C[C@H]([NH3+])c1ccc(F)cc1OCC(C)(C)C(=O)OCCOCCOCCOCCOC(=O)c1ccc(-c2c3nc(c(-c4c(F)c(F)c(F)c(F)c4F)c4ccc([nH]4)c(-c4c(F)c(F)c(F)c(F)c4F)c4nc(c(-c5c(F)c(F)c(F)c(F)c5F)c5ccc2[nH]5)C=C4)C=C3)cc1
REMARK SMILES IDX 22 1 21 2 20 3 19 4 18 5 16 6 17 7 13 8 14 9 15 10 12 11
REMARK SMILES IDX 11 12 10 13 4 14 5 15 6 16 9 17 7 18 8 19 2 20 1 21 3 22
REMARK SMILES IDX 23 26 24 27 25 28 26 29 27 30 28 31 29 32 30 33 31 34 32 35
REMARK SMILES IDX 33 36 34 37 95 38 35 39 94 40 36 41 37 42 38 43 88 44 39 45
REMARK SMILES IDX 93 46 87 47 89 48 40 49 92 50 86 51 85 52 41 54 73 55 53 56
REMARK SMILES IDX 72 57 54 58 57 59 71 60 90 61 55 62 56 63 70 65 91 66 58 67
REMARK SMILES IDX 42 68 43 69 51 70 44 71 45 72 49 73 52 74 46 75 47 76 50 77
REMARK SMILES IDX 48 78 74 79 75 80 83 81 76 82 77 83 81 84 84 85 78 86 79 87
REMARK SMILES IDX 82 88 80 89 59 90 60 91 68 92 61 93 62 94 66 95 69 96 63 97
REMARK SMILES IDX 64 98 67 99 65 100
REMARK H PARENT 3 23 3 24 3 25 89 53 57 64
REMARK Flexibility Score: inf
ROOT
ATOM      1  C   UNL A   1      38.721  22.189  26.116  1.00  0.00     0.188 C 
ENDROOT
BRANCH   1   2
ATOM      2  O   UNL A   1      37.690  22.625  25.259  1.00  0.00    -0.376 OA
BRANCH   2   3
ATOM      3  C   UNL A   1      36.851  21.760  24.511  1.00  0.00     0.202 C 
BRANCH   3   4
ATOM      4  C   UNL A   1      35.958  20.637  25.058  1.00  0.00     0.261 C 
BRANCH   4   5
ATOM      5  O   UNL A   1      34.562  20.903  25.161  1.00  0.00    -0.463 OA
BRANCH   5   6
ATOM      6  C   UNL A   1      34.220  21.637  26.246  1.00  0.00     0.315 C 
ATOM      7  O   UNL A   1      34.666  21.423  27.368  1.00  0.00    -0.251 OA
BRANCH   6   8
ATOM      8  C   UNL A   1      33.123  22.655  25.964  1.00  0.00     0.096 C 
ATOM      9  C   UNL A   1      32.529  22.850  27.368  1.00  0.00     0.027 C 
ATOM     10  C   UNL A   1      31.924  22.215  25.085  1.00  0.00     0.027 C 
BRANCH   8  11
ATOM     11  C   UNL A   1      33.800  23.824  25.176  1.00  0.00     0.247 C 
BRANCH  11  12
ATOM     12  O   UNL A   1      33.319  25.159  25.243  1.00  0.00    -0.492 OA
BRANCH  12  13
ATOM     13  C   UNL A   1      32.547  25.696  24.266  1.00  0.00     0.131 A 
ATOM     14  C   UNL A   1      31.320  26.368  24.419  1.00  0.00     0.051 A 
ATOM     15  C   UNL A   1      30.706  26.857  23.246  1.00  0.00     0.017 A 
ATOM     16  C   UNL A   1      31.283  26.687  21.983  1.00  0.00     0.040 A 
ATOM     17  C   UNL A   1      33.092  25.476  22.989  1.00  0.00     0.086 A 
ATOM     18  C   UNL A   1      32.467  25.984  21.864  1.00  0.00     0.126 A 
ATOM     19  F   UNL A   1      33.016  25.800  20.656  1.00  0.00    -0.207 F 
BRANCH  14  20
ATOM     20  C   UNL A   1      30.648  26.585  25.766  1.00  0.00     0.212 C 
ATOM     21  C   UNL A   1      31.439  27.495  26.695  1.00  0.00     0.081 C 
BRANCH  20  22
ATOM     22  N   UNL A   1      30.282  25.335  26.446  1.00  0.00    -0.351 N 
ATOM     23  H   UNL A   1      29.612  25.535  27.189  1.00  0.00     0.345 HD
ATOM     24  H   UNL A   1      31.118  24.909  26.849  1.00  0.00     0.345 HD
ATOM     25  H   UNL A   1      29.863  24.691  25.774  1.00  0.00     0.345 HD
ENDBRANCH  20  22
ENDBRANCH  14  20
ENDBRANCH  12  13
ENDBRANCH  11  12
ENDBRANCH   8  11
ENDBRANCH   6   8
ENDBRANCH   5   6
ENDBRANCH   4   5
ENDBRANCH   3   4
ENDBRANCH   2   3
ENDBRANCH   1   2
BRANCH   1  26
ATOM     26  C   UNL A   1      39.879  23.131  26.471  1.00  0.00     0.188 C 
BRANCH  26  27
ATOM     27  O   UNL A   1      40.378  23.049  27.788  1.00  0.00    -0.377 OA
BRANCH  27  28
ATOM     28  C   UNL A   1      41.577  22.328  28.031  1.00  0.00     0.188 C 
BRANCH  28  29
ATOM     29  C   UNL A   1      42.118  21.328  26.989  1.00  0.00     0.188 C 
BRANCH  29  30
ATOM     30  O   UNL A   1      41.618  20.008  27.113  1.00  0.00    -0.376 OA
BRANCH  30  31
ATOM     31  C   UNL A   1      42.522  18.917  27.079  1.00  0.00     0.202 C 
BRANCH  31  32
ATOM     32  C   UNL A   1      43.148  18.527  25.731  1.00  0.00     0.261 C 
BRANCH  32  33
ATOM     33  O   UNL A   1      44.456  19.047  25.450  1.00  0.00    -0.460 OA
BRANCH  33  34
ATOM     34  C   UNL A   1      44.667  19.671  24.274  1.00  0.00     0.338 C 
ATOM     35  O   UNL A   1      44.434  19.250  23.154  1.00  0.00    -0.246 OA
BRANCH  34  36
ATOM     36  C   UNL A   1      45.069  21.056  24.587  1.00  0.00     0.060 A 
ATOM     37  C   UNL A   1      45.643  21.349  25.833  1.00  0.00     0.016 A 
ATOM     38  C   UNL A   1      44.887  22.058  23.634  1.00  0.00     0.016 A 
ATOM     39  C   UNL A   1      46.006  22.661  26.144  1.00  0.00     0.010 A 
ATOM     40  C   UNL A   1      45.220  23.372  23.956  1.00  0.00     0.010 A 
ATOM     41  C   UNL A   1      45.747  23.682  25.223  1.00  0.00    -0.014 A 
BRANCH  41  42
ATOM     42  C   UNL A   1      45.777  25.102  25.643  1.00  0.00     0.031 A 
ATOM     43  C   UNL A   1      47.101  25.810  25.590  1.00  0.00     0.074 A 
ATOM     44  C   UNL A   1      44.682  25.732  26.098  1.00  0.00     0.049 A 
ATOM     45  N   UNL A   1      47.446  26.967  26.087  1.00  0.00    -0.248 NA
ATOM     46  C   UNL A   1      48.188  25.105  24.889  1.00  0.00     0.031 C 
ATOM     47  C   UNL A   1      43.333  25.175  26.122  1.00  0.00     0.029 A 
ATOM     48  N   UNL A   1      44.545  26.980  26.653  1.00  0.00    -0.354 N 
ATOM     49  C   UNL A   1      48.791  27.119  25.775  1.00  0.00     0.074 A 
ATOM     50  C   UNL A   1      49.208  25.931  25.066  1.00  0.00     0.031 C 
ATOM     51  C   UNL A   1      42.504  26.072  26.686  1.00  0.00     0.029 A 
ATOM     52  C   UNL A   1      43.276  27.239  27.111  1.00  0.00     0.049 A 
ATOM     53  H   UNL A   1      45.284  27.628  26.716  1.00  0.00     0.167 HD
ATOM     54  C   UNL A   1      49.601  28.163  26.057  1.00  0.00     0.037 A 
ATOM     55  C   UNL A   1      42.810  28.283  27.828  1.00  0.00     0.037 A 
ATOM     56  C   UNL A   1      49.175  29.340  26.762  1.00  0.00     0.049 A 
ATOM     57  C   UNL A   1      43.757  29.389  28.224  1.00  0.00     0.074 A 
ATOM     58  C   UNL A   1      49.919  30.454  27.104  1.00  0.00     0.029 A 
ATOM     59  N   UNL A   1      47.889  29.551  27.237  1.00  0.00    -0.354 N 
ATOM     60  N   UNL A   1      45.032  29.525  27.946  1.00  0.00    -0.248 NA
ATOM     61  C   UNL A   1      43.208  30.482  29.042  1.00  0.00     0.031 C 
ATOM     62  C   UNL A   1      49.099  31.314  27.835  1.00  0.00     0.029 A 
ATOM     63  C   UNL A   1      47.826  30.770  27.887  1.00  0.00     0.049 A 
ATOM     64  H   UNL A   1      47.136  28.928  27.127  1.00  0.00     0.167 HD
ATOM     65  C   UNL A   1      45.424  30.731  28.515  1.00  0.00     0.074 A 
ATOM     66  C   UNL A   1      44.255  31.287  29.162  1.00  0.00     0.031 C 
ATOM     67  C   UNL A   1      46.642  31.324  28.497  1.00  0.00     0.037 A 
BRANCH  54  68
ATOM     68  C   UNL A   1      51.034  28.079  25.623  1.00  0.00     0.064 A 
ATOM     69  C   UNL A   1      52.041  27.795  26.559  1.00  0.00     0.173 A 
ATOM     70  C   UNL A   1      51.420  28.349  24.303  1.00  0.00     0.173 A 
ATOM     71  F   UNL A   1      51.724  27.529  27.834  1.00  0.00    -0.203 F 
ATOM     72  C   UNL A   1      53.383  27.809  26.191  1.00  0.00     0.198 A 
ATOM     73  C   UNL A   1      52.762  28.331  23.932  1.00  0.00     0.198 A 
ATOM     74  F   UNL A   1      50.493  28.608  23.368  1.00  0.00    -0.203 F 
ATOM     75  F   UNL A   1      54.330  27.576  27.111  1.00  0.00    -0.200 F 
ATOM     76  C   UNL A   1      53.742  28.074  24.879  1.00  0.00     0.200 A 
ATOM     77  F   UNL A   1      53.106  28.560  22.657  1.00  0.00    -0.200 F 
ATOM     78  F   UNL A   1      55.035  28.081  24.525  1.00  0.00    -0.200 F 
ENDBRANCH  54  68
BRANCH  55  79
ATOM     79  C   UNL A   1      41.377  28.326  28.223  1.00  0.00     0.064 A 
ATOM     80  C   UNL A   1      40.402  28.894  27.390  1.00  0.00     0.173 A 
ATOM     81  C   UNL A   1      40.957  27.806  29.455  1.00  0.00     0.173 A 
ATOM     82  F   UNL A   1      40.748  29.403  26.198  1.00  0.00    -0.203 F 
ATOM     83  C   UNL A   1      39.067  28.965  27.784  1.00  0.00     0.198 A 
ATOM     84  C   UNL A   1      39.616  27.850  29.836  1.00  0.00     0.198 A 
ATOM     85  F   UNL A   1      41.845  27.227  30.275  1.00  0.00    -0.203 F 
ATOM     86  F   UNL A   1      38.163  29.547  26.985  1.00  0.00    -0.200 F 
ATOM     87  C   UNL A   1      38.674  28.438  29.005  1.00  0.00     0.200 A 
ATOM     88  F   UNL A   1      39.237  27.315  31.004  1.00  0.00    -0.200 F 
ATOM     89  F   UNL A   1      37.389  28.493  29.380  1.00  0.00    -0.200 F 
ENDBRANCH  55  79
BRANCH  67  90
ATOM     90  C   UNL A   1      46.794  32.673  29.138  1.00  0.00     0.064 A 
ATOM     91  C   UNL A   1      46.630  33.836  28.366  1.00  0.00     0.173 A 
ATOM     92  C   UNL A   1      47.250  32.815  30.454  1.00  0.00     0.173 A 
ATOM     93  F   UNL A   1      46.208  33.750  27.095  1.00  0.00    -0.203 F 
ATOM     94  C   UNL A   1      46.955  35.088  28.880  1.00  0.00     0.198 A 
ATOM     95  C   UNL A   1      47.547  34.073  30.974  1.00  0.00     0.198 A 
ATOM     96  F   UNL A   1      47.413  31.735  31.233  1.00  0.00    -0.203 F 
ATOM     97  F   UNL A   1      46.852  36.176  28.104  1.00  0.00    -0.200 F 
ATOM     98  C   UNL A   1      47.417  35.205  30.181  1.00  0.00     0.200 A 
ATOM     99  F   UNL A   1      47.975  34.188  32.239  1.00  0.00    -0.200 F 
ATOM    100  F   UNL A   1      47.744  36.408  30.672  1.00  0.00    -0.200 F 
ENDBRANCH  67  90
ENDBRANCH  41  42
ENDBRANCH  34  36
ENDBRANCH  33  34
ENDBRANCH  32  33
ENDBRANCH  31  32
ENDBRANCH  30  31
ENDBRANCH  29  30
ENDBRANCH  28  29
ENDBRANCH  27  28
ENDBRANCH  26  27
ENDBRANCH   1  26
TORSDOF 25
ENDMDL
