MODEL 1
REMARK VINA RESULT:     -11.3      0.000      0.000
REMARK SMILES COc1c(C(=O)OCCOCCOCCOCCOC(=O)c2ccc(-c3c4nc(c(-c5c(F)c(F)c(F)c(F)c5F)c5ccc([nH]5)c(-c5c(F)c(F)c(F)c(F)c5F)c5nc(c(-c6c(F)c(F)c(F)c(F)c6F)c6ccc3[nH]6)C=C5)C=C4)cc2)cccc1-c1ccc2ccccc2c1
REMARK SMILES IDX 14 1 13 2 12 3 11 4 10 5 9 6 8 7 7 8 5 9 6 10 4 11 3 12
REMARK SMILES IDX 88 13 85 14 87 15 86 16 2 17 1 18 89 19 90 20 98 21 91 22
REMARK SMILES IDX 97 23 92 24 96 25 93 26 95 27 94 28 15 29 16 30 17 31 18 32
REMARK SMILES IDX 19 33 20 34 21 35 22 36 23 37 84 38 24 39 83 40 25 41 26 42
REMARK SMILES IDX 27 43 77 44 28 45 82 46 76 47 78 48 29 49 81 50 75 51 74 52
REMARK SMILES IDX 30 54 62 55 42 56 61 57 43 58 46 59 60 60 79 61 44 62 45 63
REMARK SMILES IDX 59 65 80 66 47 67 31 68 32 69 40 70 33 71 34 72 38 73 41 74
REMARK SMILES IDX 35 75 36 76 39 77 37 78 63 79 64 80 72 81 65 82 66 83 70 84
REMARK SMILES IDX 73 85 67 86 68 87 71 88 69 89 48 90 49 91 57 92 50 93 51 94
REMARK SMILES IDX 55 95 58 96 52 97 53 98 56 99 54 100
REMARK H PARENT 78 53 46 64
REMARK Flexibility Score: inf
ROOT
ATOM      1  C   UNL A   1      39.595  21.501  25.786  1.00  0.00     0.188 C 
ENDROOT
BRANCH   1   2
ATOM      2  O   UNL A   1      38.202  21.776  25.852  1.00  0.00    -0.377 OA
BRANCH   2   3
ATOM      3  C   UNL A   1      37.386  21.602  24.695  1.00  0.00     0.188 C 
BRANCH   3   4
ATOM      4  C   UNL A   1      35.850  21.428  24.796  1.00  0.00     0.188 C 
BRANCH   4   5
ATOM      5  O   UNL A   1      35.430  20.150  25.239  1.00  0.00    -0.376 OA
BRANCH   5   6
ATOM      6  C   UNL A   1      34.393  19.494  24.536  1.00  0.00     0.202 C 
BRANCH   6   7
ATOM      7  C   UNL A   1      32.945  19.832  24.914  1.00  0.00     0.261 C 
BRANCH   7   8
ATOM      8  O   UNL A   1      32.688  21.217  25.176  1.00  0.00    -0.460 OA
BRANCH   8   9
ATOM      9  C   UNL A   1      32.085  21.930  24.194  1.00  0.00     0.342 C 
ATOM     10  O   UNL A   1      32.032  21.629  23.014  1.00  0.00    -0.246 OA
BRANCH   9  11
ATOM     11  C   UNL A   1      31.250  22.981  24.825  1.00  0.00     0.102 A 
ATOM     12  C   UNL A   1      31.065  24.260  24.263  1.00  0.00     0.141 A 
ATOM     13  C   UNL A   1      30.356  25.248  24.987  1.00  0.00     0.025 A 
ATOM     14  C   UNL A   1      30.747  22.686  26.102  1.00  0.00     0.019 A 
ATOM     15  C   UNL A   1      29.866  24.920  26.269  1.00  0.00     0.012 A 
ATOM     16  C   UNL A   1      30.063  23.657  26.826  1.00  0.00     0.002 A 
BRANCH  12  17
ATOM     17  O   UNL A   1      31.527  24.470  22.986  1.00  0.00    -0.495 OA
ATOM     18  C   UNL A   1      32.845  25.022  22.938  1.00  0.00     0.278 C 
ENDBRANCH  12  17
BRANCH  13  19
ATOM     19  C   UNL A   1      30.170  26.626  24.509  1.00  0.00    -0.014 A 
ATOM     20  C   UNL A   1      31.155  27.586  24.792  1.00  0.00     0.009 A 
ATOM     21  C   UNL A   1      29.055  27.015  23.750  1.00  0.00     0.017 A 
ATOM     22  C   UNL A   1      31.068  28.878  24.278  1.00  0.00     0.009 A 
ATOM     23  C   UNL A   1      28.931  28.332  23.259  1.00  0.00    -0.018 A 
ATOM     24  C   UNL A   1      29.971  29.260  23.499  1.00  0.00    -0.018 A 
ATOM     25  C   UNL A   1      27.800  28.755  22.540  1.00  0.00     0.009 A 
ATOM     26  C   UNL A   1      29.887  30.553  22.965  1.00  0.00     0.009 A 
ATOM     27  C   UNL A   1      27.707  30.065  22.060  1.00  0.00     0.001 A 
ATOM     28  C   UNL A   1      28.757  30.956  22.255  1.00  0.00     0.001 A 
ENDBRANCH  13  19
ENDBRANCH   9  11
ENDBRANCH   8   9
ENDBRANCH   7   8
ENDBRANCH   6   7
ENDBRANCH   5   6
ENDBRANCH   4   5
ENDBRANCH   3   4
ENDBRANCH   2   3
ENDBRANCH   1   2
BRANCH   1  29
ATOM     29  C   UNL A   1      40.378  21.212  27.085  1.00  0.00     0.188 C 
BRANCH  29  30
ATOM     30  O   UNL A   1      41.504  20.373  26.898  1.00  0.00    -0.376 OA
BRANCH  30  31
ATOM     31  C   UNL A   1      42.784  20.974  26.851  1.00  0.00     0.202 C 
BRANCH  31  32
ATOM     32  C   UNL A   1      43.274  21.586  25.530  1.00  0.00     0.261 C 
BRANCH  32  33
ATOM     33  O   UNL A   1      42.718  22.851  25.151  1.00  0.00    -0.460 OA
BRANCH  33  34
ATOM     34  C   UNL A   1      43.550  23.915  25.098  1.00  0.00     0.338 C 
ATOM     35  O   UNL A   1      44.483  24.090  24.347  1.00  0.00    -0.246 OA
BRANCH  34  36
ATOM     36  C   UNL A   1      43.001  24.926  26.030  1.00  0.00     0.060 A 
ATOM     37  C   UNL A   1      43.552  26.214  26.061  1.00  0.00     0.016 A 
ATOM     38  C   UNL A   1      41.917  24.597  26.846  1.00  0.00     0.016 A 
ATOM     39  C   UNL A   1      43.025  27.176  26.925  1.00  0.00     0.010 A 
ATOM     40  C   UNL A   1      41.407  25.551  27.724  1.00  0.00     0.010 A 
ATOM     41  C   UNL A   1      41.975  26.836  27.788  1.00  0.00    -0.014 A 
BRANCH  41  42
ATOM     42  C   UNL A   1      41.583  27.743  28.891  1.00  0.00     0.031 A 
ATOM     43  C   UNL A   1      42.348  27.661  30.180  1.00  0.00     0.074 A 
ATOM     44  C   UNL A   1      40.545  28.587  28.770  1.00  0.00     0.049 A 
ATOM     45  N   UNL A   1      42.118  28.245  31.327  1.00  0.00    -0.248 NA
ATOM     46  C   UNL A   1      43.527  26.782  30.174  1.00  0.00     0.031 C 
ATOM     47  C   UNL A   1      39.745  28.773  27.565  1.00  0.00     0.029 A 
ATOM     48  N   UNL A   1      39.970  29.423  29.696  1.00  0.00    -0.354 N 
ATOM     49  C   UNL A   1      43.109  27.786  32.184  1.00  0.00     0.074 A 
ATOM     50  C   UNL A   1      43.924  26.856  31.434  1.00  0.00     0.031 C 
ATOM     51  C   UNL A   1      38.756  29.644  27.831  1.00  0.00     0.029 A 
ATOM     52  C   UNL A   1      38.833  30.042  29.237  1.00  0.00     0.049 A 
ATOM     53  H   UNL A   1      40.335  29.564  30.599  1.00  0.00     0.167 HD
ATOM     54  C   UNL A   1      43.319  28.114  33.482  1.00  0.00     0.037 A 
ATOM     55  C   UNL A   1      37.938  30.808  29.891  1.00  0.00     0.037 A 
ATOM     56  C   UNL A   1      42.497  29.034  34.221  1.00  0.00     0.049 A 
ATOM     57  C   UNL A   1      38.155  31.119  31.350  1.00  0.00     0.074 A 
ATOM     58  C   UNL A   1      42.645  29.468  35.526  1.00  0.00     0.029 A 
ATOM     59  N   UNL A   1      41.354  29.648  33.724  1.00  0.00    -0.354 N 
ATOM     60  N   UNL A   1      39.116  30.719  32.149  1.00  0.00    -0.248 NA
ATOM     61  C   UNL A   1      37.167  31.994  31.997  1.00  0.00     0.031 C 
ATOM     62  C   UNL A   1      41.553  30.284  35.841  1.00  0.00     0.029 A 
ATOM     63  C   UNL A   1      40.766  30.425  34.708  1.00  0.00     0.049 A 
ATOM     64  H   UNL A   1      41.013  29.546  32.806  1.00  0.00     0.167 HD
ATOM     65  C   UNL A   1      38.864  31.312  33.381  1.00  0.00     0.074 A 
ATOM     66  C   UNL A   1      37.664  32.107  33.221  1.00  0.00     0.031 C 
ATOM     67  C   UNL A   1      39.568  31.212  34.537  1.00  0.00     0.037 A 
BRANCH  54  68
ATOM     68  C   UNL A   1      44.449  27.422  34.191  1.00  0.00     0.064 A 
ATOM     69  C   UNL A   1      44.254  26.260  34.953  1.00  0.00     0.173 A 
ATOM     70  C   UNL A   1      45.750  27.944  34.118  1.00  0.00     0.173 A 
ATOM     71  F   UNL A   1      43.028  25.725  35.070  1.00  0.00    -0.203 F 
ATOM     72  C   UNL A   1      45.307  25.674  35.652  1.00  0.00     0.198 A 
ATOM     73  C   UNL A   1      46.808  27.333  34.786  1.00  0.00     0.198 A 
ATOM     74  F   UNL A   1      45.998  29.050  33.401  1.00  0.00    -0.203 F 
ATOM     75  F   UNL A   1      45.080  24.609  36.433  1.00  0.00    -0.200 F 
ATOM     76  C   UNL A   1      46.583  26.208  35.565  1.00  0.00     0.200 A 
ATOM     77  F   UNL A   1      48.044  27.842  34.686  1.00  0.00    -0.200 F 
ATOM     78  F   UNL A   1      47.595  25.646  36.240  1.00  0.00    -0.200 F 
ENDBRANCH  54  68
BRANCH  55  79
ATOM     79  C   UNL A   1      36.742  31.311  29.167  1.00  0.00     0.064 A 
ATOM     80  C   UNL A   1      36.649  32.646  28.755  1.00  0.00     0.173 A 
ATOM     81  C   UNL A   1      35.677  30.454  28.848  1.00  0.00     0.173 A 
ATOM     82  F   UNL A   1      37.629  33.510  29.058  1.00  0.00    -0.203 F 
ATOM     83  C   UNL A   1      35.535  33.108  28.057  1.00  0.00     0.198 A 
ATOM     84  C   UNL A   1      34.576  30.910  28.126  1.00  0.00     0.198 A 
ATOM     85  F   UNL A   1      35.716  29.167  29.222  1.00  0.00    -0.203 F 
ATOM     86  F   UNL A   1      35.455  34.399  27.705  1.00  0.00    -0.200 F 
ATOM     87  C   UNL A   1      34.504  32.238  27.735  1.00  0.00     0.200 A 
ATOM     88  F   UNL A   1      33.590  30.061  27.805  1.00  0.00    -0.200 F 
ATOM     89  F   UNL A   1      33.440  32.679  27.050  1.00  0.00    -0.200 F 
ENDBRANCH  55  79
BRANCH  67  90
ATOM     90  C   UNL A   1      39.088  32.011  35.717  1.00  0.00     0.064 A 
ATOM     91  C   UNL A   1      38.266  31.454  36.708  1.00  0.00     0.173 A 
ATOM     92  C   UNL A   1      39.502  33.343  35.884  1.00  0.00     0.173 A 
ATOM     93  F   UNL A   1      37.830  30.191  36.593  1.00  0.00    -0.203 F 
ATOM     94  C   UNL A   1      37.858  32.208  37.807  1.00  0.00     0.198 A 
ATOM     95  C   UNL A   1      39.123  34.080  37.001  1.00  0.00     0.198 A 
ATOM     96  F   UNL A   1      40.296  33.923  34.971  1.00  0.00    -0.203 F 
ATOM     97  F   UNL A   1      37.032  31.670  38.716  1.00  0.00    -0.200 F 
ATOM     98  C   UNL A   1      38.294  33.516  37.958  1.00  0.00     0.200 A 
ATOM     99  F   UNL A   1      39.561  35.338  37.153  1.00  0.00    -0.200 F 
ATOM    100  F   UNL A   1      37.910  34.234  39.022  1.00  0.00    -0.200 F 
ENDBRANCH  67  90
ENDBRANCH  41  42
ENDBRANCH  34  36
ENDBRANCH  33  34
ENDBRANCH  32  33
ENDBRANCH  31  32
ENDBRANCH  30  31
ENDBRANCH  29  30
ENDBRANCH   1  29
TORSDOF 22
ENDMDL
MODEL 2
REMARK VINA RESULT:     -11.1      3.771      9.725
REMARK SMILES COc1c(C(=O)OCCOCCOCCOCCOC(=O)c2ccc(-c3c4nc(c(-c5c(F)c(F)c(F)c(F)c5F)c5ccc([nH]5)c(-c5c(F)c(F)c(F)c(F)c5F)c5nc(c(-c6c(F)c(F)c(F)c(F)c6F)c6ccc3[nH]6)C=C5)C=C4)cc2)cccc1-c1ccc2ccccc2c1
REMARK SMILES IDX 14 1 13 2 12 3 11 4 10 5 9 6 8 7 7 8 5 9 6 10 4 11 3 12
REMARK SMILES IDX 88 13 85 14 87 15 86 16 2 17 1 18 89 19 90 20 98 21 91 22
REMARK SMILES IDX 97 23 92 24 96 25 93 26 95 27 94 28 15 29 16 30 17 31 18 32
REMARK SMILES IDX 19 33 20 34 21 35 22 36 23 37 84 38 24 39 83 40 25 41 26 42
REMARK SMILES IDX 27 43 77 44 28 45 82 46 76 47 78 48 29 49 81 50 75 51 74 52
REMARK SMILES IDX 30 54 62 55 42 56 61 57 43 58 46 59 60 60 79 61 44 62 45 63
REMARK SMILES IDX 59 65 80 66 47 67 31 68 32 69 40 70 33 71 34 72 38 73 41 74
REMARK SMILES IDX 35 75 36 76 39 77 37 78 63 79 64 80 72 81 65 82 66 83 70 84
REMARK SMILES IDX 73 85 67 86 68 87 71 88 69 89 48 90 49 91 57 92 50 93 51 94
REMARK SMILES IDX 55 95 58 96 52 97 53 98 56 99 54 100
REMARK H PARENT 78 53 46 64
REMARK Flexibility Score: inf
ROOT
ATOM      1  C   UNL A   1      35.069  33.874  28.042  1.00  0.00     0.188 C 
ENDROOT
BRANCH   1   2
ATOM      2  O   UNL A   1      35.196  32.512  27.657  1.00  0.00    -0.377 OA
BRANCH   2   3
ATOM      3  C   UNL A   1      34.194  31.569  28.031  1.00  0.00     0.188 C 
BRANCH   3   4
ATOM      4  C   UNL A   1      33.750  30.427  27.083  1.00  0.00     0.188 C 
BRANCH   4   5
ATOM      5  O   UNL A   1      32.515  29.825  27.425  1.00  0.00    -0.376 OA
BRANCH   5   6
ATOM      6  C   UNL A   1      32.408  28.416  27.374  1.00  0.00     0.202 C 
BRANCH   6   7
ATOM      7  C   UNL A   1      31.459  27.806  26.334  1.00  0.00     0.261 C 
BRANCH   7   8
ATOM      8  O   UNL A   1      31.071  26.450  26.583  1.00  0.00    -0.460 OA
BRANCH   8   9
ATOM      9  C   UNL A   1      30.470  25.782  25.569  1.00  0.00     0.342 C 
ATOM     10  O   UNL A   1      29.283  25.817  25.288  1.00  0.00    -0.246 OA
BRANCH   9  11
ATOM     11  C   UNL A   1      31.522  25.235  24.679  1.00  0.00     0.102 A 
ATOM     12  C   UNL A   1      32.616  24.483  25.150  1.00  0.00     0.141 A 
ATOM     13  C   UNL A   1      33.644  24.104  24.254  1.00  0.00     0.025 A 
ATOM     14  C   UNL A   1      31.452  25.620  23.330  1.00  0.00     0.019 A 
ATOM     15  C   UNL A   1      33.544  24.508  22.907  1.00  0.00     0.012 A 
ATOM     16  C   UNL A   1      32.466  25.263  22.448  1.00  0.00     0.002 A 
BRANCH  12  17
ATOM     17  O   UNL A   1      32.599  24.085  26.466  1.00  0.00    -0.495 OA
ATOM     18  C   UNL A   1      31.951  22.827  26.674  1.00  0.00     0.278 C 
ENDBRANCH  12  17
BRANCH  13  19
ATOM     19  C   UNL A   1      34.852  23.375  24.669  1.00  0.00    -0.014 A 
ATOM     20  C   UNL A   1      34.924  21.990  24.449  1.00  0.00     0.009 A 
ATOM     21  C   UNL A   1      35.955  24.018  25.254  1.00  0.00     0.017 A 
ATOM     22  C   UNL A   1      36.085  21.276  24.737  1.00  0.00     0.009 A 
ATOM     23  C   UNL A   1      37.122  23.300  25.592  1.00  0.00    -0.018 A 
ATOM     24  C   UNL A   1      37.194  21.919  25.293  1.00  0.00    -0.018 A 
ATOM     25  C   UNL A   1      38.218  23.914  26.221  1.00  0.00     0.009 A 
ATOM     26  C   UNL A   1      38.371  21.209  25.569  1.00  0.00     0.009 A 
ATOM     27  C   UNL A   1      39.364  23.179  26.539  1.00  0.00     0.001 A 
ATOM     28  C   UNL A   1      39.448  21.833  26.196  1.00  0.00     0.001 A 
ENDBRANCH  13  19
ENDBRANCH   9  11
ENDBRANCH   8   9
ENDBRANCH   7   8
ENDBRANCH   6   7
ENDBRANCH   5   6
ENDBRANCH   4   5
ENDBRANCH   3   4
ENDBRANCH   2   3
ENDBRANCH   1   2
BRANCH   1  29
ATOM     29  C   UNL A   1      34.092  34.259  29.175  1.00  0.00     0.188 C 
BRANCH  29  30
ATOM     30  O   UNL A   1      32.868  34.803  28.712  1.00  0.00    -0.376 OA
BRANCH  30  31
ATOM     31  C   UNL A   1      32.445  36.044  29.245  1.00  0.00     0.202 C 
BRANCH  31  32
ATOM     32  C   UNL A   1      33.365  36.787  30.225  1.00  0.00     0.261 C 
BRANCH  32  33
ATOM     33  O   UNL A   1      32.799  37.176  31.483  1.00  0.00    -0.460 OA
BRANCH  33  34
ATOM     34  C   UNL A   1      32.395  36.195  32.322  1.00  0.00     0.338 C 
ATOM     35  O   UNL A   1      31.275  35.980  32.725  1.00  0.00    -0.246 OA
BRANCH  34  36
ATOM     36  C   UNL A   1      33.564  35.310  32.527  1.00  0.00     0.060 A 
ATOM     37  C   UNL A   1      33.364  33.957  32.836  1.00  0.00     0.016 A 
ATOM     38  C   UNL A   1      34.854  35.822  32.378  1.00  0.00     0.016 A 
ATOM     39  C   UNL A   1      34.463  33.114  33.011  1.00  0.00     0.010 A 
ATOM     40  C   UNL A   1      35.950  34.984  32.577  1.00  0.00     0.010 A 
ATOM     41  C   UNL A   1      35.761  33.634  32.921  1.00  0.00    -0.014 A 
BRANCH  41  42
ATOM     42  C   UNL A   1      36.926  32.834  33.366  1.00  0.00     0.031 A 
ATOM     43  C   UNL A   1      37.569  33.189  34.674  1.00  0.00     0.074 A 
ATOM     44  C   UNL A   1      37.430  31.848  32.606  1.00  0.00     0.049 A 
ATOM     45  N   UNL A   1      38.669  32.735  35.216  1.00  0.00    -0.248 NA
ATOM     46  C   UNL A   1      36.879  34.214  35.473  1.00  0.00     0.031 C 
ATOM     47  C   UNL A   1      36.879  31.397  31.333  1.00  0.00     0.029 A 
ATOM     48  N   UNL A   1      38.547  31.069  32.792  1.00  0.00    -0.354 N 
ATOM     49  C   UNL A   1      38.815  33.435  36.406  1.00  0.00     0.074 A 
ATOM     50  C   UNL A   1      37.709  34.361  36.494  1.00  0.00     0.031 C 
ATOM     51  C   UNL A   1      37.679  30.441  30.830  1.00  0.00     0.029 A 
ATOM     52  C   UNL A   1      38.817  30.246  31.728  1.00  0.00     0.049 A 
ATOM     53  H   UNL A   1      39.099  31.100  33.606  1.00  0.00     0.167 HD
ATOM     54  C   UNL A   1      39.788  33.312  37.341  1.00  0.00     0.037 A 
ATOM     55  C   UNL A   1      39.884  29.456  31.491  1.00  0.00     0.037 A 
ATOM     56  C   UNL A   1      40.889  32.392  37.239  1.00  0.00     0.049 A 
ATOM     57  C   UNL A   1      40.985  29.372  32.516  1.00  0.00     0.074 A 
ATOM     58  C   UNL A   1      41.905  32.158  38.148  1.00  0.00     0.029 A 
ATOM     59  N   UNL A   1      41.131  31.567  36.148  1.00  0.00    -0.354 N 
ATOM     60  N   UNL A   1      41.102  30.002  33.661  1.00  0.00    -0.248 NA
ATOM     61  C   UNL A   1      42.101  28.462  32.219  1.00  0.00     0.031 C 
ATOM     62  C   UNL A   1      42.801  31.248  37.576  1.00  0.00     0.029 A 
ATOM     63  C   UNL A   1      42.302  30.853  36.343  1.00  0.00     0.049 A 
ATOM     64  H   UNL A   1      40.555  31.501  35.352  1.00  0.00     0.167 HD
ATOM     65  C   UNL A   1      42.285  29.547  34.232  1.00  0.00     0.074 A 
ATOM     66  C   UNL A   1      42.845  28.580  33.310  1.00  0.00     0.031 C 
ATOM     67  C   UNL A   1      42.852  29.894  35.415  1.00  0.00     0.037 A 
BRANCH  54  68
ATOM     68  C   UNL A   1      39.726  34.239  38.522  1.00  0.00     0.064 A 
ATOM     69  C   UNL A   1      39.074  33.889  39.715  1.00  0.00     0.173 A 
ATOM     70  C   UNL A   1      40.319  35.510  38.452  1.00  0.00     0.173 A 
ATOM     71  F   UNL A   1      38.476  32.692  39.833  1.00  0.00    -0.203 F 
ATOM     72  C   UNL A   1      38.977  34.790  40.772  1.00  0.00     0.198 A 
ATOM     73  C   UNL A   1      40.254  36.394  39.526  1.00  0.00     0.198 A 
ATOM     74  F   UNL A   1      40.960  35.898  37.340  1.00  0.00    -0.203 F 
ATOM     75  F   UNL A   1      38.283  34.460  41.870  1.00  0.00    -0.200 F 
ATOM     76  C   UNL A   1      39.571  36.040  40.679  1.00  0.00     0.200 A 
ATOM     77  F   UNL A   1      40.844  37.594  39.438  1.00  0.00    -0.200 F 
ATOM     78  F   UNL A   1      39.474  36.908  41.695  1.00  0.00    -0.200 F 
ENDBRANCH  54  68
BRANCH  55  79
ATOM     79  C   UNL A   1      39.963  28.703  30.213  1.00  0.00     0.064 A 
ATOM     80  C   UNL A   1      39.403  27.426  30.085  1.00  0.00     0.173 A 
ATOM     81  C   UNL A   1      40.581  29.260  29.082  1.00  0.00     0.173 A 
ATOM     82  F   UNL A   1      38.824  26.839  31.143  1.00  0.00    -0.203 F 
ATOM     83  C   UNL A   1      39.461  26.732  28.877  1.00  0.00     0.198 A 
ATOM     84  C   UNL A   1      40.615  28.578  27.868  1.00  0.00     0.198 A 
ATOM     85  F   UNL A   1      41.135  30.479  29.153  1.00  0.00    -0.203 F 
ATOM     86  F   UNL A   1      38.948  25.497  28.791  1.00  0.00    -0.200 F 
ATOM     87  C   UNL A   1      40.058  27.312  27.767  1.00  0.00     0.200 A 
ATOM     88  F   UNL A   1      41.179  29.150  26.796  1.00  0.00    -0.200 F 
ATOM     89  F   UNL A   1      40.100  26.651  26.603  1.00  0.00    -0.200 F 
ENDBRANCH  55  79
BRANCH  67  90
ATOM     90  C   UNL A   1      44.125  29.198  35.810  1.00  0.00     0.064 A 
ATOM     91  C   UNL A   1      45.388  29.736  35.519  1.00  0.00     0.173 A 
ATOM     92  C   UNL A   1      44.078  27.998  36.538  1.00  0.00     0.173 A 
ATOM     93  F   UNL A   1      45.491  30.873  34.815  1.00  0.00    -0.203 F 
ATOM     94  C   UNL A   1      46.553  29.085  35.920  1.00  0.00     0.198 A 
ATOM     95  C   UNL A   1      45.244  27.371  36.969  1.00  0.00     0.198 A 
ATOM     96  F   UNL A   1      42.898  27.443  36.852  1.00  0.00    -0.203 F 
ATOM     97  F   UNL A   1      47.749  29.593  35.588  1.00  0.00    -0.200 F 
ATOM     98  C   UNL A   1      46.480  27.910  36.653  1.00  0.00     0.200 A 
ATOM     99  F   UNL A   1      45.170  26.245  37.692  1.00  0.00    -0.200 F 
ATOM    100  F   UNL A   1      47.603  27.294  37.048  1.00  0.00    -0.200 F 
ENDBRANCH  67  90
ENDBRANCH  41  42
ENDBRANCH  34  36
ENDBRANCH  33  34
ENDBRANCH  32  33
ENDBRANCH  31  32
ENDBRANCH  30  31
ENDBRANCH  29  30
ENDBRANCH   1  29
TORSDOF 22
ENDMDL
MODEL 3
REMARK VINA RESULT:     -10.8      3.827      9.551
REMARK SMILES COc1c(C(=O)OCCOCCOCCOCCOC(=O)c2ccc(-c3c4nc(c(-c5c(F)c(F)c(F)c(F)c5F)c5ccc([nH]5)c(-c5c(F)c(F)c(F)c(F)c5F)c5nc(c(-c6c(F)c(F)c(F)c(F)c6F)c6ccc3[nH]6)C=C5)C=C4)cc2)cccc1-c1ccc2ccccc2c1
REMARK SMILES IDX 14 1 13 2 12 3 11 4 10 5 9 6 8 7 7 8 5 9 6 10 4 11 3 12
REMARK SMILES IDX 88 13 85 14 87 15 86 16 2 17 1 18 89 19 90 20 98 21 91 22
REMARK SMILES IDX 97 23 92 24 96 25 93 26 95 27 94 28 15 29 16 30 17 31 18 32
REMARK SMILES IDX 19 33 20 34 21 35 22 36 23 37 84 38 24 39 83 40 25 41 26 42
REMARK SMILES IDX 27 43 77 44 28 45 82 46 76 47 78 48 29 49 81 50 75 51 74 52
REMARK SMILES IDX 30 54 62 55 42 56 61 57 43 58 46 59 60 60 79 61 44 62 45 63
REMARK SMILES IDX 59 65 80 66 47 67 31 68 32 69 40 70 33 71 34 72 38 73 41 74
REMARK SMILES IDX 35 75 36 76 39 77 37 78 63 79 64 80 72 81 65 82 66 83 70 84
REMARK SMILES IDX 73 85 67 86 68 87 71 88 69 89 48 90 49 91 57 92 50 93 51 94
REMARK SMILES IDX 55 95 58 96 52 97 53 98 56 99 54 100
REMARK H PARENT 78 53 46 64
REMARK Flexibility Score: inf
ROOT
ATOM      1  C   UNL A   1      35.154  34.229  28.215  1.00  0.00     0.188 C 
ENDROOT
BRANCH   1   2
ATOM      2  O   UNL A   1      35.478  32.975  27.629  1.00  0.00    -0.377 OA
BRANCH   2   3
ATOM      3  C   UNL A   1      34.781  31.799  28.034  1.00  0.00     0.188 C 
BRANCH   3   4
ATOM      4  C   UNL A   1      35.353  30.381  27.782  1.00  0.00     0.188 C 
BRANCH   4   5
ATOM      5  O   UNL A   1      34.374  29.376  27.592  1.00  0.00    -0.376 OA
BRANCH   5   6
ATOM      6  C   UNL A   1      33.856  29.168  26.294  1.00  0.00     0.202 C 
BRANCH   6   7
ATOM      7  C   UNL A   1      32.689  30.052  25.836  1.00  0.00     0.261 C 
BRANCH   7   8
ATOM      8  O   UNL A   1      31.445  29.369  25.638  1.00  0.00    -0.460 OA
BRANCH   8   9
ATOM      9  C   UNL A   1      30.987  29.274  24.367  1.00  0.00     0.342 C 
ATOM     10  O   UNL A   1      30.212  30.042  23.822  1.00  0.00    -0.246 OA
BRANCH   9  11
ATOM     11  C   UNL A   1      31.799  28.261  23.650  1.00  0.00     0.102 A 
ATOM     12  C   UNL A   1      31.731  26.882  23.929  1.00  0.00     0.141 A 
ATOM     13  C   UNL A   1      32.627  25.993  23.290  1.00  0.00     0.025 A 
ATOM     14  C   UNL A   1      32.757  28.759  22.753  1.00  0.00     0.019 A 
ATOM     15  C   UNL A   1      33.579  26.526  22.396  1.00  0.00     0.012 A 
ATOM     16  C   UNL A   1      33.651  27.893  22.133  1.00  0.00     0.002 A 
BRANCH  12  17
ATOM     17  O   UNL A   1      30.733  26.447  24.769  1.00  0.00    -0.495 OA
ATOM     18  C   UNL A   1      29.578  25.961  24.080  1.00  0.00     0.278 C 
ENDBRANCH  12  17
BRANCH  13  19
ATOM     19  C   UNL A   1      32.672  24.549  23.567  1.00  0.00    -0.014 A 
ATOM     20  C   UNL A   1      32.297  23.648  22.558  1.00  0.00     0.009 A 
ATOM     21  C   UNL A   1      33.105  24.031  24.798  1.00  0.00     0.017 A 
ATOM     22  C   UNL A   1      32.415  22.273  22.742  1.00  0.00     0.009 A 
ATOM     23  C   UNL A   1      33.188  22.640  25.016  1.00  0.00    -0.018 A 
ATOM     24  C   UNL A   1      32.872  21.756  23.958  1.00  0.00    -0.018 A 
ATOM     25  C   UNL A   1      33.573  22.102  26.255  1.00  0.00     0.009 A 
ATOM     26  C   UNL A   1      33.009  20.373  24.143  1.00  0.00     0.009 A 
ATOM     27  C   UNL A   1      33.653  20.718  26.440  1.00  0.00     0.001 A 
ATOM     28  C   UNL A   1      33.390  19.856  25.380  1.00  0.00     0.001 A 
ENDBRANCH  13  19
ENDBRANCH   9  11
ENDBRANCH   8   9
ENDBRANCH   7   8
ENDBRANCH   6   7
ENDBRANCH   5   6
ENDBRANCH   4   5
ENDBRANCH   3   4
ENDBRANCH   2   3
ENDBRANCH   1   2
BRANCH   1  29
ATOM     29  C   UNL A   1      34.000  34.318  29.238  1.00  0.00     0.188 C 
BRANCH  29  30
ATOM     30  O   UNL A   1      32.843  34.965  28.738  1.00  0.00    -0.376 OA
BRANCH  30  31
ATOM     31  C   UNL A   1      32.447  36.183  29.340  1.00  0.00     0.202 C 
BRANCH  31  32
ATOM     32  C   UNL A   1      33.363  36.830  30.389  1.00  0.00     0.261 C 
BRANCH  32  33
ATOM     33  O   UNL A   1      32.768  37.186  31.644  1.00  0.00    -0.460 OA
BRANCH  33  34
ATOM     34  C   UNL A   1      32.358  36.183  32.453  1.00  0.00     0.338 C 
ATOM     35  O   UNL A   1      31.239  35.969  32.859  1.00  0.00    -0.246 OA
BRANCH  34  36
ATOM     36  C   UNL A   1      33.517  35.278  32.621  1.00  0.00     0.060 A 
ATOM     37  C   UNL A   1      33.305  33.933  32.951  1.00  0.00     0.016 A 
ATOM     38  C   UNL A   1      34.810  35.764  32.416  1.00  0.00     0.016 A 
ATOM     39  C   UNL A   1      34.395  33.070  33.091  1.00  0.00     0.010 A 
ATOM     40  C   UNL A   1      35.897  34.908  32.579  1.00  0.00     0.010 A 
ATOM     41  C   UNL A   1      35.697  33.565  32.944  1.00  0.00    -0.014 A 
BRANCH  41  42
ATOM     42  C   UNL A   1      36.864  32.747  33.350  1.00  0.00     0.031 A 
ATOM     43  C   UNL A   1      37.540  33.077  34.648  1.00  0.00     0.074 A 
ATOM     44  C   UNL A   1      37.340  31.767  32.565  1.00  0.00     0.049 A 
ATOM     45  N   UNL A   1      38.648  32.604  35.158  1.00  0.00    -0.248 NA
ATOM     46  C   UNL A   1      36.880  34.097  35.477  1.00  0.00     0.031 C 
ATOM     47  C   UNL A   1      36.755  31.340  31.299  1.00  0.00     0.029 A 
ATOM     48  N   UNL A   1      38.453  30.975  32.714  1.00  0.00    -0.354 N 
ATOM     49  C   UNL A   1      38.829  33.285  36.353  1.00  0.00     0.074 A 
ATOM     50  C   UNL A   1      37.735  34.221  36.481  1.00  0.00     0.031 C 
ATOM     51  C   UNL A   1      37.533  30.383  30.764  1.00  0.00     0.029 A 
ATOM     52  C   UNL A   1      38.690  30.164  31.632  1.00  0.00     0.049 A 
ATOM     53  H   UNL A   1      39.024  30.988  33.515  1.00  0.00     0.167 HD
ATOM     54  C   UNL A   1      39.822  33.139  37.264  1.00  0.00     0.037 A 
ATOM     55  C   UNL A   1      39.742  29.367  31.359  1.00  0.00     0.037 A 
ATOM     56  C   UNL A   1      40.911  32.210  37.123  1.00  0.00     0.049 A 
ATOM     57  C   UNL A   1      40.867  29.257  32.357  1.00  0.00     0.074 A 
ATOM     58  C   UNL A   1      41.946  31.953  38.005  1.00  0.00     0.029 A 
ATOM     59  N   UNL A   1      41.120  31.399  36.015  1.00  0.00    -0.354 N 
ATOM     60  N   UNL A   1      41.017  29.870  33.508  1.00  0.00    -0.248 NA
ATOM     61  C   UNL A   1      41.966  28.341  32.021  1.00  0.00     0.031 C 
ATOM     62  C   UNL A   1      42.819  31.043  37.399  1.00  0.00     0.029 A 
ATOM     63  C   UNL A   1      42.287  30.671  36.173  1.00  0.00     0.049 A 
ATOM     64  H   UNL A   1      40.524  31.349  35.232  1.00  0.00     0.167 HD
ATOM     65  C   UNL A   1      42.208  29.395  34.044  1.00  0.00     0.074 A 
ATOM     66  C   UNL A   1      42.737  28.436  33.096  1.00  0.00     0.031 C 
ATOM     67  C   UNL A   1      42.805  29.719  35.219  1.00  0.00     0.037 A 
BRANCH  54  68
ATOM     68  C   UNL A   1      39.797  34.050  38.459  1.00  0.00     0.064 A 
ATOM     69  C   UNL A   1      39.137  33.705  39.648  1.00  0.00     0.173 A 
ATOM     70  C   UNL A   1      40.436  35.299  38.406  1.00  0.00     0.173 A 
ATOM     71  F   UNL A   1      38.497  32.529  39.750  1.00  0.00    -0.203 F 
ATOM     72  C   UNL A   1      39.075  34.593  40.720  1.00  0.00     0.198 A 
ATOM     73  C   UNL A   1      40.406  36.168  39.493  1.00  0.00     0.198 A 
ATOM     74  F   UNL A   1      41.086  35.682  37.297  1.00  0.00    -0.203 F 
ATOM     75  F   UNL A   1      38.374  34.272  41.815  1.00  0.00    -0.200 F 
ATOM     76  C   UNL A   1      39.713  35.822  40.643  1.00  0.00     0.200 A 
ATOM     77  F   UNL A   1      41.038  37.348  39.422  1.00  0.00    -0.200 F 
ATOM     78  F   UNL A   1      39.651  36.678  41.673  1.00  0.00    -0.200 F 
ENDBRANCH  54  68
BRANCH  55  79
ATOM     79  C   UNL A   1      39.785  28.632  30.069  1.00  0.00     0.064 A 
ATOM     80  C   UNL A   1      40.359  29.201  28.925  1.00  0.00     0.173 A 
ATOM     81  C   UNL A   1      39.273  27.329  29.962  1.00  0.00     0.173 A 
ATOM     82  F   UNL A   1      40.839  30.452  28.968  1.00  0.00    -0.203 F 
ATOM     83  C   UNL A   1      40.416  28.498  27.722  1.00  0.00     0.198 A 
ATOM     84  C   UNL A   1      39.355  26.617  28.768  1.00  0.00     0.198 A 
ATOM     85  F   UNL A   1      38.710  26.740  31.027  1.00  0.00    -0.203 F 
ATOM     86  F   UNL A   1      40.939  29.079  26.634  1.00  0.00    -0.200 F 
ATOM     87  C   UNL A   1      39.922  27.204  27.647  1.00  0.00     0.200 A 
ATOM     88  F   UNL A   1      38.890  25.361  28.705  1.00  0.00    -0.200 F 
ATOM     89  F   UNL A   1      39.992  26.524  26.495  1.00  0.00    -0.200 F 
ENDBRANCH  55  79
BRANCH  67  90
ATOM     90  C   UNL A   1      44.080  29.005  35.573  1.00  0.00     0.064 A 
ATOM     91  C   UNL A   1      45.339  29.497  35.195  1.00  0.00     0.173 A 
ATOM     92  C   UNL A   1      44.043  27.836  36.352  1.00  0.00     0.173 A 
ATOM     93  F   UNL A   1      45.433  30.602  34.441  1.00  0.00    -0.203 F 
ATOM     94  C   UNL A   1      46.508  28.831  35.560  1.00  0.00     0.198 A 
ATOM     95  C   UNL A   1      45.214  27.196  36.745  1.00  0.00     0.198 A 
ATOM     96  F   UNL A   1      42.868  27.327  36.750  1.00  0.00    -0.203 F 
ATOM     97  F   UNL A   1      47.696  29.292  35.145  1.00  0.00    -0.200 F 
ATOM     98  C   UNL A   1      46.445  27.688  36.343  1.00  0.00     0.200 A 
ATOM     99  F   UNL A   1      45.151  26.102  37.517  1.00  0.00    -0.200 F 
ATOM    100  F   UNL A   1      47.571  27.058  36.703  1.00  0.00    -0.200 F 
ENDBRANCH  67  90
ENDBRANCH  41  42
ENDBRANCH  34  36
ENDBRANCH  33  34
ENDBRANCH  32  33
ENDBRANCH  31  32
ENDBRANCH  30  31
ENDBRANCH  29  30
ENDBRANCH   1  29
TORSDOF 22
ENDMDL
