MODEL 1
REMARK VINA RESULT:     -10.8      0.000      0.000
REMARK SMILES C[C@H](C(=O)OCCOCCOCCOCCOC(=O)c1ccc(-c2c3nc(c(-c4c(F)c(F)c(F)c(F)c4F)c4ccc([nH]4)c(-c4c(F)c(F)c(F)c(F)c4F)c4nc(c(-c5c(F)c(F)c(F)c(F)c5F)c5ccc2[nH]5)C=C4)C=C3)cc1)c1ccc(C[C@@H]2CCC[C@H]2O)cc1
REMARK SMILES IDX 10 1 9 2 8 3 7 4 6 5 5 6 3 7 4 8 2 9 1 10 83 11 84 12 95 13
REMARK SMILES IDX 85 14 94 15 86 16 87 17 88 18 89 19 92 20 90 21 91 22 93 23
REMARK SMILES IDX 11 25 12 26 13 27 14 28 15 29 16 30 17 31 18 32 19 33 20 34
REMARK SMILES IDX 21 35 82 36 22 37 81 38 23 39 24 40 25 41 75 42 26 43 80 44
REMARK SMILES IDX 74 45 76 46 27 47 79 48 73 49 72 50 28 52 60 53 40 54 59 55
REMARK SMILES IDX 41 56 44 57 58 58 77 59 42 60 43 61 57 63 78 64 45 65 29 66
REMARK SMILES IDX 30 67 38 68 31 69 32 70 36 71 39 72 33 73 34 74 37 75 35 76
REMARK SMILES IDX 61 77 62 78 70 79 63 80 64 81 68 82 71 83 65 84 66 85 69 86
REMARK SMILES IDX 67 87 46 88 47 89 55 90 48 91 49 92 53 93 56 94 50 95 51 96
REMARK SMILES IDX 54 97 52 98
REMARK H PARENT 93 24 76 51 44 62
REMARK Flexibility Score: inf
ROOT
ATOM      1  C   UNL A   1      31.412  32.090  26.501  1.00  0.00     0.188 C 
ENDROOT
BRANCH   1   2
ATOM      2  C   UNL A   1      32.019  30.737  26.875  1.00  0.00     0.188 C 
BRANCH   2   3
ATOM      3  O   UNL A   1      33.137  30.318  26.103  1.00  0.00    -0.376 OA
BRANCH   3   4
ATOM      4  C   UNL A   1      32.996  29.135  25.316  1.00  0.00     0.202 C 
BRANCH   4   5
ATOM      5  C   UNL A   1      32.559  27.832  26.011  1.00  0.00     0.261 C 
BRANCH   5   6
ATOM      6  O   UNL A   1      32.839  26.627  25.257  1.00  0.00    -0.463 OA
BRANCH   6   7
ATOM      7  C   UNL A   1      31.828  25.724  25.147  1.00  0.00     0.313 C 
ATOM      8  O   UNL A   1      30.947  25.794  24.291  1.00  0.00    -0.252 OA
BRANCH   7   9
ATOM      9  C   UNL A   1      31.900  24.532  26.096  1.00  0.00     0.126 C 
ATOM     10  C   UNL A   1      30.486  24.088  26.499  1.00  0.00     0.025 C 
BRANCH   9  11
ATOM     11  C   UNL A   1      32.812  23.371  25.728  1.00  0.00    -0.034 A 
ATOM     12  C   UNL A   1      33.334  23.191  24.443  1.00  0.00     0.005 A 
ATOM     13  C   UNL A   1      33.059  22.367  26.675  1.00  0.00     0.005 A 
ATOM     14  C   UNL A   1      34.058  22.043  24.105  1.00  0.00     0.004 A 
ATOM     15  C   UNL A   1      33.729  21.191  26.322  1.00  0.00     0.004 A 
ATOM     16  C   UNL A   1      34.207  21.000  25.020  1.00  0.00    -0.048 A 
BRANCH  16  17
ATOM     17  C   UNL A   1      34.851  19.691  24.627  1.00  0.00     0.041 C 
BRANCH  17  18
ATOM     18  C   UNL A   1      34.039  18.384  24.799  1.00  0.00     0.022 C 
ATOM     19  C   UNL A   1      34.715  17.125  24.241  1.00  0.00     0.007 C 
ATOM     20  C   UNL A   1      32.656  18.377  24.138  1.00  0.00     0.117 C 
ATOM     21  C   UNL A   1      34.029  16.795  22.914  1.00  0.00     0.003 C 
ATOM     22  C   UNL A   1      32.868  17.775  22.754  1.00  0.00     0.032 C 
BRANCH  20  23
ATOM     23  O   UNL A   1      31.777  17.531  24.885  1.00  0.00    -0.393 OA
ATOM     24  H   UNL A   1      31.000  17.316  24.345  1.00  0.00     0.210 HD
ENDBRANCH  20  23
ENDBRANCH  17  18
ENDBRANCH  16  17
ENDBRANCH   9  11
ENDBRANCH   7   9
ENDBRANCH   6   7
ENDBRANCH   5   6
ENDBRANCH   4   5
ENDBRANCH   3   4
ENDBRANCH   2   3
ENDBRANCH   1   2
BRANCH   1  25
ATOM     25  O   UNL A   1      31.777  33.125  27.401  1.00  0.00    -0.377 OA
BRANCH  25  26
ATOM     26  C   UNL A   1      33.147  33.451  27.616  1.00  0.00     0.188 C 
BRANCH  26  27
ATOM     27  C   UNL A   1      33.478  34.381  28.781  1.00  0.00     0.188 C 
BRANCH  27  28
ATOM     28  O   UNL A   1      33.884  33.770  30.011  1.00  0.00    -0.376 OA
BRANCH  28  29
ATOM     29  C   UNL A   1      34.029  34.586  31.171  1.00  0.00     0.202 C 
BRANCH  29  30
ATOM     30  C   UNL A   1      34.419  33.831  32.441  1.00  0.00     0.261 C 
BRANCH  30  31
ATOM     31  O   UNL A   1      34.954  32.532  32.149  1.00  0.00    -0.460 OA
BRANCH  31  32
ATOM     32  C   UNL A   1      35.991  32.155  32.935  1.00  0.00     0.338 C 
ATOM     33  O   UNL A   1      36.122  32.330  34.131  1.00  0.00    -0.246 OA
BRANCH  32  34
ATOM     34  C   UNL A   1      36.928  31.347  32.136  1.00  0.00     0.060 A 
ATOM     35  C   UNL A   1      37.823  30.507  32.811  1.00  0.00     0.016 A 
ATOM     36  C   UNL A   1      36.981  31.484  30.748  1.00  0.00     0.016 A 
ATOM     37  C   UNL A   1      38.811  29.834  32.102  1.00  0.00     0.010 A 
ATOM     38  C   UNL A   1      37.982  30.823  30.040  1.00  0.00     0.010 A 
ATOM     39  C   UNL A   1      38.924  30.032  30.721  1.00  0.00    -0.014 A 
BRANCH  39  40
ATOM     40  C   UNL A   1      40.141  29.578  30.016  1.00  0.00     0.031 A 
ATOM     41  C   UNL A   1      41.262  30.561  29.828  1.00  0.00     0.074 A 
ATOM     42  C   UNL A   1      40.241  28.320  29.562  1.00  0.00     0.049 A 
ATOM     43  N   UNL A   1      42.385  30.426  29.172  1.00  0.00    -0.248 NA
ATOM     44  C   UNL A   1      41.089  31.879  30.462  1.00  0.00     0.031 C 
ATOM     45  C   UNL A   1      39.231  27.278  29.735  1.00  0.00     0.029 A 
ATOM     46  N   UNL A   1      41.240  27.710  28.849  1.00  0.00    -0.354 N 
ATOM     47  C   UNL A   1      43.042  31.643  29.301  1.00  0.00     0.074 A 
ATOM     48  C   UNL A   1      42.182  32.514  30.072  1.00  0.00     0.031 C 
ATOM     49  C   UNL A   1      39.657  26.157  29.129  1.00  0.00     0.029 A 
ATOM     50  C   UNL A   1      40.946  26.418  28.494  1.00  0.00     0.049 A 
ATOM     51  H   UNL A   1      42.085  28.156  28.614  1.00  0.00     0.167 HD
ATOM     52  C   UNL A   1      44.257  31.995  28.820  1.00  0.00     0.037 A 
ATOM     53  C   UNL A   1      41.635  25.560  27.717  1.00  0.00     0.037 A 
ATOM     54  C   UNL A   1      45.100  31.115  28.057  1.00  0.00     0.049 A 
ATOM     55  C   UNL A   1      42.951  26.005  27.130  1.00  0.00     0.074 A 
ATOM     56  C   UNL A   1      46.360  31.359  27.540  1.00  0.00     0.029 A 
ATOM     57  N   UNL A   1      44.761  29.820  27.692  1.00  0.00    -0.354 N 
ATOM     58  N   UNL A   1      43.581  27.147  27.272  1.00  0.00    -0.248 NA
ATOM     59  C   UNL A   1      43.651  25.038  26.274  1.00  0.00     0.031 C 
ATOM     60  C   UNL A   1      46.755  30.235  26.808  1.00  0.00     0.029 A 
ATOM     61  C   UNL A   1      45.774  29.264  26.928  1.00  0.00     0.049 A 
ATOM     62  H   UNL A   1      43.924  29.364  27.939  1.00  0.00     0.167 HD
ATOM     63  C   UNL A   1      44.766  27.023  26.557  1.00  0.00     0.074 A 
ATOM     64  C   UNL A   1      44.771  25.689  25.992  1.00  0.00     0.031 C 
ATOM     65  C   UNL A   1      45.762  27.928  26.384  1.00  0.00     0.037 A 
BRANCH  52  66
ATOM     66  C   UNL A   1      44.727  33.399  29.071  1.00  0.00     0.064 A 
ATOM     67  C   UNL A   1      45.431  33.752  30.233  1.00  0.00     0.173 A 
ATOM     68  C   UNL A   1      44.494  34.403  28.119  1.00  0.00     0.173 A 
ATOM     69  F   UNL A   1      45.666  32.835  31.185  1.00  0.00    -0.203 F 
ATOM     70  C   UNL A   1      45.861  35.060  30.443  1.00  0.00     0.198 A 
ATOM     71  C   UNL A   1      44.955  35.702  28.316  1.00  0.00     0.198 A 
ATOM     72  F   UNL A   1      43.827  34.122  26.990  1.00  0.00    -0.203 F 
ATOM     73  F   UNL A   1      46.486  35.384  31.584  1.00  0.00    -0.200 F 
ATOM     74  C   UNL A   1      45.630  36.032  29.480  1.00  0.00     0.200 A 
ATOM     75  F   UNL A   1      44.741  36.636  27.378  1.00  0.00    -0.200 F 
ATOM     76  F   UNL A   1      46.052  37.288  29.680  1.00  0.00    -0.200 F 
ENDBRANCH  52  66
BRANCH  53  77
ATOM     77  C   UNL A   1      41.092  24.206  27.439  1.00  0.00     0.064 A 
ATOM     78  C   UNL A   1      41.684  23.063  27.996  1.00  0.00     0.173 A 
ATOM     79  C   UNL A   1      39.986  24.020  26.596  1.00  0.00     0.173 A 
ATOM     80  F   UNL A   1      42.757  23.186  28.792  1.00  0.00    -0.203 F 
ATOM     81  C   UNL A   1      41.206  21.788  27.703  1.00  0.00     0.198 A 
ATOM     82  C   UNL A   1      39.489  22.746  26.329  1.00  0.00     0.198 A 
ATOM     83  F   UNL A   1      39.383  25.079  26.036  1.00  0.00    -0.203 F 
ATOM     84  F   UNL A   1      41.824  20.712  28.207  1.00  0.00    -0.200 F 
ATOM     85  C   UNL A   1      40.105  21.631  26.874  1.00  0.00     0.200 A 
ATOM     86  F   UNL A   1      38.416  22.601  25.540  1.00  0.00    -0.200 F 
ATOM     87  F   UNL A   1      39.644  20.405  26.594  1.00  0.00    -0.200 F 
ENDBRANCH  53  77
BRANCH  65  88
ATOM     88  C   UNL A   1      46.963  27.490  25.593  1.00  0.00     0.064 A 
ATOM     89  C   UNL A   1      47.061  27.709  24.211  1.00  0.00     0.173 A 
ATOM     90  C   UNL A   1      48.050  26.881  26.240  1.00  0.00     0.173 A 
ATOM     91  F   UNL A   1      46.043  28.275  23.544  1.00  0.00    -0.203 F 
ATOM     92  C   UNL A   1      48.188  27.305  23.502  1.00  0.00     0.198 A 
ATOM     93  C   UNL A   1      49.191  26.514  25.534  1.00  0.00     0.198 A 
ATOM     94  F   UNL A   1      48.012  26.658  27.563  1.00  0.00    -0.203 F 
ATOM     95  F   UNL A   1      48.236  27.473  22.174  1.00  0.00    -0.200 F 
ATOM     96  C   UNL A   1      49.255  26.717  24.164  1.00  0.00     0.200 A 
ATOM     97  F   UNL A   1      50.228  25.964  26.179  1.00  0.00    -0.200 F 
ATOM     98  F   UNL A   1      50.344  26.339  23.481  1.00  0.00    -0.200 F 
ENDBRANCH  65  88
ENDBRANCH  39  40
ENDBRANCH  32  34
ENDBRANCH  31  32
ENDBRANCH  30  31
ENDBRANCH  29  30
ENDBRANCH  28  29
ENDBRANCH  27  28
ENDBRANCH  26  27
ENDBRANCH  25  26
ENDBRANCH   1  25
TORSDOF 24
ENDMDL
MODEL 2
REMARK VINA RESULT:     -10.8      5.188     11.030
REMARK SMILES C[C@H](C(=O)OCCOCCOCCOCCOC(=O)c1ccc(-c2c3nc(c(-c4c(F)c(F)c(F)c(F)c4F)c4ccc([nH]4)c(-c4c(F)c(F)c(F)c(F)c4F)c4nc(c(-c5c(F)c(F)c(F)c(F)c5F)c5ccc2[nH]5)C=C4)C=C3)cc1)c1ccc(C[C@@H]2CCC[C@H]2O)cc1
REMARK SMILES IDX 10 1 9 2 8 3 7 4 6 5 5 6 3 7 4 8 2 9 1 10 83 11 84 12 95 13
REMARK SMILES IDX 85 14 94 15 86 16 87 17 88 18 89 19 92 20 90 21 91 22 93 23
REMARK SMILES IDX 11 25 12 26 13 27 14 28 15 29 16 30 17 31 18 32 19 33 20 34
REMARK SMILES IDX 21 35 82 36 22 37 81 38 23 39 24 40 25 41 75 42 26 43 80 44
REMARK SMILES IDX 74 45 76 46 27 47 79 48 73 49 72 50 28 52 60 53 40 54 59 55
REMARK SMILES IDX 41 56 44 57 58 58 77 59 42 60 43 61 57 63 78 64 45 65 29 66
REMARK SMILES IDX 30 67 38 68 31 69 32 70 36 71 39 72 33 73 34 74 37 75 35 76
REMARK SMILES IDX 61 77 62 78 70 79 63 80 64 81 68 82 71 83 65 84 66 85 69 86
REMARK SMILES IDX 67 87 46 88 47 89 55 90 48 91 49 92 53 93 56 94 50 95 51 96
REMARK SMILES IDX 54 97 52 98
REMARK H PARENT 93 24 76 51 44 62
REMARK Flexibility Score: inf
ROOT
ATOM      1  C   UNL A   1      40.352  21.850  27.198  1.00  0.00     0.188 C 
ENDROOT
BRANCH   1   2
ATOM      2  C   UNL A   1      39.304  22.189  26.137  1.00  0.00     0.188 C 
BRANCH   2   3
ATOM      3  O   UNL A   1      38.435  21.130  25.756  1.00  0.00    -0.376 OA
BRANCH   3   4
ATOM      4  C   UNL A   1      37.356  21.441  24.873  1.00  0.00     0.202 C 
BRANCH   4   5
ATOM      5  C   UNL A   1      36.042  20.649  25.001  1.00  0.00     0.261 C 
BRANCH   5   6
ATOM      6  O   UNL A   1      35.054  21.260  25.867  1.00  0.00    -0.463 OA
BRANCH   6   7
ATOM      7  C   UNL A   1      34.069  21.976  25.262  1.00  0.00     0.313 C 
ATOM      8  O   UNL A   1      33.351  21.523  24.372  1.00  0.00    -0.252 OA
BRANCH   7   9
ATOM      9  C   UNL A   1      33.823  23.370  25.829  1.00  0.00     0.126 C 
ATOM     10  C   UNL A   1      35.107  24.210  25.751  1.00  0.00     0.025 C 
BRANCH   9  11
ATOM     11  C   UNL A   1      32.582  24.126  25.373  1.00  0.00    -0.034 A 
ATOM     12  C   UNL A   1      31.937  23.866  24.160  1.00  0.00     0.005 A 
ATOM     13  C   UNL A   1      32.120  25.207  26.136  1.00  0.00     0.005 A 
ATOM     14  C   UNL A   1      30.882  24.667  23.710  1.00  0.00     0.004 A 
ATOM     15  C   UNL A   1      31.107  26.045  25.660  1.00  0.00     0.004 A 
ATOM     16  C   UNL A   1      30.498  25.805  24.422  1.00  0.00    -0.048 A 
BRANCH  16  17
ATOM     17  C   UNL A   1      29.468  26.766  23.878  1.00  0.00     0.041 C 
BRANCH  17  18
ATOM     18  C   UNL A   1      29.953  27.984  23.053  1.00  0.00     0.022 C 
ATOM     19  C   UNL A   1      31.318  27.803  22.375  1.00  0.00     0.007 C 
ATOM     20  C   UNL A   1      30.106  29.290  23.838  1.00  0.00     0.117 C 
ATOM     21  C   UNL A   1      32.339  28.583  23.206  1.00  0.00     0.003 C 
ATOM     22  C   UNL A   1      31.561  29.327  24.290  1.00  0.00     0.032 C 
BRANCH  20  23
ATOM     23  O   UNL A   1      29.861  30.399  22.967  1.00  0.00    -0.393 OA
ATOM     24  H   UNL A   1      30.445  30.339  22.195  1.00  0.00     0.210 HD
ENDBRANCH  20  23
ENDBRANCH  17  18
ENDBRANCH  16  17
ENDBRANCH   9  11
ENDBRANCH   7   9
ENDBRANCH   6   7
ENDBRANCH   5   6
ENDBRANCH   4   5
ENDBRANCH   3   4
ENDBRANCH   2   3
ENDBRANCH   1   2
BRANCH   1  25
ATOM     25  O   UNL A   1      40.447  20.458  27.456  1.00  0.00    -0.377 OA
BRANCH  25  26
ATOM     26  C   UNL A   1      41.665  19.756  27.220  1.00  0.00     0.188 C 
BRANCH  26  27
ATOM     27  C   UNL A   1      42.108  19.578  25.770  1.00  0.00     0.188 C 
BRANCH  27  28
ATOM     28  O   UNL A   1      43.446  19.969  25.442  1.00  0.00    -0.376 OA
BRANCH  28  29
ATOM     29  C   UNL A   1      43.855  21.310  25.701  1.00  0.00     0.202 C 
BRANCH  29  30
ATOM     30  C   UNL A   1      43.818  22.237  24.487  1.00  0.00     0.261 C 
BRANCH  30  31
ATOM     31  O   UNL A   1      43.067  23.431  24.748  1.00  0.00    -0.460 OA
BRANCH  31  32
ATOM     32  C   UNL A   1      43.816  24.517  25.052  1.00  0.00     0.338 C 
ATOM     33  O   UNL A   1      44.911  24.816  24.614  1.00  0.00    -0.246 OA
BRANCH  32  34
ATOM     34  C   UNL A   1      43.037  25.407  25.931  1.00  0.00     0.060 A 
ATOM     35  C   UNL A   1      43.357  26.771  25.950  1.00  0.00     0.016 A 
ATOM     36  C   UNL A   1      42.065  24.887  26.787  1.00  0.00     0.016 A 
ATOM     37  C   UNL A   1      42.738  27.615  26.863  1.00  0.00     0.010 A 
ATOM     38  C   UNL A   1      41.457  25.731  27.713  1.00  0.00     0.010 A 
ATOM     39  C   UNL A   1      41.825  27.086  27.781  1.00  0.00    -0.014 A 
BRANCH  39  40
ATOM     40  C   UNL A   1      41.401  27.899  28.941  1.00  0.00     0.031 A 
ATOM     41  C   UNL A   1      42.175  27.765  30.222  1.00  0.00     0.074 A 
ATOM     42  C   UNL A   1      40.358  28.737  28.847  1.00  0.00     0.049 A 
ATOM     43  N   UNL A   1      41.946  28.303  31.392  1.00  0.00    -0.248 NA
ATOM     44  C   UNL A   1      43.366  26.900  30.179  1.00  0.00     0.031 C 
ATOM     45  C   UNL A   1      39.574  28.974  27.637  1.00  0.00     0.029 A 
ATOM     46  N   UNL A   1      39.772  29.535  29.794  1.00  0.00    -0.354 N 
ATOM     47  C   UNL A   1      42.951  27.830  32.225  1.00  0.00     0.074 A 
ATOM     48  C   UNL A   1      43.776  26.939  31.437  1.00  0.00     0.031 C 
ATOM     49  C   UNL A   1      38.596  29.851  27.920  1.00  0.00     0.029 A 
ATOM     50  C   UNL A   1      38.664  30.201  29.337  1.00  0.00     0.049 A 
ATOM     51  H   UNL A   1      40.114  29.621  30.713  1.00  0.00     0.167 HD
ATOM     52  C   UNL A   1      43.166  28.120  33.529  1.00  0.00     0.037 A 
ATOM     53  C   UNL A   1      37.790  30.979  30.004  1.00  0.00     0.037 A 
ATOM     54  C   UNL A   1      42.337  29.010  34.297  1.00  0.00     0.049 A 
ATOM     55  C   UNL A   1      38.010  31.225  31.476  1.00  0.00     0.074 A 
ATOM     56  C   UNL A   1      42.476  29.395  35.618  1.00  0.00     0.029 A 
ATOM     57  N   UNL A   1      41.205  29.649  33.810  1.00  0.00    -0.354 N 
ATOM     58  N   UNL A   1      38.974  30.796  32.255  1.00  0.00    -0.248 NA
ATOM     59  C   UNL A   1      37.017  32.065  32.159  1.00  0.00     0.031 C 
ATOM     60  C   UNL A   1      41.391  30.213  35.949  1.00  0.00     0.029 A 
ATOM     61  C   UNL A   1      40.616  30.398  34.815  1.00  0.00     0.049 A 
ATOM     62  H   UNL A   1      40.870  29.579  32.887  1.00  0.00     0.167 HD
ATOM     63  C   UNL A   1      38.726  31.342  33.508  1.00  0.00     0.074 A 
ATOM     64  C   UNL A   1      37.526  32.144  33.381  1.00  0.00     0.031 C 
ATOM     65  C   UNL A   1      39.426  31.198  34.661  1.00  0.00     0.037 A 
BRANCH  52  66
ATOM     66  C   UNL A   1      44.315  27.440  34.216  1.00  0.00     0.064 A 
ATOM     67  C   UNL A   1      44.183  26.177  34.815  1.00  0.00     0.173 A 
ATOM     68  C   UNL A   1      45.579  28.049  34.247  1.00  0.00     0.173 A 
ATOM     69  F   UNL A   1      42.993  25.557  34.828  1.00  0.00    -0.203 F 
ATOM     70  C   UNL A   1      45.265  25.564  35.442  1.00  0.00     0.198 A 
ATOM     71  C   UNL A   1      46.666  27.418  34.846  1.00  0.00     0.198 A 
ATOM     72  F   UNL A   1      45.762  29.255  33.690  1.00  0.00    -0.203 F 
ATOM     73  F   UNL A   1      45.102  24.382  36.053  1.00  0.00    -0.200 F 
ATOM     74  C   UNL A   1      46.507  26.181  35.450  1.00  0.00     0.200 A 
ATOM     75  F   UNL A   1      47.868  28.011  34.839  1.00  0.00    -0.200 F 
ATOM     76  F   UNL A   1      47.550  25.585  36.046  1.00  0.00    -0.200 F 
ENDBRANCH  52  66
BRANCH  53  77
ATOM     77  C   UNL A   1      36.627  31.572  29.295  1.00  0.00     0.064 A 
ATOM     78  C   UNL A   1      36.578  32.944  29.010  1.00  0.00     0.173 A 
ATOM     79  C   UNL A   1      35.532  30.786  28.905  1.00  0.00     0.173 A 
ATOM     80  F   UNL A   1      37.591  33.741  29.381  1.00  0.00    -0.203 F 
ATOM     81  C   UNL A   1      35.470  33.511  28.384  1.00  0.00     0.198 A 
ATOM     82  C   UNL A   1      34.438  31.349  28.251  1.00  0.00     0.198 A 
ATOM     83  F   UNL A   1      35.527  29.469  29.153  1.00  0.00    -0.203 F 
ATOM     84  F   UNL A   1      35.427  34.833  28.173  1.00  0.00    -0.200 F 
ATOM     85  C   UNL A   1      34.403  32.712  28.000  1.00  0.00     0.200 A 
ATOM     86  F   UNL A   1      33.416  30.571  27.868  1.00  0.00    -0.200 F 
ATOM     87  F   UNL A   1      33.338  33.258  27.398  1.00  0.00    -0.200 F 
ENDBRANCH  53  77
BRANCH  65  88
ATOM     88  C   UNL A   1      38.944  31.961  35.863  1.00  0.00     0.064 A 
ATOM     89  C   UNL A   1      38.162  31.358  36.859  1.00  0.00     0.173 A 
ATOM     90  C   UNL A   1      39.307  33.306  36.038  1.00  0.00     0.173 A 
ATOM     91  F   UNL A   1      37.776  30.079  36.733  1.00  0.00    -0.203 F 
ATOM     92  C   UNL A   1      37.736  32.082  37.970  1.00  0.00     0.198 A 
ATOM     93  C   UNL A   1      38.912  34.015  37.168  1.00  0.00     0.198 A 
ATOM     94  F   UNL A   1      40.063  33.928  35.120  1.00  0.00    -0.203 F 
ATOM     95  F   UNL A   1      36.944  31.501  38.881  1.00  0.00    -0.200 F 
ATOM     96  C   UNL A   1      38.119  33.405  38.128  1.00  0.00     0.200 A 
ATOM     97  F   UNL A   1      39.299  35.287  37.328  1.00  0.00    -0.200 F 
ATOM     98  F   UNL A   1      37.717  34.096  39.202  1.00  0.00    -0.200 F 
ENDBRANCH  65  88
ENDBRANCH  39  40
ENDBRANCH  32  34
ENDBRANCH  31  32
ENDBRANCH  30  31
ENDBRANCH  29  30
ENDBRANCH  28  29
ENDBRANCH  27  28
ENDBRANCH  26  27
ENDBRANCH  25  26
ENDBRANCH   1  25
TORSDOF 24
ENDMDL
MODEL 3
REMARK VINA RESULT:     -10.6      3.590      9.209
REMARK SMILES C[C@H](C(=O)OCCOCCOCCOCCOC(=O)c1ccc(-c2c3nc(c(-c4c(F)c(F)c(F)c(F)c4F)c4ccc([nH]4)c(-c4c(F)c(F)c(F)c(F)c4F)c4nc(c(-c5c(F)c(F)c(F)c(F)c5F)c5ccc2[nH]5)C=C4)C=C3)cc1)c1ccc(C[C@@H]2CCC[C@H]2O)cc1
REMARK SMILES IDX 10 1 9 2 8 3 7 4 6 5 5 6 3 7 4 8 2 9 1 10 83 11 84 12 95 13
REMARK SMILES IDX 85 14 94 15 86 16 87 17 88 18 89 19 92 20 90 21 91 22 93 23
REMARK SMILES IDX 11 25 12 26 13 27 14 28 15 29 16 30 17 31 18 32 19 33 20 34
REMARK SMILES IDX 21 35 82 36 22 37 81 38 23 39 24 40 25 41 75 42 26 43 80 44
REMARK SMILES IDX 74 45 76 46 27 47 79 48 73 49 72 50 28 52 60 53 40 54 59 55
REMARK SMILES IDX 41 56 44 57 58 58 77 59 42 60 43 61 57 63 78 64 45 65 29 66
REMARK SMILES IDX 30 67 38 68 31 69 32 70 36 71 39 72 33 73 34 74 37 75 35 76
REMARK SMILES IDX 61 77 62 78 70 79 63 80 64 81 68 82 71 83 65 84 66 85 69 86
REMARK SMILES IDX 67 87 46 88 47 89 55 90 48 91 49 92 53 93 56 94 50 95 51 96
REMARK SMILES IDX 54 97 52 98
REMARK H PARENT 93 24 76 51 44 62
REMARK Flexibility Score: inf
ROOT
ATOM      1  C   UNL A   1      34.363  22.163  27.137  1.00  0.00     0.188 C 
ENDROOT
BRANCH   1   2
ATOM      2  C   UNL A   1      33.075  22.208  27.961  1.00  0.00     0.188 C 
BRANCH   2   3
ATOM      3  O   UNL A   1      32.114  23.180  27.568  1.00  0.00    -0.376 OA
BRANCH   3   4
ATOM      4  C   UNL A   1      30.955  22.722  26.869  1.00  0.00     0.202 C 
BRANCH   4   5
ATOM      5  C   UNL A   1      30.852  22.983  25.356  1.00  0.00     0.261 C 
BRANCH   5   6
ATOM      6  O   UNL A   1      32.031  22.613  24.601  1.00  0.00    -0.463 OA
BRANCH   6   7
ATOM      7  C   UNL A   1      32.632  23.597  23.880  1.00  0.00     0.313 C 
ATOM      8  O   UNL A   1      32.631  23.634  22.650  1.00  0.00    -0.252 OA
BRANCH   7   9
ATOM      9  C   UNL A   1      33.233  24.739  24.693  1.00  0.00     0.126 C 
ATOM     10  C   UNL A   1      34.753  24.801  24.480  1.00  0.00     0.025 C 
BRANCH   9  11
ATOM     11  C   UNL A   1      32.561  26.103  24.629  1.00  0.00    -0.034 A 
ATOM     12  C   UNL A   1      31.402  26.414  25.347  1.00  0.00     0.005 A 
ATOM     13  C   UNL A   1      33.047  27.063  23.730  1.00  0.00     0.005 A 
ATOM     14  C   UNL A   1      30.736  27.631  25.162  1.00  0.00     0.004 A 
ATOM     15  C   UNL A   1      32.348  28.253  23.499  1.00  0.00     0.004 A 
ATOM     16  C   UNL A   1      31.163  28.536  24.189  1.00  0.00    -0.048 A 
BRANCH  16  17
ATOM     17  C   UNL A   1      30.371  29.781  23.868  1.00  0.00     0.041 C 
BRANCH  17  18
ATOM     18  C   UNL A   1      29.159  29.663  22.911  1.00  0.00     0.022 C 
ATOM     19  C   UNL A   1      29.272  30.485  21.621  1.00  0.00     0.007 C 
ATOM     20  C   UNL A   1      27.812  30.094  23.500  1.00  0.00     0.117 C 
ATOM     21  C   UNL A   1      28.386  31.721  21.795  1.00  0.00     0.003 C 
ATOM     22  C   UNL A   1      27.652  31.562  23.126  1.00  0.00     0.032 C 
BRANCH  20  23
ATOM     23  O   UNL A   1      26.762  29.340  22.886  1.00  0.00    -0.393 OA
ATOM     24  H   UNL A   1      26.176  29.941  22.398  1.00  0.00     0.210 HD
ENDBRANCH  20  23
ENDBRANCH  17  18
ENDBRANCH  16  17
ENDBRANCH   9  11
ENDBRANCH   7   9
ENDBRANCH   6   7
ENDBRANCH   5   6
ENDBRANCH   4   5
ENDBRANCH   3   4
ENDBRANCH   2   3
ENDBRANCH   1   2
BRANCH   1  25
ATOM     25  O   UNL A   1      34.396  21.077  26.224  1.00  0.00    -0.377 OA
BRANCH  25  26
ATOM     26  C   UNL A   1      35.189  21.147  25.041  1.00  0.00     0.188 C 
BRANCH  26  27
ATOM     27  C   UNL A   1      36.671  20.803  25.164  1.00  0.00     0.188 C 
BRANCH  27  28
ATOM     28  O   UNL A   1      37.564  21.871  25.501  1.00  0.00    -0.376 OA
BRANCH  28  29
ATOM     29  C   UNL A   1      38.903  21.558  25.876  1.00  0.00     0.202 C 
BRANCH  29  30
ATOM     30  C   UNL A   1      39.345  20.133  25.543  1.00  0.00     0.261 C 
BRANCH  30  31
ATOM     31  O   UNL A   1      40.164  19.571  26.579  1.00  0.00    -0.460 OA
BRANCH  31  32
ATOM     32  C   UNL A   1      41.467  19.412  26.247  1.00  0.00     0.338 C 
ATOM     33  O   UNL A   1      41.996  18.439  25.745  1.00  0.00    -0.246 OA
BRANCH  32  34
ATOM     34  C   UNL A   1      42.175  20.685  26.464  1.00  0.00     0.060 A 
ATOM     35  C   UNL A   1      42.302  21.161  27.776  1.00  0.00     0.016 A 
ATOM     36  C   UNL A   1      42.629  21.440  25.380  1.00  0.00     0.016 A 
ATOM     37  C   UNL A   1      42.842  22.421  28.007  1.00  0.00     0.010 A 
ATOM     38  C   UNL A   1      43.154  22.709  25.612  1.00  0.00     0.010 A 
ATOM     39  C   UNL A   1      43.220  23.218  26.921  1.00  0.00    -0.014 A 
BRANCH  39  40
ATOM     40  C   UNL A   1      43.498  24.655  27.131  1.00  0.00     0.031 A 
ATOM     41  C   UNL A   1      44.885  25.158  26.850  1.00  0.00     0.074 A 
ATOM     42  C   UNL A   1      42.533  25.484  27.556  1.00  0.00     0.049 A 
ATOM     43  N   UNL A   1      45.392  26.348  27.039  1.00  0.00    -0.248 NA
ATOM     44  C   UNL A   1      45.832  24.183  26.285  1.00  0.00     0.031 C 
ATOM     45  C   UNL A   1      41.146  25.104  27.810  1.00  0.00     0.029 A 
ATOM     46  N   UNL A   1      42.582  26.819  27.860  1.00  0.00    -0.354 N 
ATOM     47  C   UNL A   1      46.717  26.260  26.633  1.00  0.00     0.074 A 
ATOM     48  C   UNL A   1      46.946  24.895  26.214  1.00  0.00     0.031 C 
ATOM     49  C   UNL A   1      40.474  26.183  28.248  1.00  0.00     0.029 A 
ATOM     50  C   UNL A   1      41.396  27.312  28.342  1.00  0.00     0.049 A 
ATOM     51  H   UNL A   1      43.389  27.371  27.745  1.00  0.00     0.167 HD
ATOM     52  C   UNL A   1      47.654  27.236  26.610  1.00  0.00     0.037 A 
ATOM     53  C   UNL A   1      41.106  28.533  28.831  1.00  0.00     0.037 A 
ATOM     54  C   UNL A   1      47.408  28.590  27.028  1.00  0.00     0.049 A 
ATOM     55  C   UNL A   1      42.190  29.581  28.864  1.00  0.00     0.074 A 
ATOM     56  C   UNL A   1      48.277  29.666  27.024  1.00  0.00     0.029 A 
ATOM     57  N   UNL A   1      46.202  29.051  27.536  1.00  0.00    -0.354 N 
ATOM     58  N   UNL A   1      43.434  29.503  28.458  1.00  0.00    -0.248 NA
ATOM     59  C   UNL A   1      41.825  30.889  29.426  1.00  0.00     0.031 C 
ATOM     60  C   UNL A   1      47.616  30.761  27.591  1.00  0.00     0.029 A 
ATOM     61  C   UNL A   1      46.314  30.387  27.881  1.00  0.00     0.049 A 
ATOM     62  H   UNL A   1      45.387  28.508  27.638  1.00  0.00     0.167 HD
ATOM     63  C   UNL A   1      43.990  30.757  28.678  1.00  0.00     0.074 A 
ATOM     64  C   UNL A   1      42.941  31.581  29.244  1.00  0.00     0.031 C 
ATOM     65  C   UNL A   1      45.252  31.192  28.433  1.00  0.00     0.037 A 
BRANCH  52  66
ATOM     66  C   UNL A   1      49.036  26.866  26.153  1.00  0.00     0.064 A 
ATOM     67  C   UNL A   1      50.005  26.369  27.040  1.00  0.00     0.173 A 
ATOM     68  C   UNL A   1      49.388  26.983  24.800  1.00  0.00     0.173 A 
ATOM     69  F   UNL A   1      49.727  26.253  28.347  1.00  0.00    -0.203 F 
ATOM     70  C   UNL A   1      51.279  26.029  26.593  1.00  0.00     0.198 A 
ATOM     71  C   UNL A   1      50.652  26.610  24.351  1.00  0.00     0.198 A 
ATOM     72  F   UNL A   1      48.501  27.452  23.909  1.00  0.00    -0.203 F 
ATOM     73  F   UNL A   1      52.203  25.606  27.466  1.00  0.00    -0.200 F 
ATOM     74  C   UNL A   1      51.598  26.141  25.247  1.00  0.00     0.200 A 
ATOM     75  F   UNL A   1      50.953  26.707  23.048  1.00  0.00    -0.200 F 
ATOM     76  F   UNL A   1      52.822  25.804  24.817  1.00  0.00    -0.200 F 
ENDBRANCH  52  66
BRANCH  53  77
ATOM     77  C   UNL A   1      39.741  28.828  29.337  1.00  0.00     0.064 A 
ATOM     78  C   UNL A   1      39.396  28.575  30.673  1.00  0.00     0.173 A 
ATOM     79  C   UNL A   1      38.746  29.349  28.496  1.00  0.00     0.173 A 
ATOM     80  F   UNL A   1      40.304  28.057  31.512  1.00  0.00    -0.203 F 
ATOM     81  C   UNL A   1      38.104  28.809  31.140  1.00  0.00     0.198 A 
ATOM     82  C   UNL A   1      37.464  29.614  28.972  1.00  0.00     0.198 A 
ATOM     83  F   UNL A   1      39.023  29.610  27.210  1.00  0.00    -0.203 F 
ATOM     84  F   UNL A   1      37.788  28.507  32.406  1.00  0.00    -0.200 F 
ATOM     85  C   UNL A   1      37.141  29.334  30.291  1.00  0.00     0.200 A 
ATOM     86  F   UNL A   1      36.541  30.134  28.152  1.00  0.00    -0.200 F 
ATOM     87  F   UNL A   1      35.899  29.559  30.741  1.00  0.00    -0.200 F 
ENDBRANCH  53  77
BRANCH  65  88
ATOM     88  C   UNL A   1      45.555  32.634  28.728  1.00  0.00     0.064 A 
ATOM     89  C   UNL A   1      45.333  33.647  27.784  1.00  0.00     0.173 A 
ATOM     90  C   UNL A   1      46.036  33.009  29.993  1.00  0.00     0.173 A 
ATOM     91  F   UNL A   1      44.888  33.339  26.556  1.00  0.00    -0.203 F 
ATOM     92  C   UNL A   1      45.611  34.977  28.084  1.00  0.00     0.198 A 
ATOM     93  C   UNL A   1      46.275  34.345  30.302  1.00  0.00     0.198 A 
ATOM     94  F   UNL A   1      46.256  32.081  30.936  1.00  0.00    -0.203 F 
ATOM     95  F   UNL A   1      45.444  35.921  27.148  1.00  0.00    -0.200 F 
ATOM     96  C   UNL A   1      46.072  35.326  29.344  1.00  0.00     0.200 A 
ATOM     97  F   UNL A   1      46.703  34.681  31.526  1.00  0.00    -0.200 F 
ATOM     98  F   UNL A   1      46.329  36.609  29.633  1.00  0.00    -0.200 F 
ENDBRANCH  65  88
ENDBRANCH  39  40
ENDBRANCH  32  34
ENDBRANCH  31  32
ENDBRANCH  30  31
ENDBRANCH  29  30
ENDBRANCH  28  29
ENDBRANCH  27  28
ENDBRANCH  26  27
ENDBRANCH  25  26
ENDBRANCH   1  25
TORSDOF 24
ENDMDL
