MODEL 1
REMARK VINA RESULT:     -10.6      0.000      0.000
REMARK SMILES Cc1ccc(C(=O)OCCOCCOCCOCCOC(=O)c2ccc(-c3c4nc(c(-c5c(F)c(F)c(F)c(F)c5F)c5ccc([nH]5)c(-c5c(F)c(F)c(F)c(F)c5F)c5nc(c(-c6c(F)c(F)c(F)c(F)c6F)c6ccc3[nH]6)C=C5)C=C4)cc2)cc1NC(=O)c1ccc(Br)o1
REMARK SMILES IDX 14 1 13 2 12 3 11 4 10 5 9 6 8 7 6 8 7 9 5 10 1 11 2 12 3 13
REMARK SMILES IDX 87 14 4 15 86 16 88 17 89 18 90 20 91 21 92 22 96 23 93 24
REMARK SMILES IDX 94 25 95 26 15 27 16 28 17 29 18 30 19 31 20 32 21 33 22 34
REMARK SMILES IDX 23 35 24 36 85 37 25 38 84 39 26 40 27 41 28 42 78 43 29 44
REMARK SMILES IDX 83 45 77 46 79 47 30 48 82 49 76 50 75 51 31 53 63 54 43 55
REMARK SMILES IDX 62 56 44 57 47 58 61 59 80 60 45 61 46 62 60 64 81 65 48 66
REMARK SMILES IDX 32 67 33 68 41 69 34 70 35 71 39 72 42 73 36 74 37 75 40 76
REMARK SMILES IDX 38 77 64 78 65 79 73 80 66 81 67 82 71 83 74 84 68 85 69 86
REMARK SMILES IDX 72 87 70 88 49 89 50 90 58 91 51 92 52 93 56 94 59 95 53 96
REMARK SMILES IDX 54 97 57 98 55 99
REMARK H PARENT 88 19 79 52 47 63
REMARK Flexibility Score: inf
ROOT
ATOM      1  O   UNL A   1      44.085  20.198  24.441  1.00  0.00    -0.377 OA
ENDROOT
BRANCH   1   2
ATOM      2  C   UNL A   1      43.712  19.396  25.536  1.00  0.00     0.188 C 
BRANCH   2   3
ATOM      3  C   UNL A   1      42.297  19.098  26.114  1.00  0.00     0.188 C 
BRANCH   3   4
ATOM      4  O   UNL A   1      41.034  19.517  25.641  1.00  0.00    -0.376 OA
BRANCH   4   5
ATOM      5  C   UNL A   1      40.431  20.463  26.478  1.00  0.00     0.202 C 
BRANCH   5   6
ATOM      6  C   UNL A   1      39.539  21.610  26.076  1.00  0.00     0.261 C 
BRANCH   6   7
ATOM      7  O   UNL A   1      38.295  21.374  25.550  1.00  0.00    -0.460 OA
BRANCH   7   8
ATOM      8  C   UNL A   1      37.502  22.412  25.726  1.00  0.00     0.338 C 
ATOM      9  O   UNL A   1      37.804  23.582  25.810  1.00  0.00    -0.246 OA
BRANCH   8  10
ATOM     10  C   UNL A   1      36.218  21.796  25.438  1.00  0.00     0.062 A 
ATOM     11  C   UNL A   1      32.518  19.879  24.811  1.00  0.00     0.046 C 
ATOM     12  C   UNL A   1      33.776  20.551  25.271  1.00  0.00    -0.027 A 
ATOM     13  C   UNL A   1      34.975  19.891  24.881  1.00  0.00     0.006 A 
ATOM     14  C   UNL A   1      33.875  21.764  25.971  1.00  0.00     0.045 A 
ATOM     15  C   UNL A   1      36.208  20.494  25.018  1.00  0.00     0.016 A 
ATOM     16  C   UNL A   1      35.052  22.421  25.887  1.00  0.00     0.042 A 
BRANCH  14  17
ATOM     17  N   UNL A   1      32.931  22.419  26.763  1.00  0.00    -0.319 N 
ATOM     18  C   UNL A   1      32.006  23.483  26.415  1.00  0.00     0.291 C 
ATOM     19  H   UNL A   1      32.886  22.115  27.698  1.00  0.00     0.170 HD
ATOM     20  O   UNL A   1      31.268  23.714  27.399  1.00  0.00    -0.265 OA
BRANCH  18  21
ATOM     21  C   UNL A   1      31.844  24.471  24.985  1.00  0.00     0.193 A 
ATOM     22  C   UNL A   1      30.440  24.877  23.826  1.00  0.00     0.057 A 
ATOM     23  O   UNL A   1      32.270  26.146  25.649  1.00  0.00    -0.444 OA
ATOM     24  C   UNL A   1      29.898  26.860  24.076  1.00  0.00     0.059 A 
ATOM     25  C   UNL A   1      31.206  27.645  25.216  1.00  0.00     0.170 A 
ATOM     26  Br  UNL A   1      31.724  28.160  27.331  1.00  0.00    -0.008 Br
ENDBRANCH  18  21
ENDBRANCH  14  17
ENDBRANCH   8  10
ENDBRANCH   7   8
ENDBRANCH   6   7
ENDBRANCH   5   6
ENDBRANCH   4   5
ENDBRANCH   3   4
ENDBRANCH   2   3
ENDBRANCH   1   2
BRANCH   1  27
ATOM     27  C   UNL A   1      44.231  21.573  24.651  1.00  0.00     0.188 C 
BRANCH  27  28
ATOM     28  C   UNL A   1      43.356  22.462  25.409  1.00  0.00     0.188 C 
BRANCH  28  29
ATOM     29  O   UNL A   1      44.248  23.420  25.915  1.00  0.00    -0.376 OA
BRANCH  29  30
ATOM     30  C   UNL A   1      45.520  22.967  26.239  1.00  0.00     0.202 C 
BRANCH  30  31
ATOM     31  C   UNL A   1      46.576  24.031  25.995  1.00  0.00     0.261 C 
BRANCH  31  32
ATOM     32  O   UNL A   1      46.113  24.941  24.935  1.00  0.00    -0.460 OA
BRANCH  32  33
ATOM     33  C   UNL A   1      46.730  26.126  24.618  1.00  0.00     0.338 C 
ATOM     34  O   UNL A   1      47.727  26.198  23.914  1.00  0.00    -0.246 OA
BRANCH  33  35
ATOM     35  C   UNL A   1      46.080  27.370  25.188  1.00  0.00     0.060 A 
ATOM     36  C   UNL A   1      46.811  28.504  25.519  1.00  0.00     0.016 A 
ATOM     37  C   UNL A   1      44.871  27.316  25.807  1.00  0.00     0.016 A 
ATOM     38  C   UNL A   1      46.599  29.145  26.787  1.00  0.00     0.010 A 
ATOM     39  C   UNL A   1      44.809  27.829  27.135  1.00  0.00     0.010 A 
ATOM     40  C   UNL A   1      45.832  28.560  27.816  1.00  0.00    -0.014 A 
BRANCH  40  41
ATOM     41  C   UNL A   1      45.772  29.016  29.628  1.00  0.00     0.031 A 
ATOM     42  C   UNL A   1      46.699  27.283  29.805  1.00  0.00     0.074 A 
ATOM     43  C   UNL A   1      44.580  29.914  30.860  1.00  0.00     0.049 A 
ATOM     44  N   UNL A   1      47.191  26.647  30.858  1.00  0.00    -0.248 NA
ATOM     45  C   UNL A   1      47.200  26.305  28.675  1.00  0.00     0.031 C 
ATOM     46  C   UNL A   1      44.504  30.188  32.605  1.00  0.00     0.029 A 
ATOM     47  N   UNL A   1      43.067  30.264  30.940  1.00  0.00    -0.354 N 
ATOM     48  C   UNL A   1      48.408  25.860  30.529  1.00  0.00     0.074 A 
ATOM     49  C   UNL A   1      48.287  25.642  29.131  1.00  0.00     0.031 C 
ATOM     50  C   UNL A   1      43.272  29.964  33.091  1.00  0.00     0.029 A 
ATOM     51  C   UNL A   1      42.440  29.558  31.971  1.00  0.00     0.049 A 
ATOM     52  H   UNL A   1      42.611  30.901  30.343  1.00  0.00     0.167 HD
ATOM     53  C   UNL A   1      49.431  25.673  31.483  1.00  0.00     0.037 A 
ATOM     54  C   UNL A   1      41.921  28.295  31.722  1.00  0.00     0.037 A 
ATOM     55  C   UNL A   1      48.838  26.050  32.753  1.00  0.00     0.049 A 
ATOM     56  C   UNL A   1      42.731  27.354  32.748  1.00  0.00     0.074 A 
ATOM     57  C   UNL A   1      49.051  27.074  33.653  1.00  0.00     0.029 A 
ATOM     58  N   UNL A   1      47.612  25.498  33.059  1.00  0.00    -0.354 N 
ATOM     59  N   UNL A   1      43.946  26.828  32.641  1.00  0.00    -0.248 NA
ATOM     60  C   UNL A   1      42.285  27.361  34.156  1.00  0.00     0.031 C 
ATOM     61  C   UNL A   1      47.795  27.346  34.254  1.00  0.00     0.029 A 
ATOM     62  C   UNL A   1      46.886  26.385  33.822  1.00  0.00     0.049 A 
ATOM     63  H   UNL A   1      47.303  24.606  32.778  1.00  0.00     0.167 HD
ATOM     64  C   UNL A   1      44.410  26.454  33.900  1.00  0.00     0.074 A 
ATOM     65  C   UNL A   1      43.354  26.877  34.801  1.00  0.00     0.031 C 
ATOM     66  C   UNL A   1      45.617  25.949  34.328  1.00  0.00     0.037 A 
BRANCH  53  67
ATOM     67  C   UNL A   1      51.044  25.451  31.463  1.00  0.00     0.064 A 
ATOM     68  C   UNL A   1      51.636  24.387  32.242  1.00  0.00     0.173 A 
ATOM     69  C   UNL A   1      52.040  26.243  30.851  1.00  0.00     0.173 A 
ATOM     70  F   UNL A   1      50.893  23.408  32.771  1.00  0.00    -0.203 F 
ATOM     71  C   UNL A   1      53.018  24.215  32.489  1.00  0.00     0.198 A 
ATOM     72  C   UNL A   1      53.450  26.016  31.036  1.00  0.00     0.198 A 
ATOM     73  F   UNL A   1      51.701  27.251  30.037  1.00  0.00    -0.203 F 
ATOM     74  F   UNL A   1      53.439  23.234  33.308  1.00  0.00    -0.200 F 
ATOM     75  C   UNL A   1      53.933  25.027  31.878  1.00  0.00     0.200 A 
ATOM     76  F   UNL A   1      54.350  26.767  30.379  1.00  0.00    -0.200 F 
ATOM     77  F   UNL A   1      55.250  24.830  32.063  1.00  0.00    -0.200 F 
ENDBRANCH  53  67
BRANCH  54  78
ATOM     78  C   UNL A   1      41.460  27.955  30.190  1.00  0.00     0.064 A 
ATOM     79  C   UNL A   1      42.085  26.970  29.353  1.00  0.00     0.173 A 
ATOM     80  C   UNL A   1      40.255  28.405  29.617  1.00  0.00     0.173 A 
ATOM     81  F   UNL A   1      43.345  26.577  29.594  1.00  0.00    -0.203 F 
ATOM     82  C   UNL A   1      41.388  26.254  28.309  1.00  0.00     0.198 A 
ATOM     83  C   UNL A   1      39.620  27.772  28.504  1.00  0.00     0.198 A 
ATOM     84  F   UNL A   1      39.579  29.405  30.194  1.00  0.00    -0.203 F 
ATOM     85  F   UNL A   1      41.858  25.086  27.821  1.00  0.00    -0.200 F 
ATOM     86  C   UNL A   1      40.120  26.614  27.946  1.00  0.00     0.200 A 
ATOM     87  F   UNL A   1      38.421  28.206  28.083  1.00  0.00    -0.200 F 
ATOM     88  F   UNL A   1      39.372  25.832  27.147  1.00  0.00    -0.200 F 
ENDBRANCH  54  78
BRANCH  66  89
ATOM     89  C   UNL A   1      45.727  24.889  35.417  1.00  0.00     0.064 A 
ATOM     90  C   UNL A   1      45.832  25.242  36.763  1.00  0.00     0.173 A 
ATOM     91  C   UNL A   1      45.512  23.497  35.171  1.00  0.00     0.173 A 
ATOM     92  F   UNL A   1      45.846  26.524  37.153  1.00  0.00    -0.203 F 
ATOM     93  C   UNL A   1      45.864  24.286  37.771  1.00  0.00     0.198 A 
ATOM     94  C   UNL A   1      45.448  22.558  36.190  1.00  0.00     0.198 A 
ATOM     95  F   UNL A   1      45.303  22.989  33.947  1.00  0.00    -0.203 F 
ATOM     96  F   UNL A   1      46.064  24.683  39.032  1.00  0.00    -0.200 F 
ATOM     97  C   UNL A   1      45.666  22.948  37.488  1.00  0.00     0.200 A 
ATOM     98  F   UNL A   1      45.155  21.281  35.902  1.00  0.00    -0.200 F 
ATOM     99  F   UNL A   1      45.663  22.042  38.471  1.00  0.00    -0.200 F 
ENDBRANCH  66  89
ENDBRANCH  40  41
ENDBRANCH  33  35
ENDBRANCH  32  33
ENDBRANCH  31  32
ENDBRANCH  30  31
ENDBRANCH  29  30
ENDBRANCH  28  29
ENDBRANCH  27  28
ENDBRANCH   1  27
TORSDOF 22
ENDMDL
MODEL 2
REMARK VINA RESULT:     -10.4      4.857      9.786
REMARK SMILES Cc1ccc(C(=O)OCCOCCOCCOCCOC(=O)c2ccc(-c3c4nc(c(-c5c(F)c(F)c(F)c(F)c5F)c5ccc([nH]5)c(-c5c(F)c(F)c(F)c(F)c5F)c5nc(c(-c6c(F)c(F)c(F)c(F)c6F)c6ccc3[nH]6)C=C5)C=C4)cc2)cc1NC(=O)c1ccc(Br)o1
REMARK SMILES IDX 14 1 13 2 12 3 11 4 10 5 9 6 8 7 6 8 7 9 5 10 1 11 2 12 3 13
REMARK SMILES IDX 87 14 4 15 86 16 88 17 89 18 90 20 91 21 92 22 96 23 93 24
REMARK SMILES IDX 94 25 95 26 15 27 16 28 17 29 18 30 19 31 20 32 21 33 22 34
REMARK SMILES IDX 23 35 24 36 85 37 25 38 84 39 26 40 27 41 28 42 78 43 29 44
REMARK SMILES IDX 83 45 77 46 79 47 30 48 82 49 76 50 75 51 31 53 63 54 43 55
REMARK SMILES IDX 62 56 44 57 47 58 61 59 80 60 45 61 46 62 60 64 81 65 48 66
REMARK SMILES IDX 32 67 33 68 41 69 34 70 35 71 39 72 42 73 36 74 37 75 40 76
REMARK SMILES IDX 38 77 64 78 65 79 73 80 66 81 67 82 71 83 74 84 68 85 69 86
REMARK SMILES IDX 72 87 70 88 49 89 50 90 58 91 51 92 52 93 56 94 59 95 53 96
REMARK SMILES IDX 54 97 57 98 55 99
REMARK H PARENT 88 19 79 52 47 63
REMARK Flexibility Score: inf
ROOT
ATOM      1  O   UNL A   1      36.241  30.805  27.640  1.00  0.00    -0.377 OA
ENDROOT
BRANCH   1   2
ATOM      2  C   UNL A   1      35.474  29.685  27.264  1.00  0.00     0.188 C 
BRANCH   2   3
ATOM      3  C   UNL A   1      34.013  29.307  27.648  1.00  0.00     0.188 C 
BRANCH   3   4
ATOM      4  O   UNL A   1      32.846  30.102  27.607  1.00  0.00    -0.376 OA
BRANCH   4   5
ATOM      5  C   UNL A   1      32.534  30.537  26.313  1.00  0.00     0.202 C 
BRANCH   5   6
ATOM      6  C   UNL A   1      31.538  29.934  25.357  1.00  0.00     0.261 C 
BRANCH   6   7
ATOM      7  O   UNL A   1      31.680  28.640  24.927  1.00  0.00    -0.460 OA
BRANCH   7   8
ATOM      8  C   UNL A   1      30.879  28.387  23.912  1.00  0.00     0.338 C 
ATOM      9  O   UNL A   1      30.093  29.133  23.371  1.00  0.00    -0.246 OA
BRANCH   8  10
ATOM     10  C   UNL A   1      31.457  27.140  23.441  1.00  0.00     0.062 A 
ATOM     11  C   UNL A   1      33.308  23.656  21.959  1.00  0.00     0.046 C 
ATOM     12  C   UNL A   1      32.876  24.984  22.503  1.00  0.00    -0.027 A 
ATOM     13  C   UNL A   1      31.972  25.698  21.669  1.00  0.00     0.006 A 
ATOM     14  C   UNL A   1      33.222  25.537  23.747  1.00  0.00     0.045 A 
ATOM     15  C   UNL A   1      31.302  26.816  22.122  1.00  0.00     0.016 A 
ATOM     16  C   UNL A   1      32.396  26.484  24.242  1.00  0.00     0.042 A 
BRANCH  14  17
ATOM     17  N   UNL A   1      34.309  25.262  24.577  1.00  0.00    -0.319 N 
ATOM     18  C   UNL A   1      34.596  24.078  25.367  1.00  0.00     0.291 C 
ATOM     19  H   UNL A   1      34.982  25.978  24.637  1.00  0.00     0.170 HD
ATOM     20  O   UNL A   1      35.726  24.207  25.890  1.00  0.00    -0.265 OA
BRANCH  18  21
ATOM     21  C   UNL A   1      33.645  22.664  25.744  1.00  0.00     0.193 A 
ATOM     22  C   UNL A   1      32.281  21.734  24.876  1.00  0.00     0.057 A 
ATOM     23  O   UNL A   1      34.957  21.364  25.868  1.00  0.00    -0.444 OA
ATOM     24  C   UNL A   1      32.997  19.892  24.255  1.00  0.00     0.059 A 
ATOM     25  C   UNL A   1      34.725  19.689  25.026  1.00  0.00     0.170 A 
ATOM     26  Br  UNL A   1      36.922  19.962  24.702  1.00  0.00    -0.008 Br
ENDBRANCH  18  21
ENDBRANCH  14  17
ENDBRANCH   8  10
ENDBRANCH   7   8
ENDBRANCH   6   7
ENDBRANCH   5   6
ENDBRANCH   4   5
ENDBRANCH   3   4
ENDBRANCH   2   3
ENDBRANCH   1   2
BRANCH   1  27
ATOM     27  C   UNL A   1      35.606  32.050  27.693  1.00  0.00     0.188 C 
BRANCH  27  28
ATOM     28  C   UNL A   1      36.093  33.278  28.313  1.00  0.00     0.188 C 
BRANCH  28  29
ATOM     29  O   UNL A   1      34.953  34.096  28.320  1.00  0.00    -0.376 OA
BRANCH  29  30
ATOM     30  C   UNL A   1      34.623  34.685  29.534  1.00  0.00     0.202 C 
BRANCH  30  31
ATOM     31  C   UNL A   1      34.221  33.650  30.571  1.00  0.00     0.261 C 
BRANCH  31  32
ATOM     32  O   UNL A   1      34.660  34.101  31.902  1.00  0.00    -0.460 OA
BRANCH  32  33
ATOM     33  C   UNL A   1      35.682  33.518  32.610  1.00  0.00     0.338 C 
ATOM     34  O   UNL A   1      35.603  32.408  33.116  1.00  0.00    -0.246 OA
BRANCH  33  35
ATOM     35  C   UNL A   1      36.951  34.339  32.716  1.00  0.00     0.060 A 
ATOM     36  C   UNL A   1      37.797  34.542  31.635  1.00  0.00     0.016 A 
ATOM     37  C   UNL A   1      37.558  34.550  33.915  1.00  0.00     0.016 A 
ATOM     38  C   UNL A   1      39.214  34.354  31.790  1.00  0.00     0.010 A 
ATOM     39  C   UNL A   1      38.928  34.169  34.013  1.00  0.00     0.010 A 
ATOM     40  C   UNL A   1      39.780  33.763  32.939  1.00  0.00    -0.014 A 
BRANCH  40  41
ATOM     41  C   UNL A   1      41.501  33.071  33.164  1.00  0.00     0.031 A 
ATOM     42  C   UNL A   1      40.589  31.396  32.657  1.00  0.00     0.074 A 
ATOM     43  C   UNL A   1      43.039  33.346  34.308  1.00  0.00     0.049 A 
ATOM     44  N   UNL A   1      41.042  30.165  32.467  1.00  0.00    -0.248 NA
ATOM     45  C   UNL A   1      39.093  31.176  32.213  1.00  0.00     0.031 C 
ATOM     46  C   UNL A   1      44.597  32.556  34.578  1.00  0.00     0.029 A 
ATOM     47  N   UNL A   1      43.329  33.954  35.709  1.00  0.00    -0.354 N 
ATOM     48  C   UNL A   1      40.293  29.442  31.407  1.00  0.00     0.074 A 
ATOM     49  C   UNL A   1      39.046  30.122  31.366  1.00  0.00     0.031 C 
ATOM     50  C   UNL A   1      44.863  32.413  35.886  1.00  0.00     0.029 A 
ATOM     51  C   UNL A   1      43.733  32.967  36.614  1.00  0.00     0.049 A 
ATOM     52  H   UNL A   1      43.241  34.909  35.931  1.00  0.00     0.167 HD
ATOM     53  C   UNL A   1      40.931  28.479  30.595  1.00  0.00     0.037 A 
ATOM     54  C   UNL A   1      42.780  32.272  37.344  1.00  0.00     0.037 A 
ATOM     55  C   UNL A   1      42.178  28.179  31.273  1.00  0.00     0.049 A 
ATOM     56  C   UNL A   1      43.024  30.740  36.906  1.00  0.00     0.074 A 
ATOM     57  C   UNL A   1      43.511  28.388  30.984  1.00  0.00     0.029 A 
ATOM     58  N   UNL A   1      42.103  27.886  32.620  1.00  0.00    -0.354 N 
ATOM     59  N   UNL A   1      42.609  30.088  35.825  1.00  0.00    -0.248 NA
ATOM     60  C   UNL A   1      44.156  30.036  37.540  1.00  0.00     0.031 C 
ATOM     61  C   UNL A   1      44.168  28.565  32.229  1.00  0.00     0.029 A 
ATOM     62  C   UNL A   1      43.253  28.309  33.247  1.00  0.00     0.049 A 
ATOM     63  H   UNL A   1      41.344  27.443  33.064  1.00  0.00     0.167 HD
ATOM     64  C   UNL A   1      43.383  28.946  35.638  1.00  0.00     0.074 A 
ATOM     65  C   UNL A   1      44.368  29.015  36.701  1.00  0.00     0.031 C 
ATOM     66  C   UNL A   1      43.408  28.000  34.638  1.00  0.00     0.037 A 
BRANCH  53  67
ATOM     67  C   UNL A   1      40.764  27.910  29.079  1.00  0.00     0.064 A 
ATOM     68  C   UNL A   1      39.927  26.758  28.829  1.00  0.00     0.173 A 
ATOM     69  C   UNL A   1      41.427  28.318  27.901  1.00  0.00     0.173 A 
ATOM     70  F   UNL A   1      39.072  26.300  29.749  1.00  0.00    -0.203 F 
ATOM     71  C   UNL A   1      39.863  26.032  27.617  1.00  0.00     0.198 A 
ATOM     72  C   UNL A   1      41.296  27.626  26.644  1.00  0.00     0.198 A 
ATOM     73  F   UNL A   1      42.210  29.405  27.904  1.00  0.00    -0.203 F 
ATOM     74  F   UNL A   1      39.111  24.920  27.536  1.00  0.00    -0.200 F 
ATOM     75  C   UNL A   1      40.543  26.470  26.514  1.00  0.00     0.200 A 
ATOM     76  F   UNL A   1      41.906  28.099  25.544  1.00  0.00    -0.200 F 
ATOM     77  F   UNL A   1      40.439  25.818  25.343  1.00  0.00    -0.200 F 
ENDBRANCH  53  67
BRANCH  54  78
ATOM     78  C   UNL A   1      41.356  33.022  37.638  1.00  0.00     0.064 A 
ATOM     79  C   UNL A   1      40.093  32.612  37.094  1.00  0.00     0.173 A 
ATOM     80  C   UNL A   1      41.176  33.989  38.646  1.00  0.00     0.173 A 
ATOM     81  F   UNL A   1      40.045  31.873  35.974  1.00  0.00    -0.203 F 
ATOM     82  C   UNL A   1      38.829  32.839  37.756  1.00  0.00     0.198 A 
ATOM     83  C   UNL A   1      39.907  34.305  39.223  1.00  0.00     0.198 A 
ATOM     84  F   UNL A   1      42.241  34.576  39.201  1.00  0.00    -0.203 F 
ATOM     85  F   UNL A   1      37.731  32.116  37.445  1.00  0.00    -0.200 F 
ATOM     86  C   UNL A   1      38.760  33.626  38.872  1.00  0.00     0.200 A 
ATOM     87  F   UNL A   1      39.837  35.169  40.249  1.00  0.00    -0.200 F 
ATOM     88  F   UNL A   1      37.650  33.668  39.630  1.00  0.00    -0.200 F 
ENDBRANCH  54  78
BRANCH  66  89
ATOM     89  C   UNL A   1      43.638  26.519  34.912  1.00  0.00     0.064 A 
ATOM     90  C   UNL A   1      42.570  25.652  35.147  1.00  0.00     0.173 A 
ATOM     91  C   UNL A   1      44.906  25.883  34.730  1.00  0.00     0.173 A 
ATOM     92  F   UNL A   1      41.303  26.085  35.149  1.00  0.00    -0.203 F 
ATOM     93  C   UNL A   1      42.761  24.288  35.330  1.00  0.00     0.198 A 
ATOM     94  C   UNL A   1      45.074  24.508  34.819  1.00  0.00     0.198 A 
ATOM     95  F   UNL A   1      46.025  26.549  34.412  1.00  0.00    -0.203 F 
ATOM     96  F   UNL A   1      41.709  23.525  35.648  1.00  0.00    -0.200 F 
ATOM     97  C   UNL A   1      44.007  23.714  35.160  1.00  0.00     0.200 A 
ATOM     98  F   UNL A   1      46.270  23.965  34.551  1.00  0.00    -0.200 F 
ATOM     99  F   UNL A   1      44.170  22.395  35.302  1.00  0.00    -0.200 F 
ENDBRANCH  66  89
ENDBRANCH  40  41
ENDBRANCH  33  35
ENDBRANCH  32  33
ENDBRANCH  31  32
ENDBRANCH  30  31
ENDBRANCH  29  30
ENDBRANCH  28  29
ENDBRANCH  27  28
ENDBRANCH   1  27
TORSDOF 22
ENDMDL
MODEL 3
REMARK VINA RESULT:     -10.4      6.444     11.615
REMARK SMILES Cc1ccc(C(=O)OCCOCCOCCOCCOC(=O)c2ccc(-c3c4nc(c(-c5c(F)c(F)c(F)c(F)c5F)c5ccc([nH]5)c(-c5c(F)c(F)c(F)c(F)c5F)c5nc(c(-c6c(F)c(F)c(F)c(F)c6F)c6ccc3[nH]6)C=C5)C=C4)cc2)cc1NC(=O)c1ccc(Br)o1
REMARK SMILES IDX 14 1 13 2 12 3 11 4 10 5 9 6 8 7 6 8 7 9 5 10 1 11 2 12 3 13
REMARK SMILES IDX 87 14 4 15 86 16 88 17 89 18 90 20 91 21 92 22 96 23 93 24
REMARK SMILES IDX 94 25 95 26 15 27 16 28 17 29 18 30 19 31 20 32 21 33 22 34
REMARK SMILES IDX 23 35 24 36 85 37 25 38 84 39 26 40 27 41 28 42 78 43 29 44
REMARK SMILES IDX 83 45 77 46 79 47 30 48 82 49 76 50 75 51 31 53 63 54 43 55
REMARK SMILES IDX 62 56 44 57 47 58 61 59 80 60 45 61 46 62 60 64 81 65 48 66
REMARK SMILES IDX 32 67 33 68 41 69 34 70 35 71 39 72 42 73 36 74 37 75 40 76
REMARK SMILES IDX 38 77 64 78 65 79 73 80 66 81 67 82 71 83 74 84 68 85 69 86
REMARK SMILES IDX 72 87 70 88 49 89 50 90 58 91 51 92 52 93 56 94 59 95 53 96
REMARK SMILES IDX 54 97 57 98 55 99
REMARK H PARENT 88 19 79 52 47 63
REMARK Flexibility Score: inf
ROOT
ATOM      1  O   UNL A   1      37.483  33.750  29.152  1.00  0.00    -0.377 OA
ENDROOT
BRANCH   1   2
ATOM      2  C   UNL A   1      36.106  33.827  29.439  1.00  0.00     0.188 C 
BRANCH   2   3
ATOM      3  C   UNL A   1      35.123  32.712  29.901  1.00  0.00     0.188 C 
BRANCH   3   4
ATOM      4  O   UNL A   1      34.774  31.506  29.254  1.00  0.00    -0.376 OA
BRANCH   4   5
ATOM      5  C   UNL A   1      34.478  31.688  27.898  1.00  0.00     0.202 C 
BRANCH   5   6
ATOM      6  C   UNL A   1      33.330  31.095  27.121  1.00  0.00     0.261 C 
BRANCH   6   7
ATOM      7  O   UNL A   1      32.912  29.813  27.366  1.00  0.00    -0.460 OA
BRANCH   7   8
ATOM      8  C   UNL A   1      33.480  28.962  26.535  1.00  0.00     0.338 C 
ATOM      9  O   UNL A   1      34.626  28.572  26.526  1.00  0.00    -0.246 OA
BRANCH   8  10
ATOM     10  C   UNL A   1      32.297  28.399  25.906  1.00  0.00     0.062 A 
ATOM     11  C   UNL A   1      29.014  26.603  23.968  1.00  0.00     0.046 C 
ATOM     12  C   UNL A   1      30.274  27.016  24.667  1.00  0.00    -0.027 A 
ATOM     13  C   UNL A   1      31.046  27.987  23.970  1.00  0.00     0.006 A 
ATOM     14  C   UNL A   1      30.710  26.594  25.933  1.00  0.00     0.045 A 
ATOM     15  C   UNL A   1      32.100  28.640  24.574  1.00  0.00     0.016 A 
ATOM     16  C   UNL A   1      31.587  27.398  26.574  1.00  0.00     0.042 A 
BRANCH  14  17
ATOM     17  N   UNL A   1      30.380  25.448  26.658  1.00  0.00    -0.319 N 
ATOM     18  C   UNL A   1      30.565  24.049  26.314  1.00  0.00     0.291 C 
ATOM     19  H   UNL A   1      29.958  25.612  27.531  1.00  0.00     0.170 HD
ATOM     20  O   UNL A   1      30.217  23.345  27.289  1.00  0.00    -0.265 OA
BRANCH  18  21
ATOM     21  C   UNL A   1      31.066  23.263  24.839  1.00  0.00     0.193 A 
ATOM     22  C   UNL A   1      31.766  23.853  23.213  1.00  0.00     0.057 A 
ATOM     23  O   UNL A   1      32.429  22.170  25.452  1.00  0.00    -0.444 OA
ATOM     24  C   UNL A   1      33.742  23.250  23.061  1.00  0.00     0.059 A 
ATOM     25  C   UNL A   1      34.069  22.073  24.521  1.00  0.00     0.170 A 
ATOM     26  Br  UNL A   1      34.828  21.922  26.621  1.00  0.00    -0.008 Br
ENDBRANCH  18  21
ENDBRANCH  14  17
ENDBRANCH   8  10
ENDBRANCH   7   8
ENDBRANCH   6   7
ENDBRANCH   5   6
ENDBRANCH   4   5
ENDBRANCH   3   4
ENDBRANCH   2   3
ENDBRANCH   1   2
BRANCH   1  27
ATOM     27  C   UNL A   1      38.369  33.569  30.218  1.00  0.00     0.188 C 
BRANCH  27  28
ATOM     28  C   UNL A   1      38.698  34.514  31.280  1.00  0.00     0.188 C 
BRANCH  28  29
ATOM     29  O   UNL A   1      38.275  33.840  32.437  1.00  0.00    -0.376 OA
BRANCH  29  30
ATOM     30  C   UNL A   1      38.083  32.470  32.318  1.00  0.00     0.202 C 
BRANCH  30  31
ATOM     31  C   UNL A   1      37.657  31.844  33.634  1.00  0.00     0.261 C 
BRANCH  31  32
ATOM     32  O   UNL A   1      38.813  31.790  34.543  1.00  0.00    -0.460 OA
BRANCH  32  33
ATOM     33  C   UNL A   1      39.159  30.685  35.280  1.00  0.00     0.338 C 
ATOM     34  O   UNL A   1      38.538  30.311  36.265  1.00  0.00    -0.246 OA
BRANCH  33  35
ATOM     35  C   UNL A   1      40.370  29.923  34.781  1.00  0.00     0.060 A 
ATOM     36  C   UNL A   1      41.613  30.022  35.392  1.00  0.00     0.016 A 
ATOM     37  C   UNL A   1      40.440  29.464  33.503  1.00  0.00     0.016 A 
ATOM     38  C   UNL A   1      42.788  30.236  34.592  1.00  0.00     0.010 A 
ATOM     39  C   UNL A   1      41.568  29.877  32.737  1.00  0.00     0.010 A 
ATOM     40  C   UNL A   1      42.724  30.565  33.222  1.00  0.00    -0.014 A 
BRANCH  40  41
ATOM     41  C   UNL A   1      44.068  31.267  32.128  1.00  0.00     0.031 A 
ATOM     42  C   UNL A   1      43.030  32.923  32.395  1.00  0.00     0.074 A 
ATOM     43  C   UNL A   1      45.151  30.713  30.623  1.00  0.00     0.049 A 
ATOM     44  N   UNL A   1      43.232  34.168  31.990  1.00  0.00    -0.248 NA
ATOM     45  C   UNL A   1      41.761  33.165  33.298  1.00  0.00     0.031 C 
ATOM     46  C   UNL A   1      46.309  31.473  29.524  1.00  0.00     0.029 A 
ATOM     47  N   UNL A   1      45.082  29.647  29.493  1.00  0.00    -0.354 N 
ATOM     48  C   UNL A   1      42.742  35.172  32.970  1.00  0.00     0.074 A 
ATOM     49  C   UNL A   1      41.767  34.453  33.712  1.00  0.00     0.031 C 
ATOM     50  C   UNL A   1      46.081  31.132  28.246  1.00  0.00     0.029 A 
ATOM     51  C   UNL A   1      44.926  30.250  28.240  1.00  0.00     0.049 A 
ATOM     52  H   UNL A   1      45.140  28.675  29.639  1.00  0.00     0.167 HD
ATOM     53  C   UNL A   1      43.383  36.421  33.113  1.00  0.00     0.037 A 
ATOM     54  C   UNL A   1      43.653  30.532  27.766  1.00  0.00     0.037 A 
ATOM     55  C   UNL A   1      44.229  36.549  31.941  1.00  0.00     0.049 A 
ATOM     56  C   UNL A   1      43.681  32.130  27.562  1.00  0.00     0.074 A 
ATOM     57  C   UNL A   1      45.592  36.581  31.731  1.00  0.00     0.029 A 
ATOM     58  N   UNL A   1      43.641  36.303  30.717  1.00  0.00    -0.354 N 
ATOM     59  N   UNL A   1      43.519  33.104  28.451  1.00  0.00    -0.248 NA
ATOM     60  C   UNL A   1      44.346  32.636  26.345  1.00  0.00     0.031 C 
ATOM     61  C   UNL A   1      45.814  36.003  30.454  1.00  0.00     0.029 A 
ATOM     62  C   UNL A   1      44.577  35.775  29.856  1.00  0.00     0.049 A 
ATOM     63  H   UNL A   1      42.699  36.478  30.492  1.00  0.00     0.167 HD
ATOM     64  C   UNL A   1      44.035  34.294  27.945  1.00  0.00     0.074 A 
ATOM     65  C   UNL A   1      44.594  33.914  26.660  1.00  0.00     0.031 C 
ATOM     66  C   UNL A   1      44.183  35.547  28.497  1.00  0.00     0.037 A 
BRANCH  53  67
ATOM     67  C   UNL A   1      43.613  37.505  34.306  1.00  0.00     0.064 A 
ATOM     68  C   UNL A   1      43.608  38.919  34.007  1.00  0.00     0.173 A 
ATOM     69  C   UNL A   1      43.941  37.277  35.661  1.00  0.00     0.173 A 
ATOM     70  F   UNL A   1      43.159  39.387  32.836  1.00  0.00    -0.203 F 
ATOM     71  C   UNL A   1      44.006  39.951  34.888  1.00  0.00     0.198 A 
ATOM     72  C   UNL A   1      44.265  38.336  36.581  1.00  0.00     0.198 A 
ATOM     73  F   UNL A   1      43.945  36.033  36.158  1.00  0.00    -0.203 F 
ATOM     74  F   UNL A   1      44.043  41.226  34.461  1.00  0.00    -0.200 F 
ATOM     75  C   UNL A   1      44.329  39.662  36.186  1.00  0.00     0.200 A 
ATOM     76  F   UNL A   1      44.510  38.059  37.873  1.00  0.00    -0.200 F 
ATOM     77  F   UNL A   1      44.649  40.646  37.044  1.00  0.00    -0.200 F 
ENDBRANCH  53  67
BRANCH  54  78
ATOM     78  C   UNL A   1      42.420  29.606  28.312  1.00  0.00     0.064 A 
ATOM     79  C   UNL A   1      41.363  30.078  29.162  1.00  0.00     0.173 A 
ATOM     80  C   UNL A   1      42.123  28.324  27.811  1.00  0.00     0.173 A 
ATOM     81  F   UNL A   1      41.541  31.170  29.921  1.00  0.00    -0.203 F 
ATOM     82  C   UNL A   1      40.033  29.515  29.165  1.00  0.00     0.198 A 
ATOM     83  C   UNL A   1      40.838  27.709  27.917  1.00  0.00     0.198 A 
ATOM     84  F   UNL A   1      43.035  27.668  27.086  1.00  0.00    -0.203 F 
ATOM     85  F   UNL A   1      38.977  30.203  29.651  1.00  0.00    -0.200 F 
ATOM     86  C   UNL A   1      39.761  28.368  28.471  1.00  0.00     0.200 A 
ATOM     87  F   UNL A   1      40.612  26.525  27.324  1.00  0.00    -0.200 F 
ATOM     88  F   UNL A   1      38.496  27.954  28.273  1.00  0.00    -0.200 F 
ENDBRANCH  54  78
BRANCH  66  89
ATOM     89  C   UNL A   1      43.970  36.828  27.701  1.00  0.00     0.064 A 
ATOM     90  C   UNL A   1      42.691  37.350  27.497  1.00  0.00     0.173 A 
ATOM     91  C   UNL A   1      45.044  37.686  27.307  1.00  0.00     0.173 A 
ATOM     92  F   UNL A   1      41.601  36.745  27.986  1.00  0.00    -0.203 F 
ATOM     93  C   UNL A   1      42.489  38.553  26.832  1.00  0.00     0.198 A 
ATOM     94  C   UNL A   1      44.835  38.931  26.730  1.00  0.00     0.198 A 
ATOM     95  F   UNL A   1      46.336  37.387  27.506  1.00  0.00    -0.203 F 
ATOM     96  F   UNL A   1      41.236  38.951  26.583  1.00  0.00    -0.200 F 
ATOM     97  C   UNL A   1      43.556  39.346  26.455  1.00  0.00     0.200 A 
ATOM     98  F   UNL A   1      45.882  39.726  26.465  1.00  0.00    -0.200 F 
ATOM     99  F   UNL A   1      43.347  40.519  25.848  1.00  0.00    -0.200 F 
ENDBRANCH  66  89
ENDBRANCH  40  41
ENDBRANCH  33  35
ENDBRANCH  32  33
ENDBRANCH  31  32
ENDBRANCH  30  31
ENDBRANCH  29  30
ENDBRANCH  28  29
ENDBRANCH  27  28
ENDBRANCH   1  27
TORSDOF 22
ENDMDL
