MODEL 1
REMARK VINA RESULT:     -11.1      0.000      0.000
REMARK SMILES CC1(C)C(NC(=O)[C@@H]2CCC[C@@H](C(=O)OCCOCCOCCOCCOC(=O)c3ccc(-c4c5nc(c(-c6c(F)c(F)c(F)c(F)c6F)c6ccc([nH]6)c(-c6c(F)c(F)c(F)c(F)c6F)c6nc(c(-c7c(F)c(F)c(F)c(F)c7F)c7ccc4[nH]7)C=C6)C=C5)cc3)C2)C1(C)C
REMARK SMILES IDX 21 1 20 2 19 3 18 4 17 5 16 6 15 7 13 8 14 9 12 10 8 11 9 12
REMARK SMILES IDX 93 13 10 14 11 15 6 16 5 17 7 19 4 20 1 21 2 22 3 23 94 24
REMARK SMILES IDX 95 25 96 26 22 27 23 28 24 29 25 30 26 31 27 32 28 33 29 34
REMARK SMILES IDX 30 35 31 36 92 37 32 38 91 39 33 40 34 41 35 42 85 43 36 44
REMARK SMILES IDX 90 45 84 46 86 47 37 48 89 49 83 50 82 51 38 53 70 54 50 55
REMARK SMILES IDX 69 56 51 57 54 58 68 59 87 60 52 61 53 62 67 64 88 65 55 66
REMARK SMILES IDX 39 67 40 68 48 69 41 70 42 71 46 72 49 73 43 74 44 75 47 76
REMARK SMILES IDX 45 77 71 78 72 79 80 80 73 81 74 82 78 83 81 84 75 85 76 86
REMARK SMILES IDX 79 87 77 88 56 89 57 90 65 91 58 92 59 93 63 94 66 95 60 96
REMARK SMILES IDX 61 97 64 98 62 99
REMARK H PARENT 5 18 86 52 54 63
REMARK Flexibility Score: inf
ROOT
ATOM      1  O   UNL A   1      32.917  34.215  28.926  1.00  0.00    -0.377 OA
ENDROOT
BRANCH   1   2
ATOM      2  C   UNL A   1      34.144  33.739  28.406  1.00  0.00     0.188 C 
BRANCH   2   3
ATOM      3  C   UNL A   1      34.397  32.250  28.695  1.00  0.00     0.188 C 
BRANCH   3   4
ATOM      4  O   UNL A   1      35.010  31.444  27.709  1.00  0.00    -0.376 OA
BRANCH   4   5
ATOM      5  C   UNL A   1      34.431  30.236  27.250  1.00  0.00     0.202 C 
BRANCH   5   6
ATOM      6  C   UNL A   1      33.010  30.075  26.660  1.00  0.00     0.261 C 
BRANCH   6   7
ATOM      7  O   UNL A   1      32.417  28.778  26.546  1.00  0.00    -0.463 OA
BRANCH   7   8
ATOM      8  C   UNL A   1      32.001  28.459  25.301  1.00  0.00     0.309 C 
ATOM      9  O   UNL A   1      31.023  28.967  24.765  1.00  0.00    -0.252 OA
BRANCH   8  10
ATOM     10  C   UNL A   1      32.830  27.329  24.697  1.00  0.00     0.100 C 
ATOM     11  C   UNL A   1      31.626  25.303  25.716  1.00  0.00     0.079 C 
ATOM     12  C   UNL A   1      30.965  24.967  24.366  1.00  0.00     0.013 C 
ATOM     13  C   UNL A   1      32.864  26.219  25.731  1.00  0.00     0.028 C 
ATOM     14  C   UNL A   1      31.211  25.935  23.219  1.00  0.00     0.002 C 
ATOM     15  C   UNL A   1      32.503  26.737  23.318  1.00  0.00     0.015 C 
BRANCH  11  16
ATOM     16  C   UNL A   1      31.966  24.013  26.454  1.00  0.00     0.223 C 
ATOM     17  N   UNL A   1      32.913  23.174  25.916  1.00  0.00    -0.352 N 
ATOM     18  H   UNL A   1      33.104  22.353  26.425  1.00  0.00     0.163 HD
ATOM     19  O   UNL A   1      31.405  23.705  27.505  1.00  0.00    -0.275 OA
BRANCH  17  20
ATOM     20  C   UNL A   1      33.656  23.351  24.704  1.00  0.00     0.094 C 
ATOM     21  C   UNL A   1      36.057  23.089  23.726  1.00  0.00     0.014 C 
ATOM     22  C   UNL A   1      34.814  22.446  24.316  1.00  0.00    -0.007 C 
ATOM     23  C   UNL A   1      35.157  21.293  25.231  1.00  0.00     0.014 C 
ATOM     24  C   UNL A   1      33.502  22.478  23.497  1.00  0.00    -0.007 C 
ATOM     25  C   UNL A   1      33.440  23.238  22.184  1.00  0.00     0.014 C 
ATOM     26  C   UNL A   1      32.502  21.351  23.558  1.00  0.00     0.014 C 
ENDBRANCH  17  20
ENDBRANCH  11  16
ENDBRANCH   8  10
ENDBRANCH   7   8
ENDBRANCH   6   7
ENDBRANCH   5   6
ENDBRANCH   4   5
ENDBRANCH   3   4
ENDBRANCH   2   3
ENDBRANCH   1   2
BRANCH   1  27
ATOM     27  C   UNL A   1      32.894  35.603  29.192  1.00  0.00     0.188 C 
BRANCH  27  28
ATOM     28  C   UNL A   1      33.353  36.028  30.598  1.00  0.00     0.188 C 
BRANCH  28  29
ATOM     29  O   UNL A   1      32.812  35.208  31.629  1.00  0.00    -0.376 OA
BRANCH  29  30
ATOM     30  C   UNL A   1      33.664  34.690  32.634  1.00  0.00     0.202 C 
BRANCH  30  31
ATOM     31  C   UNL A   1      34.228  33.275  32.422  1.00  0.00     0.261 C 
BRANCH  31  32
ATOM     32  O   UNL A   1      35.627  33.175  32.114  1.00  0.00    -0.460 OA
BRANCH  32  33
ATOM     33  C   UNL A   1      36.420  32.493  32.967  1.00  0.00     0.338 C 
ATOM     34  O   UNL A   1      36.268  32.364  34.169  1.00  0.00    -0.246 OA
BRANCH  33  35
ATOM     35  C   UNL A   1      37.392  31.727  32.155  1.00  0.00     0.060 A 
ATOM     36  C   UNL A   1      38.379  30.981  32.815  1.00  0.00     0.016 A 
ATOM     37  C   UNL A   1      37.300  31.693  30.761  1.00  0.00     0.016 A 
ATOM     38  C   UNL A   1      39.289  30.219  32.085  1.00  0.00     0.010 A 
ATOM     39  C   UNL A   1      38.238  30.963  30.026  1.00  0.00     0.010 A 
ATOM     40  C   UNL A   1      39.256  30.250  30.685  1.00  0.00    -0.014 A 
BRANCH  40  41
ATOM     41  C   UNL A   1      40.431  29.758  29.927  1.00  0.00     0.031 A 
ATOM     42  C   UNL A   1      41.551  30.729  29.675  1.00  0.00     0.074 A 
ATOM     43  C   UNL A   1      40.527  28.484  29.511  1.00  0.00     0.049 A 
ATOM     44  N   UNL A   1      42.665  30.565  29.010  1.00  0.00    -0.248 NA
ATOM     45  C   UNL A   1      41.389  32.072  30.255  1.00  0.00     0.031 C 
ATOM     46  C   UNL A   1      39.536  27.438  29.748  1.00  0.00     0.029 A 
ATOM     47  N   UNL A   1      41.517  27.857  28.795  1.00  0.00    -0.354 N 
ATOM     48  C   UNL A   1      43.329  31.783  29.087  1.00  0.00     0.074 A 
ATOM     49  C   UNL A   1      42.482  32.685  29.833  1.00  0.00     0.031 C 
ATOM     50  C   UNL A   1      39.961  26.299  29.173  1.00  0.00     0.029 A 
ATOM     51  C   UNL A   1      41.237  26.546  28.501  1.00  0.00     0.049 A 
ATOM     52  H   UNL A   1      42.348  28.306  28.518  1.00  0.00     0.167 HD
ATOM     53  C   UNL A   1      44.541  32.115  28.587  1.00  0.00     0.037 A 
ATOM     54  C   UNL A   1      41.924  25.661  27.752  1.00  0.00     0.037 A 
ATOM     55  C   UNL A   1      45.377  31.215  27.841  1.00  0.00     0.049 A 
ATOM     56  C   UNL A   1      43.233  26.083  27.127  1.00  0.00     0.074 A 
ATOM     57  C   UNL A   1      46.626  31.449  27.295  1.00  0.00     0.029 A 
ATOM     58  N   UNL A   1      45.039  29.906  27.524  1.00  0.00    -0.354 N 
ATOM     59  N   UNL A   1      43.865  27.229  27.217  1.00  0.00    -0.248 NA
ATOM     60  C   UNL A   1      43.923  25.085  26.298  1.00  0.00     0.031 C 
ATOM     61  C   UNL A   1      47.016  30.304  26.594  1.00  0.00     0.029 A 
ATOM     62  C   UNL A   1      46.044  29.331  26.764  1.00  0.00     0.049 A 
ATOM     63  H   UNL A   1      44.209  29.454  27.800  1.00  0.00     0.167 HD
ATOM     64  C   UNL A   1      45.039  27.079  26.488  1.00  0.00     0.074 A 
ATOM     65  C   UNL A   1      45.037  25.726  25.973  1.00  0.00     0.031 C 
ATOM     66  C   UNL A   1      46.030  27.978  26.267  1.00  0.00     0.037 A 
BRANCH  53  67
ATOM     67  C   UNL A   1      45.014  33.524  28.800  1.00  0.00     0.064 A 
ATOM     68  C   UNL A   1      45.831  33.878  29.884  1.00  0.00     0.173 A 
ATOM     69  C   UNL A   1      44.654  34.534  27.894  1.00  0.00     0.173 A 
ATOM     70  F   UNL A   1      46.187  32.956  30.791  1.00  0.00    -0.203 F 
ATOM     71  C   UNL A   1      46.247  35.195  30.068  1.00  0.00     0.198 A 
ATOM     72  C   UNL A   1      45.100  35.842  28.062  1.00  0.00     0.198 A 
ATOM     73  F   UNL A   1      43.872  34.250  26.841  1.00  0.00    -0.203 F 
ATOM     74  F   UNL A   1      46.981  35.519  31.142  1.00  0.00    -0.200 F 
ATOM     75  C   UNL A   1      45.889  36.172  29.153  1.00  0.00     0.200 A 
ATOM     76  F   UNL A   1      44.761  36.783  27.170  1.00  0.00    -0.200 F 
ATOM     77  F   UNL A   1      46.295  37.438  29.328  1.00  0.00    -0.200 F 
ENDBRANCH  53  67
BRANCH  54  78
ATOM     78  C   UNL A   1      41.385  24.292  27.530  1.00  0.00     0.064 A 
ATOM     79  C   UNL A   1      41.994  23.169  28.107  1.00  0.00     0.173 A 
ATOM     80  C   UNL A   1      40.269  24.075  26.708  1.00  0.00     0.173 A 
ATOM     81  F   UNL A   1      43.083  23.318  28.875  1.00  0.00    -0.203 F 
ATOM     82  C   UNL A   1      41.520  21.882  27.855  1.00  0.00     0.198 A 
ATOM     83  C   UNL A   1      39.775  22.791  26.484  1.00  0.00     0.198 A 
ATOM     84  F   UNL A   1      39.651  25.113  26.125  1.00  0.00    -0.203 F 
ATOM     85  F   UNL A   1      42.155  20.823  28.376  1.00  0.00    -0.200 F 
ATOM     86  C   UNL A   1      40.408  21.695  27.049  1.00  0.00     0.200 A 
ATOM     87  F   UNL A   1      38.693  22.616  25.714  1.00  0.00    -0.200 F 
ATOM     88  F   UNL A   1      39.951  20.458  26.810  1.00  0.00    -0.200 F 
ENDBRANCH  54  78
BRANCH  66  89
ATOM     89  C   UNL A   1      47.221  27.518  25.472  1.00  0.00     0.064 A 
ATOM     90  C   UNL A   1      47.304  27.705  24.085  1.00  0.00     0.173 A 
ATOM     91  C   UNL A   1      48.317  26.927  26.121  1.00  0.00     0.173 A 
ATOM     92  F   UNL A   1      46.279  28.254  23.415  1.00  0.00    -0.203 F 
ATOM     93  C   UNL A   1      48.426  27.288  23.372  1.00  0.00     0.198 A 
ATOM     94  C   UNL A   1      49.452  26.546  25.410  1.00  0.00     0.198 A 
ATOM     95  F   UNL A   1      48.297  26.736  27.448  1.00  0.00    -0.203 F 
ATOM     96  F   UNL A   1      48.459  27.427  22.040  1.00  0.00    -0.200 F 
ATOM     97  C   UNL A   1      49.502  26.717  24.036  1.00  0.00     0.200 A 
ATOM     98  F   UNL A   1      50.498  26.013  26.057  1.00  0.00    -0.200 F 
ATOM     99  F   UNL A   1      50.584  26.328  23.349  1.00  0.00    -0.200 F 
ENDBRANCH  66  89
ENDBRANCH  40  41
ENDBRANCH  33  35
ENDBRANCH  32  33
ENDBRANCH  31  32
ENDBRANCH  30  31
ENDBRANCH  29  30
ENDBRANCH  28  29
ENDBRANCH  27  28
ENDBRANCH   1  27
TORSDOF 22
ENDMDL
MODEL 2
REMARK VINA RESULT:     -10.7      3.982      9.293
REMARK SMILES CC1(C)C(NC(=O)[C@@H]2CCC[C@@H](C(=O)OCCOCCOCCOCCOC(=O)c3ccc(-c4c5nc(c(-c6c(F)c(F)c(F)c(F)c6F)c6ccc([nH]6)c(-c6c(F)c(F)c(F)c(F)c6F)c6nc(c(-c7c(F)c(F)c(F)c(F)c7F)c7ccc4[nH]7)C=C6)C=C5)cc3)C2)C1(C)C
REMARK SMILES IDX 21 1 20 2 19 3 18 4 17 5 16 6 15 7 13 8 14 9 12 10 8 11 9 12
REMARK SMILES IDX 93 13 10 14 11 15 6 16 5 17 7 19 4 20 1 21 2 22 3 23 94 24
REMARK SMILES IDX 95 25 96 26 22 27 23 28 24 29 25 30 26 31 27 32 28 33 29 34
REMARK SMILES IDX 30 35 31 36 92 37 32 38 91 39 33 40 34 41 35 42 85 43 36 44
REMARK SMILES IDX 90 45 84 46 86 47 37 48 89 49 83 50 82 51 38 53 70 54 50 55
REMARK SMILES IDX 69 56 51 57 54 58 68 59 87 60 52 61 53 62 67 64 88 65 55 66
REMARK SMILES IDX 39 67 40 68 48 69 41 70 42 71 46 72 49 73 43 74 44 75 47 76
REMARK SMILES IDX 45 77 71 78 72 79 80 80 73 81 74 82 78 83 81 84 75 85 76 86
REMARK SMILES IDX 79 87 77 88 56 89 57 90 65 91 58 92 59 93 63 94 66 95 60 96
REMARK SMILES IDX 61 97 64 98 62 99
REMARK H PARENT 5 18 86 52 54 63
REMARK Flexibility Score: inf
ROOT
ATOM      1  O   UNL A   1      39.527  22.565  26.778  1.00  0.00    -0.377 OA
ENDROOT
BRANCH   1   2
ATOM      2  C   UNL A   1      38.922  23.820  26.529  1.00  0.00     0.188 C 
BRANCH   2   3
ATOM      3  C   UNL A   1      37.442  23.719  26.125  1.00  0.00     0.188 C 
BRANCH   3   4
ATOM      4  O   UNL A   1      37.094  23.702  24.756  1.00  0.00    -0.376 OA
BRANCH   4   5
ATOM      5  C   UNL A   1      36.450  22.595  24.150  1.00  0.00     0.202 C 
BRANCH   5   6
ATOM      6  C   UNL A   1      36.386  21.158  24.719  1.00  0.00     0.261 C 
BRANCH   6   7
ATOM      7  O   UNL A   1      35.122  20.527  24.950  1.00  0.00    -0.463 OA
BRANCH   7   8
ATOM      8  C   UNL A   1      34.365  21.119  25.899  1.00  0.00     0.309 C 
ATOM      9  O   UNL A   1      34.820  21.554  26.951  1.00  0.00    -0.252 OA
BRANCH   8  10
ATOM     10  C   UNL A   1      32.881  21.086  25.546  1.00  0.00     0.100 C 
ATOM     11  C   UNL A   1      32.292  23.564  25.874  1.00  0.00     0.079 C 
ATOM     12  C   UNL A   1      32.213  23.787  24.351  1.00  0.00     0.013 C 
ATOM     13  C   UNL A   1      32.207  22.127  26.421  1.00  0.00     0.028 C 
ATOM     14  C   UNL A   1      32.583  22.609  23.463  1.00  0.00     0.002 C 
ATOM     15  C   UNL A   1      32.392  21.237  24.098  1.00  0.00     0.015 C 
BRANCH  11  16
ATOM     16  C   UNL A   1      31.236  24.414  26.570  1.00  0.00     0.223 C 
ATOM     17  N   UNL A   1      31.443  25.769  26.680  1.00  0.00    -0.352 N 
ATOM     18  H   UNL A   1      30.736  26.280  27.135  1.00  0.00     0.163 HD
ATOM     19  O   UNL A   1      30.216  23.913  27.043  1.00  0.00    -0.275 OA
BRANCH  17  20
ATOM     20  C   UNL A   1      32.566  26.525  26.210  1.00  0.00     0.094 C 
ATOM     21  C   UNL A   1      33.579  27.531  24.031  1.00  0.00     0.014 C 
ATOM     22  C   UNL A   1      32.461  27.511  25.059  1.00  0.00    -0.007 C 
ATOM     23  C   UNL A   1      31.107  27.724  24.421  1.00  0.00     0.014 C 
ATOM     24  C   UNL A   1      32.769  27.981  26.500  1.00  0.00    -0.007 C 
ATOM     25  C   UNL A   1      34.190  28.342  26.897  1.00  0.00     0.014 C 
ATOM     26  C   UNL A   1      31.738  28.689  27.340  1.00  0.00     0.014 C 
ENDBRANCH  17  20
ENDBRANCH  11  16
ENDBRANCH   8  10
ENDBRANCH   7   8
ENDBRANCH   6   7
ENDBRANCH   5   6
ENDBRANCH   4   5
ENDBRANCH   3   4
ENDBRANCH   2   3
ENDBRANCH   1   2
BRANCH   1  27
ATOM     27  C   UNL A   1      40.777  22.638  27.434  1.00  0.00     0.188 C 
BRANCH  27  28
ATOM     28  C   UNL A   1      41.555  21.316  27.552  1.00  0.00     0.188 C 
BRANCH  28  29
ATOM     29  O   UNL A   1      40.757  20.174  27.254  1.00  0.00    -0.376 OA
BRANCH  29  30
ATOM     30  C   UNL A   1      41.085  19.360  26.143  1.00  0.00     0.202 C 
BRANCH  30  31
ATOM     31  C   UNL A   1      42.575  19.074  25.891  1.00  0.00     0.261 C 
BRANCH  31  32
ATOM     32  O   UNL A   1      43.123  19.542  24.650  1.00  0.00    -0.460 OA
BRANCH  32  33
ATOM     33  C   UNL A   1      44.466  19.637  24.541  1.00  0.00     0.338 C 
ATOM     34  O   UNL A   1      45.226  18.803  24.082  1.00  0.00    -0.246 OA
BRANCH  33  35
ATOM     35  C   UNL A   1      44.841  21.032  24.863  1.00  0.00     0.060 A 
ATOM     36  C   UNL A   1      45.368  21.310  26.132  1.00  0.00     0.016 A 
ATOM     37  C   UNL A   1      44.732  22.047  23.909  1.00  0.00     0.016 A 
ATOM     38  C   UNL A   1      45.766  22.605  26.459  1.00  0.00     0.010 A 
ATOM     39  C   UNL A   1      45.092  23.354  24.250  1.00  0.00     0.010 A 
ATOM     40  C   UNL A   1      45.579  23.642  25.537  1.00  0.00    -0.014 A 
BRANCH  40  41
ATOM     41  C   UNL A   1      45.644  25.045  26.011  1.00  0.00     0.031 A 
ATOM     42  C   UNL A   1      46.974  25.742  25.936  1.00  0.00     0.074 A 
ATOM     43  C   UNL A   1      44.557  25.699  26.454  1.00  0.00     0.049 A 
ATOM     44  N   UNL A   1      47.310  26.947  26.318  1.00  0.00    -0.248 NA
ATOM     45  C   UNL A   1      48.080  24.969  25.346  1.00  0.00     0.031 C 
ATOM     46  C   UNL A   1      43.206  25.150  26.518  1.00  0.00     0.029 A 
ATOM     47  N   UNL A   1      44.427  26.977  26.939  1.00  0.00    -0.354 N 
ATOM     48  C   UNL A   1      48.661  27.071  26.022  1.00  0.00     0.074 A 
ATOM     49  C   UNL A   1      49.093  25.812  25.459  1.00  0.00     0.031 C 
ATOM     50  C   UNL A   1      42.382  26.083  27.028  1.00  0.00     0.029 A 
ATOM     51  C   UNL A   1      43.155  27.280  27.357  1.00  0.00     0.049 A 
ATOM     52  H   UNL A   1      45.176  27.615  26.983  1.00  0.00     0.167 HD
ATOM     53  C   UNL A   1      49.468  28.143  26.196  1.00  0.00     0.037 A 
ATOM     54  C   UNL A   1      42.683  28.389  27.960  1.00  0.00     0.037 A 
ATOM     55  C   UNL A   1      49.034  29.392  26.761  1.00  0.00     0.049 A 
ATOM     56  C   UNL A   1      43.624  29.540  28.227  1.00  0.00     0.074 A 
ATOM     57  C   UNL A   1      49.770  30.544  26.975  1.00  0.00     0.029 A 
ATOM     58  N   UNL A   1      47.747  29.646  27.215  1.00  0.00    -0.354 N 
ATOM     59  N   UNL A   1      44.896  29.660  27.930  1.00  0.00    -0.248 NA
ATOM     60  C   UNL A   1      43.060  30.712  28.913  1.00  0.00     0.031 C 
ATOM     61  C   UNL A   1      48.945  31.473  27.616  1.00  0.00     0.029 A 
ATOM     62  C   UNL A   1      47.677  30.927  27.736  1.00  0.00     0.049 A 
ATOM     63  H   UNL A   1      46.997  29.010  27.171  1.00  0.00     0.167 HD
ATOM     64  C   UNL A   1      45.274  30.927  28.359  1.00  0.00     0.074 A 
ATOM     65  C   UNL A   1      44.092  31.542  28.926  1.00  0.00     0.031 C 
ATOM     66  C   UNL A   1      46.487  31.528  28.288  1.00  0.00     0.037 A 
BRANCH  53  67
ATOM     67  C   UNL A   1      50.910  27.994  25.805  1.00  0.00     0.064 A 
ATOM     68  C   UNL A   1      51.911  27.717  26.748  1.00  0.00     0.173 A 
ATOM     69  C   UNL A   1      51.292  28.116  24.460  1.00  0.00     0.173 A 
ATOM     70  F   UNL A   1      51.602  27.612  28.049  1.00  0.00    -0.203 F 
ATOM     71  C   UNL A   1      53.244  27.596  26.363  1.00  0.00     0.198 A 
ATOM     72  C   UNL A   1      52.621  27.959  24.074  1.00  0.00     0.198 A 
ATOM     73  F   UNL A   1      50.375  28.382  23.518  1.00  0.00    -0.203 F 
ATOM     74  F   UNL A   1      54.190  27.387  27.289  1.00  0.00    -0.200 F 
ATOM     75  C   UNL A   1      53.595  27.707  25.026  1.00  0.00     0.200 A 
ATOM     76  F   UNL A   1      52.956  28.057  22.780  1.00  0.00    -0.200 F 
ATOM     77  F   UNL A   1      54.878  27.584  24.656  1.00  0.00    -0.200 F 
ENDBRANCH  53  67
BRANCH  54  78
ATOM     78  C   UNL A   1      41.256  28.465  28.374  1.00  0.00     0.064 A 
ATOM     79  C   UNL A   1      40.839  28.004  29.631  1.00  0.00     0.173 A 
ATOM     80  C   UNL A   1      40.274  28.970  27.509  1.00  0.00     0.173 A 
ATOM     81  F   UNL A   1      41.732  27.484  30.484  1.00  0.00    -0.203 F 
ATOM     82  C   UNL A   1      39.494  28.028  29.998  1.00  0.00     0.198 A 
ATOM     83  C   UNL A   1      38.935  29.024  27.889  1.00  0.00     0.198 A 
ATOM     84  F   UNL A   1      40.616  29.419  26.292  1.00  0.00    -0.203 F 
ATOM     85  F   UNL A   1      39.116  27.530  31.183  1.00  0.00    -0.200 F 
ATOM     86  C   UNL A   1      38.544  28.543  29.129  1.00  0.00     0.200 A 
ATOM     87  F   UNL A   1      38.022  29.533  27.050  1.00  0.00    -0.200 F 
ATOM     88  F   UNL A   1      37.252  28.567  29.482  1.00  0.00    -0.200 F 
ENDBRANCH  54  78
BRANCH  66  89
ATOM     89  C   UNL A   1      46.594  32.941  28.792  1.00  0.00     0.064 A 
ATOM     90  C   UNL A   1      46.977  33.231  30.109  1.00  0.00     0.173 A 
ATOM     91  C   UNL A   1      46.357  34.020  27.925  1.00  0.00     0.173 A 
ATOM     92  F   UNL A   1      47.205  32.238  30.981  1.00  0.00    -0.203 F 
ATOM     93  C   UNL A   1      47.088  34.549  30.548  1.00  0.00     0.198 A 
ATOM     94  C   UNL A   1      46.505  35.334  28.357  1.00  0.00     0.198 A 
ATOM     95  F   UNL A   1      45.999  33.799  26.651  1.00  0.00    -0.203 F 
ATOM     96  F   UNL A   1      47.403  34.802  31.826  1.00  0.00    -0.200 F 
ATOM     97  C   UNL A   1      46.860  35.599  29.671  1.00  0.00     0.200 A 
ATOM     98  F   UNL A   1      46.304  36.347  27.501  1.00  0.00    -0.200 F 
ATOM     99  F   UNL A   1      46.979  36.864  30.093  1.00  0.00    -0.200 F 
ENDBRANCH  66  89
ENDBRANCH  40  41
ENDBRANCH  33  35
ENDBRANCH  32  33
ENDBRANCH  31  32
ENDBRANCH  30  31
ENDBRANCH  29  30
ENDBRANCH  28  29
ENDBRANCH  27  28
ENDBRANCH   1  27
TORSDOF 22
ENDMDL
MODEL 3
REMARK VINA RESULT:     -10.7      0.878      2.042
REMARK SMILES CC1(C)C(NC(=O)[C@@H]2CCC[C@@H](C(=O)OCCOCCOCCOCCOC(=O)c3ccc(-c4c5nc(c(-c6c(F)c(F)c(F)c(F)c6F)c6ccc([nH]6)c(-c6c(F)c(F)c(F)c(F)c6F)c6nc(c(-c7c(F)c(F)c(F)c(F)c7F)c7ccc4[nH]7)C=C6)C=C5)cc3)C2)C1(C)C
REMARK SMILES IDX 21 1 20 2 19 3 18 4 17 5 16 6 15 7 13 8 14 9 12 10 8 11 9 12
REMARK SMILES IDX 93 13 10 14 11 15 6 16 5 17 7 19 4 20 1 21 2 22 3 23 94 24
REMARK SMILES IDX 95 25 96 26 22 27 23 28 24 29 25 30 26 31 27 32 28 33 29 34
REMARK SMILES IDX 30 35 31 36 92 37 32 38 91 39 33 40 34 41 35 42 85 43 36 44
REMARK SMILES IDX 90 45 84 46 86 47 37 48 89 49 83 50 82 51 38 53 70 54 50 55
REMARK SMILES IDX 69 56 51 57 54 58 68 59 87 60 52 61 53 62 67 64 88 65 55 66
REMARK SMILES IDX 39 67 40 68 48 69 41 70 42 71 46 72 49 73 43 74 44 75 47 76
REMARK SMILES IDX 45 77 71 78 72 79 80 80 73 81 74 82 78 83 81 84 75 85 76 86
REMARK SMILES IDX 79 87 77 88 56 89 57 90 65 91 58 92 59 93 63 94 66 95 60 96
REMARK SMILES IDX 61 97 64 98 62 99
REMARK H PARENT 5 18 86 52 54 63
REMARK Flexibility Score: inf
ROOT
ATOM      1  O   UNL A   1      34.538  31.213  27.905  1.00  0.00    -0.377 OA
ENDROOT
BRANCH   1   2
ATOM      2  C   UNL A   1      35.146  29.936  27.940  1.00  0.00     0.188 C 
BRANCH   2   3
ATOM      3  C   UNL A   1      34.465  28.907  27.022  1.00  0.00     0.188 C 
BRANCH   3   4
ATOM      4  O   UNL A   1      34.043  29.298  25.731  1.00  0.00    -0.376 OA
BRANCH   4   5
ATOM      5  C   UNL A   1      32.830  29.994  25.508  1.00  0.00     0.202 C 
BRANCH   5   6
ATOM      6  C   UNL A   1      31.406  29.402  25.630  1.00  0.00     0.261 C 
BRANCH   6   7
ATOM      7  O   UNL A   1      31.136  28.070  25.179  1.00  0.00    -0.463 OA
BRANCH   7   8
ATOM      8  C   UNL A   1      31.411  27.106  26.084  1.00  0.00     0.309 C 
ATOM      9  O   UNL A   1      31.035  27.146  27.249  1.00  0.00    -0.252 OA
BRANCH   8  10
ATOM     10  C   UNL A   1      32.324  26.027  25.505  1.00  0.00     0.100 C 
ATOM     11  C   UNL A   1      30.705  24.033  25.503  1.00  0.00     0.079 C 
ATOM     12  C   UNL A   1      30.544  24.116  23.973  1.00  0.00     0.013 C 
ATOM     13  C   UNL A   1      31.915  24.721  26.161  1.00  0.00     0.028 C 
ATOM     14  C   UNL A   1      31.243  25.268  23.268  1.00  0.00     0.002 C 
ATOM     15  C   UNL A   1      32.467  25.819  23.990  1.00  0.00     0.015 C 
BRANCH  11  16
ATOM     16  C   UNL A   1      30.676  22.574  25.941  1.00  0.00     0.223 C 
ATOM     17  N   UNL A   1      31.758  21.775  25.654  1.00  0.00    -0.352 N 
ATOM     18  H   UNL A   1      31.698  20.840  25.956  1.00  0.00     0.163 HD
ATOM     19  O   UNL A   1      29.706  22.098  26.531  1.00  0.00    -0.275 OA
BRANCH  17  20
ATOM     20  C   UNL A   1      32.961  22.141  24.968  1.00  0.00     0.094 C 
ATOM     21  C   UNL A   1      35.499  21.563  24.850  1.00  0.00     0.014 C 
ATOM     22  C   UNL A   1      34.055  21.137  24.647  1.00  0.00    -0.007 C 
ATOM     23  C   UNL A   1      33.835  19.692  25.034  1.00  0.00     0.014 C 
ATOM     24  C   UNL A   1      33.230  21.819  23.530  1.00  0.00    -0.007 C 
ATOM     25  C   UNL A   1      33.825  22.969  22.737  1.00  0.00     0.014 C 
ATOM     26  C   UNL A   1      32.172  21.073  22.758  1.00  0.00     0.014 C 
ENDBRANCH  17  20
ENDBRANCH  11  16
ENDBRANCH   8  10
ENDBRANCH   7   8
ENDBRANCH   6   7
ENDBRANCH   5   6
ENDBRANCH   4   5
ENDBRANCH   3   4
ENDBRANCH   2   3
ENDBRANCH   1   2
BRANCH   1  27
ATOM     27  C   UNL A   1      35.435  32.281  27.675  1.00  0.00     0.188 C 
BRANCH  27  28
ATOM     28  C   UNL A   1      35.576  33.302  28.817  1.00  0.00     0.188 C 
BRANCH  28  29
ATOM     29  O   UNL A   1      34.387  33.437  29.590  1.00  0.00    -0.376 OA
BRANCH  29  30
ATOM     30  C   UNL A   1      34.391  34.253  30.747  1.00  0.00     0.202 C 
BRANCH  30  31
ATOM     31  C   UNL A   1      34.576  33.554  32.104  1.00  0.00     0.261 C 
BRANCH  31  32
ATOM     32  O   UNL A   1      35.166  32.246  32.084  1.00  0.00    -0.460 OA
BRANCH  32  33
ATOM     33  C   UNL A   1      36.205  32.002  32.910  1.00  0.00     0.338 C 
ATOM     34  O   UNL A   1      36.244  32.180  34.115  1.00  0.00    -0.246 OA
BRANCH  33  35
ATOM     35  C   UNL A   1      37.224  31.256  32.136  1.00  0.00     0.060 A 
ATOM     36  C   UNL A   1      38.370  30.798  32.801  1.00  0.00     0.016 A 
ATOM     37  C   UNL A   1      37.028  30.959  30.785  1.00  0.00     0.016 A 
ATOM     38  C   UNL A   1      39.333  30.062  32.114  1.00  0.00     0.010 A 
ATOM     39  C   UNL A   1      38.013  30.257  30.085  1.00  0.00     0.010 A 
ATOM     40  C   UNL A   1      39.184  29.835  30.740  1.00  0.00    -0.014 A 
BRANCH  40  41
ATOM     41  C   UNL A   1      40.361  29.396  29.953  1.00  0.00     0.031 A 
ATOM     42  C   UNL A   1      41.455  30.401  29.720  1.00  0.00     0.074 A 
ATOM     43  C   UNL A   1      40.482  28.139  29.494  1.00  0.00     0.049 A 
ATOM     44  N   UNL A   1      42.565  30.285  29.037  1.00  0.00    -0.248 NA
ATOM     45  C   UNL A   1      41.269  31.720  30.346  1.00  0.00     0.031 C 
ATOM     46  C   UNL A   1      39.518  27.063  29.707  1.00  0.00     0.029 A 
ATOM     47  N   UNL A   1      41.477  27.559  28.746  1.00  0.00    -0.354 N 
ATOM     48  C   UNL A   1      43.200  31.515  29.147  1.00  0.00     0.074 A 
ATOM     49  C   UNL A   1      42.342  32.373  29.932  1.00  0.00     0.031 C 
ATOM     50  C   UNL A   1      39.963  25.953  29.090  1.00  0.00     0.029 A 
ATOM     51  C   UNL A   1      41.224  26.252  28.412  1.00  0.00     0.049 A 
ATOM     52  H   UNL A   1      42.294  28.037  28.474  1.00  0.00     0.167 HD
ATOM     53  C   UNL A   1      44.398  31.893  28.644  1.00  0.00     0.037 A 
ATOM     54  C   UNL A   1      41.923  25.409  27.626  1.00  0.00     0.037 A 
ATOM     55  C   UNL A   1      45.246  31.037  27.859  1.00  0.00     0.049 A 
ATOM     56  C   UNL A   1      43.213  25.883  27.000  1.00  0.00     0.074 A 
ATOM     57  C   UNL A   1      46.483  31.320  27.306  1.00  0.00     0.029 A 
ATOM     58  N   UNL A   1      44.935  29.732  27.503  1.00  0.00    -0.354 N 
ATOM     59  N   UNL A   1      43.820  27.039  27.121  1.00  0.00    -0.248 NA
ATOM     60  C   UNL A   1      43.917  24.929  26.131  1.00  0.00     0.031 C 
ATOM     61  C   UNL A   1      46.890  30.208  26.564  1.00  0.00     0.029 A 
ATOM     62  C   UNL A   1      45.944  29.207  26.712  1.00  0.00     0.049 A 
ATOM     63  H   UNL A   1      44.119  29.252  27.773  1.00  0.00     0.167 HD
ATOM     64  C   UNL A   1      44.988  26.941  26.374  1.00  0.00     0.074 A 
ATOM     65  C   UNL A   1      45.011  25.607  25.814  1.00  0.00     0.031 C 
ATOM     66  C   UNL A   1      45.955  27.870  26.171  1.00  0.00     0.037 A 
BRANCH  53  67
ATOM     67  C   UNL A   1      44.841  33.305  28.898  1.00  0.00     0.064 A 
ATOM     68  C   UNL A   1      44.507  34.356  28.031  1.00  0.00     0.173 A 
ATOM     69  C   UNL A   1      45.599  33.612  30.038  1.00  0.00     0.173 A 
ATOM     70  F   UNL A   1      43.801  34.113  26.916  1.00  0.00    -0.203 F 
ATOM     71  C   UNL A   1      44.939  35.656  28.281  1.00  0.00     0.198 A 
ATOM     72  C   UNL A   1      46.000  34.919  30.303  1.00  0.00     0.198 A 
ATOM     73  F   UNL A   1      45.948  32.644  30.899  1.00  0.00    -0.203 F 
ATOM     74  F   UNL A   1      44.655  36.634  27.409  1.00  0.00    -0.200 F 
ATOM     75  C   UNL A   1      45.677  35.937  29.420  1.00  0.00     0.200 A 
ATOM     76  F   UNL A   1      46.704  35.190  31.411  1.00  0.00    -0.200 F 
ATOM     77  F   UNL A   1      46.087  37.190  29.663  1.00  0.00    -0.200 F 
ENDBRANCH  53  67
BRANCH  54  78
ATOM     78  C   UNL A   1      41.413  24.036  27.365  1.00  0.00     0.064 A 
ATOM     79  C   UNL A   1      40.259  23.823  26.598  1.00  0.00     0.173 A 
ATOM     80  C   UNL A   1      42.051  22.909  27.904  1.00  0.00     0.173 A 
ATOM     81  F   UNL A   1      39.593  24.868  26.085  1.00  0.00    -0.203 F 
ATOM     82  C   UNL A   1      39.752  22.539  26.397  1.00  0.00     0.198 A 
ATOM     83  C   UNL A   1      41.563  21.624  27.676  1.00  0.00     0.198 A 
ATOM     84  F   UNL A   1      43.155  23.055  28.651  1.00  0.00    -0.203 F 
ATOM     85  F   UNL A   1      38.617  22.370  25.706  1.00  0.00    -0.200 F 
ATOM     86  C   UNL A   1      40.408  21.441  26.932  1.00  0.00     0.200 A 
ATOM     87  F   UNL A   1      42.206  20.565  28.185  1.00  0.00    -0.200 F 
ATOM     88  F   UNL A   1      39.922  20.207  26.737  1.00  0.00    -0.200 F 
ENDBRANCH  54  78
BRANCH  66  89
ATOM     89  C   UNL A   1      47.146  27.465  25.348  1.00  0.00     0.064 A 
ATOM     90  C   UNL A   1      47.240  27.766  23.982  1.00  0.00     0.173 A 
ATOM     91  C   UNL A   1      48.232  26.810  25.952  1.00  0.00     0.173 A 
ATOM     92  F   UNL A   1      46.227  28.381  23.354  1.00  0.00    -0.203 F 
ATOM     93  C   UNL A   1      48.363  27.397  23.243  1.00  0.00     0.198 A 
ATOM     94  C   UNL A   1      49.367  26.477  25.218  1.00  0.00     0.198 A 
ATOM     95  F   UNL A   1      48.200  26.509  27.258  1.00  0.00    -0.203 F 
ATOM     96  F   UNL A   1      48.407  27.647  21.928  1.00  0.00    -0.200 F 
ATOM     97  C   UNL A   1      49.428  26.761  23.863  1.00  0.00     0.200 A 
ATOM     98  F   UNL A   1      50.403  25.880  25.825  1.00  0.00    -0.200 F 
ATOM     99  F   UNL A   1      50.511  26.419  23.153  1.00  0.00    -0.200 F 
ENDBRANCH  66  89
ENDBRANCH  40  41
ENDBRANCH  33  35
ENDBRANCH  32  33
ENDBRANCH  31  32
ENDBRANCH  30  31
ENDBRANCH  29  30
ENDBRANCH  28  29
ENDBRANCH  27  28
ENDBRANCH   1  27
TORSDOF 22
ENDMDL
