MODEL 1
REMARK VINA RESULT:     -11.0      0.000      0.000
REMARK SMILES O=C(Cc1ccccc1C(=O)OCCOCCOCCOCCOC(=O)c1ccc(-c2c3nc(c(-c4c(F)c(F)c(F)c(F)c4F)c4ccc([nH]4)c(-c4c(F)c(F)c(F)c(F)c4F)c4nc(c(-c5c(F)c(F)c(F)c(F)c5F)c5ccc2[nH]5)C=C4)C=C3)cc1)Nc1cccc(OC[C@@H]2CCCO2)c1
REMARK SMILES IDX 16 1 15 2 14 3 13 4 12 5 10 6 11 7 9 8 4 9 5 10 6 11 8 12
REMARK SMILES IDX 7 13 3 14 2 15 1 16 90 17 91 19 92 20 103 21 93 22 95 23
REMARK SMILES IDX 94 24 96 25 97 26 98 27 99 28 102 29 100 30 101 31 17 32
REMARK SMILES IDX 18 33 19 34 20 35 21 36 22 37 23 38 24 39 25 40 26 41 27 42
REMARK SMILES IDX 28 43 89 44 29 45 88 46 30 47 31 48 32 49 82 50 33 51 87 52
REMARK SMILES IDX 81 53 83 54 34 55 86 56 80 57 79 58 35 60 67 61 47 62 66 63
REMARK SMILES IDX 48 64 51 65 65 66 84 67 49 68 50 69 64 71 85 72 52 73 36 74
REMARK SMILES IDX 37 75 45 76 38 77 39 78 43 79 46 80 40 81 41 82 44 83 42 84
REMARK SMILES IDX 68 85 69 86 77 87 70 88 71 89 75 90 78 91 72 92 73 93 76 94
REMARK SMILES IDX 74 95 53 96 54 97 62 98 55 99 56 100 60 101 63 102 57 103
REMARK SMILES IDX 58 104 61 105 59 106
REMARK H PARENT 90 18 83 59 51 70
REMARK Flexibility Score: inf
ROOT
ATOM      1  C   UNL A   1      33.611  29.124  27.105  1.00  0.00     0.188 C 
ENDROOT
BRANCH   1   2
ATOM      2  O   UNL A   1      33.272  27.791  26.735  1.00  0.00    -0.376 OA
BRANCH   2   3
ATOM      3  C   UNL A   1      31.976  27.286  27.021  1.00  0.00     0.202 C 
BRANCH   3   4
ATOM      4  C   UNL A   1      31.151  26.656  25.897  1.00  0.00     0.261 C 
BRANCH   4   5
ATOM      5  O   UNL A   1      30.349  27.596  25.153  1.00  0.00    -0.460 OA
BRANCH   5   6
ATOM      6  C   UNL A   1      30.380  27.472  23.803  1.00  0.00     0.338 C 
ATOM      7  O   UNL A   1      29.406  27.341  23.078  1.00  0.00    -0.246 OA
BRANCH   6   8
ATOM      8  C   UNL A   1      31.752  27.689  23.254  1.00  0.00     0.063 A 
ATOM      9  C   UNL A   1      32.459  26.834  22.380  1.00  0.00    -0.024 A 
ATOM     10  C   UNL A   1      33.738  27.229  21.936  1.00  0.00     0.005 A 
ATOM     11  C   UNL A   1      34.305  28.433  22.346  1.00  0.00     0.000 A 
ATOM     12  C   UNL A   1      32.345  28.896  23.664  1.00  0.00     0.016 A 
ATOM     13  C   UNL A   1      33.612  29.264  23.217  1.00  0.00     0.001 A 
BRANCH   9  14
ATOM     14  C   UNL A   1      31.948  25.507  21.880  1.00  0.00     0.136 C 
BRANCH  14  15
ATOM     15  C   UNL A   1      32.760  24.343  22.400  1.00  0.00     0.228 C 
ATOM     16  O   UNL A   1      33.403  23.601  21.665  1.00  0.00    -0.274 OA
ATOM     17  N   UNL A   1      32.686  24.250  23.772  1.00  0.00    -0.326 N 
ATOM     18  H   UNL A   1      32.238  24.979  24.259  1.00  0.00     0.169 HD
BRANCH  17  19
ATOM     19  C   UNL A   1      33.204  23.196  24.513  1.00  0.00     0.044 A 
ATOM     20  C   UNL A   1      34.238  23.360  25.432  1.00  0.00     0.026 A 
ATOM     21  C   UNL A   1      32.629  21.957  24.288  1.00  0.00     0.072 A 
ATOM     22  C   UNL A   1      34.698  22.245  26.129  1.00  0.00     0.006 A 
ATOM     23  C   UNL A   1      32.913  20.925  25.161  1.00  0.00     0.121 A 
ATOM     24  C   UNL A   1      34.011  21.034  26.017  1.00  0.00     0.046 A 
BRANCH  23  25
ATOM     25  O   UNL A   1      32.139  19.812  25.290  1.00  0.00    -0.491 OA
BRANCH  25  26
ATOM     26  C   UNL A   1      32.488  18.656  24.506  1.00  0.00     0.261 C 
BRANCH  26  27
ATOM     27  C   UNL A   1      33.281  17.522  25.199  1.00  0.00     0.156 C 
ATOM     28  C   UNL A   1      34.526  16.963  24.520  1.00  0.00     0.038 C 
ATOM     29  O   UNL A   1      32.453  16.392  25.529  1.00  0.00    -0.375 OA
ATOM     30  C   UNL A   1      34.664  15.613  25.177  1.00  0.00     0.031 C 
ATOM     31  C   UNL A   1      33.212  15.195  25.283  1.00  0.00     0.161 C 
ENDBRANCH  26  27
ENDBRANCH  25  26
ENDBRANCH  23  25
ENDBRANCH  17  19
ENDBRANCH  14  15
ENDBRANCH   9  14
ENDBRANCH   6   8
ENDBRANCH   5   6
ENDBRANCH   4   5
ENDBRANCH   3   4
ENDBRANCH   2   3
ENDBRANCH   1   2
BRANCH   1  32
ATOM     32  C   UNL A   1      32.526  30.226  27.168  1.00  0.00     0.188 C 
BRANCH  32  33
ATOM     33  O   UNL A   1      33.022  31.559  27.208  1.00  0.00    -0.377 OA
BRANCH  33  34
ATOM     34  C   UNL A   1      34.152  31.757  28.060  1.00  0.00     0.188 C 
BRANCH  34  35
ATOM     35  C   UNL A   1      34.443  33.204  28.502  1.00  0.00     0.188 C 
BRANCH  35  36
ATOM     36  O   UNL A   1      33.474  33.709  29.418  1.00  0.00    -0.376 OA
BRANCH  36  37
ATOM     37  C   UNL A   1      33.942  34.567  30.452  1.00  0.00     0.202 C 
BRANCH  37  38
ATOM     38  C   UNL A   1      35.138  34.018  31.244  1.00  0.00     0.261 C 
BRANCH  38  39
ATOM     39  O   UNL A   1      34.927  32.734  31.857  1.00  0.00    -0.460 OA
BRANCH  39  40
ATOM     40  C   UNL A   1      35.838  32.327  32.763  1.00  0.00     0.338 C 
ATOM     41  O   UNL A   1      35.785  32.450  33.974  1.00  0.00    -0.246 OA
BRANCH  40  42
ATOM     42  C   UNL A   1      36.853  31.523  32.061  1.00  0.00     0.060 A 
ATOM     43  C   UNL A   1      37.975  31.087  32.776  1.00  0.00     0.016 A 
ATOM     44  C   UNL A   1      36.717  31.233  30.701  1.00  0.00     0.016 A 
ATOM     45  C   UNL A   1      38.992  30.401  32.117  1.00  0.00     0.010 A 
ATOM     46  C   UNL A   1      37.745  30.558  30.038  1.00  0.00     0.010 A 
ATOM     47  C   UNL A   1      38.903  30.176  30.736  1.00  0.00    -0.014 A 
BRANCH  47  48
ATOM     48  C   UNL A   1      40.103  29.721  29.996  1.00  0.00     0.031 A 
ATOM     49  C   UNL A   1      41.236  30.692  29.807  1.00  0.00     0.074 A 
ATOM     50  C   UNL A   1      40.200  28.464  29.533  1.00  0.00     0.049 A 
ATOM     51  N   UNL A   1      42.390  30.519  29.214  1.00  0.00    -0.248 NA
ATOM     52  C   UNL A   1      41.040  32.041  30.364  1.00  0.00     0.031 C 
ATOM     53  C   UNL A   1      39.179  27.429  29.680  1.00  0.00     0.029 A 
ATOM     54  N   UNL A   1      41.212  27.848  28.842  1.00  0.00    -0.354 N 
ATOM     55  C   UNL A   1      43.057  31.732  29.333  1.00  0.00     0.074 A 
ATOM     56  C   UNL A   1      42.167  32.643  30.020  1.00  0.00     0.031 C 
ATOM     57  C   UNL A   1      39.617  26.302  29.090  1.00  0.00     0.029 A 
ATOM     58  C   UNL A   1      40.935  26.546  28.507  1.00  0.00     0.049 A 
ATOM     59  H   UNL A   1      42.056  28.297  28.609  1.00  0.00     0.167 HD
ATOM     60  C   UNL A   1      44.306  32.052  28.920  1.00  0.00     0.037 A 
ATOM     61  C   UNL A   1      41.664  25.660  27.801  1.00  0.00     0.037 A 
ATOM     62  C   UNL A   1      45.185  31.148  28.228  1.00  0.00     0.049 A 
ATOM     63  C   UNL A   1      43.025  26.064  27.290  1.00  0.00     0.074 A 
ATOM     64  C   UNL A   1      46.476  31.370  27.781  1.00  0.00     0.029 A 
ATOM     65  N   UNL A   1      44.857  29.848  27.873  1.00  0.00    -0.354 N 
ATOM     66  N   UNL A   1      43.666  27.198  27.444  1.00  0.00    -0.248 NA
ATOM     67  C   UNL A   1      43.766  25.058  26.516  1.00  0.00     0.031 C 
ATOM     68  C   UNL A   1      46.910  30.221  27.111  1.00  0.00     0.029 A 
ATOM     69  C   UNL A   1      45.909  29.264  27.186  1.00  0.00     0.049 A 
ATOM     70  H   UNL A   1      44.001  29.405  28.078  1.00  0.00     0.167 HD
ATOM     71  C   UNL A   1      44.892  27.034  26.810  1.00  0.00     0.074 A 
ATOM     72  C   UNL A   1      44.911  25.683  26.287  1.00  0.00     0.031 C 
ATOM     73  C   UNL A   1      45.909  27.919  26.671  1.00  0.00     0.037 A 
BRANCH  60  74
ATOM     74  C   UNL A   1      44.782  33.448  29.187  1.00  0.00     0.064 A 
ATOM     75  C   UNL A   1      44.603  34.478  28.250  1.00  0.00     0.173 A 
ATOM     76  C   UNL A   1      45.406  33.767  30.401  1.00  0.00     0.173 A 
ATOM     77  F   UNL A   1      44.028  34.220  27.065  1.00  0.00    -0.203 F 
ATOM     78  C   UNL A   1      45.054  35.770  28.509  1.00  0.00     0.198 A 
ATOM     79  C   UNL A   1      45.832  35.065  30.669  1.00  0.00     0.198 A 
ATOM     80  F   UNL A   1      45.603  32.819  31.330  1.00  0.00    -0.203 F 
ATOM     81  F   UNL A   1      44.917  36.726  27.581  1.00  0.00    -0.200 F 
ATOM     82  C   UNL A   1      45.662  36.064  29.721  1.00  0.00     0.200 A 
ATOM     83  F   UNL A   1      46.412  35.350  31.844  1.00  0.00    -0.200 F 
ATOM     84  F   UNL A   1      46.093  37.307  29.972  1.00  0.00    -0.200 F 
ENDBRANCH  60  74
BRANCH  61  85
ATOM     85  C   UNL A   1      41.126  24.301  27.530  1.00  0.00     0.064 A 
ATOM     86  C   UNL A   1      41.696  23.164  28.118  1.00  0.00     0.173 A 
ATOM     87  C   UNL A   1      40.042  24.110  26.661  1.00  0.00     0.173 A 
ATOM     88  F   UNL A   1      42.749  23.294  28.940  1.00  0.00    -0.203 F 
ATOM     89  C   UNL A   1      41.218  21.887  27.833  1.00  0.00     0.198 A 
ATOM     90  C   UNL A   1      39.544  22.835  26.399  1.00  0.00     0.198 A 
ATOM     91  F   UNL A   1      39.458  25.164  26.072  1.00  0.00    -0.203 F 
ATOM     92  F   UNL A   1      41.813  20.815  28.372  1.00  0.00    -0.200 F 
ATOM     93  C   UNL A   1      40.137  21.725  26.978  1.00  0.00     0.200 A 
ATOM     94  F   UNL A   1      38.487  22.685  25.590  1.00  0.00    -0.200 F 
ATOM     95  F   UNL A   1      39.672  20.498  26.708  1.00  0.00    -0.200 F 
ENDBRANCH  61  85
BRANCH  73  96
ATOM     96  C   UNL A   1      47.137  27.446  25.946  1.00  0.00     0.064 A 
ATOM     97  C   UNL A   1      47.300  27.645  24.567  1.00  0.00     0.173 A 
ATOM     98  C   UNL A   1      48.176  26.810  26.644  1.00  0.00     0.173 A 
ATOM     99  F   UNL A   1      46.331  28.236  23.851  1.00  0.00    -0.203 F 
ATOM    100  C   UNL A   1      48.441  27.194  23.909  1.00  0.00     0.198 A 
ATOM    101  C   UNL A   1      49.328  26.389  25.987  1.00  0.00     0.198 A 
ATOM    102  F   UNL A   1      48.075  26.604  27.965  1.00  0.00    -0.203 F 
ATOM    103  F   UNL A   1      48.549  27.347  22.580  1.00  0.00    -0.200 F 
ATOM    104  C   UNL A   1      49.456  26.573  24.619  1.00  0.00     0.200 A 
ATOM    105  F   UNL A   1      50.315  25.802  26.678  1.00  0.00    -0.200 F 
ATOM    106  F   UNL A   1      50.554  26.142  23.983  1.00  0.00    -0.200 F 
ENDBRANCH  73  96
ENDBRANCH  47  48
ENDBRANCH  40  42
ENDBRANCH  39  40
ENDBRANCH  38  39
ENDBRANCH  37  38
ENDBRANCH  36  37
ENDBRANCH  35  36
ENDBRANCH  34  35
ENDBRANCH  33  34
ENDBRANCH  32  33
ENDBRANCH   1  32
TORSDOF 26
ENDMDL
MODEL 2
REMARK VINA RESULT:      -9.7      6.411      8.541
REMARK SMILES O=C(Cc1ccccc1C(=O)OCCOCCOCCOCCOC(=O)c1ccc(-c2c3nc(c(-c4c(F)c(F)c(F)c(F)c4F)c4ccc([nH]4)c(-c4c(F)c(F)c(F)c(F)c4F)c4nc(c(-c5c(F)c(F)c(F)c(F)c5F)c5ccc2[nH]5)C=C4)C=C3)cc1)Nc1cccc(OC[C@@H]2CCCO2)c1
REMARK SMILES IDX 16 1 15 2 14 3 13 4 12 5 10 6 11 7 9 8 4 9 5 10 6 11 8 12
REMARK SMILES IDX 7 13 3 14 2 15 1 16 90 17 91 19 92 20 103 21 93 22 95 23
REMARK SMILES IDX 94 24 96 25 97 26 98 27 99 28 102 29 100 30 101 31 17 32
REMARK SMILES IDX 18 33 19 34 20 35 21 36 22 37 23 38 24 39 25 40 26 41 27 42
REMARK SMILES IDX 28 43 89 44 29 45 88 46 30 47 31 48 32 49 82 50 33 51 87 52
REMARK SMILES IDX 81 53 83 54 34 55 86 56 80 57 79 58 35 60 67 61 47 62 66 63
REMARK SMILES IDX 48 64 51 65 65 66 84 67 49 68 50 69 64 71 85 72 52 73 36 74
REMARK SMILES IDX 37 75 45 76 38 77 39 78 43 79 46 80 40 81 41 82 44 83 42 84
REMARK SMILES IDX 68 85 69 86 77 87 70 88 71 89 75 90 78 91 72 92 73 93 76 94
REMARK SMILES IDX 74 95 53 96 54 97 62 98 55 99 56 100 60 101 63 102 57 103
REMARK SMILES IDX 58 104 61 105 59 106
REMARK H PARENT 90 18 83 59 51 70
REMARK Flexibility Score: inf
ROOT
ATOM      1  C   UNL A   1      32.653  26.796  26.818  1.00  0.00     0.188 C 
ENDROOT
BRANCH   1   2
ATOM      2  O   UNL A   1      32.127  26.254  25.611  1.00  0.00    -0.376 OA
BRANCH   2   3
ATOM      3  C   UNL A   1      30.851  25.630  25.613  1.00  0.00     0.202 C 
BRANCH   3   4
ATOM      4  C   UNL A   1      29.818  26.028  24.558  1.00  0.00     0.261 C 
BRANCH   4   5
ATOM      5  O   UNL A   1      29.765  27.445  24.288  1.00  0.00    -0.460 OA
BRANCH   5   6
ATOM      6  C   UNL A   1      30.099  27.827  23.031  1.00  0.00     0.338 C 
ATOM      7  O   UNL A   1      29.316  28.180  22.162  1.00  0.00    -0.246 OA
BRANCH   6   8
ATOM      8  C   UNL A   1      31.578  27.941  22.856  1.00  0.00     0.063 A 
ATOM      9  C   UNL A   1      32.415  27.069  22.126  1.00  0.00    -0.024 A 
ATOM     10  C   UNL A   1      33.792  27.365  22.043  1.00  0.00     0.005 A 
ATOM     11  C   UNL A   1      34.327  28.488  22.666  1.00  0.00     0.000 A 
ATOM     12  C   UNL A   1      32.139  29.066  23.486  1.00  0.00     0.016 A 
ATOM     13  C   UNL A   1      33.503  29.336  23.395  1.00  0.00     0.001 A 
BRANCH   9  14
ATOM     14  C   UNL A   1      31.945  25.822  21.421  1.00  0.00     0.136 C 
BRANCH  14  15
ATOM     15  C   UNL A   1      32.803  24.620  21.743  1.00  0.00     0.228 C 
ATOM     16  O   UNL A   1      33.354  23.947  20.878  1.00  0.00    -0.274 OA
ATOM     17  N   UNL A   1      32.884  24.408  23.101  1.00  0.00    -0.326 N 
ATOM     18  H   UNL A   1      32.498  25.089  23.697  1.00  0.00     0.169 HD
BRANCH  17  19
ATOM     19  C   UNL A   1      33.475  23.294  23.684  1.00  0.00     0.044 A 
ATOM     20  C   UNL A   1      34.819  23.261  24.047  1.00  0.00     0.026 A 
ATOM     21  C   UNL A   1      32.645  22.206  23.890  1.00  0.00     0.072 A 
ATOM     22  C   UNL A   1      35.329  22.099  24.623  1.00  0.00     0.006 A 
ATOM     23  C   UNL A   1      33.092  21.171  24.689  1.00  0.00     0.121 A 
ATOM     24  C   UNL A   1      34.456  21.067  24.975  1.00  0.00     0.046 A 
BRANCH  23  25
ATOM     25  O   UNL A   1      32.268  20.263  25.280  1.00  0.00    -0.491 OA
BRANCH  25  26
ATOM     26  C   UNL A   1      32.851  19.038  25.760  1.00  0.00     0.261 C 
BRANCH  26  27
ATOM     27  C   UNL A   1      32.994  17.863  24.762  1.00  0.00     0.156 C 
ATOM     28  C   UNL A   1      34.383  17.467  24.273  1.00  0.00     0.038 C 
ATOM     29  O   UNL A   1      32.181  18.035  23.587  1.00  0.00    -0.375 OA
ATOM     30  C   UNL A   1      34.069  16.729  22.997  1.00  0.00     0.031 C 
ATOM     31  C   UNL A   1      32.931  17.566  22.453  1.00  0.00     0.161 C 
ENDBRANCH  26  27
ENDBRANCH  25  26
ENDBRANCH  23  25
ENDBRANCH  17  19
ENDBRANCH  14  15
ENDBRANCH   9  14
ENDBRANCH   6   8
ENDBRANCH   5   6
ENDBRANCH   4   5
ENDBRANCH   3   4
ENDBRANCH   2   3
ENDBRANCH   1   2
BRANCH   1  32
ATOM     32  C   UNL A   1      32.671  28.325  27.055  1.00  0.00     0.188 C 
BRANCH  32  33
ATOM     33  O   UNL A   1      33.896  28.971  26.730  1.00  0.00    -0.377 OA
BRANCH  33  34
ATOM     34  C   UNL A   1      34.569  29.579  27.834  1.00  0.00     0.188 C 
BRANCH  34  35
ATOM     35  C   UNL A   1      35.127  30.998  27.612  1.00  0.00     0.188 C 
BRANCH  35  36
ATOM     36  O   UNL A   1      34.107  31.993  27.567  1.00  0.00    -0.376 OA
BRANCH  36  37
ATOM     37  C   UNL A   1      34.180  33.042  28.525  1.00  0.00     0.202 C 
BRANCH  37  38
ATOM     38  C   UNL A   1      35.464  33.050  29.367  1.00  0.00     0.261 C 
BRANCH  38  39
ATOM     39  O   UNL A   1      35.302  32.629  30.732  1.00  0.00    -0.460 OA
BRANCH  39  40
ATOM     40  C   UNL A   1      35.749  33.463  31.692  1.00  0.00     0.338 C 
ATOM     41  O   UNL A   1      35.236  34.502  32.069  1.00  0.00    -0.246 OA
BRANCH  40  42
ATOM     42  C   UNL A   1      36.891  32.818  32.363  1.00  0.00     0.060 A 
ATOM     43  C   UNL A   1      36.643  32.012  33.481  1.00  0.00     0.016 A 
ATOM     44  C   UNL A   1      38.197  33.033  31.915  1.00  0.00     0.016 A 
ATOM     45  C   UNL A   1      37.709  31.459  34.186  1.00  0.00     0.010 A 
ATOM     46  C   UNL A   1      39.265  32.492  32.632  1.00  0.00     0.010 A 
ATOM     47  C   UNL A   1      39.026  31.737  33.793  1.00  0.00    -0.014 A 
BRANCH  47  48
ATOM     48  C   UNL A   1      40.141  31.403  34.708  1.00  0.00     0.031 A 
ATOM     49  C   UNL A   1      40.483  32.375  35.804  1.00  0.00     0.074 A 
ATOM     50  C   UNL A   1      40.814  30.246  34.592  1.00  0.00     0.049 A 
ATOM     51  N   UNL A   1      41.400  32.293  36.733  1.00  0.00    -0.248 NA
ATOM     52  C   UNL A   1      39.678  33.607  35.857  1.00  0.00     0.031 C 
ATOM     53  C   UNL A   1      40.555  29.216  33.588  1.00  0.00     0.029 A 
ATOM     54  N   UNL A   1      41.856  29.746  35.330  1.00  0.00    -0.354 N 
ATOM     55  C   UNL A   1      41.278  33.456  37.483  1.00  0.00     0.074 A 
ATOM     56  C   UNL A   1      40.226  34.244  36.880  1.00  0.00     0.031 C 
ATOM     57  C   UNL A   1      41.423  28.205  33.772  1.00  0.00     0.029 A 
ATOM     58  C   UNL A   1      42.308  28.528  34.888  1.00  0.00     0.049 A 
ATOM     59  H   UNL A   1      42.244  30.217  36.103  1.00  0.00     0.167 HD
ATOM     60  C   UNL A   1      41.971  33.825  38.586  1.00  0.00     0.037 A 
ATOM     61  C   UNL A   1      43.330  27.770  35.334  1.00  0.00     0.037 A 
ATOM     62  C   UNL A   1      43.025  33.045  39.178  1.00  0.00     0.049 A 
ATOM     63  C   UNL A   1      44.133  28.238  36.522  1.00  0.00     0.074 A 
ATOM     64  C   UNL A   1      43.778  33.324  40.305  1.00  0.00     0.029 A 
ATOM     65  N   UNL A   1      43.480  31.833  38.682  1.00  0.00    -0.354 N 
ATOM     66  N   UNL A   1      43.983  29.318  37.252  1.00  0.00    -0.248 NA
ATOM     67  C   UNL A   1      45.241  27.374  36.953  1.00  0.00     0.031 C 
ATOM     68  C   UNL A   1      44.724  32.305  40.461  1.00  0.00     0.029 A 
ATOM     69  C   UNL A   1      44.525  31.364  39.462  1.00  0.00     0.049 A 
ATOM     70  H   UNL A   1      43.116  31.373  37.891  1.00  0.00     0.167 HD
ATOM     71  C   UNL A   1      44.959  29.251  38.240  1.00  0.00     0.074 A 
ATOM     72  C   UNL A   1      45.681  28.013  38.027  1.00  0.00     0.031 C 
ATOM     73  C   UNL A   1      45.234  30.132  39.233  1.00  0.00     0.037 A 
BRANCH  60  74
ATOM     74  C   UNL A   1      41.625  35.146  39.206  1.00  0.00     0.064 A 
ATOM     75  C   UNL A   1      40.633  35.258  40.193  1.00  0.00     0.173 A 
ATOM     76  C   UNL A   1      42.306  36.311  38.824  1.00  0.00     0.173 A 
ATOM     77  F   UNL A   1      39.940  34.176  40.578  1.00  0.00    -0.203 F 
ATOM     78  C   UNL A   1      40.319  36.492  40.757  1.00  0.00     0.198 A 
ATOM     79  C   UNL A   1      42.009  37.539  39.410  1.00  0.00     0.198 A 
ATOM     80  F   UNL A   1      43.261  36.259  37.884  1.00  0.00    -0.203 F 
ATOM     81  F   UNL A   1      39.336  36.583  41.662  1.00  0.00    -0.200 F 
ATOM     82  C   UNL A   1      41.012  37.630  40.370  1.00  0.00     0.200 A 
ATOM     83  F   UNL A   1      42.685  38.636  39.041  1.00  0.00    -0.200 F 
ATOM     84  F   UNL A   1      40.712  38.816  40.915  1.00  0.00    -0.200 F 
ENDBRANCH  60  74
BRANCH  61  85
ATOM     85  C   UNL A   1      43.656  26.488  34.656  1.00  0.00     0.064 A 
ATOM     86  C   UNL A   1      44.516  26.452  33.549  1.00  0.00     0.173 A 
ATOM     87  C   UNL A   1      43.099  25.276  35.087  1.00  0.00     0.173 A 
ATOM     88  F   UNL A   1      45.057  27.589  33.086  1.00  0.00    -0.203 F 
ATOM     89  C   UNL A   1      44.790  25.257  32.887  1.00  0.00     0.198 A 
ATOM     90  C   UNL A   1      43.397  24.077  34.444  1.00  0.00     0.198 A 
ATOM     91  F   UNL A   1      42.271  25.255  36.142  1.00  0.00    -0.203 F 
ATOM     92  F   UNL A   1      45.577  25.259  31.804  1.00  0.00    -0.200 F 
ATOM     93  C   UNL A   1      44.235  24.069  33.340  1.00  0.00     0.200 A 
ATOM     94  F   UNL A   1      42.876  22.929  34.898  1.00  0.00    -0.200 F 
ATOM     95  F   UNL A   1      44.503  22.918  32.709  1.00  0.00    -0.200 F 
ENDBRANCH  61  85
BRANCH  73  96
ATOM     96  C   UNL A   1      46.347  29.776  40.177  1.00  0.00     0.064 A 
ATOM     97  C   UNL A   1      47.657  30.233  39.976  1.00  0.00     0.173 A 
ATOM     98  C   UNL A   1      46.093  28.991  41.313  1.00  0.00     0.173 A 
ATOM     99  F   UNL A   1      47.955  30.976  38.899  1.00  0.00    -0.203 F 
ATOM    100  C   UNL A   1      48.679  29.889  40.857  1.00  0.00     0.198 A 
ATOM    101  C   UNL A   1      47.111  28.675  42.208  1.00  0.00     0.198 A 
ATOM    102  F   UNL A   1      44.855  28.536  41.558  1.00  0.00    -0.203 F 
ATOM    103  F   UNL A   1      49.935  30.292  40.614  1.00  0.00    -0.200 F 
ATOM    104  C   UNL A   1      48.405  29.116  41.975  1.00  0.00     0.200 A 
ATOM    105  F   UNL A   1      46.841  27.941  43.296  1.00  0.00    -0.200 F 
ATOM    106  F   UNL A   1      49.389  28.788  42.823  1.00  0.00    -0.200 F 
ENDBRANCH  73  96
ENDBRANCH  47  48
ENDBRANCH  40  42
ENDBRANCH  39  40
ENDBRANCH  38  39
ENDBRANCH  37  38
ENDBRANCH  36  37
ENDBRANCH  35  36
ENDBRANCH  34  35
ENDBRANCH  33  34
ENDBRANCH  32  33
ENDBRANCH   1  32
TORSDOF 26
ENDMDL
MODEL 3
REMARK VINA RESULT:      -9.5      7.201     11.348
REMARK SMILES O=C(Cc1ccccc1C(=O)OCCOCCOCCOCCOC(=O)c1ccc(-c2c3nc(c(-c4c(F)c(F)c(F)c(F)c4F)c4ccc([nH]4)c(-c4c(F)c(F)c(F)c(F)c4F)c4nc(c(-c5c(F)c(F)c(F)c(F)c5F)c5ccc2[nH]5)C=C4)C=C3)cc1)Nc1cccc(OC[C@@H]2CCCO2)c1
REMARK SMILES IDX 16 1 15 2 14 3 13 4 12 5 10 6 11 7 9 8 4 9 5 10 6 11 8 12
REMARK SMILES IDX 7 13 3 14 2 15 1 16 90 17 91 19 92 20 103 21 93 22 95 23
REMARK SMILES IDX 94 24 96 25 97 26 98 27 99 28 102 29 100 30 101 31 17 32
REMARK SMILES IDX 18 33 19 34 20 35 21 36 22 37 23 38 24 39 25 40 26 41 27 42
REMARK SMILES IDX 28 43 89 44 29 45 88 46 30 47 31 48 32 49 82 50 33 51 87 52
REMARK SMILES IDX 81 53 83 54 34 55 86 56 80 57 79 58 35 60 67 61 47 62 66 63
REMARK SMILES IDX 48 64 51 65 65 66 84 67 49 68 50 69 64 71 85 72 52 73 36 74
REMARK SMILES IDX 37 75 45 76 38 77 39 78 43 79 46 80 40 81 41 82 44 83 42 84
REMARK SMILES IDX 68 85 69 86 77 87 70 88 71 89 75 90 78 91 72 92 73 93 76 94
REMARK SMILES IDX 74 95 53 96 54 97 62 98 55 99 56 100 60 101 63 102 57 103
REMARK SMILES IDX 58 104 61 105 59 106
REMARK H PARENT 90 18 83 59 51 70
REMARK Flexibility Score: inf
ROOT
ATOM      1  C   UNL A   1      33.069  28.916  27.452  1.00  0.00     0.188 C 
ENDROOT
BRANCH   1   2
ATOM      2  O   UNL A   1      33.155  27.852  26.509  1.00  0.00    -0.376 OA
BRANCH   2   3
ATOM      3  C   UNL A   1      32.506  26.618  26.776  1.00  0.00     0.202 C 
BRANCH   3   4
ATOM      4  C   UNL A   1      31.223  26.265  26.023  1.00  0.00     0.261 C 
BRANCH   4   5
ATOM      5  O   UNL A   1      30.579  27.392  25.392  1.00  0.00    -0.460 OA
BRANCH   5   6
ATOM      6  C   UNL A   1      30.414  27.312  24.049  1.00  0.00     0.338 C 
ATOM      7  O   UNL A   1      29.343  27.242  23.466  1.00  0.00    -0.246 OA
BRANCH   6   8
ATOM      8  C   UNL A   1      31.703  27.497  23.317  1.00  0.00     0.063 A 
ATOM      9  C   UNL A   1      32.331  26.565  22.461  1.00  0.00    -0.024 A 
ATOM     10  C   UNL A   1      33.534  26.937  21.824  1.00  0.00     0.005 A 
ATOM     11  C   UNL A   1      34.101  28.192  22.029  1.00  0.00     0.000 A 
ATOM     12  C   UNL A   1      32.295  28.755  23.517  1.00  0.00     0.016 A 
ATOM     13  C   UNL A   1      33.487  29.099  22.882  1.00  0.00     0.001 A 
BRANCH   9  14
ATOM     14  C   UNL A   1      31.812  25.180  22.175  1.00  0.00     0.136 C 
BRANCH  14  15
ATOM     15  C   UNL A   1      32.869  24.117  22.369  1.00  0.00     0.228 C 
ATOM     16  O   UNL A   1      33.451  23.579  21.432  1.00  0.00    -0.274 OA
ATOM     17  N   UNL A   1      33.087  23.860  23.704  1.00  0.00    -0.326 N 
ATOM     18  H   UNL A   1      32.646  24.444  24.362  1.00  0.00     0.169 HD
BRANCH  17  19
ATOM     19  C   UNL A   1      33.887  22.830  24.182  1.00  0.00     0.044 A 
ATOM     20  C   UNL A   1      33.397  21.549  24.426  1.00  0.00     0.026 A 
ATOM     21  C   UNL A   1      35.216  23.149  24.405  1.00  0.00     0.072 A 
ATOM     22  C   UNL A   1      34.272  20.578  24.910  1.00  0.00     0.006 A 
ATOM     23  C   UNL A   1      36.115  22.125  24.632  1.00  0.00     0.121 A 
ATOM     24  C   UNL A   1      35.638  20.859  24.980  1.00  0.00     0.046 A 
BRANCH  23  25
ATOM     25  O   UNL A   1      37.461  22.255  24.474  1.00  0.00    -0.491 OA
BRANCH  25  26
ATOM     26  C   UNL A   1      38.316  21.470  25.326  1.00  0.00     0.261 C 
BRANCH  26  27
ATOM     27  C   UNL A   1      39.130  22.209  26.417  1.00  0.00     0.156 C 
ATOM     28  C   UNL A   1      38.878  23.694  26.653  1.00  0.00     0.038 C 
ATOM     29  O   UNL A   1      40.550  22.057  26.243  1.00  0.00    -0.375 OA
ATOM     30  C   UNL A   1      40.153  24.124  27.334  1.00  0.00     0.031 C 
ATOM     31  C   UNL A   1      41.176  23.310  26.569  1.00  0.00     0.161 C 
ENDBRANCH  26  27
ENDBRANCH  25  26
ENDBRANCH  23  25
ENDBRANCH  17  19
ENDBRANCH  14  15
ENDBRANCH   9  14
ENDBRANCH   6   8
ENDBRANCH   5   6
ENDBRANCH   4   5
ENDBRANCH   3   4
ENDBRANCH   2   3
ENDBRANCH   1   2
BRANCH   1  32
ATOM     32  C   UNL A   1      32.794  30.365  26.984  1.00  0.00     0.188 C 
BRANCH  32  33
ATOM     33  O   UNL A   1      33.920  31.234  27.016  1.00  0.00    -0.377 OA
BRANCH  33  34
ATOM     34  C   UNL A   1      34.010  32.063  28.176  1.00  0.00     0.188 C 
BRANCH  34  35
ATOM     35  C   UNL A   1      33.656  33.552  27.995  1.00  0.00     0.188 C 
BRANCH  35  36
ATOM     36  O   UNL A   1      32.789  34.043  29.015  1.00  0.00    -0.376 OA
BRANCH  36  37
ATOM     37  C   UNL A   1      33.244  35.158  29.772  1.00  0.00     0.202 C 
BRANCH  37  38
ATOM     38  C   UNL A   1      34.374  34.839  30.763  1.00  0.00     0.261 C 
BRANCH  38  39
ATOM     39  O   UNL A   1      34.013  33.952  31.836  1.00  0.00    -0.460 OA
BRANCH  39  40
ATOM     40  C   UNL A   1      34.695  32.793  31.934  1.00  0.00     0.338 C 
ATOM     41  O   UNL A   1      34.754  31.896  31.112  1.00  0.00    -0.246 OA
BRANCH  40  42
ATOM     42  C   UNL A   1      35.532  32.858  33.145  1.00  0.00     0.060 A 
ATOM     43  C   UNL A   1      35.317  33.902  34.053  1.00  0.00     0.016 A 
ATOM     44  C   UNL A   1      36.542  31.918  33.366  1.00  0.00     0.016 A 
ATOM     45  C   UNL A   1      36.148  34.037  35.162  1.00  0.00     0.010 A 
ATOM     46  C   UNL A   1      37.385  32.064  34.469  1.00  0.00     0.010 A 
ATOM     47  C   UNL A   1      37.216  33.147  35.348  1.00  0.00    -0.014 A 
BRANCH  47  48
ATOM     48  C   UNL A   1      38.263  33.469  36.344  1.00  0.00     0.031 A 
ATOM     49  C   UNL A   1      39.533  34.116  35.862  1.00  0.00     0.074 A 
ATOM     50  C   UNL A   1      38.078  33.226  37.652  1.00  0.00     0.049 A 
ATOM     51  N   UNL A   1      40.579  34.506  36.544  1.00  0.00    -0.248 NA
ATOM     52  C   UNL A   1      39.634  34.355  34.413  1.00  0.00     0.031 C 
ATOM     53  C   UNL A   1      36.880  32.629  38.239  1.00  0.00     0.029 A 
ATOM     54  N   UNL A   1      38.904  33.454  38.723  1.00  0.00    -0.354 N 
ATOM     55  C   UNL A   1      41.457  35.042  35.610  1.00  0.00     0.074 A 
ATOM     56  C   UNL A   1      40.840  34.893  34.311  1.00  0.00     0.031 C 
ATOM     57  C   UNL A   1      37.052  32.533  39.569  1.00  0.00     0.029 A 
ATOM     58  C   UNL A   1      38.377  33.040  39.921  1.00  0.00     0.049 A 
ATOM     59  H   UNL A   1      39.790  33.873  38.641  1.00  0.00     0.167 HD
ATOM     60  C   UNL A   1      42.663  35.620  35.820  1.00  0.00     0.037 A 
ATOM     61  C   UNL A   1      38.913  33.062  41.157  1.00  0.00     0.037 A 
ATOM     62  C   UNL A   1      43.281  35.758  37.112  1.00  0.00     0.049 A 
ATOM     63  C   UNL A   1      40.289  33.648  41.354  1.00  0.00     0.074 A 
ATOM     64  C   UNL A   1      44.492  36.343  37.433  1.00  0.00     0.029 A 
ATOM     65  N   UNL A   1      42.733  35.293  38.299  1.00  0.00    -0.354 N 
ATOM     66  N   UNL A   1      41.094  34.191  40.472  1.00  0.00    -0.248 NA
ATOM     67  C   UNL A   1      40.825  33.632  42.723  1.00  0.00     0.031 C 
ATOM     68  C   UNL A   1      44.702  36.187  38.807  1.00  0.00     0.029 A 
ATOM     69  C   UNL A   1      43.596  35.552  39.352  1.00  0.00     0.049 A 
ATOM     70  H   UNL A   1      41.860  34.845  38.382  1.00  0.00     0.167 HD
ATOM     71  C   UNL A   1      42.217  34.602  41.181  1.00  0.00     0.074 A 
ATOM     72  C   UNL A   1      41.979  34.263  42.569  1.00  0.00     0.031 C 
ATOM     73  C   UNL A   1      43.344  35.205  40.726  1.00  0.00     0.037 A 
BRANCH  60  74
ATOM     74  C   UNL A   1      43.403  36.124  34.617  1.00  0.00     0.064 A 
ATOM     75  C   UNL A   1      43.211  37.425  34.127  1.00  0.00     0.173 A 
ATOM     76  C   UNL A   1      44.331  35.304  33.958  1.00  0.00     0.173 A 
ATOM     77  F   UNL A   1      42.320  38.241  34.711  1.00  0.00    -0.203 F 
ATOM     78  C   UNL A   1      43.903  37.878  33.006  1.00  0.00     0.198 A 
ATOM     79  C   UNL A   1      45.041  35.769  32.855  1.00  0.00     0.198 A 
ATOM     80  F   UNL A   1      44.550  34.052  34.385  1.00  0.00    -0.203 F 
ATOM     81  F   UNL A   1      43.668  39.106  32.526  1.00  0.00    -0.200 F 
ATOM     82  C   UNL A   1      44.822  37.052  32.375  1.00  0.00     0.200 A 
ATOM     83  F   UNL A   1      45.934  34.973  32.251  1.00  0.00    -0.200 F 
ATOM     84  F   UNL A   1      45.489  37.489  31.299  1.00  0.00    -0.200 F 
ENDBRANCH  60  74
BRANCH  61  85
ATOM     85  C   UNL A   1      38.152  32.511  42.308  1.00  0.00     0.064 A 
ATOM     86  C   UNL A   1      38.309  31.177  42.710  1.00  0.00     0.173 A 
ATOM     87  C   UNL A   1      37.236  33.301  43.018  1.00  0.00     0.173 A 
ATOM     88  F   UNL A   1      39.158  30.375  42.049  1.00  0.00    -0.203 F 
ATOM     89  C   UNL A   1      37.565  30.648  43.763  1.00  0.00     0.198 A 
ATOM     90  C   UNL A   1      36.515  32.780  44.091  1.00  0.00     0.198 A 
ATOM     91  F   UNL A   1      37.049  34.583  42.676  1.00  0.00    -0.203 F 
ATOM     92  F   UNL A   1      37.701  29.358  44.095  1.00  0.00    -0.200 F 
ATOM     93  C   UNL A   1      36.674  31.453  44.457  1.00  0.00     0.200 A 
ATOM     94  F   UNL A   1      35.671  33.567  44.771  1.00  0.00    -0.200 F 
ATOM     95  F   UNL A   1      35.963  30.948  45.474  1.00  0.00    -0.200 F 
ENDBRANCH  61  85
BRANCH  73  96
ATOM     96  C   UNL A   1      44.392  35.557  41.743  1.00  0.00     0.064 A 
ATOM     97  C   UNL A   1      45.427  34.669  42.071  1.00  0.00     0.173 A 
ATOM     98  C   UNL A   1      44.377  36.810  42.377  1.00  0.00     0.173 A 
ATOM     99  F   UNL A   1      45.479  33.454  41.504  1.00  0.00    -0.203 F 
ATOM    100  C   UNL A   1      46.387  35.008  43.021  1.00  0.00     0.198 A 
ATOM    101  C   UNL A   1      45.357  37.157  43.302  1.00  0.00     0.198 A 
ATOM    102  F   UNL A   1      43.415  37.700  42.091  1.00  0.00    -0.203 F 
ATOM    103  F   UNL A   1      47.335  34.121  43.358  1.00  0.00    -0.200 F 
ATOM    104  C   UNL A   1      46.355  36.253  43.631  1.00  0.00     0.200 A 
ATOM    105  F   UNL A   1      45.333  38.366  43.879  1.00  0.00    -0.200 F 
ATOM    106  F   UNL A   1      47.282  36.578  44.543  1.00  0.00    -0.200 F 
ENDBRANCH  73  96
ENDBRANCH  47  48
ENDBRANCH  40  42
ENDBRANCH  39  40
ENDBRANCH  38  39
ENDBRANCH  37  38
ENDBRANCH  36  37
ENDBRANCH  35  36
ENDBRANCH  34  35
ENDBRANCH  33  34
ENDBRANCH  32  33
ENDBRANCH   1  32
TORSDOF 26
ENDMDL
