MODEL 1
REMARK VINA RESULT:      -9.4      0.000      0.000
REMARK SMILES C[C@H](NC(=O)N1CC[C@H](C(=O)OCCOCCOCCOCCOC(=O)c2ccc(-c3c4nc(c(-c5c(F)c(F)c(F)c(F)c5F)c5ccc([nH]5)c(-c5c(F)c(F)c(F)c(F)c5F)c5nc(c(-c6c(F)c(F)c(F)c(F)c6F)c6ccc3[nH]6)C=C5)C=C4)cc2)[C@H]1C)c1ccsc1
REMARK SMILES IDX 17 1 16 2 15 3 14 4 13 5 12 6 10 7 11 8 9 9 6 10 7 11 90 12
REMARK SMILES IDX 8 13 91 14 4 15 3 16 5 18 2 19 1 20 92 21 93 22 96 23 94 24
REMARK SMILES IDX 95 25 18 26 19 27 20 28 21 29 22 30 23 31 24 32 25 33 26 34
REMARK SMILES IDX 27 35 28 36 89 37 29 38 88 39 30 40 31 41 32 42 82 43 33 44
REMARK SMILES IDX 87 45 81 46 83 47 34 48 86 49 80 50 79 51 35 53 67 54 47 55
REMARK SMILES IDX 66 56 48 57 51 58 65 59 84 60 49 61 50 62 64 64 85 65 52 66
REMARK SMILES IDX 36 67 37 68 45 69 38 70 39 71 43 72 46 73 40 74 41 75 44 76
REMARK SMILES IDX 42 77 68 78 69 79 77 80 70 81 71 82 75 83 78 84 72 85 73 86
REMARK SMILES IDX 76 87 74 88 53 89 54 90 62 91 55 92 56 93 60 94 63 95 57 96
REMARK SMILES IDX 58 97 61 98 59 99
REMARK H PARENT 3 17 83 52 51 63
REMARK Flexibility Score: inf
ROOT
ATOM      1  C   UNL A   1      39.979  21.688  26.394  1.00  0.00     0.188 C 
ENDROOT
BRANCH   1   2
ATOM      2  C   UNL A   1      38.916  22.818  26.410  1.00  0.00     0.188 C 
BRANCH   2   3
ATOM      3  O   UNL A   1      37.978  22.754  25.338  1.00  0.00    -0.376 OA
BRANCH   3   4
ATOM      4  C   UNL A   1      36.639  22.426  25.679  1.00  0.00     0.202 C 
BRANCH   4   5
ATOM      5  C   UNL A   1      35.772  22.061  24.471  1.00  0.00     0.261 C 
BRANCH   5   6
ATOM      6  O   UNL A   1      34.365  21.974  24.759  1.00  0.00    -0.463 OA
BRANCH   6   7
ATOM      7  C   UNL A   1      33.519  22.651  23.938  1.00  0.00     0.311 C 
ATOM      8  O   UNL A   1      33.493  22.521  22.724  1.00  0.00    -0.252 OA
BRANCH   7   9
ATOM      9  C   UNL A   1      32.668  23.613  24.751  1.00  0.00     0.123 C 
ATOM     10  N   UNL A   1      32.750  25.808  23.790  1.00  0.00    -0.321 N 
ATOM     11  C   UNL A   1      33.900  25.643  24.680  1.00  0.00     0.122 C 
ATOM     12  C   UNL A   1      31.859  24.648  23.935  1.00  0.00     0.098 C 
ATOM     13  C   UNL A   1      33.547  24.503  25.621  1.00  0.00     0.039 C 
ATOM     14  C   UNL A   1      30.568  24.947  24.710  1.00  0.00     0.032 C 
BRANCH  10  15
ATOM     15  C   UNL A   1      33.020  26.377  22.571  1.00  0.00     0.318 C 
ATOM     16  N   UNL A   1      32.423  27.501  22.144  1.00  0.00    -0.331 N 
ATOM     17  H   UNL A   1      32.594  27.642  21.184  1.00  0.00     0.165 HD
ATOM     18  O   UNL A   1      33.875  25.916  21.809  1.00  0.00    -0.249 OA
BRANCH  16  19
ATOM     19  C   UNL A   1      31.596  28.570  22.681  1.00  0.00     0.112 C 
ATOM     20  C   UNL A   1      30.117  28.477  22.338  1.00  0.00     0.036 C 
BRANCH  19  21
ATOM     21  C   UNL A   1      31.974  28.972  24.089  1.00  0.00    -0.015 A 
ATOM     22  C   UNL A   1      33.327  29.311  24.470  1.00  0.00     0.017 A 
ATOM     23  C   UNL A   1      31.157  29.067  25.199  1.00  0.00     0.070 A 
ATOM     24  C   UNL A   1      33.460  29.625  25.805  1.00  0.00     0.065 A 
ATOM     25  S   UNL A   1      31.969  29.538  26.627  1.00  0.00    -0.152 S 
ENDBRANCH  19  21
ENDBRANCH  16  19
ENDBRANCH  10  15
ENDBRANCH   7   9
ENDBRANCH   6   7
ENDBRANCH   5   6
ENDBRANCH   4   5
ENDBRANCH   3   4
ENDBRANCH   2   3
ENDBRANCH   1   2
BRANCH   1  26
ATOM     26  O   UNL A   1      40.827  21.422  27.504  1.00  0.00    -0.377 OA
BRANCH  26  27
ATOM     27  C   UNL A   1      41.802  20.404  27.340  1.00  0.00     0.188 C 
BRANCH  27  28
ATOM     28  C   UNL A   1      42.494  20.477  25.968  1.00  0.00     0.188 C 
BRANCH  28  29
ATOM     29  O   UNL A   1      43.807  21.016  26.052  1.00  0.00    -0.376 OA
BRANCH  29  30
ATOM     30  C   UNL A   1      44.074  22.266  25.435  1.00  0.00     0.202 C 
BRANCH  30  31
ATOM     31  C   UNL A   1      43.084  23.439  25.546  1.00  0.00     0.261 C 
BRANCH  31  32
ATOM     32  O   UNL A   1      43.601  24.715  25.947  1.00  0.00    -0.460 OA
BRANCH  32  33
ATOM     33  C   UNL A   1      42.898  25.828  25.660  1.00  0.00     0.338 C 
ATOM     34  O   UNL A   1      42.424  26.155  24.589  1.00  0.00    -0.246 OA
BRANCH  33  35
ATOM     35  C   UNL A   1      42.632  26.488  26.959  1.00  0.00     0.060 A 
ATOM     36  C   UNL A   1      41.648  25.962  27.810  1.00  0.00     0.016 A 
ATOM     37  C   UNL A   1      43.421  27.565  27.372  1.00  0.00     0.016 A 
ATOM     38  C   UNL A   1      41.454  26.513  29.077  1.00  0.00     0.010 A 
ATOM     39  C   UNL A   1      43.201  28.139  28.625  1.00  0.00     0.010 A 
ATOM     40  C   UNL A   1      42.204  27.627  29.475  1.00  0.00    -0.014 A 
BRANCH  40  41
ATOM     41  C   UNL A   1      41.809  28.404  30.671  1.00  0.00     0.031 A 
ATOM     42  C   UNL A   1      40.635  29.331  30.543  1.00  0.00     0.074 A 
ATOM     43  C   UNL A   1      42.476  28.306  31.833  1.00  0.00     0.049 A 
ATOM     44  N   UNL A   1      40.143  30.181  31.405  1.00  0.00    -0.248 NA
ATOM     45  C   UNL A   1      39.919  29.292  29.256  1.00  0.00     0.031 C 
ATOM     46  C   UNL A   1      43.593  27.403  32.096  1.00  0.00     0.029 A 
ATOM     47  N   UNL A   1      42.309  28.991  33.012  1.00  0.00    -0.354 N 
ATOM     48  C   UNL A   1      39.063  30.776  30.767  1.00  0.00     0.074 A 
ATOM     49  C   UNL A   1      38.991  30.217  29.435  1.00  0.00     0.031 C 
ATOM     50  C   UNL A   1      44.020  27.597  33.357  1.00  0.00     0.029 A 
ATOM     51  C   UNL A   1      43.232  28.667  33.973  1.00  0.00     0.049 A 
ATOM     52  H   UNL A   1      41.594  29.654  33.153  1.00  0.00     0.167 HD
ATOM     53  C   UNL A   1      38.204  31.703  31.251  1.00  0.00     0.037 A 
ATOM     54  C   UNL A   1      43.430  29.195  35.196  1.00  0.00     0.037 A 
ATOM     55  C   UNL A   1      38.297  32.276  32.566  1.00  0.00     0.049 A 
ATOM     56  C   UNL A   1      42.541  30.321  35.666  1.00  0.00     0.074 A 
ATOM     57  C   UNL A   1      37.477  33.219  33.158  1.00  0.00     0.029 A 
ATOM     58  N   UNL A   1      39.288  31.969  33.488  1.00  0.00    -0.354 N 
ATOM     59  N   UNL A   1      41.506  30.865  35.072  1.00  0.00    -0.248 NA
ATOM     60  C   UNL A   1      42.858  30.915  36.973  1.00  0.00     0.031 C 
ATOM     61  C   UNL A   1      38.005  33.527  34.415  1.00  0.00     0.029 A 
ATOM     62  C   UNL A   1      39.121  32.734  34.631  1.00  0.00     0.049 A 
ATOM     63  H   UNL A   1      40.002  31.307  33.350  1.00  0.00     0.167 HD
ATOM     64  C   UNL A   1      41.031  31.840  35.940  1.00  0.00     0.074 A 
ATOM     65  C   UNL A   1      41.888  31.809  37.108  1.00  0.00     0.031 C 
ATOM     66  C   UNL A   1      39.981  32.684  35.787  1.00  0.00     0.037 A 
BRANCH  53  67
ATOM     67  C   UNL A   1      37.120  32.175  30.327  1.00  0.00     0.064 A 
ATOM     68  C   UNL A   1      37.123  33.471  29.789  1.00  0.00     0.173 A 
ATOM     69  C   UNL A   1      36.056  31.326  29.989  1.00  0.00     0.173 A 
ATOM     70  F   UNL A   1      38.108  34.329  30.098  1.00  0.00    -0.203 F 
ATOM     71  C   UNL A   1      36.081  33.912  28.977  1.00  0.00     0.198 A 
ATOM     72  C   UNL A   1      35.033  31.759  29.151  1.00  0.00     0.198 A 
ATOM     73  F   UNL A   1      36.004  30.079  30.478  1.00  0.00    -0.203 F 
ATOM     74  F   UNL A   1      36.073  35.174  28.526  1.00  0.00    -0.200 F 
ATOM     75  C   UNL A   1      35.040  33.055  28.654  1.00  0.00     0.200 A 
ATOM     76  F   UNL A   1      34.032  30.927  28.833  1.00  0.00    -0.200 F 
ATOM     77  F   UNL A   1      34.036  33.481  27.876  1.00  0.00    -0.200 F 
ENDBRANCH  53  67
BRANCH  54  78
ATOM     78  C   UNL A   1      44.519  28.680  36.068  1.00  0.00     0.064 A 
ATOM     79  C   UNL A   1      44.285  27.628  36.963  1.00  0.00     0.173 A 
ATOM     80  C   UNL A   1      45.805  29.238  36.040  1.00  0.00     0.173 A 
ATOM     81  F   UNL A   1      43.064  27.081  37.048  1.00  0.00    -0.203 F 
ATOM     82  C   UNL A   1      45.292  27.160  37.807  1.00  0.00     0.198 A 
ATOM     83  C   UNL A   1      46.820  28.753  36.865  1.00  0.00     0.198 A 
ATOM     84  F   UNL A   1      46.081  30.253  35.208  1.00  0.00    -0.203 F 
ATOM     85  F   UNL A   1      45.029  26.181  38.684  1.00  0.00    -0.200 F 
ATOM     86  C   UNL A   1      46.561  27.719  37.751  1.00  0.00     0.200 A 
ATOM     87  F   UNL A   1      48.046  29.288  36.802  1.00  0.00    -0.200 F 
ATOM     88  F   UNL A   1      47.529  27.266  38.559  1.00  0.00    -0.200 F 
ENDBRANCH  54  78
BRANCH  66  89
ATOM     89  C   UNL A   1      39.676  33.626  36.916  1.00  0.00     0.064 A 
ATOM     90  C   UNL A   1      40.163  34.940  36.932  1.00  0.00     0.173 A 
ATOM     91  C   UNL A   1      38.829  33.227  37.963  1.00  0.00     0.173 A 
ATOM     92  F   UNL A   1      40.989  35.366  35.963  1.00  0.00    -0.203 F 
ATOM     93  C   UNL A   1      39.827  35.817  37.961  1.00  0.00     0.198 A 
ATOM     94  C   UNL A   1      38.470  34.114  38.973  1.00  0.00     0.198 A 
ATOM     95  F   UNL A   1      38.329  31.982  37.991  1.00  0.00    -0.203 F 
ATOM     96  F   UNL A   1      40.336  37.056  37.976  1.00  0.00    -0.200 F 
ATOM     97  C   UNL A   1      38.973  35.406  38.974  1.00  0.00     0.200 A 
ATOM     98  F   UNL A   1      37.632  33.721  39.942  1.00  0.00    -0.200 F 
ATOM     99  F   UNL A   1      38.638  36.255  39.955  1.00  0.00    -0.200 F 
ENDBRANCH  66  89
ENDBRANCH  40  41
ENDBRANCH  33  35
ENDBRANCH  32  33
ENDBRANCH  31  32
ENDBRANCH  30  31
ENDBRANCH  29  30
ENDBRANCH  28  29
ENDBRANCH  27  28
ENDBRANCH  26  27
ENDBRANCH   1  26
TORSDOF 23
ENDMDL
MODEL 2
REMARK VINA RESULT:      -9.4      4.742      6.797
REMARK SMILES C[C@H](NC(=O)N1CC[C@H](C(=O)OCCOCCOCCOCCOC(=O)c2ccc(-c3c4nc(c(-c5c(F)c(F)c(F)c(F)c5F)c5ccc([nH]5)c(-c5c(F)c(F)c(F)c(F)c5F)c5nc(c(-c6c(F)c(F)c(F)c(F)c6F)c6ccc3[nH]6)C=C5)C=C4)cc2)[C@H]1C)c1ccsc1
REMARK SMILES IDX 17 1 16 2 15 3 14 4 13 5 12 6 10 7 11 8 9 9 6 10 7 11 90 12
REMARK SMILES IDX 8 13 91 14 4 15 3 16 5 18 2 19 1 20 92 21 93 22 96 23 94 24
REMARK SMILES IDX 95 25 18 26 19 27 20 28 21 29 22 30 23 31 24 32 25 33 26 34
REMARK SMILES IDX 27 35 28 36 89 37 29 38 88 39 30 40 31 41 32 42 82 43 33 44
REMARK SMILES IDX 87 45 81 46 83 47 34 48 86 49 80 50 79 51 35 53 67 54 47 55
REMARK SMILES IDX 66 56 48 57 51 58 65 59 84 60 49 61 50 62 64 64 85 65 52 66
REMARK SMILES IDX 36 67 37 68 45 69 38 70 39 71 43 72 46 73 40 74 41 75 44 76
REMARK SMILES IDX 42 77 68 78 69 79 77 80 70 81 71 82 75 83 78 84 72 85 73 86
REMARK SMILES IDX 76 87 74 88 53 89 54 90 62 91 55 92 56 93 60 94 63 95 57 96
REMARK SMILES IDX 58 97 61 98 59 99
REMARK H PARENT 3 17 83 52 51 63
REMARK Flexibility Score: inf
ROOT
ATOM      1  C   UNL A   1      40.864  26.358  26.979  1.00  0.00     0.188 C 
ENDROOT
BRANCH   1   2
ATOM      2  C   UNL A   1      40.391  27.213  28.185  1.00  0.00     0.188 C 
BRANCH   2   3
ATOM      3  O   UNL A   1      39.431  26.567  29.018  1.00  0.00    -0.376 OA
BRANCH   3   4
ATOM      4  C   UNL A   1      38.949  27.307  30.131  1.00  0.00     0.202 C 
BRANCH   4   5
ATOM      5  C   UNL A   1      40.028  28.139  30.828  1.00  0.00     0.261 C 
BRANCH   5   6
ATOM      6  O   UNL A   1      39.514  29.194  31.661  1.00  0.00    -0.463 OA
BRANCH   6   7
ATOM      7  C   UNL A   1      40.086  30.420  31.535  1.00  0.00     0.311 C 
ATOM      8  O   UNL A   1      40.895  30.713  30.670  1.00  0.00    -0.252 OA
BRANCH   7   9
ATOM      9  C   UNL A   1      39.606  31.332  32.654  1.00  0.00     0.123 C 
ATOM     10  N   UNL A   1      37.292  31.878  32.344  1.00  0.00    -0.321 N 
ATOM     11  C   UNL A   1      38.103  32.812  31.562  1.00  0.00     0.122 C 
ATOM     12  C   UNL A   1      38.179  31.055  33.180  1.00  0.00     0.098 C 
ATOM     13  C   UNL A   1      39.498  32.771  32.165  1.00  0.00     0.039 C 
ATOM     14  C   UNL A   1      38.150  31.424  34.669  1.00  0.00     0.032 C 
BRANCH  10  15
ATOM     15  C   UNL A   1      36.200  31.356  31.699  1.00  0.00     0.318 C 
ATOM     16  N   UNL A   1      35.023  31.996  31.627  1.00  0.00    -0.331 N 
ATOM     17  H   UNL A   1      34.317  31.391  31.303  1.00  0.00     0.165 HD
ATOM     18  O   UNL A   1      36.250  30.280  31.095  1.00  0.00    -0.249 OA
BRANCH  16  19
ATOM     19  C   UNL A   1      34.483  33.321  31.887  1.00  0.00     0.112 C 
ATOM     20  C   UNL A   1      35.055  34.023  33.108  1.00  0.00     0.036 C 
BRANCH  19  21
ATOM     21  C   UNL A   1      34.268  34.139  30.634  1.00  0.00    -0.015 A 
ATOM     22  C   UNL A   1      34.961  33.869  29.394  1.00  0.00     0.017 A 
ATOM     23  C   UNL A   1      33.439  35.231  30.457  1.00  0.00     0.070 A 
ATOM     24  C   UNL A   1      34.639  34.747  28.382  1.00  0.00     0.065 A 
ATOM     25  S   UNL A   1      33.490  35.900  28.885  1.00  0.00    -0.152 S 
ENDBRANCH  19  21
ENDBRANCH  16  19
ENDBRANCH  10  15
ENDBRANCH   7   9
ENDBRANCH   6   7
ENDBRANCH   5   6
ENDBRANCH   4   5
ENDBRANCH   3   4
ENDBRANCH   2   3
ENDBRANCH   1   2
BRANCH   1  26
ATOM     26  O   UNL A   1      41.519  25.106  27.142  1.00  0.00    -0.377 OA
BRANCH  26  27
ATOM     27  C   UNL A   1      42.556  25.043  28.108  1.00  0.00     0.188 C 
BRANCH  27  28
ATOM     28  C   UNL A   1      43.560  23.916  27.809  1.00  0.00     0.188 C 
BRANCH  28  29
ATOM     29  O   UNL A   1      44.790  24.409  27.293  1.00  0.00    -0.376 OA
BRANCH  29  30
ATOM     30  C   UNL A   1      45.533  23.594  26.400  1.00  0.00     0.202 C 
BRANCH  30  31
ATOM     31  C   UNL A   1      46.160  24.178  25.121  1.00  0.00     0.261 C 
BRANCH  31  32
ATOM     32  O   UNL A   1      45.643  25.422  24.630  1.00  0.00    -0.460 OA
BRANCH  32  33
ATOM     33  C   UNL A   1      46.431  26.514  24.648  1.00  0.00     0.338 C 
ATOM     34  O   UNL A   1      47.293  26.825  23.848  1.00  0.00    -0.246 OA
BRANCH  33  35
ATOM     35  C   UNL A   1      45.903  27.380  25.727  1.00  0.00     0.060 A 
ATOM     36  C   UNL A   1      46.799  28.074  26.554  1.00  0.00     0.016 A 
ATOM     37  C   UNL A   1      44.525  27.577  25.856  1.00  0.00     0.016 A 
ATOM     38  C   UNL A   1      46.316  28.968  27.510  1.00  0.00     0.010 A 
ATOM     39  C   UNL A   1      44.042  28.443  26.837  1.00  0.00     0.010 A 
ATOM     40  C   UNL A   1      44.934  29.128  27.680  1.00  0.00    -0.014 A 
BRANCH  40  41
ATOM     41  C   UNL A   1      44.406  29.827  28.873  1.00  0.00     0.031 A 
ATOM     42  C   UNL A   1      44.235  31.316  28.789  1.00  0.00     0.074 A 
ATOM     43  C   UNL A   1      44.100  29.169  30.004  1.00  0.00     0.049 A 
ATOM     44  N   UNL A   1      43.878  32.170  29.713  1.00  0.00    -0.248 NA
ATOM     45  C   UNL A   1      44.509  31.924  27.477  1.00  0.00     0.031 C 
ATOM     46  C   UNL A   1      44.171  27.722  30.188  1.00  0.00     0.029 A 
ATOM     47  N   UNL A   1      43.677  29.645  31.220  1.00  0.00    -0.354 N 
ATOM     48  C   UNL A   1      43.885  33.412  29.093  1.00  0.00     0.074 A 
ATOM     49  C   UNL A   1      44.314  33.208  27.728  1.00  0.00     0.031 C 
ATOM     50  C   UNL A   1      43.812  27.427  31.451  1.00  0.00     0.029 A 
ATOM     51  C   UNL A   1      43.528  28.668  32.172  1.00  0.00     0.049 A 
ATOM     52  H   UNL A   1      43.498  30.598  31.393  1.00  0.00     0.167 HD
ATOM     53  C   UNL A   1      43.557  34.617  29.617  1.00  0.00     0.037 A 
ATOM     54  C   UNL A   1      43.223  28.775  33.480  1.00  0.00     0.037 A 
ATOM     55  C   UNL A   1      43.158  34.818  30.983  1.00  0.00     0.049 A 
ATOM     56  C   UNL A   1      42.991  30.143  34.075  1.00  0.00     0.074 A 
ATOM     57  C   UNL A   1      42.800  35.994  31.615  1.00  0.00     0.029 A 
ATOM     58  N   UNL A   1      43.083  33.811  31.935  1.00  0.00    -0.354 N 
ATOM     59  N   UNL A   1      42.973  31.313  33.483  1.00  0.00    -0.248 NA
ATOM     60  C   UNL A   1      42.747  30.203  35.524  1.00  0.00     0.031 C 
ATOM     61  C   UNL A   1      42.567  35.710  32.964  1.00  0.00     0.029 A 
ATOM     62  C   UNL A   1      42.722  34.348  33.161  1.00  0.00     0.049 A 
ATOM     63  H   UNL A   1      43.260  32.859  31.765  1.00  0.00     0.167 HD
ATOM     64  C   UNL A   1      42.689  32.242  34.476  1.00  0.00     0.074 A 
ATOM     65  C   UNL A   1      42.533  31.499  35.710  1.00  0.00     0.031 C 
ATOM     66  C   UNL A   1      42.566  33.589  34.377  1.00  0.00     0.037 A 
BRANCH  53  67
ATOM     67  C   UNL A   1      43.661  35.806  28.708  1.00  0.00     0.064 A 
ATOM     68  C   UNL A   1      44.868  36.502  28.541  1.00  0.00     0.173 A 
ATOM     69  C   UNL A   1      42.536  36.264  28.006  1.00  0.00     0.173 A 
ATOM     70  F   UNL A   1      45.968  36.116  29.205  1.00  0.00    -0.203 F 
ATOM     71  C   UNL A   1      44.935  37.636  27.736  1.00  0.00     0.198 A 
ATOM     72  C   UNL A   1      42.615  37.378  27.177  1.00  0.00     0.198 A 
ATOM     73  F   UNL A   1      41.358  35.635  28.132  1.00  0.00    -0.203 F 
ATOM     74  F   UNL A   1      46.082  38.323  27.642  1.00  0.00    -0.200 F 
ATOM     75  C   UNL A   1      43.810  38.070  27.050  1.00  0.00     0.200 A 
ATOM     76  F   UNL A   1      41.529  37.791  26.507  1.00  0.00    -0.200 F 
ATOM     77  F   UNL A   1      43.875  39.164  26.279  1.00  0.00    -0.200 F 
ENDBRANCH  53  67
BRANCH  54  78
ATOM     78  C   UNL A   1      43.130  27.557  34.329  1.00  0.00     0.064 A 
ATOM     79  C   UNL A   1      41.900  26.915  34.529  1.00  0.00     0.173 A 
ATOM     80  C   UNL A   1      44.256  27.024  34.972  1.00  0.00     0.173 A 
ATOM     81  F   UNL A   1      40.789  27.404  33.960  1.00  0.00    -0.203 F 
ATOM     82  C   UNL A   1      41.799  25.791  35.349  1.00  0.00     0.198 A 
ATOM     83  C   UNL A   1      44.158  25.885  35.771  1.00  0.00     0.198 A 
ATOM     84  F   UNL A   1      45.455  27.605  34.821  1.00  0.00    -0.203 F 
ATOM     85  F   UNL A   1      40.603  25.223  35.557  1.00  0.00    -0.200 F 
ATOM     86  C   UNL A   1      42.929  25.274  35.964  1.00  0.00     0.200 A 
ATOM     87  F   UNL A   1      45.254  25.382  36.355  1.00  0.00    -0.200 F 
ATOM     88  F   UNL A   1      42.831  24.192  36.748  1.00  0.00    -0.200 F 
ENDBRANCH  54  78
BRANCH  66  89
ATOM     89  C   UNL A   1      42.219  34.350  35.625  1.00  0.00     0.064 A 
ATOM     90  C   UNL A   1      43.209  34.821  36.499  1.00  0.00     0.173 A 
ATOM     91  C   UNL A   1      40.883  34.667  35.914  1.00  0.00     0.173 A 
ATOM     92  F   UNL A   1      44.500  34.531  36.277  1.00  0.00    -0.203 F 
ATOM     93  C   UNL A   1      42.872  35.570  37.625  1.00  0.00     0.198 A 
ATOM     94  C   UNL A   1      40.552  35.441  37.022  1.00  0.00     0.198 A 
ATOM     95  F   UNL A   1      39.898  34.246  35.105  1.00  0.00    -0.203 F 
ATOM     96  F   UNL A   1      43.831  35.977  38.467  1.00  0.00    -0.200 F 
ATOM     97  C   UNL A   1      41.546  35.887  37.879  1.00  0.00     0.200 A 
ATOM     98  F   UNL A   1      39.272  35.761  37.257  1.00  0.00    -0.200 F 
ATOM     99  F   UNL A   1      41.226  36.620  38.954  1.00  0.00    -0.200 F 
ENDBRANCH  66  89
ENDBRANCH  40  41
ENDBRANCH  33  35
ENDBRANCH  32  33
ENDBRANCH  31  32
ENDBRANCH  30  31
ENDBRANCH  29  30
ENDBRANCH  28  29
ENDBRANCH  27  28
ENDBRANCH  26  27
ENDBRANCH   1  26
TORSDOF 23
ENDMDL
MODEL 3
REMARK VINA RESULT:      -9.2      4.720     10.557
REMARK SMILES C[C@H](NC(=O)N1CC[C@H](C(=O)OCCOCCOCCOCCOC(=O)c2ccc(-c3c4nc(c(-c5c(F)c(F)c(F)c(F)c5F)c5ccc([nH]5)c(-c5c(F)c(F)c(F)c(F)c5F)c5nc(c(-c6c(F)c(F)c(F)c(F)c6F)c6ccc3[nH]6)C=C5)C=C4)cc2)[C@H]1C)c1ccsc1
REMARK SMILES IDX 17 1 16 2 15 3 14 4 13 5 12 6 10 7 11 8 9 9 6 10 7 11 90 12
REMARK SMILES IDX 8 13 91 14 4 15 3 16 5 18 2 19 1 20 92 21 93 22 96 23 94 24
REMARK SMILES IDX 95 25 18 26 19 27 20 28 21 29 22 30 23 31 24 32 25 33 26 34
REMARK SMILES IDX 27 35 28 36 89 37 29 38 88 39 30 40 31 41 32 42 82 43 33 44
REMARK SMILES IDX 87 45 81 46 83 47 34 48 86 49 80 50 79 51 35 53 67 54 47 55
REMARK SMILES IDX 66 56 48 57 51 58 65 59 84 60 49 61 50 62 64 64 85 65 52 66
REMARK SMILES IDX 36 67 37 68 45 69 38 70 39 71 43 72 46 73 40 74 41 75 44 76
REMARK SMILES IDX 42 77 68 78 69 79 77 80 70 81 71 82 75 83 78 84 72 85 73 86
REMARK SMILES IDX 76 87 74 88 53 89 54 90 62 91 55 92 56 93 60 94 63 95 57 96
REMARK SMILES IDX 58 97 61 98 59 99
REMARK H PARENT 3 17 83 52 51 63
REMARK Flexibility Score: inf
ROOT
ATOM      1  C   UNL A   1      44.455  25.356  25.876  1.00  0.00     0.188 C 
ENDROOT
BRANCH   1   2
ATOM      2  C   UNL A   1      45.660  26.244  25.466  1.00  0.00     0.188 C 
BRANCH   2   3
ATOM      3  O   UNL A   1      46.033  27.211  26.445  1.00  0.00    -0.376 OA
BRANCH   3   4
ATOM      4  C   UNL A   1      45.557  28.536  26.249  1.00  0.00     0.202 C 
BRANCH   4   5
ATOM      5  C   UNL A   1      46.669  29.587  26.210  1.00  0.00     0.261 C 
BRANCH   5   6
ATOM      6  O   UNL A   1      46.301  30.811  25.550  1.00  0.00    -0.463 OA
BRANCH   6   7
ATOM      7  C   UNL A   1      46.134  31.912  26.329  1.00  0.00     0.311 C 
ATOM      8  O   UNL A   1      47.006  32.388  27.039  1.00  0.00    -0.252 OA
BRANCH   7   9
ATOM      9  C   UNL A   1      44.702  32.412  26.219  1.00  0.00     0.123 C 
ATOM     10  N   UNL A   1      44.393  34.353  27.591  1.00  0.00    -0.321 N 
ATOM     11  C   UNL A   1      44.202  33.160  28.417  1.00  0.00     0.122 C 
ATOM     12  C   UNL A   1      44.528  33.948  26.185  1.00  0.00     0.098 C 
ATOM     13  C   UNL A   1      43.901  32.022  27.456  1.00  0.00     0.039 C 
ATOM     14  C   UNL A   1      43.293  34.258  25.327  1.00  0.00     0.032 C 
BRANCH  10  15
ATOM     15  C   UNL A   1      45.165  35.342  28.146  1.00  0.00     0.318 C 
ATOM     16  N   UNL A   1      44.799  36.633  28.154  1.00  0.00    -0.331 N 
ATOM     17  H   UNL A   1      45.556  37.207  28.413  1.00  0.00     0.165 HD
ATOM     18  O   UNL A   1      46.227  35.095  28.725  1.00  0.00    -0.249 OA
BRANCH  16  19
ATOM     19  C   UNL A   1      43.614  37.434  27.891  1.00  0.00     0.112 C 
ATOM     20  C   UNL A   1      42.321  36.885  28.474  1.00  0.00     0.036 C 
BRANCH  19  21
ATOM     21  C   UNL A   1      43.861  38.922  27.990  1.00  0.00    -0.015 A 
ATOM     22  C   UNL A   1      43.573  39.687  29.182  1.00  0.00     0.017 A 
ATOM     23  C   UNL A   1      44.360  39.772  27.021  1.00  0.00     0.070 A 
ATOM     24  C   UNL A   1      43.848  41.031  29.054  1.00  0.00     0.065 A 
ATOM     25  S   UNL A   1      44.474  41.404  27.514  1.00  0.00    -0.152 S 
ENDBRANCH  19  21
ENDBRANCH  16  19
ENDBRANCH  10  15
ENDBRANCH   7   9
ENDBRANCH   6   7
ENDBRANCH   5   6
ENDBRANCH   4   5
ENDBRANCH   3   4
ENDBRANCH   2   3
ENDBRANCH   1   2
BRANCH   1  26
ATOM     26  O   UNL A   1      44.488  23.938  25.788  1.00  0.00    -0.377 OA
BRANCH  26  27
ATOM     27  C   UNL A   1      43.504  23.320  24.974  1.00  0.00     0.188 C 
BRANCH  27  28
ATOM     28  C   UNL A   1      42.870  22.096  25.656  1.00  0.00     0.188 C 
BRANCH  28  29
ATOM     29  O   UNL A   1      42.909  22.186  27.075  1.00  0.00    -0.376 OA
BRANCH  29  30
ATOM     30  C   UNL A   1      41.694  22.080  27.801  1.00  0.00     0.202 C 
BRANCH  30  31
ATOM     31  C   UNL A   1      40.359  21.799  27.087  1.00  0.00     0.261 C 
BRANCH  31  32
ATOM     32  O   UNL A   1      39.954  22.698  26.046  1.00  0.00    -0.460 OA
BRANCH  32  33
ATOM     33  C   UNL A   1      38.873  23.479  26.236  1.00  0.00     0.338 C 
ATOM     34  O   UNL A   1      37.707  23.199  26.033  1.00  0.00    -0.246 OA
BRANCH  33  35
ATOM     35  C   UNL A   1      39.361  24.686  26.942  1.00  0.00     0.060 A 
ATOM     36  C   UNL A   1      39.037  24.870  28.295  1.00  0.00     0.016 A 
ATOM     37  C   UNL A   1      40.214  25.581  26.291  1.00  0.00     0.016 A 
ATOM     38  C   UNL A   1      39.569  25.951  28.998  1.00  0.00     0.010 A 
ATOM     39  C   UNL A   1      40.717  26.682  26.986  1.00  0.00     0.010 A 
ATOM     40  C   UNL A   1      40.381  26.882  28.337  1.00  0.00    -0.014 A 
BRANCH  40  41
ATOM     41  C   UNL A   1      40.701  28.179  28.975  1.00  0.00     0.031 A 
ATOM     42  C   UNL A   1      42.102  28.383  29.475  1.00  0.00     0.074 A 
ATOM     43  C   UNL A   1      39.777  29.143  29.123  1.00  0.00     0.049 A 
ATOM     44  N   UNL A   1      42.614  29.383  30.143  1.00  0.00    -0.248 NA
ATOM     45  C   UNL A   1      43.057  27.301  29.178  1.00  0.00     0.031 C 
ATOM     46  C   UNL A   1      38.404  29.085  28.631  1.00  0.00     0.029 A 
ATOM     47  N   UNL A   1      39.863  30.364  29.746  1.00  0.00    -0.354 N 
ATOM     48  C   UNL A   1      43.946  29.051  30.346  1.00  0.00     0.074 A 
ATOM     49  C   UNL A   1      44.157  27.745  29.762  1.00  0.00     0.031 C 
ATOM     50  C   UNL A   1      37.769  30.218  28.981  1.00  0.00     0.029 A 
ATOM     51  C   UNL A   1      38.681  31.061  29.756  1.00  0.00     0.049 A 
ATOM     52  H   UNL A   1      40.693  30.706  30.149  1.00  0.00     0.167 HD
ATOM     53  C   UNL A   1      44.911  29.775  30.961  1.00  0.00     0.037 A 
ATOM     54  C   UNL A   1      38.371  32.230  30.349  1.00  0.00     0.037 A 
ATOM     55  C   UNL A   1      44.689  31.060  31.565  1.00  0.00     0.049 A 
ATOM     56  C   UNL A   1      39.429  32.958  31.143  1.00  0.00     0.074 A 
ATOM     57  C   UNL A   1      45.596  31.881  32.210  1.00  0.00     0.029 A 
ATOM     58  N   UNL A   1      43.460  31.704  31.613  1.00  0.00    -0.354 N 
ATOM     59  N   UNL A   1      40.694  32.656  31.313  1.00  0.00    -0.248 NA
ATOM     60  C   UNL A   1      39.010  34.184  31.838  1.00  0.00     0.031 C 
ATOM     61  C   UNL A   1      44.905  32.993  32.700  1.00  0.00     0.029 A 
ATOM     62  C   UNL A   1      43.578  32.895  32.311  1.00  0.00     0.049 A 
ATOM     63  H   UNL A   1      42.629  31.365  31.211  1.00  0.00     0.167 HD
ATOM     64  C   UNL A   1      41.227  33.665  32.105  1.00  0.00     0.074 A 
ATOM     65  C   UNL A   1      40.150  34.594  32.377  1.00  0.00     0.031 C 
ATOM     66  C   UNL A   1      42.494  33.811  32.566  1.00  0.00     0.037 A 
BRANCH  53  67
ATOM     67  C   UNL A   1      46.277  29.161  31.040  1.00  0.00     0.064 A 
ATOM     68  C   UNL A   1      47.288  29.492  30.123  1.00  0.00     0.173 A 
ATOM     69  C   UNL A   1      46.577  28.219  32.035  1.00  0.00     0.173 A 
ATOM     70  F   UNL A   1      47.046  30.373  29.140  1.00  0.00    -0.203 F 
ATOM     71  C   UNL A   1      48.534  28.874  30.178  1.00  0.00     0.198 A 
ATOM     72  C   UNL A   1      47.833  27.627  32.106  1.00  0.00     0.198 A 
ATOM     73  F   UNL A   1      45.646  27.867  32.934  1.00  0.00    -0.203 F 
ATOM     74  F   UNL A   1      49.462  29.158  29.254  1.00  0.00    -0.200 F 
ATOM     75  C   UNL A   1      48.808  27.946  31.172  1.00  0.00     0.200 A 
ATOM     76  F   UNL A   1      48.100  26.738  33.073  1.00  0.00    -0.200 F 
ATOM     77  F   UNL A   1      50.006  27.349  31.221  1.00  0.00    -0.200 F 
ENDBRANCH  53  67
BRANCH  54  78
ATOM     78  C   UNL A   1      36.998  32.790  30.230  1.00  0.00     0.064 A 
ATOM     79  C   UNL A   1      36.627  33.547  29.110  1.00  0.00     0.173 A 
ATOM     80  C   UNL A   1      36.040  32.600  31.235  1.00  0.00     0.173 A 
ATOM     81  F   UNL A   1      37.517  33.782  28.136  1.00  0.00    -0.203 F 
ATOM     82  C   UNL A   1      35.352  34.102  29.006  1.00  0.00     0.198 A 
ATOM     83  C   UNL A   1      34.757  33.133  31.118  1.00  0.00     0.198 A 
ATOM     84  F   UNL A   1      36.346  31.891  32.331  1.00  0.00    -0.203 F 
ATOM     85  F   UNL A   1      35.037  34.857  27.944  1.00  0.00    -0.200 F 
ATOM     86  C   UNL A   1      34.416  33.888  30.007  1.00  0.00     0.200 A 
ATOM     87  F   UNL A   1      33.852  32.917  32.083  1.00  0.00    -0.200 F 
ATOM     88  F   UNL A   1      33.190  34.419  29.904  1.00  0.00    -0.200 F 
ENDBRANCH  54  78
BRANCH  66  89
ATOM     89  C   UNL A   1      42.800  35.031  33.387  1.00  0.00     0.064 A 
ATOM     90  C   UNL A   1      42.665  35.032  34.783  1.00  0.00     0.173 A 
ATOM     91  C   UNL A   1      43.297  36.192  32.774  1.00  0.00     0.173 A 
ATOM     92  F   UNL A   1      42.179  33.952  35.415  1.00  0.00    -0.203 F 
ATOM     93  C   UNL A   1      43.003  36.156  35.533  1.00  0.00     0.198 A 
ATOM     94  C   UNL A   1      43.662  37.301  33.530  1.00  0.00     0.198 A 
ATOM     95  F   UNL A   1      43.452  36.240  31.442  1.00  0.00    -0.203 F 
ATOM     96  F   UNL A   1      42.829  36.148  36.862  1.00  0.00    -0.200 F 
ATOM     97  C   UNL A   1      43.510  37.285  34.907  1.00  0.00     0.200 A 
ATOM     98  F   UNL A   1      44.168  38.386  32.925  1.00  0.00    -0.200 F 
ATOM     99  F   UNL A   1      43.849  38.359  35.633  1.00  0.00    -0.200 F 
ENDBRANCH  66  89
ENDBRANCH  40  41
ENDBRANCH  33  35
ENDBRANCH  32  33
ENDBRANCH  31  32
ENDBRANCH  30  31
ENDBRANCH  29  30
ENDBRANCH  28  29
ENDBRANCH  27  28
ENDBRANCH  26  27
ENDBRANCH   1  26
TORSDOF 23
ENDMDL
