MODEL 1
REMARK VINA RESULT:     -10.9      0.000      0.000
REMARK SMILES CC(C)[C@H](C)CNC(=O)N1CC(n2cc(C(=O)OCCOCCOCCOCCOC(=O)c3ccc(-c4c5nc(c(-c6c(F)c(F)c(F)c(F)c6F)c6ccc([nH]6)c(-c6c(F)c(F)c(F)c(F)c6F)c6nc(c(-c7c(F)c(F)c(F)c(F)c7F)c7ccc4[nH]7)C=C6)C=C5)cc3)nn2)C1
REMARK SMILES IDX 23 1 22 2 21 3 20 4 19 5 18 6 16 7 17 8 15 9 13 10 14 11
REMARK SMILES IDX 97 12 96 13 12 14 7 15 8 16 9 18 10 19 11 20 98 21 6 22 4 23
REMARK SMILES IDX 5 24 2 25 1 26 3 27 24 28 25 29 26 30 27 31 28 32 29 33
REMARK SMILES IDX 30 34 31 35 32 36 33 37 34 38 95 39 35 40 94 41 36 42 37 43
REMARK SMILES IDX 38 44 88 45 39 46 93 47 87 48 89 49 40 50 92 51 86 52 85 53
REMARK SMILES IDX 41 55 73 56 53 57 72 58 54 59 57 60 71 61 90 62 55 63 56 64
REMARK SMILES IDX 70 66 91 67 58 68 42 69 43 70 51 71 44 72 45 73 49 74 52 75
REMARK SMILES IDX 46 76 47 77 50 78 48 79 74 80 75 81 83 82 76 83 77 84 81 85
REMARK SMILES IDX 84 86 78 87 79 88 82 89 80 90 59 91 60 92 68 93 61 94 62 95
REMARK SMILES IDX 66 96 69 97 63 98 64 99 67 100 65 101
REMARK H PARENT 7 17 89 54 57 65
REMARK Flexibility Score: inf
ROOT
ATOM      1  C   UNL A   1      43.776  18.354  26.111  1.00  0.00     0.188 C 
ENDROOT
BRANCH   1   2
ATOM      2  C   UNL A   1      42.981  19.660  25.908  1.00  0.00     0.188 C 
BRANCH   2   3
ATOM      3  O   UNL A   1      41.692  19.464  25.363  1.00  0.00    -0.376 OA
BRANCH   3   4
ATOM      4  C   UNL A   1      40.508  19.782  26.058  1.00  0.00     0.202 C 
BRANCH   4   5
ATOM      5  C   UNL A   1      39.860  21.176  26.081  1.00  0.00     0.261 C 
BRANCH   5   6
ATOM      6  O   UNL A   1      38.474  21.271  25.763  1.00  0.00    -0.458 OA
BRANCH   6   7
ATOM      7  C   UNL A   1      37.919  22.508  25.816  1.00  0.00     0.360 C 
ATOM      8  O   UNL A   1      38.427  23.470  26.396  1.00  0.00    -0.244 OA
BRANCH   7   9
ATOM      9  C   UNL A   1      36.723  22.590  24.999  1.00  0.00     0.190 A 
ATOM     10  N   UNL A   1      34.705  22.537  24.213  1.00  0.00    -0.245 N 
ATOM     11  C   UNL A   1      35.426  22.241  25.336  1.00  0.00     0.147 A 
ATOM     12  N   UNL A   1      35.505  22.941  23.215  1.00  0.00    -0.066 NA
ATOM     13  N   UNL A   1      36.743  22.987  23.685  1.00  0.00    -0.123 NA
BRANCH  10  14
ATOM     14  C   UNL A   1      33.278  22.602  24.185  1.00  0.00     0.148 C 
ATOM     15  N   UNL A   1      30.263  25.434  25.071  1.00  0.00    -0.338 N 
ATOM     16  C   UNL A   1      30.698  24.681  24.031  1.00  0.00     0.317 C 
ATOM     17  H   UNL A   1      29.284  25.497  25.153  1.00  0.00     0.165 HD
ATOM     18  O   UNL A   1      29.933  24.486  23.087  1.00  0.00    -0.249 OA
ATOM     19  N   UNL A   1      31.946  24.161  24.060  1.00  0.00    -0.320 N 
ATOM     20  C   UNL A   1      32.646  23.394  23.034  1.00  0.00     0.150 C 
ATOM     21  C   UNL A   1      32.802  23.715  25.135  1.00  0.00     0.150 C 
BRANCH  15  22
ATOM     22  C   UNL A   1      31.009  26.165  26.087  1.00  0.00     0.121 C 
BRANCH  22  23
ATOM     23  C   UNL A   1      31.202  27.646  25.696  1.00  0.00     0.008 C 
ATOM     24  C   UNL A   1      31.601  28.467  26.932  1.00  0.00     0.010 C 
BRANCH  23  25
ATOM     25  C   UNL A   1      32.213  27.870  24.534  1.00  0.00    -0.013 C 
ATOM     26  C   UNL A   1      31.709  28.823  23.446  1.00  0.00     0.008 C 
ATOM     27  C   UNL A   1      33.580  28.344  25.041  1.00  0.00     0.008 C 
ENDBRANCH  23  25
ENDBRANCH  22  23
ENDBRANCH  15  22
ENDBRANCH  10  14
ENDBRANCH   7   9
ENDBRANCH   6   7
ENDBRANCH   5   6
ENDBRANCH   4   5
ENDBRANCH   3   4
ENDBRANCH   2   3
ENDBRANCH   1   2
BRANCH   1  28
ATOM     28  O   UNL A   1      44.920  18.182  25.289  1.00  0.00    -0.377 OA
BRANCH  28  29
ATOM     29  C   UNL A   1      46.101  18.944  25.557  1.00  0.00     0.188 C 
BRANCH  29  30
ATOM     30  C   UNL A   1      46.520  20.223  24.775  1.00  0.00     0.188 C 
BRANCH  30  31
ATOM     31  O   UNL A   1      46.192  21.454  25.391  1.00  0.00    -0.376 OA
BRANCH  31  32
ATOM     32  C   UNL A   1      46.135  22.680  24.694  1.00  0.00     0.202 C 
BRANCH  32  33
ATOM     33  C   UNL A   1      45.291  23.799  25.288  1.00  0.00     0.261 C 
BRANCH  33  34
ATOM     34  O   UNL A   1      44.316  23.349  26.206  1.00  0.00    -0.460 OA
BRANCH  34  35
ATOM     35  C   UNL A   1      43.066  23.321  25.719  1.00  0.00     0.338 C 
ATOM     36  O   UNL A   1      42.703  22.905  24.627  1.00  0.00    -0.246 OA
BRANCH  35  37
ATOM     37  C   UNL A   1      42.205  24.031  26.663  1.00  0.00     0.060 A 
ATOM     38  C   UNL A   1      41.303  24.926  26.096  1.00  0.00     0.016 A 
ATOM     39  C   UNL A   1      42.594  24.097  28.013  1.00  0.00     0.016 A 
ATOM     40  C   UNL A   1      41.036  26.073  26.796  1.00  0.00     0.010 A 
ATOM     41  C   UNL A   1      42.339  25.250  28.705  1.00  0.00     0.010 A 
ATOM     42  C   UNL A   1      41.661  26.261  28.036  1.00  0.00    -0.014 A 
BRANCH  42  43
ATOM     43  C   UNL A   1      41.541  27.565  28.634  1.00  0.00     0.031 A 
ATOM     44  C   UNL A   1      42.665  28.448  28.281  1.00  0.00     0.074 A 
ATOM     45  C   UNL A   1      40.496  27.911  29.403  1.00  0.00     0.049 A 
ATOM     46  N   UNL A   1      43.588  28.891  29.064  1.00  0.00    -0.248 NA
ATOM     47  C   UNL A   1      42.892  28.713  26.852  1.00  0.00     0.031 C 
ATOM     48  C   UNL A   1      39.223  27.215  29.604  1.00  0.00     0.029 A 
ATOM     49  N   UNL A   1      40.338  29.049  30.124  1.00  0.00    -0.354 N 
ATOM     50  C   UNL A   1      44.422  29.650  28.254  1.00  0.00     0.074 A 
ATOM     51  C   UNL A   1      44.053  29.364  26.893  1.00  0.00     0.031 C 
ATOM     52  C   UNL A   1      38.348  28.057  30.201  1.00  0.00     0.029 A 
ATOM     53  C   UNL A   1      39.038  29.290  30.539  1.00  0.00     0.049 A 
ATOM     54  H   UNL A   1      41.085  29.655  30.336  1.00  0.00     0.167 HD
ATOM     55  C   UNL A   1      45.177  30.647  28.782  1.00  0.00     0.037 A 
ATOM     56  C   UNL A   1      38.581  30.469  31.029  1.00  0.00     0.037 A 
ATOM     57  C   UNL A   1      45.374  30.462  30.197  1.00  0.00     0.049 A 
ATOM     58  C   UNL A   1      39.764  31.247  31.492  1.00  0.00     0.074 A 
ATOM     59  C   UNL A   1      45.956  29.469  30.964  1.00  0.00     0.029 A 
ATOM     60  N   UNL A   1      44.605  31.197  31.067  1.00  0.00    -0.354 N 
ATOM     61  N   UNL A   1      40.491  30.914  32.524  1.00  0.00    -0.248 NA
ATOM     62  C   UNL A   1      40.418  32.121  30.527  1.00  0.00     0.031 C 
ATOM     63  C   UNL A   1      45.135  29.365  32.124  1.00  0.00     0.029 A 
ATOM     64  C   UNL A   1      44.136  30.334  32.026  1.00  0.00     0.049 A 
ATOM     65  H   UNL A   1      44.423  32.162  31.012  1.00  0.00     0.167 HD
ATOM     66  C   UNL A   1      41.798  31.172  32.135  1.00  0.00     0.074 A 
ATOM     67  C   UNL A   1      41.686  31.984  30.925  1.00  0.00     0.031 C 
ATOM     68  C   UNL A   1      42.844  30.467  32.657  1.00  0.00     0.037 A 
BRANCH  55  69
ATOM     69  C   UNL A   1      45.388  31.964  28.085  1.00  0.00     0.064 A 
ATOM     70  C   UNL A   1      44.276  32.790  27.841  1.00  0.00     0.173 A 
ATOM     71  C   UNL A   1      46.571  32.307  27.390  1.00  0.00     0.173 A 
ATOM     72  F   UNL A   1      43.098  32.542  28.432  1.00  0.00    -0.203 F 
ATOM     73  C   UNL A   1      44.325  33.828  26.908  1.00  0.00     0.198 A 
ATOM     74  C   UNL A   1      46.630  33.378  26.505  1.00  0.00     0.198 A 
ATOM     75  F   UNL A   1      47.679  31.560  27.443  1.00  0.00    -0.203 F 
ATOM     76  F   UNL A   1      43.209  34.505  26.611  1.00  0.00    -0.200 F 
ATOM     77  C   UNL A   1      45.500  34.119  26.237  1.00  0.00     0.200 A 
ATOM     78  F   UNL A   1      47.775  33.629  25.852  1.00  0.00    -0.200 F 
ATOM     79  F   UNL A   1      45.532  35.071  25.298  1.00  0.00    -0.200 F 
ENDBRANCH  55  69
BRANCH  56  80
ATOM     80  C   UNL A   1      37.264  31.099  30.769  1.00  0.00     0.064 A 
ATOM     81  C   UNL A   1      36.409  31.448  31.826  1.00  0.00     0.173 A 
ATOM     82  C   UNL A   1      36.936  31.621  29.501  1.00  0.00     0.173 A 
ATOM     83  F   UNL A   1      36.677  31.037  33.073  1.00  0.00    -0.203 F 
ATOM     84  C   UNL A   1      35.305  32.285  31.630  1.00  0.00     0.198 A 
ATOM     85  C   UNL A   1      35.831  32.449  29.305  1.00  0.00     0.198 A 
ATOM     86  F   UNL A   1      37.736  31.420  28.443  1.00  0.00    -0.203 F 
ATOM     87  F   UNL A   1      34.547  32.648  32.674  1.00  0.00    -0.200 F 
ATOM     88  C   UNL A   1      35.022  32.792  30.371  1.00  0.00     0.200 A 
ATOM     89  F   UNL A   1      35.593  32.963  28.089  1.00  0.00    -0.200 F 
ATOM     90  F   UNL A   1      34.001  33.642  30.194  1.00  0.00    -0.200 F 
ENDBRANCH  56  80
BRANCH  68  91
ATOM     91  C   UNL A   1      42.569  29.573  33.835  1.00  0.00     0.064 A 
ATOM     92  C   UNL A   1      42.103  28.251  33.725  1.00  0.00     0.173 A 
ATOM     93  C   UNL A   1      42.929  30.023  35.111  1.00  0.00     0.173 A 
ATOM     94  F   UNL A   1      41.838  27.710  32.530  1.00  0.00    -0.203 F 
ATOM     95  C   UNL A   1      41.961  27.437  34.849  1.00  0.00     0.198 A 
ATOM     96  C   UNL A   1      42.824  29.198  36.227  1.00  0.00     0.198 A 
ATOM     97  F   UNL A   1      43.437  31.256  35.270  1.00  0.00    -0.203 F 
ATOM     98  F   UNL A   1      41.502  26.184  34.719  1.00  0.00    -0.200 F 
ATOM     99  C   UNL A   1      42.329  27.909  36.098  1.00  0.00     0.200 A 
ATOM    100  F   UNL A   1      43.230  29.640  37.425  1.00  0.00    -0.200 F 
ATOM    101  F   UNL A   1      42.234  27.114  37.173  1.00  0.00    -0.200 F 
ENDBRANCH  68  91
ENDBRANCH  42  43
ENDBRANCH  35  37
ENDBRANCH  34  35
ENDBRANCH  33  34
ENDBRANCH  32  33
ENDBRANCH  31  32
ENDBRANCH  30  31
ENDBRANCH  29  30
ENDBRANCH  28  29
ENDBRANCH   1  28
TORSDOF 24
ENDMDL
MODEL 2
REMARK VINA RESULT:     -10.6      1.747      3.407
REMARK SMILES CC(C)[C@H](C)CNC(=O)N1CC(n2cc(C(=O)OCCOCCOCCOCCOC(=O)c3ccc(-c4c5nc(c(-c6c(F)c(F)c(F)c(F)c6F)c6ccc([nH]6)c(-c6c(F)c(F)c(F)c(F)c6F)c6nc(c(-c7c(F)c(F)c(F)c(F)c7F)c7ccc4[nH]7)C=C6)C=C5)cc3)nn2)C1
REMARK SMILES IDX 23 1 22 2 21 3 20 4 19 5 18 6 16 7 17 8 15 9 13 10 14 11
REMARK SMILES IDX 97 12 96 13 12 14 7 15 8 16 9 18 10 19 11 20 98 21 6 22 4 23
REMARK SMILES IDX 5 24 2 25 1 26 3 27 24 28 25 29 26 30 27 31 28 32 29 33
REMARK SMILES IDX 30 34 31 35 32 36 33 37 34 38 95 39 35 40 94 41 36 42 37 43
REMARK SMILES IDX 38 44 88 45 39 46 93 47 87 48 89 49 40 50 92 51 86 52 85 53
REMARK SMILES IDX 41 55 73 56 53 57 72 58 54 59 57 60 71 61 90 62 55 63 56 64
REMARK SMILES IDX 70 66 91 67 58 68 42 69 43 70 51 71 44 72 45 73 49 74 52 75
REMARK SMILES IDX 46 76 47 77 50 78 48 79 74 80 75 81 83 82 76 83 77 84 81 85
REMARK SMILES IDX 84 86 78 87 79 88 82 89 80 90 59 91 60 92 68 93 61 94 62 95
REMARK SMILES IDX 66 96 69 97 63 98 64 99 67 100 65 101
REMARK H PARENT 7 17 89 54 57 65
REMARK Flexibility Score: inf
ROOT
ATOM      1  C   UNL A   1      37.464  23.174  25.640  1.00  0.00     0.188 C 
ENDROOT
BRANCH   1   2
ATOM      2  C   UNL A   1      36.739  23.351  24.290  1.00  0.00     0.188 C 
BRANCH   2   3
ATOM      3  O   UNL A   1      35.968  22.232  23.906  1.00  0.00    -0.376 OA
BRANCH   3   4
ATOM      4  C   UNL A   1      35.192  21.485  24.815  1.00  0.00     0.202 C 
BRANCH   4   5
ATOM      5  C   UNL A   1      33.812  20.887  24.496  1.00  0.00     0.261 C 
BRANCH   5   6
ATOM      6  O   UNL A   1      32.711  21.285  25.309  1.00  0.00    -0.458 OA
BRANCH   6   7
ATOM      7  C   UNL A   1      33.010  21.839  26.511  1.00  0.00     0.360 C 
ATOM      8  O   UNL A   1      33.613  21.252  27.412  1.00  0.00    -0.244 OA
BRANCH   7   9
ATOM      9  C   UNL A   1      32.646  23.242  26.556  1.00  0.00     0.190 A 
ATOM     10  N   UNL A   1      32.587  25.404  26.438  1.00  0.00    -0.245 N 
ATOM     11  C   UNL A   1      33.423  24.342  26.237  1.00  0.00     0.147 A 
ATOM     12  N   UNL A   1      31.412  25.007  26.946  1.00  0.00    -0.066 NA
ATOM     13  N   UNL A   1      31.430  23.684  27.016  1.00  0.00    -0.123 NA
BRANCH  10  14
ATOM     14  C   UNL A   1      32.863  26.727  25.974  1.00  0.00     0.148 C 
ATOM     15  N   UNL A   1      30.824  29.794  23.892  1.00  0.00    -0.338 N 
ATOM     16  C   UNL A   1      31.456  29.593  25.074  1.00  0.00     0.317 C 
ATOM     17  H   UNL A   1      30.995  30.670  23.477  1.00  0.00     0.165 HD
ATOM     18  O   UNL A   1      31.830  30.576  25.714  1.00  0.00    -0.249 OA
ATOM     19  N   UNL A   1      31.665  28.331  25.513  1.00  0.00    -0.320 N 
ATOM     20  C   UNL A   1      32.248  27.882  26.774  1.00  0.00     0.150 C 
ATOM     21  C   UNL A   1      31.891  27.077  24.833  1.00  0.00     0.150 C 
BRANCH  15  22
ATOM     22  C   UNL A   1      29.933  28.923  23.135  1.00  0.00     0.121 C 
BRANCH  22  23
ATOM     23  C   UNL A   1      28.721  29.697  22.576  1.00  0.00     0.008 C 
ATOM     24  C   UNL A   1      27.426  28.920  22.863  1.00  0.00     0.010 C 
BRANCH  23  25
ATOM     25  C   UNL A   1      28.611  31.162  23.089  1.00  0.00    -0.013 C 
ATOM     26  C   UNL A   1      28.772  32.219  21.993  1.00  0.00     0.008 C 
ATOM     27  C   UNL A   1      27.306  31.410  23.856  1.00  0.00     0.008 C 
ENDBRANCH  23  25
ENDBRANCH  22  23
ENDBRANCH  15  22
ENDBRANCH  10  14
ENDBRANCH   7   9
ENDBRANCH   6   7
ENDBRANCH   5   6
ENDBRANCH   4   5
ENDBRANCH   3   4
ENDBRANCH   2   3
ENDBRANCH   1   2
BRANCH   1  28
ATOM     28  O   UNL A   1      37.999  21.886  25.900  1.00  0.00    -0.377 OA
BRANCH  28  29
ATOM     29  C   UNL A   1      39.403  21.741  26.136  1.00  0.00     0.188 C 
BRANCH  29  30
ATOM     30  C   UNL A   1      40.160  20.381  26.134  1.00  0.00     0.188 C 
BRANCH  30  31
ATOM     31  O   UNL A   1      41.178  20.243  27.107  1.00  0.00    -0.376 OA
BRANCH  31  32
ATOM     32  C   UNL A   1      42.546  20.109  26.787  1.00  0.00     0.202 C 
BRANCH  32  33
ATOM     33  C   UNL A   1      43.161  21.130  25.842  1.00  0.00     0.261 C 
BRANCH  33  34
ATOM     34  O   UNL A   1      43.485  22.357  26.464  1.00  0.00    -0.460 OA
BRANCH  34  35
ATOM     35  C   UNL A   1      43.046  23.444  25.811  1.00  0.00     0.338 C 
ATOM     36  O   UNL A   1      43.395  23.837  24.706  1.00  0.00    -0.246 OA
BRANCH  35  37
ATOM     37  C   UNL A   1      42.179  24.190  26.721  1.00  0.00     0.060 A 
ATOM     38  C   UNL A   1      41.310  25.093  26.116  1.00  0.00     0.016 A 
ATOM     39  C   UNL A   1      42.537  24.273  28.079  1.00  0.00     0.016 A 
ATOM     40  C   UNL A   1      41.052  26.259  26.788  1.00  0.00     0.010 A 
ATOM     41  C   UNL A   1      42.291  25.444  28.743  1.00  0.00     0.010 A 
ATOM     42  C   UNL A   1      41.652  26.456  28.040  1.00  0.00    -0.014 A 
BRANCH  42  43
ATOM     43  C   UNL A   1      41.547  27.774  28.610  1.00  0.00     0.031 A 
ATOM     44  C   UNL A   1      42.673  28.642  28.226  1.00  0.00     0.074 A 
ATOM     45  C   UNL A   1      40.512  28.143  29.382  1.00  0.00     0.049 A 
ATOM     46  N   UNL A   1      43.607  29.095  28.990  1.00  0.00    -0.248 NA
ATOM     47  C   UNL A   1      42.886  28.874  26.790  1.00  0.00     0.031 C 
ATOM     48  C   UNL A   1      39.237  27.460  29.611  1.00  0.00     0.029 A 
ATOM     49  N   UNL A   1      40.369  29.297  30.080  1.00  0.00    -0.354 N 
ATOM     50  C   UNL A   1      44.437  29.830  28.155  1.00  0.00     0.074 A 
ATOM     51  C   UNL A   1      44.052  29.518  26.804  1.00  0.00     0.031 C 
ATOM     52  C   UNL A   1      38.373  28.320  30.199  1.00  0.00     0.029 A 
ATOM     53  C   UNL A   1      39.075  29.556  30.504  1.00  0.00     0.049 A 
ATOM     54  H   UNL A   1      41.122  29.903  30.271  1.00  0.00     0.167 HD
ATOM     55  C   UNL A   1      45.203  30.834  28.654  1.00  0.00     0.037 A 
ATOM     56  C   UNL A   1      38.631  30.749  30.972  1.00  0.00     0.037 A 
ATOM     57  C   UNL A   1      45.415  30.679  30.071  1.00  0.00     0.049 A 
ATOM     58  C   UNL A   1      39.823  31.529  31.406  1.00  0.00     0.074 A 
ATOM     59  C   UNL A   1      45.998  29.698  30.852  1.00  0.00     0.029 A 
ATOM     60  N   UNL A   1      44.659  31.437  30.932  1.00  0.00    -0.354 N 
ATOM     61  N   UNL A   1      40.559  31.212  32.437  1.00  0.00    -0.248 NA
ATOM     62  C   UNL A   1      40.472  32.377  30.415  1.00  0.00     0.031 C 
ATOM     63  C   UNL A   1      45.188  29.624  32.022  1.00  0.00     0.029 A 
ATOM     64  C   UNL A   1      44.195  30.598  31.914  1.00  0.00     0.049 A 
ATOM     65  H   UNL A   1      44.483  32.401  30.858  1.00  0.00     0.167 HD
ATOM     66  C   UNL A   1      41.864  31.454  32.029  1.00  0.00     0.074 A 
ATOM     67  C   UNL A   1      41.744  32.240  30.804  1.00  0.00     0.031 C 
ATOM     68  C   UNL A   1      42.911  30.753  32.555  1.00  0.00     0.037 A 
BRANCH  55  69
ATOM     69  C   UNL A   1      45.416  32.134  27.927  1.00  0.00     0.064 A 
ATOM     70  C   UNL A   1      44.296  32.914  27.586  1.00  0.00     0.173 A 
ATOM     71  C   UNL A   1      46.628  32.495  27.294  1.00  0.00     0.173 A 
ATOM     72  F   UNL A   1      43.092  32.645  28.112  1.00  0.00    -0.203 F 
ATOM     73  C   UNL A   1      44.370  33.922  26.623  1.00  0.00     0.198 A 
ATOM     74  C   UNL A   1      46.709  33.538  26.378  1.00  0.00     0.198 A 
ATOM     75  F   UNL A   1      47.754  31.787  27.441  1.00  0.00    -0.203 F 
ATOM     76  F   UNL A   1      43.253  34.551  26.234  1.00  0.00    -0.200 F 
ATOM     77  C   UNL A   1      45.575  34.231  26.016  1.00  0.00     0.200 A 
ATOM     78  F   UNL A   1      47.884  33.806  25.789  1.00  0.00    -0.200 F 
ATOM     79  F   UNL A   1      45.635  35.153  25.048  1.00  0.00    -0.200 F 
ENDBRANCH  55  69
BRANCH  56  80
ATOM     80  C   UNL A   1      37.315  31.382  30.712  1.00  0.00     0.064 A 
ATOM     81  C   UNL A   1      36.408  31.618  31.757  1.00  0.00     0.173 A 
ATOM     82  C   UNL A   1      37.034  32.015  29.485  1.00  0.00     0.173 A 
ATOM     83  F   UNL A   1      36.628  31.095  32.971  1.00  0.00    -0.203 F 
ATOM     84  C   UNL A   1      35.298  32.454  31.589  1.00  0.00     0.198 A 
ATOM     85  C   UNL A   1      35.923  32.842  29.316  1.00  0.00     0.198 A 
ATOM     86  F   UNL A   1      37.883  31.925  28.451  1.00  0.00    -0.203 F 
ATOM     87  F   UNL A   1      34.489  32.707  32.627  1.00  0.00    -0.200 F 
ATOM     88  C   UNL A   1      35.062  33.073  30.372  1.00  0.00     0.200 A 
ATOM     89  F   UNL A   1      35.730  33.465  28.144  1.00  0.00    -0.200 F 
ATOM     90  F   UNL A   1      34.035  33.921  30.228  1.00  0.00    -0.200 F 
ENDBRANCH  56  80
BRANCH  68  91
ATOM     91  C   UNL A   1      42.642  29.886  33.756  1.00  0.00     0.064 A 
ATOM     92  C   UNL A   1      42.772  30.325  35.085  1.00  0.00     0.173 A 
ATOM     93  C   UNL A   1      42.094  28.614  33.549  1.00  0.00     0.173 A 
ATOM     94  F   UNL A   1      43.188  31.566  35.364  1.00  0.00    -0.203 F 
ATOM     95  C   UNL A   1      42.413  29.507  36.156  1.00  0.00     0.198 A 
ATOM     96  C   UNL A   1      41.699  27.814  34.617  1.00  0.00     0.198 A 
ATOM     97  F   UNL A   1      41.890  28.165  32.300  1.00  0.00    -0.203 F 
ATOM     98  F   UNL A   1      42.559  29.943  37.415  1.00  0.00    -0.200 F 
ATOM     99  C   UNL A   1      41.870  28.254  35.921  1.00  0.00     0.200 A 
ATOM    100  F   UNL A   1      41.126  26.625  34.384  1.00  0.00    -0.200 F 
ATOM    101  F   UNL A   1      41.484  27.484  36.947  1.00  0.00    -0.200 F 
ENDBRANCH  68  91
ENDBRANCH  42  43
ENDBRANCH  35  37
ENDBRANCH  34  35
ENDBRANCH  33  34
ENDBRANCH  32  33
ENDBRANCH  31  32
ENDBRANCH  30  31
ENDBRANCH  29  30
ENDBRANCH  28  29
ENDBRANCH   1  28
TORSDOF 24
ENDMDL
MODEL 3
REMARK VINA RESULT:     -10.5      1.748      3.436
REMARK SMILES CC(C)[C@H](C)CNC(=O)N1CC(n2cc(C(=O)OCCOCCOCCOCCOC(=O)c3ccc(-c4c5nc(c(-c6c(F)c(F)c(F)c(F)c6F)c6ccc([nH]6)c(-c6c(F)c(F)c(F)c(F)c6F)c6nc(c(-c7c(F)c(F)c(F)c(F)c7F)c7ccc4[nH]7)C=C6)C=C5)cc3)nn2)C1
REMARK SMILES IDX 23 1 22 2 21 3 20 4 19 5 18 6 16 7 17 8 15 9 13 10 14 11
REMARK SMILES IDX 97 12 96 13 12 14 7 15 8 16 9 18 10 19 11 20 98 21 6 22 4 23
REMARK SMILES IDX 5 24 2 25 1 26 3 27 24 28 25 29 26 30 27 31 28 32 29 33
REMARK SMILES IDX 30 34 31 35 32 36 33 37 34 38 95 39 35 40 94 41 36 42 37 43
REMARK SMILES IDX 38 44 88 45 39 46 93 47 87 48 89 49 40 50 92 51 86 52 85 53
REMARK SMILES IDX 41 55 73 56 53 57 72 58 54 59 57 60 71 61 90 62 55 63 56 64
REMARK SMILES IDX 70 66 91 67 58 68 42 69 43 70 51 71 44 72 45 73 49 74 52 75
REMARK SMILES IDX 46 76 47 77 50 78 48 79 74 80 75 81 83 82 76 83 77 84 81 85
REMARK SMILES IDX 84 86 78 87 79 88 82 89 80 90 59 91 60 92 68 93 61 94 62 95
REMARK SMILES IDX 66 96 69 97 63 98 64 99 67 100 65 101
REMARK H PARENT 7 17 89 54 57 65
REMARK Flexibility Score: inf
ROOT
ATOM      1  C   UNL A   1      35.550  22.770  26.250  1.00  0.00     0.188 C 
ENDROOT
BRANCH   1   2
ATOM      2  C   UNL A   1      35.235  23.985  25.354  1.00  0.00     0.188 C 
BRANCH   2   3
ATOM      3  O   UNL A   1      34.924  23.643  24.019  1.00  0.00    -0.376 OA
BRANCH   3   4
ATOM      4  C   UNL A   1      34.347  22.410  23.656  1.00  0.00     0.202 C 
BRANCH   4   5
ATOM      5  C   UNL A   1      32.952  22.252  23.030  1.00  0.00     0.261 C 
BRANCH   5   6
ATOM      6  O   UNL A   1      32.003  21.440  23.717  1.00  0.00    -0.458 OA
BRANCH   6   7
ATOM      7  C   UNL A   1      32.038  21.477  25.074  1.00  0.00     0.360 C 
ATOM      8  O   UNL A   1      32.687  20.694  25.770  1.00  0.00    -0.244 OA
BRANCH   7   9
ATOM      9  C   UNL A   1      31.322  22.626  25.594  1.00  0.00     0.190 A 
ATOM     10  N   UNL A   1      30.484  24.587  25.971  1.00  0.00    -0.245 N 
ATOM     11  C   UNL A   1      31.346  23.933  25.137  1.00  0.00     0.147 A 
ATOM     12  N   UNL A   1      30.036  23.776  26.940  1.00  0.00    -0.066 NA
ATOM     13  N   UNL A   1      30.533  22.569  26.717  1.00  0.00    -0.123 NA
BRANCH  10  14
ATOM     14  C   UNL A   1      29.977  25.898  25.713  1.00  0.00     0.148 C 
ATOM     15  N   UNL A   1      31.392  29.518  24.041  1.00  0.00    -0.338 N 
ATOM     16  C   UNL A   1      30.403  28.610  23.851  1.00  0.00     0.317 C 
ATOM     17  H   UNL A   1      31.118  30.457  23.926  1.00  0.00     0.165 HD
ATOM     18  O   UNL A   1      29.418  28.945  23.193  1.00  0.00    -0.249 OA
ATOM     19  N   UNL A   1      30.517  27.376  24.392  1.00  0.00    -0.320 N 
ATOM     20  C   UNL A   1      29.625  26.229  24.258  1.00  0.00     0.150 C 
ATOM     21  C   UNL A   1      31.156  26.881  25.590  1.00  0.00     0.150 C 
BRANCH  15  22
ATOM     22  C   UNL A   1      32.795  29.330  24.389  1.00  0.00     0.121 C 
BRANCH  22  23
ATOM     23  C   UNL A   1      33.163  30.075  25.690  1.00  0.00     0.008 C 
ATOM     24  C   UNL A   1      31.895  30.646  26.343  1.00  0.00     0.010 C 
BRANCH  23  25
ATOM     25  C   UNL A   1      33.970  29.217  26.707  1.00  0.00    -0.013 C 
ATOM     26  C   UNL A   1      35.047  30.000  27.464  1.00  0.00     0.008 C 
ATOM     27  C   UNL A   1      33.059  28.497  27.707  1.00  0.00     0.008 C 
ENDBRANCH  23  25
ENDBRANCH  22  23
ENDBRANCH  15  22
ENDBRANCH  10  14
ENDBRANCH   7   9
ENDBRANCH   6   7
ENDBRANCH   5   6
ENDBRANCH   4   5
ENDBRANCH   3   4
ENDBRANCH   2   3
ENDBRANCH   1   2
BRANCH   1  28
ATOM     28  O   UNL A   1      36.576  21.903  25.792  1.00  0.00    -0.377 OA
BRANCH  28  29
ATOM     29  C   UNL A   1      37.935  22.351  25.803  1.00  0.00     0.188 C 
BRANCH  29  30
ATOM     30  C   UNL A   1      39.172  21.407  25.789  1.00  0.00     0.188 C 
BRANCH  30  31
ATOM     31  O   UNL A   1      39.894  21.322  27.004  1.00  0.00    -0.376 OA
BRANCH  31  32
ATOM     32  C   UNL A   1      41.183  20.758  27.104  1.00  0.00     0.202 C 
BRANCH  32  33
ATOM     33  C   UNL A   1      42.243  21.221  26.116  1.00  0.00     0.261 C 
BRANCH  33  34
ATOM     34  O   UNL A   1      42.933  22.384  26.528  1.00  0.00    -0.460 OA
BRANCH  34  35
ATOM     35  C   UNL A   1      42.634  23.486  25.823  1.00  0.00     0.338 C 
ATOM     36  O   UNL A   1      43.121  23.842  24.758  1.00  0.00    -0.246 OA
BRANCH  35  37
ATOM     37  C   UNL A   1      41.722  24.295  26.629  1.00  0.00     0.060 A 
ATOM     38  C   UNL A   1      41.060  25.312  25.948  1.00  0.00     0.016 A 
ATOM     39  C   UNL A   1      41.874  24.292  28.028  1.00  0.00     0.016 A 
ATOM     40  C   UNL A   1      40.828  26.476  26.631  1.00  0.00     0.010 A 
ATOM     41  C   UNL A   1      41.656  25.461  28.705  1.00  0.00     0.010 A 
ATOM     42  C   UNL A   1      41.245  26.562  27.967  1.00  0.00    -0.014 A 
BRANCH  42  43
ATOM     43  C   UNL A   1      41.196  27.863  28.581  1.00  0.00     0.031 A 
ATOM     44  C   UNL A   1      42.361  28.692  28.230  1.00  0.00     0.074 A 
ATOM     45  C   UNL A   1      40.175  28.252  29.362  1.00  0.00     0.049 A 
ATOM     46  N   UNL A   1      43.311  29.078  29.011  1.00  0.00    -0.248 NA
ATOM     47  C   UNL A   1      42.591  28.963  26.802  1.00  0.00     0.031 C 
ATOM     48  C   UNL A   1      38.870  27.619  29.563  1.00  0.00     0.029 A 
ATOM     49  N   UNL A   1      40.080  29.387  30.098  1.00  0.00    -0.354 N 
ATOM     50  C   UNL A   1      44.176  29.803  28.203  1.00  0.00     0.074 A 
ATOM     51  C   UNL A   1      43.784  29.553  26.842  1.00  0.00     0.031 C 
ATOM     52  C   UNL A   1      38.043  28.497  30.177  1.00  0.00     0.029 A 
ATOM     53  C   UNL A   1      38.797  29.690  30.525  1.00  0.00     0.049 A 
ATOM     54  H   UNL A   1      40.859  29.952  30.311  1.00  0.00     0.167 HD
ATOM     55  C   UNL A   1      44.985  30.755  28.738  1.00  0.00     0.037 A 
ATOM     56  C   UNL A   1      38.404  30.884  31.032  1.00  0.00     0.037 A 
ATOM     57  C   UNL A   1      45.182  30.543  30.149  1.00  0.00     0.049 A 
ATOM     58  C   UNL A   1      39.628  31.595  31.496  1.00  0.00     0.074 A 
ATOM     59  C   UNL A   1      45.718  29.512  30.900  1.00  0.00     0.029 A 
ATOM     60  N   UNL A   1      44.457  31.305  31.033  1.00  0.00    -0.354 N 
ATOM     61  N   UNL A   1      40.345  31.213  32.518  1.00  0.00    -0.248 NA
ATOM     62  C   UNL A   1      40.319  32.447  30.536  1.00  0.00     0.031 C 
ATOM     63  C   UNL A   1      44.901  29.435  32.064  1.00  0.00     0.029 A 
ATOM     64  C   UNL A   1      43.952  30.455  31.986  1.00  0.00     0.049 A 
ATOM     65  H   UNL A   1      44.324  32.278  30.991  1.00  0.00     0.167 HD
ATOM     66  C   UNL A   1      41.660  31.409  32.122  1.00  0.00     0.074 A 
ATOM     67  C   UNL A   1      41.581  32.240  30.923  1.00  0.00     0.031 C 
ATOM     68  C   UNL A   1      42.673  30.645  32.628  1.00  0.00     0.037 A 
BRANCH  55  69
ATOM     69  C   UNL A   1      45.257  32.068  28.056  1.00  0.00     0.064 A 
ATOM     70  C   UNL A   1      44.183  32.941  27.805  1.00  0.00     0.173 A 
ATOM     71  C   UNL A   1      46.462  32.369  27.377  1.00  0.00     0.173 A 
ATOM     72  F   UNL A   1      42.989  32.736  28.379  1.00  0.00    -0.203 F 
ATOM     73  C   UNL A   1      44.286  33.983  26.882  1.00  0.00     0.198 A 
ATOM     74  C   UNL A   1      46.576  33.444  26.503  1.00  0.00     0.198 A 
ATOM     75  F   UNL A   1      47.538  31.576  27.438  1.00  0.00    -0.203 F 
ATOM     76  F   UNL A   1      43.201  34.707  26.577  1.00  0.00    -0.200 F 
ATOM     77  C   UNL A   1      45.480  34.231  26.228  1.00  0.00     0.200 A 
ATOM     78  F   UNL A   1      47.737  33.653  25.866  1.00  0.00    -0.200 F 
ATOM     79  F   UNL A   1      45.562  35.189  25.297  1.00  0.00    -0.200 F 
ENDBRANCH  55  69
BRANCH  56  80
ATOM     80  C   UNL A   1      37.119  31.583  30.789  1.00  0.00     0.064 A 
ATOM     81  C   UNL A   1      36.166  31.718  31.811  1.00  0.00     0.173 A 
ATOM     82  C   UNL A   1      36.916  32.369  29.637  1.00  0.00     0.173 A 
ATOM     83  F   UNL A   1      36.312  31.046  32.961  1.00  0.00    -0.203 F 
ATOM     84  C   UNL A   1      35.087  32.602  31.695  1.00  0.00     0.198 A 
ATOM     85  C   UNL A   1      35.836  33.244  29.518  1.00  0.00     0.198 A 
ATOM     86  F   UNL A   1      37.814  32.380  28.641  1.00  0.00    -0.203 F 
ATOM     87  F   UNL A   1      34.232  32.751  32.716  1.00  0.00    -0.200 F 
ATOM     88  C   UNL A   1      34.927  33.370  30.553  1.00  0.00     0.200 A 
ATOM     89  F   UNL A   1      35.717  34.009  28.424  1.00  0.00    -0.200 F 
ATOM     90  F   UNL A   1      33.930  34.260  30.465  1.00  0.00    -0.200 F 
ENDBRANCH  56  80
BRANCH  68  91
ATOM     91  C   UNL A   1      42.360  29.752  33.797  1.00  0.00     0.064 A 
ATOM     92  C   UNL A   1      41.837  28.453  33.675  1.00  0.00     0.173 A 
ATOM     93  C   UNL A   1      42.742  30.174  35.078  1.00  0.00     0.173 A 
ATOM     94  F   UNL A   1      41.547  27.937  32.474  1.00  0.00    -0.203 F 
ATOM     95  C   UNL A   1      41.661  27.635  34.790  1.00  0.00     0.198 A 
ATOM     96  C   UNL A   1      42.602  29.342  36.185  1.00  0.00     0.198 A 
ATOM     97  F   UNL A   1      43.303  31.382  35.248  1.00  0.00    -0.203 F 
ATOM     98  F   UNL A   1      41.148  26.404  34.649  1.00  0.00    -0.200 F 
ATOM     99  C   UNL A   1      42.051  28.077  36.043  1.00  0.00     0.200 A 
ATOM    100  F   UNL A   1      43.029  29.753  37.386  1.00  0.00    -0.200 F 
ATOM    101  F   UNL A   1      41.924  27.276  37.111  1.00  0.00    -0.200 F 
ENDBRANCH  68  91
ENDBRANCH  42  43
ENDBRANCH  35  37
ENDBRANCH  34  35
ENDBRANCH  33  34
ENDBRANCH  32  33
ENDBRANCH  31  32
ENDBRANCH  30  31
ENDBRANCH  29  30
ENDBRANCH  28  29
ENDBRANCH   1  28
TORSDOF 24
ENDMDL
