MODEL 1
REMARK VINA RESULT:      -8.9      0.000      0.000
REMARK SMILES O=C(OCCOCCOCCOCCOC(=O)c1ccc(-n2cc(CSc3nc4ccccc4c(=O)n3-c3ccc(Br)cc3)nn2)cc1)c1ccc(-c2c3nc(c(-c4c(F)c(F)c(F)c(F)c4F)c4ccc([nH]4)c(-c4c(F)c(F)c(F)c(F)c4F)c4nc(c(-c5c(F)c(F)c(F)c(F)c5F)c5ccc2[nH]5)C=C4)C=C3)cc1
REMARK SMILES IDX 10 1 9 2 8 3 7 4 6 5 5 6 4 7 3 8 2 9 1 10 49 11 50 12 111 13
REMARK SMILES IDX 51 14 110 15 52 16 53 17 54 18 104 19 55 20 109 21 103 22
REMARK SMILES IDX 105 23 56 24 108 25 102 26 101 27 57 29 89 30 69 31 88 32
REMARK SMILES IDX 70 33 73 34 87 35 106 36 71 37 72 38 86 40 107 41 74 42
REMARK SMILES IDX 58 43 59 44 67 45 60 46 61 47 65 48 68 49 62 50 63 51 66 52
REMARK SMILES IDX 64 53 90 54 91 55 99 56 92 57 93 58 97 59 100 60 94 61 95 62
REMARK SMILES IDX 98 63 96 64 75 65 76 66 84 67 77 68 78 69 82 70 85 71 79 72
REMARK SMILES IDX 80 73 83 74 81 75 11 76 12 77 13 78 14 79 15 80 16 81 17 82
REMARK SMILES IDX 18 83 19 84 48 85 20 86 47 87 21 88 22 89 23 90 46 91 24 92
REMARK SMILES IDX 45 93 25 94 26 95 27 96 28 97 37 98 29 99 35 100 30 101
REMARK SMILES IDX 34 102 36 103 31 104 33 105 32 106 38 107 39 108 44 109
REMARK SMILES IDX 40 110 43 111 41 112 42 113
REMARK H PARENT 105 28 73 39
REMARK Flexibility Score: inf
ROOT
ATOM      1  C   UNL A   1      45.988  19.564  25.328  1.00  0.00     0.188 C 
ENDROOT
BRANCH   1   2
ATOM      2  O   UNL A   1      46.223  20.892  24.920  1.00  0.00    -0.377 OA
BRANCH   2   3
ATOM      3  C   UNL A   1      45.041  21.621  24.650  1.00  0.00     0.188 C 
BRANCH   3   4
ATOM      4  C   UNL A   1      44.909  23.066  25.180  1.00  0.00     0.188 C 
BRANCH   4   5
ATOM      5  O   UNL A   1      44.094  24.127  24.692  1.00  0.00    -0.376 OA
BRANCH   5   6
ATOM      6  C   UNL A   1      43.784  25.395  25.229  1.00  0.00     0.202 C 
BRANCH   6   7
ATOM      7  C   UNL A   1      42.360  25.918  25.392  1.00  0.00     0.261 C 
BRANCH   7   8
ATOM      8  O   UNL A   1      41.435  24.979  25.911  1.00  0.00    -0.460 OA
BRANCH   8   9
ATOM      9  C   UNL A   1      40.218  25.227  26.428  1.00  0.00     0.338 C 
ATOM     10  O   UNL A   1      39.312  24.432  26.179  1.00  0.00    -0.246 OA
BRANCH   9  11
ATOM     11  C   UNL A   1      39.866  26.433  27.230  1.00  0.00     0.060 A 
ATOM     12  C   UNL A   1      40.031  27.771  26.861  1.00  0.00     0.016 A 
ATOM     13  C   UNL A   1      39.371  26.142  28.514  1.00  0.00     0.016 A 
ATOM     14  C   UNL A   1      39.975  28.762  27.817  1.00  0.00     0.010 A 
ATOM     15  C   UNL A   1      39.273  27.128  29.468  1.00  0.00     0.010 A 
ATOM     16  C   UNL A   1      39.696  28.403  29.129  1.00  0.00    -0.014 A 
BRANCH  16  17
ATOM     17  C   UNL A   1      39.877  29.409  30.149  1.00  0.00     0.031 A 
ATOM     18  C   UNL A   1      38.724  30.320  30.300  1.00  0.00     0.074 A 
ATOM     19  C   UNL A   1      41.009  29.423  30.879  1.00  0.00     0.049 A 
ATOM     20  N   UNL A   1      38.687  31.589  30.063  1.00  0.00    -0.248 NA
ATOM     21  C   UNL A   1      37.410  29.723  30.585  1.00  0.00     0.031 C 
ATOM     22  C   UNL A   1      42.083  28.423  30.904  1.00  0.00     0.029 A 
ATOM     23  N   UNL A   1      41.394  30.305  31.837  1.00  0.00    -0.354 N 
ATOM     24  C   UNL A   1      37.392  31.990  30.373  1.00  0.00     0.074 A 
ATOM     25  C   UNL A   1      36.613  30.788  30.508  1.00  0.00     0.031 C 
ATOM     26  C   UNL A   1      42.858  28.626  31.993  1.00  0.00     0.029 A 
ATOM     27  C   UNL A   1      42.423  29.842  32.651  1.00  0.00     0.049 A 
ATOM     28  H   UNL A   1      40.983  31.192  31.945  1.00  0.00     0.167 HD
ATOM     29  C   UNL A   1      37.139  33.268  30.763  1.00  0.00     0.037 A 
ATOM     30  C   UNL A   1      42.793  30.395  33.834  1.00  0.00     0.037 A 
ATOM     31  C   UNL A   1      38.200  34.154  30.353  1.00  0.00     0.049 A 
ATOM     32  C   UNL A   1      42.281  31.793  33.838  1.00  0.00     0.074 A 
ATOM     33  C   UNL A   1      38.717  34.543  29.133  1.00  0.00     0.029 A 
ATOM     34  N   UNL A   1      39.146  34.493  31.288  1.00  0.00    -0.354 N 
ATOM     35  N   UNL A   1      42.736  32.724  33.044  1.00  0.00    -0.248 NA
ATOM     36  C   UNL A   1      40.938  32.015  34.358  1.00  0.00     0.031 C 
ATOM     37  C   UNL A   1      40.122  34.650  29.345  1.00  0.00     0.029 A 
ATOM     38  C   UNL A   1      40.376  34.395  30.693  1.00  0.00     0.049 A 
ATOM     39  H   UNL A   1      38.972  34.759  32.220  1.00  0.00     0.167 HD
ATOM     40  C   UNL A   1      41.605  33.409  32.621  1.00  0.00     0.074 A 
ATOM     41  C   UNL A   1      40.534  32.967  33.512  1.00  0.00     0.031 C 
ATOM     42  C   UNL A   1      41.577  34.035  31.408  1.00  0.00     0.037 A 
BRANCH  29  43
ATOM     43  C   UNL A   1      36.169  33.631  31.860  1.00  0.00     0.064 A 
ATOM     44  C   UNL A   1      35.098  34.495  31.562  1.00  0.00     0.173 A 
ATOM     45  C   UNL A   1      36.427  33.434  33.235  1.00  0.00     0.173 A 
ATOM     46  F   UNL A   1      34.773  34.765  30.289  1.00  0.00    -0.203 F 
ATOM     47  C   UNL A   1      34.405  35.182  32.563  1.00  0.00     0.198 A 
ATOM     48  C   UNL A   1      35.699  34.081  34.231  1.00  0.00     0.198 A 
ATOM     49  F   UNL A   1      37.460  32.709  33.677  1.00  0.00    -0.203 F 
ATOM     50  F   UNL A   1      33.487  36.098  32.225  1.00  0.00    -0.200 F 
ATOM     51  C   UNL A   1      34.712  34.981  33.894  1.00  0.00     0.200 A 
ATOM     52  F   UNL A   1      36.027  33.886  35.516  1.00  0.00    -0.200 F 
ATOM     53  F   UNL A   1      34.099  35.690  34.851  1.00  0.00    -0.200 F 
ENDBRANCH  29  43
BRANCH  30  54
ATOM     54  C   UNL A   1      43.195  29.685  35.073  1.00  0.00     0.064 A 
ATOM     55  C   UNL A   1      42.385  28.681  35.626  1.00  0.00     0.173 A 
ATOM     56  C   UNL A   1      44.506  29.782  35.582  1.00  0.00     0.173 A 
ATOM     57  F   UNL A   1      41.141  28.489  35.164  1.00  0.00    -0.203 F 
ATOM     58  C   UNL A   1      42.864  27.813  36.615  1.00  0.00     0.198 A 
ATOM     59  C   UNL A   1      44.981  28.920  36.572  1.00  0.00     0.198 A 
ATOM     60  F   UNL A   1      45.386  30.650  35.063  1.00  0.00    -0.203 F 
ATOM     61  F   UNL A   1      42.082  26.829  37.077  1.00  0.00    -0.200 F 
ATOM     62  C   UNL A   1      44.164  27.927  37.079  1.00  0.00     0.200 A 
ATOM     63  F   UNL A   1      46.254  29.017  36.983  1.00  0.00    -0.200 F 
ATOM     64  F   UNL A   1      44.643  27.059  37.980  1.00  0.00    -0.200 F 
ENDBRANCH  30  54
BRANCH  42  65
ATOM     65  C   UNL A   1      42.874  34.166  30.659  1.00  0.00     0.064 A 
ATOM     66  C   UNL A   1      43.326  33.244  29.698  1.00  0.00     0.173 A 
ATOM     67  C   UNL A   1      43.609  35.347  30.815  1.00  0.00     0.173 A 
ATOM     68  F   UNL A   1      42.621  32.142  29.415  1.00  0.00    -0.203 F 
ATOM     69  C   UNL A   1      44.487  33.479  28.961  1.00  0.00     0.198 A 
ATOM     70  C   UNL A   1      44.746  35.597  30.052  1.00  0.00     0.198 A 
ATOM     71  F   UNL A   1      43.191  36.290  31.674  1.00  0.00    -0.203 F 
ATOM     72  F   UNL A   1      44.903  32.582  28.055  1.00  0.00    -0.200 F 
ATOM     73  C   UNL A   1      45.192  34.659  29.134  1.00  0.00     0.200 A 
ATOM     74  F   UNL A   1      45.393  36.762  30.185  1.00  0.00    -0.200 F 
ATOM     75  F   UNL A   1      46.283  34.907  28.396  1.00  0.00    -0.200 F 
ENDBRANCH  42  65
ENDBRANCH  16  17
ENDBRANCH   9  11
ENDBRANCH   8   9
ENDBRANCH   7   8
ENDBRANCH   6   7
ENDBRANCH   5   6
ENDBRANCH   4   5
ENDBRANCH   3   4
ENDBRANCH   2   3
ENDBRANCH   1   2
BRANCH   1  76
ATOM     76  C   UNL A   1      44.712  18.983  24.692  1.00  0.00     0.188 C 
BRANCH  76  77
ATOM     77  O   UNL A   1      43.702  18.455  25.527  1.00  0.00    -0.376 OA
BRANCH  77  78
ATOM     78  C   UNL A   1      42.529  19.211  25.795  1.00  0.00     0.202 C 
BRANCH  78  79
ATOM     79  C   UNL A   1      42.247  19.978  27.111  1.00  0.00     0.261 C 
BRANCH  79  80
ATOM     80  O   UNL A   1      42.703  21.333  27.231  1.00  0.00    -0.460 OA
BRANCH  80  81
ATOM     81  C   UNL A   1      41.914  22.186  27.921  1.00  0.00     0.338 C 
ATOM     82  O   UNL A   1      40.694  22.158  28.012  1.00  0.00    -0.246 OA
BRANCH  81  83
ATOM     83  C   UNL A   1      42.783  23.048  28.750  1.00  0.00     0.060 A 
ATOM     84  C   UNL A   1      42.639  24.444  28.653  1.00  0.00     0.018 A 
ATOM     85  C   UNL A   1      43.707  22.494  29.637  1.00  0.00     0.018 A 
ATOM     86  C   UNL A   1      43.368  25.295  29.476  1.00  0.00     0.029 A 
ATOM     87  C   UNL A   1      44.535  23.349  30.372  1.00  0.00     0.029 A 
ATOM     88  C   UNL A   1      44.353  24.742  30.289  1.00  0.00     0.066 A 
BRANCH  88  89
ATOM     89  N   UNL A   1      45.356  25.611  30.751  1.00  0.00    -0.220 N 
ATOM     90  C   UNL A   1      45.535  26.868  30.243  1.00  0.00     0.141 A 
ATOM     91  N   UNL A   1      46.006  25.503  31.927  1.00  0.00    -0.062 NA
ATOM     92  C   UNL A   1      46.337  27.527  31.141  1.00  0.00     0.093 A 
ATOM     93  N   UNL A   1      46.679  26.636  32.129  1.00  0.00    -0.134 NA
BRANCH  92  94
ATOM     94  C   UNL A   1      46.977  28.854  30.997  1.00  0.00     0.138 C 
BRANCH  94  95
ATOM     95  S   UNL A   1      46.326  30.191  30.001  1.00  0.00    -0.081 SA
BRANCH  95  96
ATOM     96  C   UNL A   1      47.520  31.139  29.155  1.00  0.00     0.176 A 
ATOM     97  N   UNL A   1      48.140  31.968  29.947  1.00  0.00    -0.223 NA
ATOM     98  N   UNL A   1      47.822  31.079  27.807  1.00  0.00    -0.255 N 
ATOM     99  C   UNL A   1      49.018  32.901  29.379  1.00  0.00     0.079 A 
ATOM    100  C   UNL A   1      48.071  32.330  27.229  1.00  0.00     0.266 A 
ATOM    101  C   UNL A   1      49.957  33.584  30.151  1.00  0.00     0.029 A 
ATOM    102  C   UNL A   1      48.879  33.249  28.042  1.00  0.00     0.066 A 
ATOM    103  O   UNL A   1      47.678  32.707  26.126  1.00  0.00    -0.268 OA
ATOM    104  C   UNL A   1      50.686  34.646  29.598  1.00  0.00     0.002 A 
ATOM    105  C   UNL A   1      49.550  34.343  27.491  1.00  0.00     0.016 A 
ATOM    106  C   UNL A   1      50.451  35.052  28.282  1.00  0.00     0.001 A 
BRANCH  98 107
ATOM    107  C   UNL A   1      47.905  29.906  26.966  1.00  0.00     0.051 A 
ATOM    108  C   UNL A   1      46.728  29.355  26.416  1.00  0.00     0.028 A 
ATOM    109  C   UNL A   1      49.096  29.250  26.634  1.00  0.00     0.028 A 
ATOM    110  C   UNL A   1      46.703  28.091  25.822  1.00  0.00     0.018 A 
ATOM    111  C   UNL A   1      49.079  27.948  26.106  1.00  0.00     0.018 A 
ATOM    112  C   UNL A   1      47.873  27.355  25.751  1.00  0.00     0.018 A 
ATOM    113  Br  UNL A   1      47.814  25.543  25.232  1.00  0.00    -0.051 Br
ENDBRANCH  98 107
ENDBRANCH  95  96
ENDBRANCH  94  95
ENDBRANCH  92  94
ENDBRANCH  88  89
ENDBRANCH  81  83
ENDBRANCH  80  81
ENDBRANCH  79  80
ENDBRANCH  78  79
ENDBRANCH  77  78
ENDBRANCH  76  77
ENDBRANCH   1  76
TORSDOF 25
ENDMDL
MODEL 2
REMARK VINA RESULT:      -8.5      5.944     13.634
REMARK SMILES O=C(OCCOCCOCCOCCOC(=O)c1ccc(-n2cc(CSc3nc4ccccc4c(=O)n3-c3ccc(Br)cc3)nn2)cc1)c1ccc(-c2c3nc(c(-c4c(F)c(F)c(F)c(F)c4F)c4ccc([nH]4)c(-c4c(F)c(F)c(F)c(F)c4F)c4nc(c(-c5c(F)c(F)c(F)c(F)c5F)c5ccc2[nH]5)C=C4)C=C3)cc1
REMARK SMILES IDX 10 1 9 2 8 3 7 4 6 5 5 6 4 7 3 8 2 9 1 10 49 11 50 12 111 13
REMARK SMILES IDX 51 14 110 15 52 16 53 17 54 18 104 19 55 20 109 21 103 22
REMARK SMILES IDX 105 23 56 24 108 25 102 26 101 27 57 29 89 30 69 31 88 32
REMARK SMILES IDX 70 33 73 34 87 35 106 36 71 37 72 38 86 40 107 41 74 42
REMARK SMILES IDX 58 43 59 44 67 45 60 46 61 47 65 48 68 49 62 50 63 51 66 52
REMARK SMILES IDX 64 53 90 54 91 55 99 56 92 57 93 58 97 59 100 60 94 61 95 62
REMARK SMILES IDX 98 63 96 64 75 65 76 66 84 67 77 68 78 69 82 70 85 71 79 72
REMARK SMILES IDX 80 73 83 74 81 75 11 76 12 77 13 78 14 79 15 80 16 81 17 82
REMARK SMILES IDX 18 83 19 84 48 85 20 86 47 87 21 88 22 89 23 90 46 91 24 92
REMARK SMILES IDX 45 93 25 94 26 95 27 96 28 97 37 98 29 99 35 100 30 101
REMARK SMILES IDX 34 102 36 103 31 104 33 105 32 106 38 107 39 108 44 109
REMARK SMILES IDX 40 110 43 111 41 112 42 113
REMARK H PARENT 105 28 73 39
REMARK Flexibility Score: inf
ROOT
ATOM      1  C   UNL A   1      41.398  27.893  28.820  1.00  0.00     0.188 C 
ENDROOT
BRANCH   1   2
ATOM      2  O   UNL A   1      40.860  26.597  28.701  1.00  0.00    -0.377 OA
BRANCH   2   3
ATOM      3  C   UNL A   1      41.755  25.661  28.133  1.00  0.00     0.188 C 
BRANCH   3   4
ATOM      4  C   UNL A   1      41.855  24.245  28.742  1.00  0.00     0.188 C 
BRANCH   4   5
ATOM      5  O   UNL A   1      42.563  23.109  28.258  1.00  0.00    -0.376 OA
BRANCH   5   6
ATOM      6  C   UNL A   1      42.116  21.899  27.685  1.00  0.00     0.202 C 
BRANCH   6   7
ATOM      7  C   UNL A   1      41.539  21.794  26.276  1.00  0.00     0.261 C 
BRANCH   7   8
ATOM      8  O   UNL A   1      42.332  22.386  25.262  1.00  0.00    -0.460 OA
BRANCH   8   9
ATOM      9  C   UNL A   1      43.626  22.141  24.986  1.00  0.00     0.338 C 
ATOM     10  O   UNL A   1      43.902  21.102  24.386  1.00  0.00    -0.246 OA
BRANCH   9  11
ATOM     11  C   UNL A   1      44.762  23.006  25.412  1.00  0.00     0.060 A 
ATOM     12  C   UNL A   1      45.648  22.780  26.469  1.00  0.00     0.016 A 
ATOM     13  C   UNL A   1      44.881  24.199  24.675  1.00  0.00     0.016 A 
ATOM     14  C   UNL A   1      46.427  23.809  26.949  1.00  0.00     0.010 A 
ATOM     15  C   UNL A   1      45.685  25.222  25.121  1.00  0.00     0.010 A 
ATOM     16  C   UNL A   1      46.351  25.046  26.323  1.00  0.00    -0.014 A 
BRANCH  16  17
ATOM     17  C   UNL A   1      46.984  26.166  26.979  1.00  0.00     0.031 A 
ATOM     18  C   UNL A   1      48.459  26.089  27.003  1.00  0.00     0.074 A 
ATOM     19  C   UNL A   1      46.228  27.169  27.464  1.00  0.00     0.049 A 
ATOM     20  N   UNL A   1      49.225  25.968  28.036  1.00  0.00    -0.248 NA
ATOM     21  C   UNL A   1      49.161  25.956  25.717  1.00  0.00     0.031 C 
ATOM     22  C   UNL A   1      44.788  27.388  27.284  1.00  0.00     0.029 A 
ATOM     23  N   UNL A   1      46.617  28.273  28.153  1.00  0.00    -0.354 N 
ATOM     24  C   UNL A   1      50.524  25.958  27.540  1.00  0.00     0.074 A 
ATOM     25  C   UNL A   1      50.418  25.768  26.118  1.00  0.00     0.031 C 
ATOM     26  C   UNL A   1      44.480  28.658  27.630  1.00  0.00     0.029 A 
ATOM     27  C   UNL A   1      45.664  29.286  28.185  1.00  0.00     0.049 A 
ATOM     28  H   UNL A   1      47.494  28.349  28.591  1.00  0.00     0.167 HD
ATOM     29  C   UNL A   1      51.561  26.383  28.310  1.00  0.00     0.037 A 
ATOM     30  C   UNL A   1      45.899  30.570  28.554  1.00  0.00     0.037 A 
ATOM     31  C   UNL A   1      51.213  26.355  29.709  1.00  0.00     0.049 A 
ATOM     32  C   UNL A   1      47.149  30.568  29.361  1.00  0.00     0.074 A 
ATOM     33  C   UNL A   1      50.857  25.358  30.596  1.00  0.00     0.029 A 
ATOM     34  N   UNL A   1      50.831  27.536  30.296  1.00  0.00    -0.354 N 
ATOM     35  N   UNL A   1      47.239  30.013  30.540  1.00  0.00    -0.248 NA
ATOM     36  C   UNL A   1      48.409  30.728  28.647  1.00  0.00     0.031 C 
ATOM     37  C   UNL A   1      49.863  25.946  31.432  1.00  0.00     0.029 A 
ATOM     38  C   UNL A   1      49.722  27.284  31.061  1.00  0.00     0.049 A 
ATOM     39  H   UNL A   1      51.275  28.408  30.188  1.00  0.00     0.167 HD
ATOM     40  C   UNL A   1      48.469  29.370  30.533  1.00  0.00     0.074 A 
ATOM     41  C   UNL A   1      49.171  29.898  29.365  1.00  0.00     0.031 C 
ATOM     42  C   UNL A   1      48.682  28.256  31.294  1.00  0.00     0.037 A 
BRANCH  29  43
ATOM     43  C   UNL A   1      52.707  27.211  27.785  1.00  0.00     0.064 A 
ATOM     44  C   UNL A   1      52.427  28.444  27.163  1.00  0.00     0.173 A 
ATOM     45  C   UNL A   1      54.011  26.708  27.578  1.00  0.00     0.173 A 
ATOM     46  F   UNL A   1      51.216  29.008  27.281  1.00  0.00    -0.203 F 
ATOM     47  C   UNL A   1      53.350  29.070  26.321  1.00  0.00     0.198 A 
ATOM     48  C   UNL A   1      54.946  27.363  26.779  1.00  0.00     0.198 A 
ATOM     49  F   UNL A   1      54.401  25.513  28.032  1.00  0.00    -0.203 F 
ATOM     50  F   UNL A   1      52.989  30.168  25.642  1.00  0.00    -0.200 F 
ATOM     51  C   UNL A   1      54.603  28.525  26.122  1.00  0.00     0.200 A 
ATOM     52  F   UNL A   1      56.149  26.806  26.585  1.00  0.00    -0.200 F 
ATOM     53  F   UNL A   1      55.463  29.085  25.261  1.00  0.00    -0.200 F 
ENDBRANCH  29  43
BRANCH  30  54
ATOM     54  C   UNL A   1      45.348  31.800  27.933  1.00  0.00     0.064 A 
ATOM     55  C   UNL A   1      45.300  31.947  26.538  1.00  0.00     0.173 A 
ATOM     56  C   UNL A   1      44.606  32.734  28.686  1.00  0.00     0.173 A 
ATOM     57  F   UNL A   1      45.937  31.072  25.747  1.00  0.00    -0.203 F 
ATOM     58  C   UNL A   1      44.540  32.955  25.932  1.00  0.00     0.198 A 
ATOM     59  C   UNL A   1      43.853  33.741  28.081  1.00  0.00     0.198 A 
ATOM     60  F   UNL A   1      44.517  32.630  30.020  1.00  0.00    -0.203 F 
ATOM     61  F   UNL A   1      44.470  33.028  24.596  1.00  0.00    -0.200 F 
ATOM     62  C   UNL A   1      43.809  33.844  26.704  1.00  0.00     0.200 A 
ATOM     63  F   UNL A   1      43.120  34.569  28.840  1.00  0.00    -0.200 F 
ATOM     64  F   UNL A   1      43.033  34.769  26.123  1.00  0.00    -0.200 F 
ENDBRANCH  30  54
BRANCH  42  65
ATOM     65  C   UNL A   1      47.637  27.896  32.313  1.00  0.00     0.064 A 
ATOM     66  C   UNL A   1      46.550  27.040  32.059  1.00  0.00     0.173 A 
ATOM     67  C   UNL A   1      47.832  28.315  33.635  1.00  0.00     0.173 A 
ATOM     68  F   UNL A   1      46.358  26.513  30.844  1.00  0.00    -0.203 F 
ATOM     69  C   UNL A   1      45.676  26.661  33.077  1.00  0.00     0.198 A 
ATOM     70  C   UNL A   1      46.980  27.905  34.656  1.00  0.00     0.198 A 
ATOM     71  F   UNL A   1      48.887  29.083  33.946  1.00  0.00    -0.203 F 
ATOM     72  F   UNL A   1      44.641  25.850  32.809  1.00  0.00    -0.200 F 
ATOM     73  C   UNL A   1      45.896  27.088  34.376  1.00  0.00     0.200 A 
ATOM     74  F   UNL A   1      47.228  28.277  35.918  1.00  0.00    -0.200 F 
ATOM     75  F   UNL A   1      45.082  26.689  35.364  1.00  0.00    -0.200 F 
ENDBRANCH  42  65
ENDBRANCH  16  17
ENDBRANCH   9  11
ENDBRANCH   8   9
ENDBRANCH   7   8
ENDBRANCH   6   7
ENDBRANCH   5   6
ENDBRANCH   4   5
ENDBRANCH   3   4
ENDBRANCH   2   3
ENDBRANCH   1   2
BRANCH   1  76
ATOM     76  C   UNL A   1      40.298  28.968  28.896  1.00  0.00     0.188 C 
BRANCH  76  77
ATOM     77  O   UNL A   1      39.145  28.837  28.089  1.00  0.00    -0.376 OA
BRANCH  77  78
ATOM     78  C   UNL A   1      37.871  28.646  28.689  1.00  0.00     0.202 C 
BRANCH  78  79
ATOM     79  C   UNL A   1      36.747  29.710  28.746  1.00  0.00     0.261 C 
BRANCH  79  80
ATOM     80  O   UNL A   1      35.416  29.328  28.374  1.00  0.00    -0.460 OA
BRANCH  80  81
ATOM     81  C   UNL A   1      34.712  30.209  27.628  1.00  0.00     0.338 C 
ATOM     82  O   UNL A   1      34.940  31.401  27.477  1.00  0.00    -0.246 OA
BRANCH  81  83
ATOM     83  C   UNL A   1      33.731  29.449  26.824  1.00  0.00     0.060 A 
ATOM     84  C   UNL A   1      32.746  28.700  27.493  1.00  0.00     0.018 A 
ATOM     85  C   UNL A   1      33.756  29.496  25.429  1.00  0.00     0.018 A 
ATOM     86  C   UNL A   1      31.747  28.042  26.785  1.00  0.00     0.029 A 
ATOM     87  C   UNL A   1      32.832  28.730  24.711  1.00  0.00     0.029 A 
ATOM     88  C   UNL A   1      31.832  28.015  25.396  1.00  0.00     0.066 A 
BRANCH  88  89
ATOM     89  N   UNL A   1      31.113  27.004  24.736  1.00  0.00    -0.220 N 
ATOM     90  C   UNL A   1      31.723  25.937  24.135  1.00  0.00     0.141 A 
ATOM     91  N   UNL A   1      29.801  26.740  24.899  1.00  0.00    -0.062 NA
ATOM     92  C   UNL A   1      30.734  25.011  23.915  1.00  0.00     0.093 A 
ATOM     93  N   UNL A   1      29.545  25.565  24.321  1.00  0.00    -0.134 NA
BRANCH  92  94
ATOM     94  C   UNL A   1      30.812  23.752  23.141  1.00  0.00     0.138 C 
BRANCH  94  95
ATOM     95  S   UNL A   1      32.335  23.019  22.550  1.00  0.00    -0.081 SA
BRANCH  95  96
ATOM     96  C   UNL A   1      32.879  21.620  23.434  1.00  0.00     0.176 A 
ATOM     97  N   UNL A   1      32.435  20.508  22.919  1.00  0.00    -0.223 NA
ATOM     98  N   UNL A   1      33.681  21.612  24.561  1.00  0.00    -0.255 N 
ATOM     99  C   UNL A   1      32.664  19.312  23.613  1.00  0.00     0.079 A 
ATOM    100  C   UNL A   1      33.303  20.660  25.516  1.00  0.00     0.266 A 
ATOM    101  C   UNL A   1      32.529  18.071  22.993  1.00  0.00     0.029 A 
ATOM    102  C   UNL A   1      32.916  19.349  24.977  1.00  0.00     0.066 A 
ATOM    103  O   UNL A   1      33.272  20.831  26.733  1.00  0.00    -0.268 OA
ATOM    104  C   UNL A   1      32.573  16.894  23.753  1.00  0.00     0.002 A 
ATOM    105  C   UNL A   1      32.902  18.192  25.761  1.00  0.00     0.016 A 
ATOM    106  C   UNL A   1      32.718  16.958  25.142  1.00  0.00     0.001 A 
BRANCH  98 107
ATOM    107  C   UNL A   1      34.824  22.452  24.845  1.00  0.00     0.051 A 
ATOM    108  C   UNL A   1      36.071  22.156  24.256  1.00  0.00     0.028 A 
ATOM    109  C   UNL A   1      34.794  23.576  25.677  1.00  0.00     0.028 A 
ATOM    110  C   UNL A   1      37.259  22.756  24.684  1.00  0.00     0.018 A 
ATOM    111  C   UNL A   1      35.984  24.138  26.172  1.00  0.00     0.018 A 
ATOM    112  C   UNL A   1      37.214  23.685  25.709  1.00  0.00     0.018 A 
ATOM    113  Br  UNL A   1      38.814  24.285  26.505  1.00  0.00    -0.051 Br
ENDBRANCH  98 107
ENDBRANCH  95  96
ENDBRANCH  94  95
ENDBRANCH  92  94
ENDBRANCH  88  89
ENDBRANCH  81  83
ENDBRANCH  80  81
ENDBRANCH  79  80
ENDBRANCH  78  79
ENDBRANCH  77  78
ENDBRANCH  76  77
ENDBRANCH   1  76
TORSDOF 25
ENDMDL
MODEL 3
REMARK VINA RESULT:      -8.5      3.671      5.597
REMARK SMILES O=C(OCCOCCOCCOCCOC(=O)c1ccc(-n2cc(CSc3nc4ccccc4c(=O)n3-c3ccc(Br)cc3)nn2)cc1)c1ccc(-c2c3nc(c(-c4c(F)c(F)c(F)c(F)c4F)c4ccc([nH]4)c(-c4c(F)c(F)c(F)c(F)c4F)c4nc(c(-c5c(F)c(F)c(F)c(F)c5F)c5ccc2[nH]5)C=C4)C=C3)cc1
REMARK SMILES IDX 10 1 9 2 8 3 7 4 6 5 5 6 4 7 3 8 2 9 1 10 49 11 50 12 111 13
REMARK SMILES IDX 51 14 110 15 52 16 53 17 54 18 104 19 55 20 109 21 103 22
REMARK SMILES IDX 105 23 56 24 108 25 102 26 101 27 57 29 89 30 69 31 88 32
REMARK SMILES IDX 70 33 73 34 87 35 106 36 71 37 72 38 86 40 107 41 74 42
REMARK SMILES IDX 58 43 59 44 67 45 60 46 61 47 65 48 68 49 62 50 63 51 66 52
REMARK SMILES IDX 64 53 90 54 91 55 99 56 92 57 93 58 97 59 100 60 94 61 95 62
REMARK SMILES IDX 98 63 96 64 75 65 76 66 84 67 77 68 78 69 82 70 85 71 79 72
REMARK SMILES IDX 80 73 83 74 81 75 11 76 12 77 13 78 14 79 15 80 16 81 17 82
REMARK SMILES IDX 18 83 19 84 48 85 20 86 47 87 21 88 22 89 23 90 46 91 24 92
REMARK SMILES IDX 45 93 25 94 26 95 27 96 28 97 37 98 29 99 35 100 30 101
REMARK SMILES IDX 34 102 36 103 31 104 33 105 32 106 38 107 39 108 44 109
REMARK SMILES IDX 40 110 43 111 41 112 42 113
REMARK H PARENT 105 28 73 39
REMARK Flexibility Score: inf
ROOT
ATOM      1  C   UNL A   1      45.705  19.423  25.416  1.00  0.00     0.188 C 
ENDROOT
BRANCH   1   2
ATOM      2  O   UNL A   1      46.373  20.587  24.987  1.00  0.00    -0.377 OA
BRANCH   2   3
ATOM      3  C   UNL A   1      45.502  21.626  24.583  1.00  0.00     0.188 C 
BRANCH   3   4
ATOM      4  C   UNL A   1      45.714  23.049  25.145  1.00  0.00     0.188 C 
BRANCH   4   5
ATOM      5  O   UNL A   1      45.180  24.284  24.680  1.00  0.00    -0.376 OA
BRANCH   5   6
ATOM      6  C   UNL A   1      45.015  25.533  25.315  1.00  0.00     0.202 C 
BRANCH   6   7
ATOM      7  C   UNL A   1      43.676  26.259  25.417  1.00  0.00     0.261 C 
BRANCH   7   8
ATOM      8  O   UNL A   1      42.559  25.418  25.646  1.00  0.00    -0.460 OA
BRANCH   8   9
ATOM      9  C   UNL A   1      41.266  25.781  25.737  1.00  0.00     0.338 C 
ATOM     10  O   UNL A   1      40.454  25.210  25.007  1.00  0.00    -0.246 OA
BRANCH   9  11
ATOM     11  C   UNL A   1      40.750  26.870  26.612  1.00  0.00     0.060 A 
ATOM     12  C   UNL A   1      40.871  28.248  26.408  1.00  0.00     0.016 A 
ATOM     13  C   UNL A   1      40.130  26.414  27.790  1.00  0.00     0.016 A 
ATOM     14  C   UNL A   1      40.644  29.122  27.448  1.00  0.00     0.010 A 
ATOM     15  C   UNL A   1      39.861  27.282  28.823  1.00  0.00     0.010 A 
ATOM     16  C   UNL A   1      40.240  28.606  28.673  1.00  0.00    -0.014 A 
BRANCH  16  17
ATOM     17  C   UNL A   1      40.239  29.499  29.806  1.00  0.00     0.031 A 
ATOM     18  C   UNL A   1      39.065  30.394  29.861  1.00  0.00     0.074 A 
ATOM     19  C   UNL A   1      41.237  29.433  30.708  1.00  0.00     0.049 A 
ATOM     20  N   UNL A   1      39.049  31.681  29.753  1.00  0.00    -0.248 NA
ATOM     21  C   UNL A   1      37.730  29.776  29.864  1.00  0.00     0.031 C 
ATOM     22  C   UNL A   1      42.306  28.433  30.806  1.00  0.00     0.029 A 
ATOM     23  N   UNL A   1      41.449  30.209  31.802  1.00  0.00    -0.354 N 
ATOM     24  C   UNL A   1      37.715  32.052  29.887  1.00  0.00     0.074 A 
ATOM     25  C   UNL A   1      36.941  30.846  29.768  1.00  0.00     0.031 C 
ATOM     26  C   UNL A   1      42.891  28.519  32.022  1.00  0.00     0.029 A 
ATOM     27  C   UNL A   1      42.338  29.661  32.721  1.00  0.00     0.049 A 
ATOM     28  H   UNL A   1      41.014  31.082  31.933  1.00  0.00     0.167 HD
ATOM     29  C   UNL A   1      37.386  33.284  30.361  1.00  0.00     0.037 A 
ATOM     30  C   UNL A   1      42.503  30.087  33.999  1.00  0.00     0.037 A 
ATOM     31  C   UNL A   1      38.487  34.203  30.223  1.00  0.00     0.049 A 
ATOM     32  C   UNL A   1      41.979  31.479  34.065  1.00  0.00     0.074 A 
ATOM     33  C   UNL A   1      39.190  34.715  29.150  1.00  0.00     0.029 A 
ATOM     34  N   UNL A   1      39.264  34.440  31.329  1.00  0.00    -0.354 N 
ATOM     35  N   UNL A   1      42.544  32.485  33.455  1.00  0.00    -0.248 NA
ATOM     36  C   UNL A   1      40.567  31.650  34.378  1.00  0.00     0.031 C 
ATOM     37  C   UNL A   1      40.541  34.794  29.598  1.00  0.00     0.029 A 
ATOM     38  C   UNL A   1      40.576  34.400  30.936  1.00  0.00     0.049 A 
ATOM     39  H   UNL A   1      38.937  34.609  32.243  1.00  0.00     0.167 HD
ATOM     40  C   UNL A   1      41.488  33.215  32.926  1.00  0.00     0.074 A 
ATOM     41  C   UNL A   1      40.293  32.686  33.581  1.00  0.00     0.031 C 
ATOM     42  C   UNL A   1      41.649  33.963  31.796  1.00  0.00     0.037 A 
BRANCH  29  43
ATOM     43  C   UNL A   1      36.246  33.534  31.316  1.00  0.00     0.064 A 
ATOM     44  C   UNL A   1      35.123  34.253  30.862  1.00  0.00     0.173 A 
ATOM     45  C   UNL A   1      36.347  33.385  32.718  1.00  0.00     0.173 A 
ATOM     46  F   UNL A   1      34.934  34.467  29.552  1.00  0.00    -0.203 F 
ATOM     47  C   UNL A   1      34.228  34.859  31.749  1.00  0.00     0.198 A 
ATOM     48  C   UNL A   1      35.422  33.947  33.596  1.00  0.00     0.198 A 
ATOM     49  F   UNL A   1      37.396  32.801  33.306  1.00  0.00    -0.203 F 
ATOM     50  F   UNL A   1      33.256  35.648  31.273  1.00  0.00    -0.200 F 
ATOM     51  C   UNL A   1      34.384  34.713  33.113  1.00  0.00     0.200 A 
ATOM     52  F   UNL A   1      35.604  33.809  34.916  1.00  0.00    -0.200 F 
ATOM     53  F   UNL A   1      33.570  35.350  33.965  1.00  0.00    -0.200 F 
ENDBRANCH  29  43
BRANCH  30  54
ATOM     54  C   UNL A   1      42.708  29.251  35.207  1.00  0.00     0.064 A 
ATOM     55  C   UNL A   1      41.823  28.208  35.523  1.00  0.00     0.173 A 
ATOM     56  C   UNL A   1      43.924  29.277  35.922  1.00  0.00     0.173 A 
ATOM     57  F   UNL A   1      40.667  28.080  34.856  1.00  0.00    -0.203 F 
ATOM     58  C   UNL A   1      42.144  27.238  36.481  1.00  0.00     0.198 A 
ATOM     59  C   UNL A   1      44.239  28.314  36.881  1.00  0.00     0.198 A 
ATOM     60  F   UNL A   1      44.872  30.181  35.637  1.00  0.00    -0.203 F 
ATOM     61  F   UNL A   1      41.301  26.223  36.714  1.00  0.00    -0.200 F 
ATOM     62  C   UNL A   1      43.355  27.286  37.151  1.00  0.00     0.200 A 
ATOM     63  F   UNL A   1      45.432  28.351  37.492  1.00  0.00    -0.200 F 
ATOM     64  F   UNL A   1      43.689  26.325  38.023  1.00  0.00    -0.200 F 
ENDBRANCH  30  54
BRANCH  42  65
ATOM     65  C   UNL A   1      43.049  34.167  31.286  1.00  0.00     0.064 A 
ATOM     66  C   UNL A   1      43.670  33.338  30.336  1.00  0.00     0.173 A 
ATOM     67  C   UNL A   1      43.726  35.333  31.665  1.00  0.00     0.173 A 
ATOM     68  F   UNL A   1      43.042  32.262  29.845  1.00  0.00    -0.203 F 
ATOM     69  C   UNL A   1      44.931  33.643  29.825  1.00  0.00     0.198 A 
ATOM     70  C   UNL A   1      44.968  35.655  31.125  1.00  0.00     0.198 A 
ATOM     71  F   UNL A   1      43.154  36.192  32.523  1.00  0.00    -0.203 F 
ATOM     72  F   UNL A   1      45.508  32.833  28.924  1.00  0.00    -0.200 F 
ATOM     73  C   UNL A   1      45.575  34.805  30.215  1.00  0.00     0.200 A 
ATOM     74  F   UNL A   1      45.561  36.806  31.466  1.00  0.00    -0.200 F 
ATOM     75  F   UNL A   1      46.768  35.123  29.692  1.00  0.00    -0.200 F 
ENDBRANCH  42  65
ENDBRANCH  16  17
ENDBRANCH   9  11
ENDBRANCH   8   9
ENDBRANCH   7   8
ENDBRANCH   6   7
ENDBRANCH   5   6
ENDBRANCH   4   5
ENDBRANCH   3   4
ENDBRANCH   2   3
ENDBRANCH   1   2
BRANCH   1  76
ATOM     76  C   UNL A   1      44.415  19.170  24.613  1.00  0.00     0.188 C 
BRANCH  76  77
ATOM     77  O   UNL A   1      43.209  18.915  25.305  1.00  0.00    -0.376 OA
BRANCH  77  78
ATOM     78  C   UNL A   1      42.397  19.994  25.748  1.00  0.00     0.202 C 
BRANCH  78  79
ATOM     79  C   UNL A   1      42.458  20.631  27.158  1.00  0.00     0.261 C 
BRANCH  79  80
ATOM     80  O   UNL A   1      43.033  21.938  27.301  1.00  0.00    -0.460 OA
BRANCH  80  81
ATOM     81  C   UNL A   1      42.280  22.874  27.922  1.00  0.00     0.338 C 
ATOM     82  O   UNL A   1      41.082  23.074  27.782  1.00  0.00    -0.246 OA
BRANCH  81  83
ATOM     83  C   UNL A   1      43.100  23.490  28.987  1.00  0.00     0.060 A 
ATOM     84  C   UNL A   1      43.502  24.830  28.839  1.00  0.00     0.018 A 
ATOM     85  C   UNL A   1      43.444  22.772  30.134  1.00  0.00     0.018 A 
ATOM     86  C   UNL A   1      44.196  25.482  29.852  1.00  0.00     0.029 A 
ATOM     87  C   UNL A   1      44.253  23.384  31.096  1.00  0.00     0.029 A 
ATOM     88  C   UNL A   1      44.616  24.736  30.949  1.00  0.00     0.066 A 
BRANCH  88  89
ATOM     89  N   UNL A   1      45.669  25.268  31.712  1.00  0.00    -0.220 N 
ATOM     90  C   UNL A   1      45.729  25.147  33.073  1.00  0.00     0.141 A 
ATOM     91  N   UNL A   1      46.881  25.622  31.238  1.00  0.00    -0.062 NA
ATOM     92  C   UNL A   1      47.019  25.459  33.424  1.00  0.00     0.093 A 
ATOM     93  N   UNL A   1      47.685  25.827  32.281  1.00  0.00    -0.134 NA
BRANCH  92  94
ATOM     94  C   UNL A   1      47.578  25.653  34.780  1.00  0.00     0.138 C 
BRANCH  94  95
ATOM     95  S   UNL A   1      47.846  24.337  35.964  1.00  0.00    -0.081 SA
BRANCH  95  96
ATOM     96  C   UNL A   1      49.016  23.135  35.489  1.00  0.00     0.176 A 
ATOM     97  N   UNL A   1      50.103  23.670  35.007  1.00  0.00    -0.223 NA
ATOM     98  N   UNL A   1      48.876  21.762  35.576  1.00  0.00    -0.255 N 
ATOM     99  C   UNL A   1      51.068  22.826  34.443  1.00  0.00     0.079 A 
ATOM    100  C   UNL A   1      49.406  21.071  34.480  1.00  0.00     0.266 A 
ATOM    101  C   UNL A   1      52.374  23.259  34.215  1.00  0.00     0.029 A 
ATOM    102  C   UNL A   1      50.697  21.568  33.987  1.00  0.00     0.066 A 
ATOM    103  O   UNL A   1      48.890  20.108  33.915  1.00  0.00    -0.268 OA
ATOM    104  C   UNL A   1      53.261  22.465  33.476  1.00  0.00     0.002 A 
ATOM    105  C   UNL A   1      51.547  20.790  33.197  1.00  0.00     0.016 A 
ATOM    106  C   UNL A   1      52.835  21.251  32.932  1.00  0.00     0.001 A 
BRANCH  98 107
ATOM    107  C   UNL A   1      48.263  20.997  36.639  1.00  0.00     0.051 A 
ATOM    108  C   UNL A   1      46.965  21.328  37.080  1.00  0.00     0.028 A 
ATOM    109  C   UNL A   1      48.868  19.914  37.286  1.00  0.00     0.028 A 
ATOM    110  C   UNL A   1      46.424  20.811  38.260  1.00  0.00     0.018 A 
ATOM    111  C   UNL A   1      48.373  19.439  38.513  1.00  0.00     0.018 A 
ATOM    112  C   UNL A   1      47.175  19.931  39.019  1.00  0.00     0.018 A 
ATOM    113  Br  UNL A   1      46.601  19.454  40.750  1.00  0.00    -0.051 Br
ENDBRANCH  98 107
ENDBRANCH  95  96
ENDBRANCH  94  95
ENDBRANCH  92  94
ENDBRANCH  88  89
ENDBRANCH  81  83
ENDBRANCH  80  81
ENDBRANCH  79  80
ENDBRANCH  78  79
ENDBRANCH  77  78
ENDBRANCH  76  77
ENDBRANCH   1  76
TORSDOF 25
ENDMDL
