MODEL 1
REMARK VINA RESULT:     -10.9      0.000      0.000
REMARK SMILES C[C@H]1[C@H](C(=O)OCCOCCOCCOCCOC(=O)c2ccc(-c3c4nc(c(-c5c(F)c(F)c(F)c(F)c5F)c5ccc([nH]5)c(-c5c(F)c(F)c(F)c(F)c5F)c5nc(c(-c6c(F)c(F)c(F)c(F)c6F)c6ccc3[nH]6)C=C5)C=C4)cc2)CC[N@@H+]1Cc1ccc(Br)cc1F
REMARK SMILES IDX 12 1 11 2 10 3 9 4 8 5 7 6 6 7 4 8 5 9 3 10 1 11 2 12 86 13
REMARK SMILES IDX 84 14 85 15 87 17 88 18 89 19 94 20 90 21 93 22 95 23 91 24
REMARK SMILES IDX 92 25 13 26 14 27 15 28 16 29 17 30 18 31 19 32 20 33 21 34
REMARK SMILES IDX 22 35 83 36 23 37 82 38 24 39 25 40 26 41 76 42 27 43 81 44
REMARK SMILES IDX 75 45 77 46 28 47 80 48 74 49 73 50 29 52 61 53 41 54 60 55
REMARK SMILES IDX 42 56 45 57 59 58 78 59 43 60 44 61 58 63 79 64 46 65 30 66
REMARK SMILES IDX 31 67 39 68 32 69 33 70 37 71 40 72 34 73 35 74 38 75 36 76
REMARK SMILES IDX 62 77 63 78 71 79 64 80 65 81 69 82 72 83 66 84 67 85 70 86
REMARK SMILES IDX 68 87 47 88 48 89 56 90 49 91 50 92 54 93 57 94 51 95 52 96
REMARK SMILES IDX 55 97 53 98
REMARK H PARENT 86 16 77 51 45 62
REMARK Flexibility Score: inf
ROOT
ATOM      1  O   UNL A   1      39.652  22.947  27.227  1.00  0.00    -0.377 OA
ENDROOT
BRANCH   1   2
ATOM      2  C   UNL A   1      38.723  23.684  26.477  1.00  0.00     0.188 C 
BRANCH   2   3
ATOM      3  C   UNL A   1      37.544  23.024  25.752  1.00  0.00     0.188 C 
BRANCH   3   4
ATOM      4  O   UNL A   1      36.906  23.696  24.683  1.00  0.00    -0.376 OA
BRANCH   4   5
ATOM      5  C   UNL A   1      36.048  23.071  23.749  1.00  0.00     0.202 C 
BRANCH   5   6
ATOM      6  C   UNL A   1      34.726  23.655  23.216  1.00  0.00     0.261 C 
BRANCH   6   7
ATOM      7  O   UNL A   1      34.289  24.919  23.741  1.00  0.00    -0.463 OA
BRANCH   7   8
ATOM      8  C   UNL A   1      33.647  25.737  22.878  1.00  0.00     0.315 C 
ATOM      9  O   UNL A   1      33.717  25.613  21.658  1.00  0.00    -0.252 OA
BRANCH   8  10
ATOM     10  C   UNL A   1      32.820  26.853  23.509  1.00  0.00     0.162 C 
ATOM     11  C   UNL A   1      30.628  28.004  22.971  1.00  0.00     0.076 C 
ATOM     12  C   UNL A   1      31.287  26.784  23.650  1.00  0.00     0.195 C 
ATOM     13  N   UNL A   1      30.967  26.886  25.074  1.00  0.00    -0.328 N 
ATOM     14  C   UNL A   1      33.335  27.097  24.920  1.00  0.00     0.083 C 
ATOM     15  C   UNL A   1      32.117  27.468  25.745  1.00  0.00     0.263 C 
ATOM     16  H   UNL A   1      30.175  27.518  25.192  1.00  0.00     0.348 HD
BRANCH  13  17
ATOM     17  C   UNL A   1      30.351  25.709  25.697  1.00  0.00     0.302 C 
BRANCH  17  18
ATOM     18  C   UNL A   1      31.091  24.392  25.645  1.00  0.00     0.042 A 
ATOM     19  C   UNL A   1      31.961  24.016  26.687  1.00  0.00     0.014 A 
ATOM     20  C   UNL A   1      30.973  23.534  24.550  1.00  0.00     0.133 A 
ATOM     21  C   UNL A   1      32.661  22.807  26.632  1.00  0.00     0.016 A 
ATOM     22  C   UNL A   1      31.640  22.313  24.499  1.00  0.00     0.055 A 
ATOM     23  F   UNL A   1      30.211  23.879  23.505  1.00  0.00    -0.206 F 
ATOM     24  C   UNL A   1      32.488  21.956  25.542  1.00  0.00     0.020 A 
ATOM     25  Br  UNL A   1      33.405  20.305  25.483  1.00  0.00    -0.051 Br
ENDBRANCH  17  18
ENDBRANCH  13  17
ENDBRANCH   8  10
ENDBRANCH   7   8
ENDBRANCH   6   7
ENDBRANCH   5   6
ENDBRANCH   4   5
ENDBRANCH   3   4
ENDBRANCH   2   3
ENDBRANCH   1   2
BRANCH   1  26
ATOM     26  C   UNL A   1      40.001  21.709  26.656  1.00  0.00     0.188 C 
BRANCH  26  27
ATOM     27  C   UNL A   1      41.273  21.848  25.830  1.00  0.00     0.188 C 
BRANCH  27  28
ATOM     28  O   UNL A   1      42.465  21.356  26.406  1.00  0.00    -0.376 OA
BRANCH  28  29
ATOM     29  C   UNL A   1      43.755  21.574  25.851  1.00  0.00     0.202 C 
BRANCH  29  30
ATOM     30  C   UNL A   1      44.167  22.531  24.701  1.00  0.00     0.261 C 
BRANCH  30  31
ATOM     31  O   UNL A   1      43.588  23.831  24.602  1.00  0.00    -0.460 OA
BRANCH  31  32
ATOM     32  C   UNL A   1      44.319  24.859  25.063  1.00  0.00     0.338 C 
ATOM     33  O   UNL A   1      45.449  25.175  24.731  1.00  0.00    -0.246 OA
BRANCH  32  34
ATOM     34  C   UNL A   1      43.436  25.675  25.922  1.00  0.00     0.060 A 
ATOM     35  C   UNL A   1      43.838  26.982  26.224  1.00  0.00     0.016 A 
ATOM     36  C   UNL A   1      42.231  25.169  26.420  1.00  0.00     0.016 A 
ATOM     37  C   UNL A   1      43.070  27.767  27.074  1.00  0.00     0.010 A 
ATOM     38  C   UNL A   1      41.475  25.947  27.303  1.00  0.00     0.010 A 
ATOM     39  C   UNL A   1      41.924  27.227  27.672  1.00  0.00    -0.014 A 
BRANCH  39  40
ATOM     40  C   UNL A   1      41.389  27.907  28.874  1.00  0.00     0.031 A 
ATOM     41  C   UNL A   1      42.140  27.734  30.167  1.00  0.00     0.074 A 
ATOM     42  C   UNL A   1      40.336  28.736  28.802  1.00  0.00     0.049 A 
ATOM     43  N   UNL A   1      41.918  28.268  31.340  1.00  0.00    -0.248 NA
ATOM     44  C   UNL A   1      43.309  26.838  30.128  1.00  0.00     0.031 C 
ATOM     45  C   UNL A   1      39.567  29.026  27.594  1.00  0.00     0.029 A 
ATOM     46  N   UNL A   1      39.742  29.500  29.775  1.00  0.00    -0.354 N 
ATOM     47  C   UNL A   1      42.914  27.773  32.172  1.00  0.00     0.074 A 
ATOM     48  C   UNL A   1      43.717  26.865  31.387  1.00  0.00     0.031 C 
ATOM     49  C   UNL A   1      38.596  29.904  27.898  1.00  0.00     0.029 A 
ATOM     50  C   UNL A   1      38.663  30.219  29.324  1.00  0.00     0.049 A 
ATOM     51  H   UNL A   1      40.058  29.528  30.706  1.00  0.00     0.167 HD
ATOM     52  C   UNL A   1      43.149  28.064  33.474  1.00  0.00     0.037 A 
ATOM     53  C   UNL A   1      37.823  31.028  29.998  1.00  0.00     0.037 A 
ATOM     54  C   UNL A   1      42.345  28.965  34.254  1.00  0.00     0.049 A 
ATOM     55  C   UNL A   1      38.059  31.275  31.469  1.00  0.00     0.074 A 
ATOM     56  C   UNL A   1      42.496  29.331  35.579  1.00  0.00     0.029 A 
ATOM     57  N   UNL A   1      41.227  29.636  33.777  1.00  0.00    -0.354 N 
ATOM     58  N   UNL A   1      39.016  30.823  32.245  1.00  0.00    -0.248 NA
ATOM     59  C   UNL A   1      37.103  32.156  32.153  1.00  0.00     0.031 C 
ATOM     60  C   UNL A   1      41.435  30.175  35.921  1.00  0.00     0.029 A 
ATOM     61  C   UNL A   1      40.663  30.394  34.791  1.00  0.00     0.049 A 
ATOM     62  H   UNL A   1      40.886  29.583  32.856  1.00  0.00     0.167 HD
ATOM     63  C   UNL A   1      38.798  31.392  33.494  1.00  0.00     0.074 A 
ATOM     64  C   UNL A   1      37.628  32.235  33.366  1.00  0.00     0.031 C 
ATOM     65  C   UNL A   1      39.501  31.234  34.644  1.00  0.00     0.037 A 
BRANCH  52  66
ATOM     66  C   UNL A   1      44.301  27.367  34.140  1.00  0.00     0.064 A 
ATOM     67  C   UNL A   1      45.563  27.970  34.264  1.00  0.00     0.173 A 
ATOM     68  C   UNL A   1      44.134  26.082  34.679  1.00  0.00     0.173 A 
ATOM     69  F   UNL A   1      45.782  29.189  33.748  1.00  0.00    -0.203 F 
ATOM     70  C   UNL A   1      46.620  27.299  34.874  1.00  0.00     0.198 A 
ATOM     71  C   UNL A   1      45.183  25.430  35.320  1.00  0.00     0.198 A 
ATOM     72  F   UNL A   1      42.948  25.460  34.589  1.00  0.00    -0.203 F 
ATOM     73  F   UNL A   1      47.831  27.871  34.929  1.00  0.00    -0.200 F 
ATOM     74  C   UNL A   1      46.428  26.034  35.408  1.00  0.00     0.200 A 
ATOM     75  F   UNL A   1      44.991  24.213  35.846  1.00  0.00    -0.200 F 
ATOM     76  F   UNL A   1      47.444  25.394  36.003  1.00  0.00    -0.200 F 
ENDBRANCH  52  66
BRANCH  53  77
ATOM     77  C   UNL A   1      36.675  31.664  29.297  1.00  0.00     0.064 A 
ATOM     78  C   UNL A   1      36.651  33.042  29.040  1.00  0.00     0.173 A 
ATOM     79  C   UNL A   1      35.561  30.909  28.901  1.00  0.00     0.173 A 
ATOM     80  F   UNL A   1      37.681  33.813  29.420  1.00  0.00    -0.203 F 
ATOM     81  C   UNL A   1      35.547  33.644  28.437  1.00  0.00     0.198 A 
ATOM     82  C   UNL A   1      34.472  31.505  28.270  1.00  0.00     0.198 A 
ATOM     83  F   UNL A   1      35.531  29.587  29.125  1.00  0.00    -0.203 F 
ATOM     84  F   UNL A   1      35.526  34.971  28.255  1.00  0.00    -0.200 F 
ATOM     85  C   UNL A   1      34.462  32.875  28.048  1.00  0.00     0.200 A 
ATOM     86  F   UNL A   1      33.432  30.756  27.883  1.00  0.00    -0.200 F 
ATOM     87  F   UNL A   1      33.400  33.452  27.469  1.00  0.00    -0.200 F 
ENDBRANCH  53  77
BRANCH  65  88
ATOM     88  C   UNL A   1      39.056  32.028  35.841  1.00  0.00     0.064 A 
ATOM     89  C   UNL A   1      38.205  31.488  36.818  1.00  0.00     0.173 A 
ATOM     90  C   UNL A   1      39.505  33.346  36.023  1.00  0.00     0.173 A 
ATOM     91  F   UNL A   1      37.738  30.237  36.690  1.00  0.00    -0.203 F 
ATOM     92  C   UNL A   1      37.786  32.251  37.905  1.00  0.00     0.198 A 
ATOM     93  C   UNL A   1      39.117  34.092  37.132  1.00  0.00     0.198 A 
ATOM     94  F   UNL A   1      40.331  33.909  35.128  1.00  0.00    -0.203 F 
ATOM     95  F   UNL A   1      36.919  31.736  38.788  1.00  0.00    -0.200 F 
ATOM     96  C   UNL A   1      38.247  33.550  38.065  1.00  0.00     0.200 A 
ATOM     97  F   UNL A   1      39.581  35.339  37.294  1.00  0.00    -0.200 F 
ATOM     98  F   UNL A   1      37.844  34.281  39.113  1.00  0.00    -0.200 F 
ENDBRANCH  65  88
ENDBRANCH  39  40
ENDBRANCH  32  34
ENDBRANCH  31  32
ENDBRANCH  30  31
ENDBRANCH  29  30
ENDBRANCH  28  29
ENDBRANCH  27  28
ENDBRANCH  26  27
ENDBRANCH   1  26
TORSDOF 22
ENDMDL
MODEL 2
REMARK VINA RESULT:     -10.5      5.115     10.336
REMARK SMILES C[C@H]1[C@H](C(=O)OCCOCCOCCOCCOC(=O)c2ccc(-c3c4nc(c(-c5c(F)c(F)c(F)c(F)c5F)c5ccc([nH]5)c(-c5c(F)c(F)c(F)c(F)c5F)c5nc(c(-c6c(F)c(F)c(F)c(F)c6F)c6ccc3[nH]6)C=C5)C=C4)cc2)CC[N@@H+]1Cc1ccc(Br)cc1F
REMARK SMILES IDX 12 1 11 2 10 3 9 4 8 5 7 6 6 7 4 8 5 9 3 10 1 11 2 12 86 13
REMARK SMILES IDX 84 14 85 15 87 17 88 18 89 19 94 20 90 21 93 22 95 23 91 24
REMARK SMILES IDX 92 25 13 26 14 27 15 28 16 29 17 30 18 31 19 32 20 33 21 34
REMARK SMILES IDX 22 35 83 36 23 37 82 38 24 39 25 40 26 41 76 42 27 43 81 44
REMARK SMILES IDX 75 45 77 46 28 47 80 48 74 49 73 50 29 52 61 53 41 54 60 55
REMARK SMILES IDX 42 56 45 57 59 58 78 59 43 60 44 61 58 63 79 64 46 65 30 66
REMARK SMILES IDX 31 67 39 68 32 69 33 70 37 71 40 72 34 73 35 74 38 75 36 76
REMARK SMILES IDX 62 77 63 78 71 79 64 80 65 81 69 82 72 83 66 84 67 85 70 86
REMARK SMILES IDX 68 87 47 88 48 89 56 90 49 91 50 92 54 93 57 94 51 95 52 96
REMARK SMILES IDX 55 97 53 98
REMARK H PARENT 86 16 77 51 45 62
REMARK Flexibility Score: inf
ROOT
ATOM      1  O   UNL A   1      34.130  32.378  28.125  1.00  0.00    -0.377 OA
ENDROOT
BRANCH   1   2
ATOM      2  C   UNL A   1      34.312  31.000  27.930  1.00  0.00     0.188 C 
BRANCH   2   3
ATOM      3  C   UNL A   1      33.673  30.245  26.759  1.00  0.00     0.188 C 
BRANCH   3   4
ATOM      4  O   UNL A   1      32.291  29.948  26.780  1.00  0.00    -0.376 OA
BRANCH   4   5
ATOM      5  C   UNL A   1      31.678  28.955  25.982  1.00  0.00     0.202 C 
BRANCH   5   6
ATOM      6  C   UNL A   1      31.598  27.455  26.323  1.00  0.00     0.261 C 
BRANCH   6   7
ATOM      7  O   UNL A   1      32.790  26.808  26.796  1.00  0.00    -0.463 OA
BRANCH   7   8
ATOM      8  C   UNL A   1      33.523  26.152  25.870  1.00  0.00     0.315 C 
ATOM      9  O   UNL A   1      34.251  26.723  25.062  1.00  0.00    -0.252 OA
BRANCH   8  10
ATOM     10  C   UNL A   1      33.394  24.632  25.873  1.00  0.00     0.162 C 
ATOM     11  C   UNL A   1      31.808  22.954  26.917  1.00  0.00     0.076 C 
ATOM     12  C   UNL A   1      32.044  23.904  25.724  1.00  0.00     0.195 C 
ATOM     13  N   UNL A   1      32.126  23.054  24.536  1.00  0.00    -0.328 N 
ATOM     14  C   UNL A   1      34.269  24.070  24.763  1.00  0.00     0.083 C 
ATOM     15  C   UNL A   1      33.533  22.854  24.232  1.00  0.00     0.263 C 
ATOM     16  H   UNL A   1      31.713  22.146  24.747  1.00  0.00     0.348 HD
BRANCH  13  17
ATOM     17  C   UNL A   1      31.241  23.397  23.417  1.00  0.00     0.302 C 
BRANCH  17  18
ATOM     18  C   UNL A   1      30.830  24.841  23.236  1.00  0.00     0.042 A 
ATOM     19  C   UNL A   1      29.673  25.342  23.862  1.00  0.00     0.014 A 
ATOM     20  C   UNL A   1      31.552  25.704  22.410  1.00  0.00     0.133 A 
ATOM     21  C   UNL A   1      29.280  26.672  23.679  1.00  0.00     0.016 A 
ATOM     22  C   UNL A   1      31.189  27.038  22.246  1.00  0.00     0.055 A 
ATOM     23  F   UNL A   1      32.621  25.256  21.739  1.00  0.00    -0.206 F 
ATOM     24  C   UNL A   1      30.048  27.515  22.880  1.00  0.00     0.020 A 
ATOM     25  Br  UNL A   1      29.539  29.323  22.661  1.00  0.00    -0.051 Br
ENDBRANCH  17  18
ENDBRANCH  13  17
ENDBRANCH   8  10
ENDBRANCH   7   8
ENDBRANCH   6   7
ENDBRANCH   5   6
ENDBRANCH   4   5
ENDBRANCH   3   4
ENDBRANCH   2   3
ENDBRANCH   1   2
BRANCH   1  26
ATOM     26  C   UNL A   1      35.314  33.134  28.035  1.00  0.00     0.188 C 
BRANCH  26  27
ATOM     27  C   UNL A   1      35.261  34.317  28.992  1.00  0.00     0.188 C 
BRANCH  27  28
ATOM     28  O   UNL A   1      34.212  34.325  29.939  1.00  0.00    -0.376 OA
BRANCH  28  29
ATOM     29  C   UNL A   1      34.398  34.626  31.316  1.00  0.00     0.202 C 
BRANCH  29  30
ATOM     30  C   UNL A   1      34.349  33.666  32.534  1.00  0.00     0.261 C 
BRANCH  30  31
ATOM     31  O   UNL A   1      34.949  32.374  32.459  1.00  0.00    -0.460 OA
BRANCH  31  32
ATOM     32  C   UNL A   1      36.088  32.192  33.146  1.00  0.00     0.338 C 
ATOM     33  O   UNL A   1      36.315  32.496  34.305  1.00  0.00    -0.246 OA
BRANCH  32  34
ATOM     34  C   UNL A   1      36.983  31.372  32.303  1.00  0.00     0.060 A 
ATOM     35  C   UNL A   1      38.076  30.748  32.917  1.00  0.00     0.016 A 
ATOM     36  C   UNL A   1      36.752  31.215  30.932  1.00  0.00     0.016 A 
ATOM     37  C   UNL A   1      38.976  30.014  32.155  1.00  0.00     0.010 A 
ATOM     38  C   UNL A   1      37.678  30.505  30.159  1.00  0.00     0.010 A 
ATOM     39  C   UNL A   1      38.819  29.950  30.765  1.00  0.00    -0.014 A 
BRANCH  39  40
ATOM     40  C   UNL A   1      39.994  29.552  29.957  1.00  0.00     0.031 A 
ATOM     41  C   UNL A   1      41.100  30.559  29.786  1.00  0.00     0.074 A 
ATOM     42  C   UNL A   1      40.128  28.304  29.479  1.00  0.00     0.049 A 
ATOM     43  N   UNL A   1      42.254  30.439  29.182  1.00  0.00    -0.248 NA
ATOM     44  C   UNL A   1      40.873  31.885  30.388  1.00  0.00     0.031 C 
ATOM     45  C   UNL A   1      39.150  27.229  29.632  1.00  0.00     0.029 A 
ATOM     46  N   UNL A   1      41.158  27.730  28.777  1.00  0.00    -0.354 N 
ATOM     47  C   UNL A   1      42.885  31.667  29.331  1.00  0.00     0.074 A 
ATOM     48  C   UNL A   1      41.974  32.534  30.043  1.00  0.00     0.031 C 
ATOM     49  C   UNL A   1      39.626  26.122  29.036  1.00  0.00     0.029 A 
ATOM     50  C   UNL A   1      40.928  26.419  28.442  1.00  0.00     0.049 A 
ATOM     51  H   UNL A   1      41.981  28.212  28.536  1.00  0.00     0.167 HD
ATOM     52  C   UNL A   1      44.123  32.036  28.924  1.00  0.00     0.037 A 
ATOM     53  C   UNL A   1      41.686  25.566  27.726  1.00  0.00     0.037 A 
ATOM     54  C   UNL A   1      45.025  31.172  28.212  1.00  0.00     0.049 A 
ATOM     55  C   UNL A   1      43.030  26.026  27.214  1.00  0.00     0.074 A 
ATOM     56  C   UNL A   1      46.301  31.445  27.755  1.00  0.00     0.029 A 
ATOM     57  N   UNL A   1      44.738  29.865  27.843  1.00  0.00    -0.354 N 
ATOM     58  N   UNL A   1      43.632  27.181  27.378  1.00  0.00    -0.248 NA
ATOM     59  C   UNL A   1      43.805  25.056  26.428  1.00  0.00     0.031 C 
ATOM     60  C   UNL A   1      46.762  30.324  27.057  1.00  0.00     0.029 A 
ATOM     61  C   UNL A   1      45.803  29.327  27.141  1.00  0.00     0.049 A 
ATOM     62  H   UNL A   1      43.901  29.391  28.051  1.00  0.00     0.167 HD
ATOM     63  C   UNL A   1      44.865  27.064  26.749  1.00  0.00     0.074 A 
ATOM     64  C   UNL A   1      44.932  25.719  26.217  1.00  0.00     0.031 C 
ATOM     65  C   UNL A   1      45.856  27.983  26.624  1.00  0.00     0.037 A 
BRANCH  52  66
ATOM     66  C   UNL A   1      44.552  33.447  29.209  1.00  0.00     0.064 A 
ATOM     67  C   UNL A   1      45.244  33.791  30.381  1.00  0.00     0.173 A 
ATOM     68  C   UNL A   1      44.280  34.469  28.287  1.00  0.00     0.173 A 
ATOM     69  F   UNL A   1      45.512  32.856  31.306  1.00  0.00    -0.203 F 
ATOM     70  C   UNL A   1      45.621  35.108  30.630  1.00  0.00     0.198 A 
ATOM     71  C   UNL A   1      44.689  35.778  28.523  1.00  0.00     0.198 A 
ATOM     72  F   UNL A   1      43.620  34.196  27.150  1.00  0.00    -0.203 F 
ATOM     73  F   UNL A   1      46.231  35.422  31.782  1.00  0.00    -0.200 F 
ATOM     74  C   UNL A   1      45.351  36.098  29.698  1.00  0.00     0.200 A 
ATOM     75  F   UNL A   1      44.438  36.730  27.614  1.00  0.00    -0.200 F 
ATOM     76  F   UNL A   1      45.721  37.365  29.936  1.00  0.00    -0.200 F 
ENDBRANCH  52  66
BRANCH  53  77
ATOM     77  C   UNL A   1      41.196  24.190  27.441  1.00  0.00     0.064 A 
ATOM     78  C   UNL A   1      40.104  23.967  26.592  1.00  0.00     0.173 A 
ATOM     79  C   UNL A   1      41.792  23.071  28.042  1.00  0.00     0.173 A 
ATOM     80  F   UNL A   1      39.483  25.005  26.011  1.00  0.00    -0.203 F 
ATOM     81  C   UNL A   1      39.609  22.681  26.376  1.00  0.00     0.198 A 
ATOM     82  C   UNL A   1      41.319  21.784  27.800  1.00  0.00     0.198 A 
ATOM     83  F   UNL A   1      42.840  23.228  28.865  1.00  0.00    -0.203 F 
ATOM     84  F   UNL A   1      38.528  22.502  25.606  1.00  0.00    -0.200 F 
ATOM     85  C   UNL A   1      40.220  21.591  26.975  1.00  0.00     0.200 A 
ATOM     86  F   UNL A   1      41.921  20.733  28.371  1.00  0.00    -0.200 F 
ATOM     87  F   UNL A   1      39.745  20.355  26.769  1.00  0.00    -0.200 F 
ENDBRANCH  53  77
BRANCH  65  88
ATOM     88  C   UNL A   1      47.117  27.549  25.927  1.00  0.00     0.064 A 
ATOM     89  C   UNL A   1      48.186  26.964  26.622  1.00  0.00     0.173 A 
ATOM     90  C   UNL A   1      47.247  27.705  24.538  1.00  0.00     0.173 A 
ATOM     91  F   UNL A   1      48.119  26.799  27.951  1.00  0.00    -0.203 F 
ATOM     92  C   UNL A   1      49.354  26.593  25.959  1.00  0.00     0.198 A 
ATOM     93  C   UNL A   1      48.399  27.296  23.873  1.00  0.00     0.198 A 
ATOM     94  F   UNL A   1      46.251  28.247  23.821  1.00  0.00    -0.203 F 
ATOM     95  F   UNL A   1      50.388  26.099  26.655  1.00  0.00    -0.200 F 
ATOM     96  C   UNL A   1      49.457  26.753  24.585  1.00  0.00     0.200 A 
ATOM     97  F   UNL A   1      48.488  27.433  22.543  1.00  0.00    -0.200 F 
ATOM     98  F   UNL A   1      50.581  26.393  23.950  1.00  0.00    -0.200 F 
ENDBRANCH  65  88
ENDBRANCH  39  40
ENDBRANCH  32  34
ENDBRANCH  31  32
ENDBRANCH  30  31
ENDBRANCH  29  30
ENDBRANCH  28  29
ENDBRANCH  27  28
ENDBRANCH  26  27
ENDBRANCH   1  26
TORSDOF 22
ENDMDL
MODEL 3
REMARK VINA RESULT:     -10.4      5.150     10.295
REMARK SMILES C[C@H]1[C@H](C(=O)OCCOCCOCCOCCOC(=O)c2ccc(-c3c4nc(c(-c5c(F)c(F)c(F)c(F)c5F)c5ccc([nH]5)c(-c5c(F)c(F)c(F)c(F)c5F)c5nc(c(-c6c(F)c(F)c(F)c(F)c6F)c6ccc3[nH]6)C=C5)C=C4)cc2)CC[N@@H+]1Cc1ccc(Br)cc1F
REMARK SMILES IDX 12 1 11 2 10 3 9 4 8 5 7 6 6 7 4 8 5 9 3 10 1 11 2 12 86 13
REMARK SMILES IDX 84 14 85 15 87 17 88 18 89 19 94 20 90 21 93 22 95 23 91 24
REMARK SMILES IDX 92 25 13 26 14 27 15 28 16 29 17 30 18 31 19 32 20 33 21 34
REMARK SMILES IDX 22 35 83 36 23 37 82 38 24 39 25 40 26 41 76 42 27 43 81 44
REMARK SMILES IDX 75 45 77 46 28 47 80 48 74 49 73 50 29 52 61 53 41 54 60 55
REMARK SMILES IDX 42 56 45 57 59 58 78 59 43 60 44 61 58 63 79 64 46 65 30 66
REMARK SMILES IDX 31 67 39 68 32 69 33 70 37 71 40 72 34 73 35 74 38 75 36 76
REMARK SMILES IDX 62 77 63 78 71 79 64 80 65 81 69 82 72 83 66 84 67 85 70 86
REMARK SMILES IDX 68 87 47 88 48 89 56 90 49 91 50 92 54 93 57 94 51 95 52 96
REMARK SMILES IDX 55 97 53 98
REMARK H PARENT 86 16 77 51 45 62
REMARK Flexibility Score: inf
ROOT
ATOM      1  O   UNL A   1      34.582  32.257  28.226  1.00  0.00    -0.377 OA
ENDROOT
BRANCH   1   2
ATOM      2  C   UNL A   1      34.844  30.915  27.907  1.00  0.00     0.188 C 
BRANCH   2   3
ATOM      3  C   UNL A   1      34.031  30.146  26.861  1.00  0.00     0.188 C 
BRANCH   3   4
ATOM      4  O   UNL A   1      32.619  30.222  26.867  1.00  0.00    -0.376 OA
BRANCH   4   5
ATOM      5  C   UNL A   1      31.762  29.146  26.539  1.00  0.00     0.202 C 
BRANCH   5   6
ATOM      6  C   UNL A   1      31.421  27.959  27.460  1.00  0.00     0.261 C 
BRANCH   6   7
ATOM      7  O   UNL A   1      31.585  26.632  26.935  1.00  0.00    -0.463 OA
BRANCH   7   8
ATOM      8  C   UNL A   1      31.242  26.453  25.640  1.00  0.00     0.315 C 
ATOM      9  O   UNL A   1      30.171  26.830  25.171  1.00  0.00    -0.252 OA
BRANCH   8  10
ATOM     10  C   UNL A   1      32.270  25.735  24.772  1.00  0.00     0.162 C 
ATOM     11  C   UNL A   1      34.578  24.756  25.139  1.00  0.00     0.076 C 
ATOM     12  C   UNL A   1      33.060  24.502  25.252  1.00  0.00     0.195 C 
ATOM     13  N   UNL A   1      32.761  23.399  24.338  1.00  0.00    -0.328 N 
ATOM     14  C   UNL A   1      31.591  25.291  23.485  1.00  0.00     0.083 C 
ATOM     15  C   UNL A   1      32.241  23.973  23.108  1.00  0.00     0.263 C 
ATOM     16  H   UNL A   1      33.626  22.905  24.119  1.00  0.00     0.348 HD
BRANCH  13  17
ATOM     17  C   UNL A   1      32.038  22.254  24.902  1.00  0.00     0.302 C 
BRANCH  17  18
ATOM     18  C   UNL A   1      32.507  20.859  24.553  1.00  0.00     0.042 A 
ATOM     19  C   UNL A   1      32.124  20.255  23.341  1.00  0.00     0.014 A 
ATOM     20  C   UNL A   1      33.289  20.113  25.437  1.00  0.00     0.133 A 
ATOM     21  C   UNL A   1      32.540  18.958  23.026  1.00  0.00     0.016 A 
ATOM     22  C   UNL A   1      33.736  18.833  25.121  1.00  0.00     0.055 A 
ATOM     23  F   UNL A   1      33.622  20.619  26.632  1.00  0.00    -0.206 F 
ATOM     24  C   UNL A   1      33.353  18.258  23.914  1.00  0.00     0.020 A 
ATOM     25  Br  UNL A   1      33.948  16.518  23.474  1.00  0.00    -0.051 Br
ENDBRANCH  17  18
ENDBRANCH  13  17
ENDBRANCH   8  10
ENDBRANCH   7   8
ENDBRANCH   6   7
ENDBRANCH   5   6
ENDBRANCH   4   5
ENDBRANCH   3   4
ENDBRANCH   2   3
ENDBRANCH   1   2
BRANCH   1  26
ATOM     26  C   UNL A   1      35.704  33.101  28.128  1.00  0.00     0.188 C 
BRANCH  26  27
ATOM     27  C   UNL A   1      35.591  34.247  29.126  1.00  0.00     0.188 C 
BRANCH  27  28
ATOM     28  O   UNL A   1      34.481  34.225  30.000  1.00  0.00    -0.376 OA
BRANCH  28  29
ATOM     29  C   UNL A   1      34.553  34.596  31.370  1.00  0.00     0.202 C 
BRANCH  29  30
ATOM     30  C   UNL A   1      34.443  33.692  32.627  1.00  0.00     0.261 C 
BRANCH  30  31
ATOM     31  O   UNL A   1      35.014  32.384  32.626  1.00  0.00    -0.460 OA
BRANCH  31  32
ATOM     32  C   UNL A   1      36.180  32.230  33.275  1.00  0.00     0.338 C 
ATOM     33  O   UNL A   1      36.444  32.561  34.418  1.00  0.00    -0.246 OA
BRANCH  32  34
ATOM     34  C   UNL A   1      37.053  31.402  32.417  1.00  0.00     0.060 A 
ATOM     35  C   UNL A   1      38.135  30.746  33.018  1.00  0.00     0.016 A 
ATOM     36  C   UNL A   1      36.812  31.266  31.045  1.00  0.00     0.016 A 
ATOM     37  C   UNL A   1      39.015  30.003  32.243  1.00  0.00     0.010 A 
ATOM     38  C   UNL A   1      37.719  30.547  30.260  1.00  0.00     0.010 A 
ATOM     39  C   UNL A   1      38.851  29.960  30.853  1.00  0.00    -0.014 A 
BRANCH  39  40
ATOM     40  C   UNL A   1      40.014  29.547  30.034  1.00  0.00     0.031 A 
ATOM     41  C   UNL A   1      41.128  30.542  29.849  1.00  0.00     0.074 A 
ATOM     42  C   UNL A   1      40.130  28.296  29.559  1.00  0.00     0.049 A 
ATOM     43  N   UNL A   1      42.275  30.408  29.234  1.00  0.00    -0.248 NA
ATOM     44  C   UNL A   1      40.921  31.872  30.449  1.00  0.00     0.031 C 
ATOM     45  C   UNL A   1      39.142  27.233  29.725  1.00  0.00     0.029 A 
ATOM     46  N   UNL A   1      41.146  27.709  28.849  1.00  0.00    -0.354 N 
ATOM     47  C   UNL A   1      42.920  31.630  29.373  1.00  0.00     0.074 A 
ATOM     48  C   UNL A   1      42.025  32.508  30.091  1.00  0.00     0.031 C 
ATOM     49  C   UNL A   1      39.600  26.119  29.128  1.00  0.00     0.029 A 
ATOM     50  C   UNL A   1      40.900  26.400  28.520  1.00  0.00     0.049 A 
ATOM     51  H   UNL A   1      41.972  28.182  28.598  1.00  0.00     0.167 HD
ATOM     52  C   UNL A   1      44.157  31.985  28.952  1.00  0.00     0.037 A 
ATOM     53  C   UNL A   1      41.641  25.537  27.799  1.00  0.00     0.037 A 
ATOM     54  C   UNL A   1      45.043  31.109  28.234  1.00  0.00     0.049 A 
ATOM     55  C   UNL A   1      42.985  25.981  27.272  1.00  0.00     0.074 A 
ATOM     56  C   UNL A   1      46.317  31.367  27.763  1.00  0.00     0.029 A 
ATOM     57  N   UNL A   1      44.738  29.804  27.872  1.00  0.00    -0.354 N 
ATOM     58  N   UNL A   1      43.600  27.130  27.427  1.00  0.00    -0.248 NA
ATOM     59  C   UNL A   1      43.742  25.001  26.482  1.00  0.00     0.031 C 
ATOM     60  C   UNL A   1      46.760  30.240  27.063  1.00  0.00     0.029 A 
ATOM     61  C   UNL A   1      45.791  29.253  27.161  1.00  0.00     0.049 A 
ATOM     62  H   UNL A   1      43.899  29.339  28.090  1.00  0.00     0.167 HD
ATOM     63  C   UNL A   1      44.826  26.999  26.785  1.00  0.00     0.074 A 
ATOM     64  C   UNL A   1      44.874  25.651  26.257  1.00  0.00     0.031 C 
ATOM     65  C   UNL A   1      45.824  27.907  26.647  1.00  0.00     0.037 A 
BRANCH  52  66
ATOM     66  C   UNL A   1      44.604  33.392  29.228  1.00  0.00     0.064 A 
ATOM     67  C   UNL A   1      45.326  33.729  30.384  1.00  0.00     0.173 A 
ATOM     68  C   UNL A   1      44.318  34.417  28.313  1.00  0.00     0.173 A 
ATOM     69  F   UNL A   1      45.608  32.792  31.302  1.00  0.00    -0.203 F 
ATOM     70  C   UNL A   1      45.719  35.043  30.626  1.00  0.00     0.198 A 
ATOM     71  C   UNL A   1      44.743  35.722  28.541  1.00  0.00     0.198 A 
ATOM     72  F   UNL A   1      43.630  34.150  27.192  1.00  0.00    -0.203 F 
ATOM     73  F   UNL A   1      46.358  35.351  31.762  1.00  0.00    -0.200 F 
ATOM     74  C   UNL A   1      45.434  36.037  29.701  1.00  0.00     0.200 A 
ATOM     75  F   UNL A   1      44.478  36.678  27.640  1.00  0.00    -0.200 F 
ATOM     76  F   UNL A   1      45.820  37.300  29.931  1.00  0.00    -0.200 F 
ENDBRANCH  52  66
BRANCH  53  77
ATOM     77  C   UNL A   1      41.134  24.165  27.523  1.00  0.00     0.064 A 
ATOM     78  C   UNL A   1      41.733  23.038  28.101  1.00  0.00     0.173 A 
ATOM     79  C   UNL A   1      40.061  23.954  26.646  1.00  0.00     0.173 A 
ATOM     80  F   UNL A   1      42.779  23.184  28.929  1.00  0.00    -0.203 F 
ATOM     81  C   UNL A   1      41.294  21.751  27.793  1.00  0.00     0.198 A 
ATOM     82  C   UNL A   1      39.601  22.670  26.364  1.00  0.00     0.198 A 
ATOM     83  F   UNL A   1      39.453  24.998  26.063  1.00  0.00    -0.203 F 
ATOM     84  F   UNL A   1      41.921  20.688  28.315  1.00  0.00    -0.200 F 
ATOM     85  C   UNL A   1      40.225  21.568  26.929  1.00  0.00     0.200 A 
ATOM     86  F   UNL A   1      38.559  22.500  25.539  1.00  0.00    -0.200 F 
ATOM     87  F   UNL A   1      39.804  20.331  26.632  1.00  0.00    -0.200 F 
ENDBRANCH  53  77
BRANCH  65  88
ATOM     88  C   UNL A   1      47.074  27.458  25.940  1.00  0.00     0.064 A 
ATOM     89  C   UNL A   1      47.251  27.633  24.559  1.00  0.00     0.173 A 
ATOM     90  C   UNL A   1      48.120  26.860  26.662  1.00  0.00     0.173 A 
ATOM     91  F   UNL A   1      46.281  28.190  23.819  1.00  0.00    -0.203 F 
ATOM     92  C   UNL A   1      48.406  27.187  23.922  1.00  0.00     0.198 A 
ATOM     93  C   UNL A   1      49.290  26.452  26.029  1.00  0.00     0.198 A 
ATOM     94  F   UNL A   1      48.011  26.680  27.987  1.00  0.00    -0.203 F 
ATOM     95  F   UNL A   1      48.523  27.304  22.592  1.00  0.00    -0.200 F 
ATOM     96  C   UNL A   1      49.428  26.603  24.657  1.00  0.00     0.200 A 
ATOM     97  F   UNL A   1      50.283  25.908  26.745  1.00  0.00    -0.200 F 
ATOM     98  F   UNL A   1      50.539  26.177  24.042  1.00  0.00    -0.200 F 
ENDBRANCH  65  88
ENDBRANCH  39  40
ENDBRANCH  32  34
ENDBRANCH  31  32
ENDBRANCH  30  31
ENDBRANCH  29  30
ENDBRANCH  28  29
ENDBRANCH  27  28
ENDBRANCH  26  27
ENDBRANCH   1  26
TORSDOF 22
ENDMDL
