MODEL 1
REMARK VINA RESULT:     -10.8      0.000      0.000
REMARK SMILES O=C(OCCOCCOCCOCCOC(=O)[C@@H]1CCCC[C@@H]1NS(=O)(=O)c1ccc2ccccc2c1)c1ccc(-c2c3nc(c(-c4c(F)c(F)c(F)c(F)c4F)c4ccc([nH]4)c(-c4c(F)c(F)c(F)c(F)c4F)c4nc(c(-c5c(F)c(F)c(F)c(F)c5F)c5ccc2[nH]5)C=C4)C=C3)cc1
REMARK SMILES IDX 10 1 9 2 8 3 7 4 6 5 5 6 4 7 3 8 2 9 1 10 38 11 39 12 100 13
REMARK SMILES IDX 40 14 99 15 41 16 42 17 43 18 93 19 44 20 98 21 92 22 94 23
REMARK SMILES IDX 45 24 97 25 91 26 90 27 46 29 78 30 58 31 77 32 59 33 62 34
REMARK SMILES IDX 76 35 95 36 60 37 61 38 75 40 96 41 63 42 47 43 48 44 56 45
REMARK SMILES IDX 49 46 50 47 54 48 57 49 51 50 52 51 55 52 53 53 79 54 80 55
REMARK SMILES IDX 88 56 81 57 82 58 86 59 89 60 83 61 84 62 87 63 85 64 64 65
REMARK SMILES IDX 65 66 73 67 66 68 67 69 71 70 74 71 68 72 69 73 72 74 70 75
REMARK SMILES IDX 11 76 12 77 13 78 14 79 15 80 16 81 17 82 18 83 19 84 23 85
REMARK SMILES IDX 20 86 22 87 21 88 24 89 25 91 26 92 27 93 28 94 29 95 37 96
REMARK SMILES IDX 30 97 36 98 31 99 35 100 32 101 34 102 33 103
REMARK H PARENT 94 28 62 39 24 90
REMARK Flexibility Score: inf
ROOT
ATOM      1  C   UNL A   1      40.438  21.447  26.813  1.00  0.00     0.188 C 
ENDROOT
BRANCH   1   2
ATOM      2  O   UNL A   1      41.516  20.869  26.075  1.00  0.00    -0.377 OA
BRANCH   2   3
ATOM      3  C   UNL A   1      41.613  19.438  26.122  1.00  0.00     0.188 C 
BRANCH   3   4
ATOM      4  C   UNL A   1      43.017  18.886  25.858  1.00  0.00     0.188 C 
BRANCH   4   5
ATOM      5  O   UNL A   1      43.590  19.559  24.747  1.00  0.00    -0.376 OA
BRANCH   5   6
ATOM      6  C   UNL A   1      44.917  20.049  24.839  1.00  0.00     0.202 C 
BRANCH   6   7
ATOM      7  C   UNL A   1      45.098  21.543  24.606  1.00  0.00     0.261 C 
BRANCH   7   8
ATOM      8  O   UNL A   1      44.567  22.389  25.646  1.00  0.00    -0.460 OA
BRANCH   8   9
ATOM      9  C   UNL A   1      43.678  23.408  25.546  1.00  0.00     0.338 C 
ATOM     10  O   UNL A   1      43.027  23.556  24.517  1.00  0.00    -0.246 OA
BRANCH   9  11
ATOM     11  C   UNL A   1      43.430  24.335  26.676  1.00  0.00     0.060 A 
ATOM     12  C   UNL A   1      42.940  23.906  27.898  1.00  0.00     0.016 A 
ATOM     13  C   UNL A   1      43.809  25.674  26.558  1.00  0.00     0.016 A 
ATOM     14  C   UNL A   1      42.552  24.790  28.877  1.00  0.00     0.010 A 
ATOM     15  C   UNL A   1      43.587  26.560  27.620  1.00  0.00     0.010 A 
ATOM     16  C   UNL A   1      42.893  26.130  28.761  1.00  0.00    -0.014 A 
BRANCH  16  17
ATOM     17  C   UNL A   1      42.390  27.041  29.807  1.00  0.00     0.031 A 
ATOM     18  C   UNL A   1      43.229  27.233  31.032  1.00  0.00     0.074 A 
ATOM     19  C   UNL A   1      41.315  27.817  29.560  1.00  0.00     0.049 A 
ATOM     20  N   UNL A   1      42.978  27.927  32.108  1.00  0.00    -0.248 NA
ATOM     21  C   UNL A   1      44.542  26.561  31.044  1.00  0.00     0.031 C 
ATOM     22  C   UNL A   1      40.527  27.807  28.320  1.00  0.00     0.029 A 
ATOM     23  N   UNL A   1      40.732  28.806  30.305  1.00  0.00    -0.354 N 
ATOM     24  C   UNL A   1      44.076  27.738  32.936  1.00  0.00     0.074 A 
ATOM     25  C   UNL A   1      44.993  26.861  32.250  1.00  0.00     0.031 C 
ATOM     26  C   UNL A   1      39.608  28.782  28.371  1.00  0.00     0.029 A 
ATOM     27  C   UNL A   1      39.659  29.401  29.686  1.00  0.00     0.049 A 
ATOM     28  H   UNL A   1      41.051  29.067  31.200  1.00  0.00     0.167 HD
ATOM     29  C   UNL A   1      44.287  28.258  34.166  1.00  0.00     0.037 A 
ATOM     30  C   UNL A   1      38.782  30.306  30.160  1.00  0.00     0.037 A 
ATOM     31  C   UNL A   1      43.355  29.143  34.808  1.00  0.00     0.049 A 
ATOM     32  C   UNL A   1      38.981  30.781  31.574  1.00  0.00     0.074 A 
ATOM     33  C   UNL A   1      43.384  29.656  36.090  1.00  0.00     0.029 A 
ATOM     34  N   UNL A   1      42.219  29.654  34.192  1.00  0.00    -0.354 N 
ATOM     35  N   UNL A   1      39.952  30.500  32.411  1.00  0.00    -0.248 NA
ATOM     36  C   UNL A   1      37.954  31.674  32.120  1.00  0.00     0.031 C 
ATOM     37  C   UNL A   1      42.245  30.450  36.261  1.00  0.00     0.029 A 
ATOM     38  C   UNL A   1      41.533  30.474  35.069  1.00  0.00     0.049 A 
ATOM     39  H   UNL A   1      41.943  29.463  33.267  1.00  0.00     0.167 HD
ATOM     40  C   UNL A   1      39.660  31.185  33.580  1.00  0.00     0.074 A 
ATOM     41  C   UNL A   1      38.439  31.926  33.327  1.00  0.00     0.031 C 
ATOM     42  C   UNL A   1      40.323  31.194  34.763  1.00  0.00     0.037 A 
BRANCH  29  43
ATOM     43  C   UNL A   1      45.521  27.817  34.891  1.00  0.00     0.064 A 
ATOM     44  C   UNL A   1      45.541  26.671  35.701  1.00  0.00     0.173 A 
ATOM     45  C   UNL A   1      46.693  28.584  34.812  1.00  0.00     0.173 A 
ATOM     46  F   UNL A   1      44.434  25.926  35.842  1.00  0.00    -0.203 F 
ATOM     47  C   UNL A   1      46.680  26.325  36.424  1.00  0.00     0.198 A 
ATOM     48  C   UNL A   1      47.839  28.219  35.516  1.00  0.00     0.198 A 
ATOM     49  F   UNL A   1      46.723  29.698  34.067  1.00  0.00    -0.203 F 
ATOM     50  F   UNL A   1      46.655  25.261  37.240  1.00  0.00    -0.200 F 
ATOM     51  C   UNL A   1      47.829  27.096  36.328  1.00  0.00     0.200 A 
ATOM     52  F   UNL A   1      48.947  28.968  35.423  1.00  0.00    -0.200 F 
ATOM     53  F   UNL A   1      48.920  26.765  37.031  1.00  0.00    -0.200 F 
ENDBRANCH  29  43
BRANCH  30  54
ATOM     54  C   UNL A   1      37.608  30.733  29.348  1.00  0.00     0.064 A 
ATOM     55  C   UNL A   1      37.483  32.042  28.864  1.00  0.00     0.173 A 
ATOM     56  C   UNL A   1      36.556  29.843  29.073  1.00  0.00     0.173 A 
ATOM     57  F   UNL A   1      38.447  32.942  29.111  1.00  0.00    -0.203 F 
ATOM     58  C   UNL A   1      36.344  32.451  28.169  1.00  0.00     0.198 A 
ATOM     59  C   UNL A   1      35.437  30.240  28.343  1.00  0.00     0.198 A 
ATOM     60  F   UNL A   1      36.613  28.576  29.510  1.00  0.00    -0.203 F 
ATOM     61  F   UNL A   1      36.224  33.727  27.777  1.00  0.00    -0.200 F 
ATOM     62  C   UNL A   1      35.325  31.549  27.906  1.00  0.00     0.200 A 
ATOM     63  F   UNL A   1      34.466  29.357  28.077  1.00  0.00    -0.200 F 
ATOM     64  F   UNL A   1      34.230  31.944  27.242  1.00  0.00    -0.200 F 
ENDBRANCH  30  54
BRANCH  42  65
ATOM     65  C   UNL A   1      39.746  32.056  35.843  1.00  0.00     0.064 A 
ATOM     66  C   UNL A   1      40.229  33.350  36.085  1.00  0.00     0.173 A 
ATOM     67  C   UNL A   1      38.680  31.588  36.626  1.00  0.00     0.173 A 
ATOM     68  F   UNL A   1      41.259  33.830  35.371  1.00  0.00    -0.203 F 
ATOM     69  C   UNL A   1      39.686  34.134  37.097  1.00  0.00     0.198 A 
ATOM     70  C   UNL A   1      38.117  32.388  37.612  1.00  0.00     0.198 A 
ATOM     71  F   UNL A   1      38.182  30.359  36.424  1.00  0.00    -0.203 F 
ATOM     72  F   UNL A   1      40.201  35.344  37.351  1.00  0.00    -0.200 F 
ATOM     73  C   UNL A   1      38.627  33.656  37.854  1.00  0.00     0.200 A 
ATOM     74  F   UNL A   1      37.084  31.932  38.332  1.00  0.00    -0.200 F 
ATOM     75  F   UNL A   1      38.101  34.415  38.824  1.00  0.00    -0.200 F 
ENDBRANCH  42  65
ENDBRANCH  16  17
ENDBRANCH   9  11
ENDBRANCH   8   9
ENDBRANCH   7   8
ENDBRANCH   6   7
ENDBRANCH   5   6
ENDBRANCH   4   5
ENDBRANCH   3   4
ENDBRANCH   2   3
ENDBRANCH   1   2
BRANCH   1  76
ATOM     76  C   UNL A   1      39.822  22.775  26.311  1.00  0.00     0.188 C 
BRANCH  76  77
ATOM     77  O   UNL A   1      38.508  23.040  26.792  1.00  0.00    -0.376 OA
BRANCH  77  78
ATOM     78  C   UNL A   1      37.800  24.065  26.098  1.00  0.00     0.202 C 
BRANCH  78  79
ATOM     79  C   UNL A   1      36.535  23.641  25.324  1.00  0.00     0.261 C 
BRANCH  79  80
ATOM     80  O   UNL A   1      35.452  24.584  25.378  1.00  0.00    -0.463 OA
BRANCH  80  81
ATOM     81  C   UNL A   1      34.638  24.671  24.301  1.00  0.00     0.310 C 
ATOM     82  O   UNL A   1      34.796  24.050  23.258  1.00  0.00    -0.252 OA
BRANCH  81  83
ATOM     83  C   UNL A   1      33.454  25.595  24.575  1.00  0.00     0.117 C 
ATOM     84  C   UNL A   1      33.976  26.927  25.138  1.00  0.00     0.017 C 
ATOM     85  C   UNL A   1      32.367  24.938  25.423  1.00  0.00     0.084 C 
ATOM     86  C   UNL A   1      32.847  27.886  25.483  1.00  0.00     0.001 C 
ATOM     87  C   UNL A   1      31.317  25.947  25.904  1.00  0.00     0.021 C 
ATOM     88  C   UNL A   1      31.895  27.235  26.474  1.00  0.00     0.002 C 
BRANCH  85  89
ATOM     89  N   UNL A   1      32.995  24.164  26.485  1.00  0.00    -0.207 NA
ATOM     90  H   UNL A   1      32.844  24.708  27.335  1.00  0.00     0.141 HD
BRANCH  89  91
ATOM     91  S   UNL A   1      32.635  22.601  26.900  1.00  0.00     0.240 S 
ATOM     92  O   UNL A   1      33.706  22.188  27.765  1.00  0.00    -0.207 OA
ATOM     93  O   UNL A   1      31.250  22.578  27.345  1.00  0.00    -0.207 OA
BRANCH  91  94
ATOM     94  C   UNL A   1      32.717  21.563  25.459  1.00  0.00     0.083 A 
ATOM     95  C   UNL A   1      32.111  21.832  24.232  1.00  0.00     0.022 A 
ATOM     96  C   UNL A   1      33.380  20.346  25.649  1.00  0.00     0.030 A 
ATOM     97  C   UNL A   1      32.025  20.824  23.265  1.00  0.00     0.010 A 
ATOM     98  C   UNL A   1      33.360  19.356  24.662  1.00  0.00    -0.017 A 
ATOM     99  C   UNL A   1      32.627  19.573  23.475  1.00  0.00    -0.018 A 
ATOM    100  C   UNL A   1      34.040  18.147  24.850  1.00  0.00     0.009 A 
ATOM    101  C   UNL A   1      32.531  18.533  22.535  1.00  0.00     0.009 A 
ATOM    102  C   UNL A   1      33.963  17.136  23.893  1.00  0.00     0.001 A 
ATOM    103  C   UNL A   1      33.192  17.321  22.748  1.00  0.00     0.001 A 
ENDBRANCH  91  94
ENDBRANCH  89  91
ENDBRANCH  85  89
ENDBRANCH  81  83
ENDBRANCH  80  81
ENDBRANCH  79  80
ENDBRANCH  78  79
ENDBRANCH  77  78
ENDBRANCH  76  77
ENDBRANCH   1  76
TORSDOF 23
ENDMDL
MODEL 2
REMARK VINA RESULT:     -10.6      1.064      3.725
REMARK SMILES O=C(OCCOCCOCCOCCOC(=O)[C@@H]1CCCC[C@@H]1NS(=O)(=O)c1ccc2ccccc2c1)c1ccc(-c2c3nc(c(-c4c(F)c(F)c(F)c(F)c4F)c4ccc([nH]4)c(-c4c(F)c(F)c(F)c(F)c4F)c4nc(c(-c5c(F)c(F)c(F)c(F)c5F)c5ccc2[nH]5)C=C4)C=C3)cc1
REMARK SMILES IDX 10 1 9 2 8 3 7 4 6 5 5 6 4 7 3 8 2 9 1 10 38 11 39 12 100 13
REMARK SMILES IDX 40 14 99 15 41 16 42 17 43 18 93 19 44 20 98 21 92 22 94 23
REMARK SMILES IDX 45 24 97 25 91 26 90 27 46 29 78 30 58 31 77 32 59 33 62 34
REMARK SMILES IDX 76 35 95 36 60 37 61 38 75 40 96 41 63 42 47 43 48 44 56 45
REMARK SMILES IDX 49 46 50 47 54 48 57 49 51 50 52 51 55 52 53 53 79 54 80 55
REMARK SMILES IDX 88 56 81 57 82 58 86 59 89 60 83 61 84 62 87 63 85 64 64 65
REMARK SMILES IDX 65 66 73 67 66 68 67 69 71 70 74 71 68 72 69 73 72 74 70 75
REMARK SMILES IDX 11 76 12 77 13 78 14 79 15 80 16 81 17 82 18 83 19 84 23 85
REMARK SMILES IDX 20 86 22 87 21 88 24 89 25 91 26 92 27 93 28 94 29 95 37 96
REMARK SMILES IDX 30 97 36 98 31 99 35 100 32 101 34 102 33 103
REMARK H PARENT 94 28 62 39 24 90
REMARK Flexibility Score: inf
ROOT
ATOM      1  C   UNL A   1      41.104  20.312  26.633  1.00  0.00     0.188 C 
ENDROOT
BRANCH   1   2
ATOM      2  O   UNL A   1      42.494  20.023  26.473  1.00  0.00    -0.377 OA
BRANCH   2   3
ATOM      3  C   UNL A   1      42.808  18.818  25.761  1.00  0.00     0.188 C 
BRANCH   3   4
ATOM      4  C   UNL A   1      44.295  18.453  25.750  1.00  0.00     0.188 C 
BRANCH   4   5
ATOM      5  O   UNL A   1      44.963  19.211  24.753  1.00  0.00    -0.376 OA
BRANCH   5   6
ATOM      6  C   UNL A   1      45.802  20.286  25.140  1.00  0.00     0.202 C 
BRANCH   6   7
ATOM      7  C   UNL A   1      45.350  21.677  24.714  1.00  0.00     0.261 C 
BRANCH   7   8
ATOM      8  O   UNL A   1      44.754  22.470  25.760  1.00  0.00    -0.460 OA
BRANCH   8   9
ATOM      9  C   UNL A   1      43.855  23.479  25.658  1.00  0.00     0.338 C 
ATOM     10  O   UNL A   1      43.212  23.627  24.623  1.00  0.00    -0.246 OA
BRANCH   9  11
ATOM     11  C   UNL A   1      43.585  24.395  26.792  1.00  0.00     0.060 A 
ATOM     12  C   UNL A   1      43.038  23.959  27.987  1.00  0.00     0.016 A 
ATOM     13  C   UNL A   1      43.997  25.727  26.709  1.00  0.00     0.016 A 
ATOM     14  C   UNL A   1      42.632  24.838  28.964  1.00  0.00     0.010 A 
ATOM     15  C   UNL A   1      43.755  26.602  27.776  1.00  0.00     0.010 A 
ATOM     16  C   UNL A   1      43.007  26.171  28.882  1.00  0.00    -0.014 A 
BRANCH  16  17
ATOM     17  C   UNL A   1      42.485  27.078  29.922  1.00  0.00     0.031 A 
ATOM     18  C   UNL A   1      43.306  27.273  31.159  1.00  0.00     0.074 A 
ATOM     19  C   UNL A   1      41.409  27.849  29.661  1.00  0.00     0.049 A 
ATOM     20  N   UNL A   1      43.036  27.964  32.232  1.00  0.00    -0.248 NA
ATOM     21  C   UNL A   1      44.622  26.608  31.189  1.00  0.00     0.031 C 
ATOM     22  C   UNL A   1      40.639  27.837  28.410  1.00  0.00     0.029 A 
ATOM     23  N   UNL A   1      40.811  28.834  30.399  1.00  0.00    -0.354 N 
ATOM     24  C   UNL A   1      44.123  27.780  33.076  1.00  0.00     0.074 A 
ATOM     25  C   UNL A   1      45.054  26.908  32.401  1.00  0.00     0.031 C 
ATOM     26  C   UNL A   1      39.715  28.807  28.449  1.00  0.00     0.029 A 
ATOM     27  C   UNL A   1      39.744  29.425  29.766  1.00  0.00     0.049 A 
ATOM     28  H   UNL A   1      41.116  29.095  31.299  1.00  0.00     0.167 HD
ATOM     29  C   UNL A   1      44.313  28.299  34.309  1.00  0.00     0.037 A 
ATOM     30  C   UNL A   1      38.856  30.324  30.229  1.00  0.00     0.037 A 
ATOM     31  C   UNL A   1      43.368  29.178  34.940  1.00  0.00     0.049 A 
ATOM     32  C   UNL A   1      39.032  30.798  31.646  1.00  0.00     0.074 A 
ATOM     33  C   UNL A   1      43.377  29.689  36.222  1.00  0.00     0.029 A 
ATOM     34  N   UNL A   1      42.238  29.684  34.308  1.00  0.00    -0.354 N 
ATOM     35  N   UNL A   1      39.992  30.521  32.496  1.00  0.00    -0.248 NA
ATOM     36  C   UNL A   1      37.993  31.684  32.179  1.00  0.00     0.031 C 
ATOM     37  C   UNL A   1      42.231  30.477  36.378  1.00  0.00     0.029 A 
ATOM     38  C   UNL A   1      41.536  30.499  35.176  1.00  0.00     0.049 A 
ATOM     39  H   UNL A   1      41.977  29.492  33.379  1.00  0.00     0.167 HD
ATOM     40  C   UNL A   1      39.680  31.203  33.662  1.00  0.00     0.074 A 
ATOM     41  C   UNL A   1      38.459  31.938  33.393  1.00  0.00     0.031 C 
ATOM     42  C   UNL A   1      40.327  31.213  34.854  1.00  0.00     0.037 A 
BRANCH  29  43
ATOM     43  C   UNL A   1      45.539  27.863  35.051  1.00  0.00     0.064 A 
ATOM     44  C   UNL A   1      46.738  28.592  35.004  1.00  0.00     0.173 A 
ATOM     45  C   UNL A   1      45.529  26.667  35.783  1.00  0.00     0.173 A 
ATOM     46  F   UNL A   1      46.812  29.722  34.285  1.00  0.00    -0.203 F 
ATOM     47  C   UNL A   1      47.885  28.125  35.642  1.00  0.00     0.198 A 
ATOM     48  C   UNL A   1      46.671  26.217  36.442  1.00  0.00     0.198 A 
ATOM     49  F   UNL A   1      44.415  25.923  35.846  1.00  0.00    -0.203 F 
ATOM     50  F   UNL A   1      49.035  28.806  35.532  1.00  0.00    -0.200 F 
ATOM     51  C   UNL A   1      47.850  26.941  36.364  1.00  0.00     0.200 A 
ATOM     52  F   UNL A   1      46.634  25.071  37.137  1.00  0.00    -0.200 F 
ATOM     53  F   UNL A   1      48.957  26.490  36.969  1.00  0.00    -0.200 F 
ENDBRANCH  29  43
BRANCH  30  54
ATOM     54  C   UNL A   1      37.690  30.745  29.400  1.00  0.00     0.064 A 
ATOM     55  C   UNL A   1      37.563  32.056  28.921  1.00  0.00     0.173 A 
ATOM     56  C   UNL A   1      36.650  29.849  29.105  1.00  0.00     0.173 A 
ATOM     57  F   UNL A   1      38.517  32.962  29.186  1.00  0.00    -0.203 F 
ATOM     58  C   UNL A   1      36.432  32.460  28.210  1.00  0.00     0.198 A 
ATOM     59  C   UNL A   1      35.539  30.241  28.361  1.00  0.00     0.198 A 
ATOM     60  F   UNL A   1      36.709  28.580  29.538  1.00  0.00    -0.203 F 
ATOM     61  F   UNL A   1      36.309  33.736  27.822  1.00  0.00    -0.200 F 
ATOM     62  C   UNL A   1      35.424  31.552  27.927  1.00  0.00     0.200 A 
ATOM     63  F   UNL A   1      34.579  29.352  28.076  1.00  0.00    -0.200 F 
ATOM     64  F   UNL A   1      34.336  31.941  27.248  1.00  0.00    -0.200 F 
ENDBRANCH  30  54
BRANCH  42  65
ATOM     65  C   UNL A   1      39.730  32.071  35.927  1.00  0.00     0.064 A 
ATOM     66  C   UNL A   1      38.681  31.611  36.735  1.00  0.00     0.173 A 
ATOM     67  C   UNL A   1      40.235  33.358  36.164  1.00  0.00     0.173 A 
ATOM     68  F   UNL A   1      38.156  30.392  36.531  1.00  0.00    -0.203 F 
ATOM     69  C   UNL A   1      38.134  32.424  37.722  1.00  0.00     0.198 A 
ATOM     70  C   UNL A   1      39.710  34.153  37.174  1.00  0.00     0.198 A 
ATOM     71  F   UNL A   1      41.244  33.836  35.420  1.00  0.00    -0.203 F 
ATOM     72  F   UNL A   1      37.092  31.988  38.443  1.00  0.00    -0.200 F 
ATOM     73  C   UNL A   1      38.653  33.690  37.945  1.00  0.00     0.200 A 
ATOM     74  F   UNL A   1      40.223  35.370  37.400  1.00  0.00    -0.200 F 
ATOM     75  F   UNL A   1      38.130  34.470  38.900  1.00  0.00    -0.200 F 
ENDBRANCH  42  65
ENDBRANCH  16  17
ENDBRANCH   9  11
ENDBRANCH   8   9
ENDBRANCH   7   8
ENDBRANCH   6   7
ENDBRANCH   5   6
ENDBRANCH   4   5
ENDBRANCH   3   4
ENDBRANCH   2   3
ENDBRANCH   1   2
BRANCH   1  76
ATOM     76  C   UNL A   1      40.645  21.789  26.614  1.00  0.00     0.188 C 
BRANCH  76  77
ATOM     77  O   UNL A   1      39.238  21.974  26.496  1.00  0.00    -0.376 OA
BRANCH  77  78
ATOM     78  C   UNL A   1      38.792  23.326  26.576  1.00  0.00     0.202 C 
BRANCH  78  79
ATOM     79  C   UNL A   1      37.577  23.714  25.707  1.00  0.00     0.261 C 
BRANCH  79  80
ATOM     80  O   UNL A   1      36.418  22.883  25.886  1.00  0.00    -0.463 OA
BRANCH  80  81
ATOM     81  C   UNL A   1      36.113  22.007  24.902  1.00  0.00     0.310 C 
ATOM     82  O   UNL A   1      36.762  21.862  23.873  1.00  0.00    -0.252 OA
BRANCH  81  83
ATOM     83  C   UNL A   1      34.889  21.170  25.265  1.00  0.00     0.117 C 
ATOM     84  C   UNL A   1      35.024  19.778  24.622  1.00  0.00     0.017 C 
ATOM     85  C   UNL A   1      33.571  21.876  24.961  1.00  0.00     0.084 C 
ATOM     86  C   UNL A   1      33.814  18.900  24.900  1.00  0.00     0.001 C 
ATOM     87  C   UNL A   1      32.366  20.936  25.084  1.00  0.00     0.021 C 
ATOM     88  C   UNL A   1      32.548  19.585  24.408  1.00  0.00     0.002 C 
BRANCH  85  89
ATOM     89  N   UNL A   1      33.679  22.555  23.676  1.00  0.00    -0.207 NA
ATOM     90  H   UNL A   1      33.587  21.818  22.977  1.00  0.00     0.141 HD
BRANCH  89  91
ATOM     91  S   UNL A   1      32.713  23.789  23.137  1.00  0.00     0.240 S 
ATOM     92  O   UNL A   1      33.482  24.447  22.118  1.00  0.00    -0.207 OA
ATOM     93  O   UNL A   1      31.404  23.221  22.850  1.00  0.00    -0.207 OA
BRANCH  91  94
ATOM     94  C   UNL A   1      32.470  24.975  24.439  1.00  0.00     0.083 A 
ATOM     95  C   UNL A   1      31.854  24.719  25.663  1.00  0.00     0.022 A 
ATOM     96  C   UNL A   1      32.868  26.279  24.125  1.00  0.00     0.030 A 
ATOM     97  C   UNL A   1      31.488  25.786  26.492  1.00  0.00     0.010 A 
ATOM     98  C   UNL A   1      32.568  27.345  24.979  1.00  0.00    -0.017 A 
ATOM     99  C   UNL A   1      31.820  27.108  26.152  1.00  0.00    -0.018 A 
ATOM    100  C   UNL A   1      32.983  28.646  24.670  1.00  0.00     0.009 A 
ATOM    101  C   UNL A   1      31.438  28.200  26.949  1.00  0.00     0.009 A 
ATOM    102  C   UNL A   1      32.625  29.716  25.488  1.00  0.00     0.001 A 
ATOM    103  C   UNL A   1      31.836  29.496  26.614  1.00  0.00     0.001 A 
ENDBRANCH  91  94
ENDBRANCH  89  91
ENDBRANCH  85  89
ENDBRANCH  81  83
ENDBRANCH  80  81
ENDBRANCH  79  80
ENDBRANCH  78  79
ENDBRANCH  77  78
ENDBRANCH  76  77
ENDBRANCH   1  76
TORSDOF 23
ENDMDL
MODEL 3
REMARK VINA RESULT:     -10.4      1.910      8.010
REMARK SMILES O=C(OCCOCCOCCOCCOC(=O)[C@@H]1CCCC[C@@H]1NS(=O)(=O)c1ccc2ccccc2c1)c1ccc(-c2c3nc(c(-c4c(F)c(F)c(F)c(F)c4F)c4ccc([nH]4)c(-c4c(F)c(F)c(F)c(F)c4F)c4nc(c(-c5c(F)c(F)c(F)c(F)c5F)c5ccc2[nH]5)C=C4)C=C3)cc1
REMARK SMILES IDX 10 1 9 2 8 3 7 4 6 5 5 6 4 7 3 8 2 9 1 10 38 11 39 12 100 13
REMARK SMILES IDX 40 14 99 15 41 16 42 17 43 18 93 19 44 20 98 21 92 22 94 23
REMARK SMILES IDX 45 24 97 25 91 26 90 27 46 29 78 30 58 31 77 32 59 33 62 34
REMARK SMILES IDX 76 35 95 36 60 37 61 38 75 40 96 41 63 42 47 43 48 44 56 45
REMARK SMILES IDX 49 46 50 47 54 48 57 49 51 50 52 51 55 52 53 53 79 54 80 55
REMARK SMILES IDX 88 56 81 57 82 58 86 59 89 60 83 61 84 62 87 63 85 64 64 65
REMARK SMILES IDX 65 66 73 67 66 68 67 69 71 70 74 71 68 72 69 73 72 74 70 75
REMARK SMILES IDX 11 76 12 77 13 78 14 79 15 80 16 81 17 82 18 83 19 84 23 85
REMARK SMILES IDX 20 86 22 87 21 88 24 89 25 91 26 92 27 93 28 94 29 95 37 96
REMARK SMILES IDX 30 97 36 98 31 99 35 100 32 101 34 102 33 103
REMARK H PARENT 94 28 62 39 24 90
REMARK Flexibility Score: inf
ROOT
ATOM      1  C   UNL A   1      39.671  21.477  26.166  1.00  0.00     0.188 C 
ENDROOT
BRANCH   1   2
ATOM      2  O   UNL A   1      41.022  21.912  26.005  1.00  0.00    -0.377 OA
BRANCH   2   3
ATOM      3  C   UNL A   1      42.035  20.948  26.322  1.00  0.00     0.188 C 
BRANCH   3   4
ATOM      4  C   UNL A   1      43.422  21.272  25.761  1.00  0.00     0.188 C 
BRANCH   4   5
ATOM      5  O   UNL A   1      43.286  22.006  24.554  1.00  0.00    -0.376 OA
BRANCH   5   6
ATOM      6  C   UNL A   1      43.856  23.301  24.457  1.00  0.00     0.202 C 
BRANCH   6   7
ATOM      7  C   UNL A   1      45.372  23.377  24.585  1.00  0.00     0.261 C 
BRANCH   7   8
ATOM      8  O   UNL A   1      45.855  24.370  25.511  1.00  0.00    -0.460 OA
BRANCH   8   9
ATOM      9  C   UNL A   1      45.645  25.709  25.512  1.00  0.00     0.338 C 
ATOM     10  O   UNL A   1      46.105  26.403  24.610  1.00  0.00    -0.246 OA
BRANCH   9  11
ATOM     11  C   UNL A   1      44.827  26.366  26.559  1.00  0.00     0.060 A 
ATOM     12  C   UNL A   1      44.742  27.743  26.684  1.00  0.00     0.016 A 
ATOM     13  C   UNL A   1      44.015  25.585  27.384  1.00  0.00     0.016 A 
ATOM     14  C   UNL A   1      44.123  28.339  27.757  1.00  0.00     0.010 A 
ATOM     15  C   UNL A   1      43.231  26.192  28.373  1.00  0.00     0.010 A 
ATOM     16  C   UNL A   1      43.338  27.572  28.605  1.00  0.00    -0.014 A 
BRANCH  16  17
ATOM     17  C   UNL A   1      42.756  28.253  29.778  1.00  0.00     0.031 A 
ATOM     18  C   UNL A   1      41.383  28.834  29.640  1.00  0.00     0.074 A 
ATOM     19  C   UNL A   1      43.368  28.167  30.976  1.00  0.00     0.049 A 
ATOM     20  N   UNL A   1      40.687  29.528  30.499  1.00  0.00    -0.248 NA
ATOM     21  C   UNL A   1      40.688  28.590  28.363  1.00  0.00     0.031 C 
ATOM     22  C   UNL A   1      44.640  27.477  31.232  1.00  0.00     0.029 A 
ATOM     23  N   UNL A   1      42.982  28.603  32.214  1.00  0.00    -0.354 N 
ATOM     24  C   UNL A   1      39.499  29.838  29.851  1.00  0.00     0.074 A 
ATOM     25  C   UNL A   1      39.565  29.268  28.527  1.00  0.00     0.031 C 
ATOM     26  C   UNL A   1      44.894  27.488  32.548  1.00  0.00     0.029 A 
ATOM     27  C   UNL A   1      43.874  28.286  33.211  1.00  0.00     0.049 A 
ATOM     28  H   UNL A   1      42.146  29.097  32.376  1.00  0.00     0.167 HD
ATOM     29  C   UNL A   1      38.451  30.542  30.332  1.00  0.00     0.037 A 
ATOM     30  C   UNL A   1      43.887  28.655  34.506  1.00  0.00     0.037 A 
ATOM     31  C   UNL A   1      38.417  31.079  31.664  1.00  0.00     0.049 A 
ATOM     32  C   UNL A   1      42.762  29.533  34.983  1.00  0.00     0.074 A 
ATOM     33  C   UNL A   1      37.474  31.901  32.247  1.00  0.00     0.029 A 
ATOM     34  N   UNL A   1      39.387  30.825  32.628  1.00  0.00    -0.354 N 
ATOM     35  N   UNL A   1      41.698  29.939  34.330  1.00  0.00    -0.248 NA
ATOM     36  C   UNL A   1      42.849  30.026  36.360  1.00  0.00     0.031 C 
ATOM     37  C   UNL A   1      37.893  32.174  33.555  1.00  0.00     0.029 A 
ATOM     38  C   UNL A   1      39.069  31.480  33.803  1.00  0.00     0.049 A 
ATOM     39  H   UNL A   1      40.182  30.260  32.494  1.00  0.00     0.167 HD
ATOM     40  C   UNL A   1      40.984  30.729  35.218  1.00  0.00     0.074 A 
ATOM     41  C   UNL A   1      41.719  30.710  36.467  1.00  0.00     0.031 C 
ATOM     42  C   UNL A   1      39.835  31.423  35.022  1.00  0.00     0.037 A 
BRANCH  29  43
ATOM     43  C   UNL A   1      37.322  30.816  29.387  1.00  0.00     0.064 A 
ATOM     44  C   UNL A   1      37.125  32.079  28.807  1.00  0.00     0.173 A 
ATOM     45  C   UNL A   1      36.391  29.809  29.094  1.00  0.00     0.173 A 
ATOM     46  F   UNL A   1      37.964  33.088  29.087  1.00  0.00    -0.203 F 
ATOM     47  C   UNL A   1      36.024  32.329  27.991  1.00  0.00     0.198 A 
ATOM     48  C   UNL A   1      35.306  30.054  28.255  1.00  0.00     0.198 A 
ATOM     49  F   UNL A   1      36.522  28.589  29.635  1.00  0.00    -0.203 F 
ATOM     50  F   UNL A   1      35.822  33.559  27.499  1.00  0.00    -0.200 F 
ATOM     51  C   UNL A   1      35.118  31.316  27.712  1.00  0.00     0.200 A 
ATOM     52  F   UNL A   1      34.431  29.074  27.990  1.00  0.00    -0.200 F 
ATOM     53  F   UNL A   1      34.055  31.560  26.934  1.00  0.00    -0.200 F 
ENDBRANCH  29  43
BRANCH  30  54
ATOM     54  C   UNL A   1      45.028  28.291  35.394  1.00  0.00     0.064 A 
ATOM     55  C   UNL A   1      44.923  27.267  36.345  1.00  0.00     0.173 A 
ATOM     56  C   UNL A   1      46.242  28.995  35.338  1.00  0.00     0.173 A 
ATOM     57  F   UNL A   1      43.782  26.571  36.458  1.00  0.00    -0.203 F 
ATOM     58  C   UNL A   1      45.971  26.985  37.222  1.00  0.00     0.198 A 
ATOM     59  C   UNL A   1      47.303  28.686  36.187  1.00  0.00     0.198 A 
ATOM     60  F   UNL A   1      46.406  29.989  34.452  1.00  0.00    -0.203 F 
ATOM     61  F   UNL A   1      45.818  26.045  38.165  1.00  0.00    -0.200 F 
ATOM     62  C   UNL A   1      47.161  27.691  37.140  1.00  0.00     0.200 A 
ATOM     63  F   UNL A   1      48.456  29.362  36.087  1.00  0.00    -0.200 F 
ATOM     64  F   UNL A   1      48.165  27.423  37.985  1.00  0.00    -0.200 F 
ENDBRANCH  30  54
BRANCH  42  65
ATOM     65  C   UNL A   1      39.307  32.182  36.200  1.00  0.00     0.064 A 
ATOM     66  C   UNL A   1      39.787  33.458  36.524  1.00  0.00     0.173 A 
ATOM     67  C   UNL A   1      38.290  31.633  36.995  1.00  0.00     0.173 A 
ATOM     68  F   UNL A   1      40.772  34.013  35.800  1.00  0.00    -0.203 F 
ATOM     69  C   UNL A   1      39.291  34.146  37.626  1.00  0.00     0.198 A 
ATOM     70  C   UNL A   1      37.772  32.339  38.073  1.00  0.00     0.198 A 
ATOM     71  F   UNL A   1      37.795  30.417  36.716  1.00  0.00    -0.203 F 
ATOM     72  F   UNL A   1      39.805  35.339  37.955  1.00  0.00    -0.200 F 
ATOM     73  C   UNL A   1      38.280  33.589  38.395  1.00  0.00     0.200 A 
ATOM     74  F   UNL A   1      36.784  31.807  38.806  1.00  0.00    -0.200 F 
ATOM     75  F   UNL A   1      37.798  34.255  39.452  1.00  0.00    -0.200 F 
ENDBRANCH  42  65
ENDBRANCH  16  17
ENDBRANCH   9  11
ENDBRANCH   8   9
ENDBRANCH   7   8
ENDBRANCH   6   7
ENDBRANCH   5   6
ENDBRANCH   4   5
ENDBRANCH   3   4
ENDBRANCH   2   3
ENDBRANCH   1   2
BRANCH   1  76
ATOM     76  C   UNL A   1      38.543  22.536  26.151  1.00  0.00     0.188 C 
BRANCH  76  77
ATOM     77  O   UNL A   1      37.269  22.042  25.748  1.00  0.00    -0.376 OA
BRANCH  77  78
ATOM     78  C   UNL A   1      37.116  21.818  24.349  1.00  0.00     0.202 C 
BRANCH  78  79
ATOM     79  C   UNL A   1      36.022  22.629  23.625  1.00  0.00     0.261 C 
BRANCH  79  80
ATOM     80  O   UNL A   1      34.919  23.028  24.456  1.00  0.00    -0.463 OA
BRANCH  80  81
ATOM     81  C   UNL A   1      33.802  22.266  24.429  1.00  0.00     0.310 C 
ATOM     82  O   UNL A   1      33.582  21.382  23.610  1.00  0.00    -0.252 OA
BRANCH  81  83
ATOM     83  C   UNL A   1      32.873  22.603  25.592  1.00  0.00     0.117 C 
ATOM     84  C   UNL A   1      31.518  21.910  25.370  1.00  0.00     0.017 C 
ATOM     85  C   UNL A   1      32.774  24.102  25.863  1.00  0.00     0.084 C 
ATOM     86  C   UNL A   1      30.519  22.240  26.469  1.00  0.00     0.001 C 
ATOM     87  C   UNL A   1      31.652  24.441  26.851  1.00  0.00     0.021 C 
ATOM     88  C   UNL A   1      30.328  23.745  26.566  1.00  0.00     0.002 C 
BRANCH  85  89
ATOM     89  N   UNL A   1      32.697  24.811  24.593  1.00  0.00    -0.207 NA
ATOM     90  H   UNL A   1      31.795  24.548  24.195  1.00  0.00     0.141 HD
BRANCH  89  91
ATOM     91  S   UNL A   1      32.802  26.452  24.380  1.00  0.00     0.240 S 
ATOM     92  O   UNL A   1      33.288  26.960  25.632  1.00  0.00    -0.207 OA
ATOM     93  O   UNL A   1      33.523  26.682  23.137  1.00  0.00    -0.207 OA
BRANCH  91  94
ATOM     94  C   UNL A   1      31.176  27.132  24.149  1.00  0.00     0.083 A 
ATOM     95  C   UNL A   1      30.008  26.394  23.962  1.00  0.00     0.022 A 
ATOM     96  C   UNL A   1      31.131  28.529  24.068  1.00  0.00     0.030 A 
ATOM     97  C   UNL A   1      28.842  27.038  23.530  1.00  0.00     0.010 A 
ATOM     98  C   UNL A   1      29.952  29.188  23.706  1.00  0.00    -0.017 A 
ATOM     99  C   UNL A   1      28.806  28.434  23.377  1.00  0.00    -0.018 A 
ATOM    100  C   UNL A   1      29.908  30.586  23.643  1.00  0.00     0.009 A 
ATOM    101  C   UNL A   1      27.659  29.103  22.917  1.00  0.00     0.009 A 
ATOM    102  C   UNL A   1      28.752  31.238  23.216  1.00  0.00     0.001 A 
ATOM    103  C   UNL A   1      27.638  30.497  22.834  1.00  0.00     0.001 A 
ENDBRANCH  91  94
ENDBRANCH  89  91
ENDBRANCH  85  89
ENDBRANCH  81  83
ENDBRANCH  80  81
ENDBRANCH  79  80
ENDBRANCH  78  79
ENDBRANCH  77  78
ENDBRANCH  76  77
ENDBRANCH   1  76
TORSDOF 23
ENDMDL
