MODEL 1
REMARK VINA RESULT:      -9.5      0.000      0.000
REMARK SMILES CCCCCCCCNC(=O)Oc1cccc(-c2ccc([C@@H](C)C(=O)OCCOCCOCCOCCOC(=O)c3ccc(-c4c5nc(c(-c6c(F)c(F)c(F)c(F)c6F)c6ccc([nH]6)c(-c6c(F)c(F)c(F)c(F)c6F)c6nc(c(-c7c(F)c(F)c(F)c(F)c7F)c7ccc4[nH]7)C=C6)C=C5)cc3)cc2F)c1
REMARK SMILES IDX 27 1 26 2 24 3 25 4 22 5 23 6 21 7 18 8 19 9 105 10 20 11
REMARK SMILES IDX 104 12 106 13 17 14 13 15 14 16 107 17 15 18 16 19 12 20
REMARK SMILES IDX 10 21 9 22 11 24 8 25 7 26 6 27 5 28 4 29 3 30 2 31 1 32
REMARK SMILES IDX 28 33 29 34 30 35 31 36 32 37 33 38 34 39 35 40 36 41 37 42
REMARK SMILES IDX 38 43 39 44 40 45 41 46 42 47 103 48 43 49 102 50 44 51
REMARK SMILES IDX 45 52 46 53 96 54 47 55 101 56 95 57 97 58 48 59 100 60
REMARK SMILES IDX 94 61 93 62 49 64 81 65 61 66 80 67 62 68 65 69 79 70 98 71
REMARK SMILES IDX 63 72 64 73 78 75 99 76 66 77 50 78 51 79 59 80 52 81 53 82
REMARK SMILES IDX 57 83 60 84 54 85 55 86 58 87 56 88 82 89 83 90 91 91 84 92
REMARK SMILES IDX 85 93 89 94 92 95 86 96 87 97 90 98 88 99 67 100 68 101
REMARK SMILES IDX 76 102 69 103 70 104 74 105 77 106 71 107 72 108 75 109
REMARK SMILES IDX 73 110
REMARK H PARENT 9 23 97 63 65 74
REMARK Flexibility Score: inf
ROOT
ATOM      1  C   UNL A   1      33.920  21.028  26.891  1.00  0.00     0.261 C 
ENDROOT
BRANCH   1   2
ATOM      2  O   UNL A   1      34.145  20.505  25.565  1.00  0.00    -0.463 OA
BRANCH   2   3
ATOM      3  C   UNL A   1      33.200  19.660  25.089  1.00  0.00     0.313 C 
ATOM      4  O   UNL A   1      33.137  18.473  25.404  1.00  0.00    -0.252 OA
BRANCH   3   5
ATOM      5  C   UNL A   1      32.208  20.254  24.091  1.00  0.00     0.126 C 
ATOM      6  C   UNL A   1      32.392  19.549  22.751  1.00  0.00     0.025 C 
BRANCH   5   7
ATOM      7  C   UNL A   1      32.069  21.765  23.901  1.00  0.00    -0.031 A 
ATOM      8  C   UNL A   1      31.904  24.598  23.435  1.00  0.00     0.018 A 
ATOM      9  C   UNL A   1      31.283  23.990  24.542  1.00  0.00     0.012 A 
ATOM     10  C   UNL A   1      32.595  23.749  22.562  1.00  0.00     0.131 A 
ATOM     11  C   UNL A   1      31.364  22.601  24.776  1.00  0.00     0.005 A 
ATOM     12  C   UNL A   1      32.691  22.372  22.791  1.00  0.00     0.044 A 
ATOM     13  F   UNL A   1      33.212  24.249  21.478  1.00  0.00    -0.206 F 
BRANCH   8  14
ATOM     14  C   UNL A   1      31.895  26.064  23.245  1.00  0.00    -0.012 A 
ATOM     15  C   UNL A   1      30.801  28.148  22.622  1.00  0.00     0.133 A 
ATOM     16  C   UNL A   1      31.998  28.850  22.744  1.00  0.00     0.047 A 
ATOM     17  C   UNL A   1      30.737  26.770  22.863  1.00  0.00     0.056 A 
ATOM     18  C   UNL A   1      33.148  28.170  23.129  1.00  0.00     0.004 A 
ATOM     19  C   UNL A   1      33.094  26.795  23.375  1.00  0.00     0.009 A 
BRANCH  15  20
ATOM     20  O   UNL A   1      29.717  28.873  22.093  1.00  0.00    -0.410 OA
BRANCH  20  21
ATOM     21  C   UNL A   1      28.534  28.972  22.808  1.00  0.00     0.412 C 
ATOM     22  N   UNL A   1      28.188  30.268  23.089  1.00  0.00    -0.321 N 
ATOM     23  H   UNL A   1      27.350  30.402  23.587  1.00  0.00     0.167 HD
ATOM     24  O   UNL A   1      27.843  28.034  23.190  1.00  0.00    -0.224 OA
BRANCH  22  25
ATOM     25  C   UNL A   1      28.928  31.463  22.727  1.00  0.00     0.119 C 
BRANCH  25  26
ATOM     26  C   UNL A   1      29.548  32.148  23.945  1.00  0.00     0.021 C 
BRANCH  26  27
ATOM     27  C   UNL A   1      30.127  31.192  24.996  1.00  0.00     0.002 C 
BRANCH  27  28
ATOM     28  C   UNL A   1      30.942  31.860  26.110  1.00  0.00     0.000 C 
BRANCH  28  29
ATOM     29  C   UNL A   1      32.128  31.040  26.626  1.00  0.00    -0.000 C 
BRANCH  29  30
ATOM     30  C   UNL A   1      32.137  29.568  26.198  1.00  0.00    -0.000 C 
BRANCH  30  31
ATOM     31  C   UNL A   1      31.689  28.571  27.271  1.00  0.00    -0.003 C 
ATOM     32  C   UNL A   1      31.264  27.225  26.704  1.00  0.00     0.004 C 
ENDBRANCH  30  31
ENDBRANCH  29  30
ENDBRANCH  28  29
ENDBRANCH  27  28
ENDBRANCH  26  27
ENDBRANCH  25  26
ENDBRANCH  22  25
ENDBRANCH  20  21
ENDBRANCH  15  20
ENDBRANCH   8  14
ENDBRANCH   5   7
ENDBRANCH   3   5
ENDBRANCH   2   3
ENDBRANCH   1   2
BRANCH   1  33
ATOM     33  C   UNL A   1      34.140  22.539  27.094  1.00  0.00     0.202 C 
BRANCH  33  34
ATOM     34  O   UNL A   1      34.890  23.306  26.165  1.00  0.00    -0.376 OA
BRANCH  34  35
ATOM     35  C   UNL A   1      36.311  23.320  26.211  1.00  0.00     0.188 C 
BRANCH  35  36
ATOM     36  C   UNL A   1      37.137  22.322  25.388  1.00  0.00     0.188 C 
BRANCH  36  37
ATOM     37  O   UNL A   1      38.536  22.409  25.563  1.00  0.00    -0.377 OA
BRANCH  37  38
ATOM     38  C   UNL A   1      39.178  21.274  26.122  1.00  0.00     0.188 C 
BRANCH  38  39
ATOM     39  C   UNL A   1      39.065  19.948  25.348  1.00  0.00     0.188 C 
BRANCH  39  40
ATOM     40  O   UNL A   1      40.098  19.016  25.648  1.00  0.00    -0.376 OA
BRANCH  40  41
ATOM     41  C   UNL A   1      41.228  19.472  26.382  1.00  0.00     0.202 C 
BRANCH  41  42
ATOM     42  C   UNL A   1      42.411  20.064  25.595  1.00  0.00     0.261 C 
BRANCH  42  43
ATOM     43  O   UNL A   1      43.533  19.196  25.374  1.00  0.00    -0.460 OA
BRANCH  43  44
ATOM     44  C   UNL A   1      44.500  19.595  24.520  1.00  0.00     0.338 C 
ATOM     45  O   UNL A   1      44.903  19.016  23.536  1.00  0.00    -0.246 OA
BRANCH  44  46
ATOM     46  C   UNL A   1      44.832  20.999  24.862  1.00  0.00     0.060 A 
ATOM     47  C   UNL A   1      45.283  21.286  26.156  1.00  0.00     0.016 A 
ATOM     48  C   UNL A   1      44.716  22.019  23.914  1.00  0.00     0.016 A 
ATOM     49  C   UNL A   1      45.594  22.598  26.518  1.00  0.00     0.010 A 
ATOM     50  C   UNL A   1      45.000  23.338  24.286  1.00  0.00     0.010 A 
ATOM     51  C   UNL A   1      45.414  23.638  25.597  1.00  0.00    -0.014 A 
BRANCH  51  52
ATOM     52  C   UNL A   1      45.492  25.049  26.053  1.00  0.00     0.031 A 
ATOM     53  C   UNL A   1      46.823  25.749  25.998  1.00  0.00     0.074 A 
ATOM     54  C   UNL A   1      44.404  25.710  26.484  1.00  0.00     0.049 A 
ATOM     55  N   UNL A   1      47.148  26.954  26.389  1.00  0.00    -0.248 NA
ATOM     56  C   UNL A   1      47.938  24.981  25.421  1.00  0.00     0.031 C 
ATOM     57  C   UNL A   1      43.049  25.164  26.536  1.00  0.00     0.029 A 
ATOM     58  N   UNL A   1      44.272  26.987  26.972  1.00  0.00    -0.354 N 
ATOM     59  C   UNL A   1      48.503  27.087  26.112  1.00  0.00     0.074 A 
ATOM     60  C   UNL A   1      48.945  25.830  25.547  1.00  0.00     0.031 C 
ATOM     61  C   UNL A   1      42.224  26.096  27.045  1.00  0.00     0.029 A 
ATOM     62  C   UNL A   1      42.998  27.289  27.388  1.00  0.00     0.049 A 
ATOM     63  H   UNL A   1      45.019  27.627  27.019  1.00  0.00     0.167 HD
ATOM     64  C   UNL A   1      49.304  28.162  26.307  1.00  0.00     0.037 A 
ATOM     65  C   UNL A   1      42.522  28.391  28.002  1.00  0.00     0.037 A 
ATOM     66  C   UNL A   1      48.865  29.408  26.877  1.00  0.00     0.049 A 
ATOM     67  C   UNL A   1      43.455  29.540  28.294  1.00  0.00     0.074 A 
ATOM     68  C   UNL A   1      49.597  30.560  27.100  1.00  0.00     0.029 A 
ATOM     69  N   UNL A   1      47.576  29.661  27.327  1.00  0.00    -0.354 N 
ATOM     70  N   UNL A   1      44.729  29.669  28.009  1.00  0.00    -0.248 NA
ATOM     71  C   UNL A   1      42.882  30.699  28.994  1.00  0.00     0.031 C 
ATOM     72  C   UNL A   1      48.771  31.487  27.745  1.00  0.00     0.029 A 
ATOM     73  C   UNL A   1      47.503  30.938  27.859  1.00  0.00     0.049 A 
ATOM     74  H   UNL A   1      46.825  29.026  27.275  1.00  0.00     0.167 HD
ATOM     75  C   UNL A   1      45.099  30.928  28.464  1.00  0.00     0.074 A 
ATOM     76  C   UNL A   1      43.912  31.533  29.030  1.00  0.00     0.031 C 
ATOM     77  C   UNL A   1      46.313  31.532  28.416  1.00  0.00     0.037 A 
BRANCH  64  78
ATOM     78  C   UNL A   1      50.752  28.024  25.932  1.00  0.00     0.064 A 
ATOM     79  C   UNL A   1      51.194  28.176  24.609  1.00  0.00     0.173 A 
ATOM     80  C   UNL A   1      51.717  27.772  26.920  1.00  0.00     0.173 A 
ATOM     81  F   UNL A   1      50.312  28.404  23.625  1.00  0.00    -0.203 F 
ATOM     82  C   UNL A   1      52.543  28.053  24.286  1.00  0.00     0.198 A 
ATOM     83  C   UNL A   1      53.069  27.682  26.598  1.00  0.00     0.198 A 
ATOM     84  F   UNL A   1      51.350  27.623  28.202  1.00  0.00    -0.203 F 
ATOM     85  F   UNL A   1      52.936  28.152  23.008  1.00  0.00    -0.200 F 
ATOM     86  C   UNL A   1      53.479  27.815  25.280  1.00  0.00     0.200 A 
ATOM     87  F   UNL A   1      53.973  27.467  27.563  1.00  0.00    -0.200 F 
ATOM     88  F   UNL A   1      54.778  27.706  24.969  1.00  0.00    -0.200 F 
ENDBRANCH  64  78
BRANCH  65  89
ATOM     89  C   UNL A   1      41.092  28.458  28.411  1.00  0.00     0.064 A 
ATOM     90  C   UNL A   1      40.110  28.949  27.538  1.00  0.00     0.173 A 
ATOM     91  C   UNL A   1      40.683  28.066  29.694  1.00  0.00     0.173 A 
ATOM     92  F   UNL A   1      40.453  29.365  26.309  1.00  0.00    -0.203 F 
ATOM     93  C   UNL A   1      38.781  29.064  27.940  1.00  0.00     0.198 A 
ATOM     94  C   UNL A   1      39.348  28.151  30.084  1.00  0.00     0.198 A 
ATOM     95  F   UNL A   1      41.582  27.597  30.572  1.00  0.00    -0.203 F 
ATOM     96  F   UNL A   1      37.873  29.588  27.105  1.00  0.00    -0.200 F 
ATOM     97  C   UNL A   1      38.399  28.659  29.210  1.00  0.00     0.200 A 
ATOM     98  F   UNL A   1      38.983  27.747  31.308  1.00  0.00    -0.200 F 
ATOM     99  F   UNL A   1      37.121  28.767  29.596  1.00  0.00    -0.200 F 
ENDBRANCH  65  89
BRANCH  77 100
ATOM    100  C   UNL A   1      46.416  32.932  28.955  1.00  0.00     0.064 A 
ATOM    101  C   UNL A   1      46.166  34.055  28.154  1.00  0.00     0.173 A 
ATOM    102  C   UNL A   1      46.729  33.150  30.307  1.00  0.00     0.173 A 
ATOM    103  F   UNL A   1      45.875  33.905  26.853  1.00  0.00    -0.203 F 
ATOM    104  C   UNL A   1      46.256  35.344  28.676  1.00  0.00     0.198 A 
ATOM    105  C   UNL A   1      46.781  34.438  30.835  1.00  0.00     0.198 A 
ATOM    106  F   UNL A   1      46.968  32.112  31.123  1.00  0.00    -0.203 F 
ATOM    107  F   UNL A   1      46.066  36.403  27.878  1.00  0.00    -0.200 F 
ATOM    108  C   UNL A   1      46.555  35.534  30.017  1.00  0.00     0.200 A 
ATOM    109  F   UNL A   1      47.053  34.617  32.135  1.00  0.00    -0.200 F 
ATOM    110  F   UNL A   1      46.632  36.774  30.519  1.00  0.00    -0.200 F 
ENDBRANCH  77 100
ENDBRANCH  51  52
ENDBRANCH  44  46
ENDBRANCH  43  44
ENDBRANCH  42  43
ENDBRANCH  41  42
ENDBRANCH  40  41
ENDBRANCH  39  40
ENDBRANCH  38  39
ENDBRANCH  37  38
ENDBRANCH  36  37
ENDBRANCH  35  36
ENDBRANCH  34  35
ENDBRANCH  33  34
ENDBRANCH   1  33
TORSDOF 31
ENDMDL
MODEL 2
REMARK VINA RESULT:      -8.8      6.498      9.148
REMARK SMILES CCCCCCCCNC(=O)Oc1cccc(-c2ccc([C@@H](C)C(=O)OCCOCCOCCOCCOC(=O)c3ccc(-c4c5nc(c(-c6c(F)c(F)c(F)c(F)c6F)c6ccc([nH]6)c(-c6c(F)c(F)c(F)c(F)c6F)c6nc(c(-c7c(F)c(F)c(F)c(F)c7F)c7ccc4[nH]7)C=C6)C=C5)cc3)cc2F)c1
REMARK SMILES IDX 27 1 26 2 24 3 25 4 22 5 23 6 21 7 18 8 19 9 105 10 20 11
REMARK SMILES IDX 104 12 106 13 17 14 13 15 14 16 107 17 15 18 16 19 12 20
REMARK SMILES IDX 10 21 9 22 11 24 8 25 7 26 6 27 5 28 4 29 3 30 2 31 1 32
REMARK SMILES IDX 28 33 29 34 30 35 31 36 32 37 33 38 34 39 35 40 36 41 37 42
REMARK SMILES IDX 38 43 39 44 40 45 41 46 42 47 103 48 43 49 102 50 44 51
REMARK SMILES IDX 45 52 46 53 96 54 47 55 101 56 95 57 97 58 48 59 100 60
REMARK SMILES IDX 94 61 93 62 49 64 81 65 61 66 80 67 62 68 65 69 79 70 98 71
REMARK SMILES IDX 63 72 64 73 78 75 99 76 66 77 50 78 51 79 59 80 52 81 53 82
REMARK SMILES IDX 57 83 60 84 54 85 55 86 58 87 56 88 82 89 83 90 91 91 84 92
REMARK SMILES IDX 85 93 89 94 92 95 86 96 87 97 90 98 88 99 67 100 68 101
REMARK SMILES IDX 76 102 69 103 70 104 74 105 77 106 71 107 72 108 75 109
REMARK SMILES IDX 73 110
REMARK H PARENT 9 23 97 63 65 74
REMARK Flexibility Score: inf
ROOT
ATOM      1  C   UNL A   1      40.809  20.633  26.817  1.00  0.00     0.261 C 
ENDROOT
BRANCH   1   2
ATOM      2  O   UNL A   1      40.256  21.445  25.760  1.00  0.00    -0.463 OA
BRANCH   2   3
ATOM      3  C   UNL A   1      39.171  22.188  26.084  1.00  0.00     0.313 C 
ATOM      4  O   UNL A   1      39.245  23.276  26.653  1.00  0.00    -0.252 OA
BRANCH   3   5
ATOM      5  C   UNL A   1      37.813  21.586  25.731  1.00  0.00     0.126 C 
ATOM      6  C   UNL A   1      38.044  20.329  24.898  1.00  0.00     0.025 C 
BRANCH   5   7
ATOM      7  C   UNL A   1      36.688  22.436  25.140  1.00  0.00    -0.031 A 
ATOM      8  C   UNL A   1      34.522  24.057  24.164  1.00  0.00     0.018 A 
ATOM      9  C   UNL A   1      35.365  23.341  23.293  1.00  0.00     0.012 A 
ATOM     10  C   UNL A   1      34.802  23.952  25.531  1.00  0.00     0.131 A 
ATOM     11  C   UNL A   1      36.426  22.542  23.768  1.00  0.00     0.005 A 
ATOM     12  C   UNL A   1      35.845  23.154  26.013  1.00  0.00     0.044 A 
ATOM     13  F   UNL A   1      34.048  24.608  26.429  1.00  0.00    -0.206 F 
BRANCH   8  14
ATOM     14  C   UNL A   1      33.354  24.817  23.667  1.00  0.00    -0.012 A 
ATOM     15  C   UNL A   1      32.268  26.881  22.971  1.00  0.00     0.133 A 
ATOM     16  C   UNL A   1      31.035  26.237  22.878  1.00  0.00     0.047 A 
ATOM     17  C   UNL A   1      33.421  26.191  23.365  1.00  0.00     0.056 A 
ATOM     18  C   UNL A   1      30.955  24.879  23.164  1.00  0.00     0.004 A 
ATOM     19  C   UNL A   1      32.101  24.181  23.554  1.00  0.00     0.009 A 
BRANCH  15  20
ATOM     20  O   UNL A   1      32.242  28.278  22.806  1.00  0.00    -0.410 OA
BRANCH  20  21
ATOM     21  C   UNL A   1      31.032  28.953  22.798  1.00  0.00     0.412 C 
ATOM     22  N   UNL A   1      30.825  29.689  23.935  1.00  0.00    -0.321 N 
ATOM     23  H   UNL A   1      29.985  30.200  23.982  1.00  0.00     0.167 HD
ATOM     24  O   UNL A   1      30.192  28.915  21.906  1.00  0.00    -0.224 OA
BRANCH  22  25
ATOM     25  C   UNL A   1      31.717  29.797  25.075  1.00  0.00     0.119 C 
BRANCH  25  26
ATOM     26  C   UNL A   1      31.661  28.557  25.969  1.00  0.00     0.021 C 
BRANCH  26  27
ATOM     27  C   UNL A   1      32.536  28.631  27.227  1.00  0.00     0.002 C 
BRANCH  27  28
ATOM     28  C   UNL A   1      34.003  29.004  26.982  1.00  0.00     0.000 C 
BRANCH  28  29
ATOM     29  C   UNL A   1      34.413  30.390  27.489  1.00  0.00    -0.000 C 
BRANCH  29  30
ATOM     30  C   UNL A   1      35.655  30.415  28.386  1.00  0.00    -0.000 C 
BRANCH  30  31
ATOM     31  C   UNL A   1      36.624  29.245  28.194  1.00  0.00    -0.003 C 
ATOM     32  C   UNL A   1      37.916  29.395  28.984  1.00  0.00     0.004 C 
ENDBRANCH  30  31
ENDBRANCH  29  30
ENDBRANCH  28  29
ENDBRANCH  27  28
ENDBRANCH  26  27
ENDBRANCH  25  26
ENDBRANCH  22  25
ENDBRANCH  20  21
ENDBRANCH  15  20
ENDBRANCH   8  14
ENDBRANCH   5   7
ENDBRANCH   3   5
ENDBRANCH   2   3
ENDBRANCH   1   2
BRANCH   1  33
ATOM     33  C   UNL A   1      41.772  19.504  26.401  1.00  0.00     0.202 C 
BRANCH  33  34
ATOM     34  O   UNL A   1      43.157  19.750  26.211  1.00  0.00    -0.376 OA
BRANCH  34  35
ATOM     35  C   UNL A   1      43.849  19.198  25.099  1.00  0.00     0.188 C 
BRANCH  35  36
ATOM     36  C   UNL A   1      44.964  19.983  24.393  1.00  0.00     0.188 C 
BRANCH  36  37
ATOM     37  O   UNL A   1      44.543  21.150  23.717  1.00  0.00    -0.377 OA
BRANCH  37  38
ATOM     38  C   UNL A   1      44.689  22.376  24.415  1.00  0.00     0.188 C 
BRANCH  38  39
ATOM     39  C   UNL A   1      43.400  23.120  24.811  1.00  0.00     0.188 C 
BRANCH  39  40
ATOM     40  O   UNL A   1      43.559  24.529  24.921  1.00  0.00    -0.376 OA
BRANCH  40  41
ATOM     41  C   UNL A   1      42.924  25.200  26.002  1.00  0.00     0.202 C 
BRANCH  41  42
ATOM     42  C   UNL A   1      41.901  26.301  25.669  1.00  0.00     0.261 C 
BRANCH  42  43
ATOM     43  O   UNL A   1      42.287  27.650  25.975  1.00  0.00    -0.460 OA
BRANCH  43  44
ATOM     44  C   UNL A   1      41.519  28.365  26.824  1.00  0.00     0.338 C 
ATOM     45  O   UNL A   1      40.450  28.884  26.597  1.00  0.00    -0.246 OA
BRANCH  44  46
ATOM     46  C   UNL A   1      42.105  28.209  28.178  1.00  0.00     0.060 A 
ATOM     47  C   UNL A   1      41.249  27.934  29.252  1.00  0.00     0.016 A 
ATOM     48  C   UNL A   1      43.482  28.317  28.385  1.00  0.00     0.016 A 
ATOM     49  C   UNL A   1      41.763  27.793  30.542  1.00  0.00     0.010 A 
ATOM     50  C   UNL A   1      43.993  28.203  29.682  1.00  0.00     0.010 A 
ATOM     51  C   UNL A   1      43.134  27.968  30.772  1.00  0.00    -0.014 A 
BRANCH  51  52
ATOM     52  C   UNL A   1      43.641  28.077  32.163  1.00  0.00     0.031 A 
ATOM     53  C   UNL A   1      44.263  26.863  32.798  1.00  0.00     0.074 A 
ATOM     54  C   UNL A   1      43.578  29.233  32.845  1.00  0.00     0.049 A 
ATOM     55  N   UNL A   1      44.725  26.700  34.011  1.00  0.00    -0.248 NA
ATOM     56  C   UNL A   1      44.378  25.670  31.944  1.00  0.00     0.031 C 
ATOM     57  C   UNL A   1      43.049  30.493  32.327  1.00  0.00     0.029 A 
ATOM     58  N   UNL A   1      43.955  29.530  34.133  1.00  0.00    -0.354 N 
ATOM     59  C   UNL A   1      45.179  25.388  34.068  1.00  0.00     0.074 A 
ATOM     60  C   UNL A   1      44.911  24.790  32.778  1.00  0.00     0.031 C 
ATOM     61  C   UNL A   1      43.121  31.425  33.294  1.00  0.00     0.029 A 
ATOM     62  C   UNL A   1      43.665  30.818  34.509  1.00  0.00     0.049 A 
ATOM     63  H   UNL A   1      44.392  28.880  34.730  1.00  0.00     0.167 HD
ATOM     64  C   UNL A   1      45.770  24.743  35.102  1.00  0.00     0.037 A 
ATOM     65  C   UNL A   1      43.796  31.426  35.705  1.00  0.00     0.037 A 
ATOM     66  C   UNL A   1      46.028  25.337  36.387  1.00  0.00     0.049 A 
ATOM     67  C   UNL A   1      44.371  30.657  36.869  1.00  0.00     0.074 A 
ATOM     68  C   UNL A   1      46.637  24.769  37.493  1.00  0.00     0.029 A 
ATOM     69  N   UNL A   1      45.680  26.631  36.744  1.00  0.00    -0.354 N 
ATOM     70  N   UNL A   1      44.821  29.426  36.910  1.00  0.00    -0.248 NA
ATOM     71  C   UNL A   1      44.459  31.366  38.155  1.00  0.00     0.031 C 
ATOM     72  C   UNL A   1      46.597  25.697  38.539  1.00  0.00     0.029 A 
ATOM     73  C   UNL A   1      46.028  26.868  38.064  1.00  0.00     0.049 A 
ATOM     74  H   UNL A   1      45.249  27.286  36.147  1.00  0.00     0.167 HD
ATOM     75  C   UNL A   1      45.271  29.224  38.209  1.00  0.00     0.074 A 
ATOM     76  C   UNL A   1      45.055  30.465  38.923  1.00  0.00     0.031 C 
ATOM     77  C   UNL A   1      45.814  28.111  38.763  1.00  0.00     0.037 A 
BRANCH  64  78
ATOM     78  C   UNL A   1      46.148  23.304  34.896  1.00  0.00     0.064 A 
ATOM     79  C   UNL A   1      47.476  22.910  34.672  1.00  0.00     0.173 A 
ATOM     80  C   UNL A   1      45.169  22.300  34.959  1.00  0.00     0.173 A 
ATOM     81  F   UNL A   1      48.448  23.830  34.589  1.00  0.00    -0.203 F 
ATOM     82  C   UNL A   1      47.805  21.569  34.493  1.00  0.00     0.198 A 
ATOM     83  C   UNL A   1      45.506  20.957  34.811  1.00  0.00     0.198 A 
ATOM     84  F   UNL A   1      43.884  22.621  35.174  1.00  0.00    -0.203 F 
ATOM     85  F   UNL A   1      49.072  21.220  34.231  1.00  0.00    -0.200 F 
ATOM     86  C   UNL A   1      46.822  20.594  34.571  1.00  0.00     0.200 A 
ATOM     87  F   UNL A   1      44.557  20.016  34.902  1.00  0.00    -0.200 F 
ATOM     88  F   UNL A   1      47.141  19.303  34.408  1.00  0.00    -0.200 F 
ENDBRANCH  64  78
BRANCH  65  89
ATOM     89  C   UNL A   1      43.351  32.836  35.879  1.00  0.00     0.064 A 
ATOM     90  C   UNL A   1      42.030  33.142  36.235  1.00  0.00     0.173 A 
ATOM     91  C   UNL A   1      44.229  33.908  35.659  1.00  0.00     0.173 A 
ATOM     92  F   UNL A   1      41.142  32.155  36.427  1.00  0.00    -0.203 F 
ATOM     93  C   UNL A   1      41.600  34.464  36.343  1.00  0.00     0.198 A 
ATOM     94  C   UNL A   1      43.807  35.228  35.799  1.00  0.00     0.198 A 
ATOM     95  F   UNL A   1      45.502  33.673  35.309  1.00  0.00    -0.203 F 
ATOM     96  F   UNL A   1      40.317  34.727  36.630  1.00  0.00    -0.200 F 
ATOM     97  C   UNL A   1      42.490  35.505  36.131  1.00  0.00     0.200 A 
ATOM     98  F   UNL A   1      44.674  36.231  35.605  1.00  0.00    -0.200 F 
ATOM     99  F   UNL A   1      42.077  36.775  36.237  1.00  0.00    -0.200 F 
ENDBRANCH  65  89
BRANCH  77 100
ATOM    100  C   UNL A   1      46.252  28.191  40.199  1.00  0.00     0.064 A 
ATOM    101  C   UNL A   1      47.500  28.716  40.566  1.00  0.00     0.173 A 
ATOM    102  C   UNL A   1      45.391  27.775  41.227  1.00  0.00     0.173 A 
ATOM    103  F   UNL A   1      48.367  29.117  39.624  1.00  0.00    -0.203 F 
ATOM    104  C   UNL A   1      47.882  28.791  41.904  1.00  0.00     0.198 A 
ATOM    105  C   UNL A   1      45.761  27.886  42.566  1.00  0.00     0.198 A 
ATOM    106  F   UNL A   1      44.181  27.275  40.936  1.00  0.00    -0.203 F 
ATOM    107  F   UNL A   1      49.101  29.245  42.226  1.00  0.00    -0.200 F 
ATOM    108  C   UNL A   1      47.010  28.385  42.902  1.00  0.00     0.200 A 
ATOM    109  F   UNL A   1      44.909  27.509  43.529  1.00  0.00    -0.200 F 
ATOM    110  F   UNL A   1      47.376  28.466  44.189  1.00  0.00    -0.200 F 
ENDBRANCH  77 100
ENDBRANCH  51  52
ENDBRANCH  44  46
ENDBRANCH  43  44
ENDBRANCH  42  43
ENDBRANCH  41  42
ENDBRANCH  40  41
ENDBRANCH  39  40
ENDBRANCH  38  39
ENDBRANCH  37  38
ENDBRANCH  36  37
ENDBRANCH  35  36
ENDBRANCH  34  35
ENDBRANCH  33  34
ENDBRANCH   1  33
TORSDOF 31
ENDMDL
MODEL 3
REMARK VINA RESULT:      -8.3      3.430      8.668
REMARK SMILES CCCCCCCCNC(=O)Oc1cccc(-c2ccc([C@@H](C)C(=O)OCCOCCOCCOCCOC(=O)c3ccc(-c4c5nc(c(-c6c(F)c(F)c(F)c(F)c6F)c6ccc([nH]6)c(-c6c(F)c(F)c(F)c(F)c6F)c6nc(c(-c7c(F)c(F)c(F)c(F)c7F)c7ccc4[nH]7)C=C6)C=C5)cc3)cc2F)c1
REMARK SMILES IDX 27 1 26 2 24 3 25 4 22 5 23 6 21 7 18 8 19 9 105 10 20 11
REMARK SMILES IDX 104 12 106 13 17 14 13 15 14 16 107 17 15 18 16 19 12 20
REMARK SMILES IDX 10 21 9 22 11 24 8 25 7 26 6 27 5 28 4 29 3 30 2 31 1 32
REMARK SMILES IDX 28 33 29 34 30 35 31 36 32 37 33 38 34 39 35 40 36 41 37 42
REMARK SMILES IDX 38 43 39 44 40 45 41 46 42 47 103 48 43 49 102 50 44 51
REMARK SMILES IDX 45 52 46 53 96 54 47 55 101 56 95 57 97 58 48 59 100 60
REMARK SMILES IDX 94 61 93 62 49 64 81 65 61 66 80 67 62 68 65 69 79 70 98 71
REMARK SMILES IDX 63 72 64 73 78 75 99 76 66 77 50 78 51 79 59 80 52 81 53 82
REMARK SMILES IDX 57 83 60 84 54 85 55 86 58 87 56 88 82 89 83 90 91 91 84 92
REMARK SMILES IDX 85 93 89 94 92 95 86 96 87 97 90 98 88 99 67 100 68 101
REMARK SMILES IDX 76 102 69 103 70 104 74 105 77 106 71 107 72 108 75 109
REMARK SMILES IDX 73 110
REMARK H PARENT 9 23 97 63 65 74
REMARK Flexibility Score: inf
ROOT
ATOM      1  C   UNL A   1      33.937  22.346  23.964  1.00  0.00     0.261 C 
ENDROOT
BRANCH   1   2
ATOM      2  O   UNL A   1      32.565  22.750  24.153  1.00  0.00    -0.463 OA
BRANCH   2   3
ATOM      3  C   UNL A   1      32.216  23.945  23.621  1.00  0.00     0.313 C 
ATOM      4  O   UNL A   1      32.480  24.271  22.465  1.00  0.00    -0.252 OA
BRANCH   3   5
ATOM      5  C   UNL A   1      31.488  24.910  24.555  1.00  0.00     0.126 C 
ATOM      6  C   UNL A   1      30.226  25.400  23.853  1.00  0.00     0.025 C 
BRANCH   5   7
ATOM      7  C   UNL A   1      32.218  26.066  25.240  1.00  0.00    -0.031 A 
ATOM      8  C   UNL A   1      33.469  28.268  26.603  1.00  0.00     0.018 A 
ATOM      9  C   UNL A   1      34.098  27.604  25.534  1.00  0.00     0.012 A 
ATOM     10  C   UNL A   1      32.207  27.793  26.981  1.00  0.00     0.131 A 
ATOM     11  C   UNL A   1      33.486  26.525  24.861  1.00  0.00     0.005 A 
ATOM     12  C   UNL A   1      31.588  26.731  26.312  1.00  0.00     0.044 A 
ATOM     13  F   UNL A   1      31.541  28.368  27.995  1.00  0.00    -0.206 F 
BRANCH   8  14
ATOM     14  C   UNL A   1      34.072  29.457  27.244  1.00  0.00    -0.012 A 
ATOM     15  C   UNL A   1      35.730  30.524  28.672  1.00  0.00     0.133 A 
ATOM     16  C   UNL A   1      35.073  31.749  28.572  1.00  0.00     0.047 A 
ATOM     17  C   UNL A   1      35.242  29.382  28.025  1.00  0.00     0.056 A 
ATOM     18  C   UNL A   1      33.923  31.842  27.798  1.00  0.00     0.004 A 
ATOM     19  C   UNL A   1      33.430  30.709  27.145  1.00  0.00     0.009 A 
BRANCH  15  20
ATOM     20  O   UNL A   1      36.801  30.476  29.584  1.00  0.00    -0.410 OA
BRANCH  20  21
ATOM     21  C   UNL A   1      36.694  31.110  30.812  1.00  0.00     0.412 C 
ATOM     22  N   UNL A   1      37.839  31.772  31.171  1.00  0.00    -0.321 N 
ATOM     23  H   UNL A   1      37.819  32.251  32.030  1.00  0.00     0.167 HD
ATOM     24  O   UNL A   1      35.713  31.097  31.545  1.00  0.00    -0.224 OA
BRANCH  22  25
ATOM     25  C   UNL A   1      39.077  31.841  30.416  1.00  0.00     0.119 C 
BRANCH  25  26
ATOM     26  C   UNL A   1      40.303  31.592  31.295  1.00  0.00     0.021 C 
BRANCH  26  27
ATOM     27  C   UNL A   1      41.498  30.961  30.569  1.00  0.00     0.002 C 
BRANCH  27  28
ATOM     28  C   UNL A   1      41.162  30.250  29.252  1.00  0.00     0.000 C 
BRANCH  28  29
ATOM     29  C   UNL A   1      41.268  28.722  29.296  1.00  0.00    -0.000 C 
BRANCH  29  30
ATOM     30  C   UNL A   1      40.945  28.010  27.978  1.00  0.00    -0.000 C 
BRANCH  30  31
ATOM     31  C   UNL A   1      39.598  27.280  27.942  1.00  0.00    -0.003 C 
ATOM     32  C   UNL A   1      39.318  26.467  29.197  1.00  0.00     0.004 C 
ENDBRANCH  30  31
ENDBRANCH  29  30
ENDBRANCH  28  29
ENDBRANCH  27  28
ENDBRANCH  26  27
ENDBRANCH  25  26
ENDBRANCH  22  25
ENDBRANCH  20  21
ENDBRANCH  15  20
ENDBRANCH   8  14
ENDBRANCH   5   7
ENDBRANCH   3   5
ENDBRANCH   2   3
ENDBRANCH   1   2
BRANCH   1  33
ATOM     33  C   UNL A   1      34.397  21.068  24.692  1.00  0.00     0.202 C 
BRANCH  33  34
ATOM     34  O   UNL A   1      35.372  21.117  25.721  1.00  0.00    -0.376 OA
BRANCH  34  35
ATOM     35  C   UNL A   1      36.705  21.527  25.443  1.00  0.00     0.188 C 
BRANCH  35  36
ATOM     36  C   UNL A   1      37.669  20.611  24.676  1.00  0.00     0.188 C 
BRANCH  36  37
ATOM     37  O   UNL A   1      38.717  20.060  25.446  1.00  0.00    -0.377 OA
BRANCH  37  38
ATOM     38  C   UNL A   1      39.737  20.952  25.861  1.00  0.00     0.188 C 
BRANCH  38  39
ATOM     39  C   UNL A   1      40.399  20.682  27.225  1.00  0.00     0.188 C 
BRANCH  39  40
ATOM     40  O   UNL A   1      41.784  20.366  27.141  1.00  0.00    -0.376 OA
BRANCH  40  41
ATOM     41  C   UNL A   1      42.489  20.724  25.959  1.00  0.00     0.202 C 
BRANCH  41  42
ATOM     42  C   UNL A   1      43.073  22.145  25.868  1.00  0.00     0.261 C 
BRANCH  42  43
ATOM     43  O   UNL A   1      43.158  22.885  27.096  1.00  0.00    -0.460 OA
BRANCH  43  44
ATOM     44  C   UNL A   1      42.357  23.959  27.260  1.00  0.00     0.338 C 
ATOM     45  O   UNL A   1      41.185  23.970  27.565  1.00  0.00    -0.246 OA
BRANCH  44  46
ATOM     46  C   UNL A   1      43.227  25.160  27.232  1.00  0.00     0.060 A 
ATOM     47  C   UNL A   1      43.600  25.690  25.991  1.00  0.00     0.016 A 
ATOM     48  C   UNL A   1      43.656  25.766  28.415  1.00  0.00     0.016 A 
ATOM     49  C   UNL A   1      44.428  26.812  25.926  1.00  0.00     0.010 A 
ATOM     50  C   UNL A   1      44.509  26.874  28.349  1.00  0.00     0.010 A 
ATOM     51  C   UNL A   1      44.922  27.386  27.105  1.00  0.00    -0.014 A 
BRANCH  51  52
ATOM     52  C   UNL A   1      45.999  28.406  27.034  1.00  0.00     0.031 A 
ATOM     53  C   UNL A   1      45.633  29.851  27.232  1.00  0.00     0.074 A 
ATOM     54  C   UNL A   1      47.281  28.060  26.824  1.00  0.00     0.049 A 
ATOM     55  N   UNL A   1      46.386  30.919  27.162  1.00  0.00    -0.248 NA
ATOM     56  C   UNL A   1      44.224  30.127  27.552  1.00  0.00     0.031 C 
ATOM     57  C   UNL A   1      47.773  26.693  26.670  1.00  0.00     0.029 A 
ATOM     58  N   UNL A   1      48.404  28.840  26.693  1.00  0.00    -0.354 N 
ATOM     59  C   UNL A   1      45.543  31.992  27.423  1.00  0.00     0.074 A 
ATOM     60  C   UNL A   1      44.216  31.449  27.624  1.00  0.00     0.031 C 
ATOM     61  C   UNL A   1      49.099  26.731  26.450  1.00  0.00     0.029 A 
ATOM     62  C   UNL A   1      49.542  28.125  26.410  1.00  0.00     0.049 A 
ATOM     63  H   UNL A   1      48.395  29.820  26.795  1.00  0.00     0.167 HD
ATOM     64  C   UNL A   1      45.848  33.310  27.495  1.00  0.00     0.037 A 
ATOM     65  C   UNL A   1      50.788  28.551  26.122  1.00  0.00     0.037 A 
ATOM     66  C   UNL A   1      47.167  33.848  27.286  1.00  0.00     0.049 A 
ATOM     67  C   UNL A   1      51.083  30.030  26.115  1.00  0.00     0.074 A 
ATOM     68  C   UNL A   1      47.580  35.167  27.352  1.00  0.00     0.029 A 
ATOM     69  N   UNL A   1      48.285  33.096  26.957  1.00  0.00    -0.354 N 
ATOM     70  N   UNL A   1      50.288  31.038  26.386  1.00  0.00    -0.248 NA
ATOM     71  C   UNL A   1      52.453  30.432  25.763  1.00  0.00     0.031 C 
ATOM     72  C   UNL A   1      48.932  35.221  26.999  1.00  0.00     0.029 A 
ATOM     73  C   UNL A   1      49.380  33.927  26.782  1.00  0.00     0.049 A 
ATOM     74  H   UNL A   1      48.299  32.115  26.863  1.00  0.00     0.167 HD
ATOM     75  C   UNL A   1      51.065  32.184  26.268  1.00  0.00     0.074 A 
ATOM     76  C   UNL A   1      52.400  31.748  25.916  1.00  0.00     0.031 C 
ATOM     77  C   UNL A   1      50.707  33.481  26.437  1.00  0.00     0.037 A 
BRANCH  64  78
ATOM     78  C   UNL A   1      44.726  34.268  27.776  1.00  0.00     0.064 A 
ATOM     79  C   UNL A   1      44.298  34.545  29.084  1.00  0.00     0.173 A 
ATOM     80  C   UNL A   1      44.094  34.946  26.723  1.00  0.00     0.173 A 
ATOM     81  F   UNL A   1      44.859  33.914  30.126  1.00  0.00    -0.203 F 
ATOM     82  C   UNL A   1      43.262  35.444  29.323  1.00  0.00     0.198 A 
ATOM     83  C   UNL A   1      43.080  35.868  26.968  1.00  0.00     0.198 A 
ATOM     84  F   UNL A   1      44.468  34.721  25.454  1.00  0.00    -0.203 F 
ATOM     85  F   UNL A   1      42.836  35.655  30.576  1.00  0.00    -0.200 F 
ATOM     86  C   UNL A   1      42.660  36.110  28.266  1.00  0.00     0.200 A 
ATOM     87  F   UNL A   1      42.511  36.522  25.946  1.00  0.00    -0.200 F 
ATOM     88  F   UNL A   1      41.669  36.982  28.498  1.00  0.00    -0.200 F 
ENDBRANCH  64  78
BRANCH  65  89
ATOM     89  C   UNL A   1      51.855  27.567  25.788  1.00  0.00     0.064 A 
ATOM     90  C   UNL A   1      52.048  27.124  24.472  1.00  0.00     0.173 A 
ATOM     91  C   UNL A   1      52.680  27.024  26.784  1.00  0.00     0.173 A 
ATOM     92  F   UNL A   1      51.266  27.590  23.487  1.00  0.00    -0.203 F 
ATOM     93  C   UNL A   1      53.009  26.162  24.169  1.00  0.00     0.198 A 
ATOM     94  C   UNL A   1      53.662  26.086  26.475  1.00  0.00     0.198 A 
ATOM     95  F   UNL A   1      52.533  27.406  28.061  1.00  0.00    -0.203 F 
ATOM     96  F   UNL A   1      53.135  25.716  22.912  1.00  0.00    -0.200 F 
ATOM     97  C   UNL A   1      53.820  25.648  25.170  1.00  0.00     0.200 A 
ATOM     98  F   UNL A   1      54.451  25.601  27.445  1.00  0.00    -0.200 F 
ATOM     99  F   UNL A   1      54.746  24.725  24.878  1.00  0.00    -0.200 F 
ENDBRANCH  65  89
BRANCH  77 100
ATOM    100  C   UNL A   1      51.778  34.525  26.282  1.00  0.00     0.064 A 
ATOM    101  C   UNL A   1      52.565  34.945  27.364  1.00  0.00     0.173 A 
ATOM    102  C   UNL A   1      52.049  35.081  25.022  1.00  0.00     0.173 A 
ATOM    103  F   UNL A   1      52.341  34.455  28.593  1.00  0.00    -0.203 F 
ATOM    104  C   UNL A   1      53.560  35.906  27.197  1.00  0.00     0.198 A 
ATOM    105  C   UNL A   1      53.069  36.014  24.851  1.00  0.00     0.198 A 
ATOM    106  F   UNL A   1      51.335  34.709  23.949  1.00  0.00    -0.203 F 
ATOM    107  F   UNL A   1      54.263  36.332  28.256  1.00  0.00    -0.200 F 
ATOM    108  C   UNL A   1      53.818  36.433  25.941  1.00  0.00     0.200 A 
ATOM    109  F   UNL A   1      53.327  36.508  23.632  1.00  0.00    -0.200 F 
ATOM    110  F   UNL A   1      54.781  37.350  25.781  1.00  0.00    -0.200 F 
ENDBRANCH  77 100
ENDBRANCH  51  52
ENDBRANCH  44  46
ENDBRANCH  43  44
ENDBRANCH  42  43
ENDBRANCH  41  42
ENDBRANCH  40  41
ENDBRANCH  39  40
ENDBRANCH  38  39
ENDBRANCH  37  38
ENDBRANCH  36  37
ENDBRANCH  35  36
ENDBRANCH  34  35
ENDBRANCH  33  34
ENDBRANCH   1  33
TORSDOF 31
ENDMDL
