MODEL 1
REMARK VINA RESULT:      -7.2      0.000      0.000
REMARK SMILES CC(C)c1ccc(NC(=O)C(=O)N/N=C/c2ccccc2C(=O)OCCOCCOCCOCCOC(=O)c2ccc(-c3c4nc(c(-c5c(F)c(F)c(F)c(F)c5F)c5ccc([nH]5)c(-c5c(F)c(F)c(F)c(F)c5F)c5nc(c(-c6c(F)c(F)c(F)c(F)c6F)c6ccc3[nH]6)C=C5)C=C4)cc2)cc1
REMARK SMILES IDX 28 1 27 2 26 3 25 4 24 5 22 6 23 7 21 8 16 9 17 10 18 11
REMARK SMILES IDX 20 12 19 13 15 14 14 15 13 16 11 17 12 18 9 20 8 21 10 23
REMARK SMILES IDX 7 24 4 25 5 26 103 27 6 28 102 29 2 30 1 31 3 32 29 33 30 34
REMARK SMILES IDX 31 35 32 36 33 37 34 38 35 39 36 40 37 41 38 42 39 43 40 44
REMARK SMILES IDX 101 45 41 46 100 47 42 48 43 49 44 50 94 51 45 52 99 53
REMARK SMILES IDX 93 54 95 55 46 56 98 57 92 58 91 59 47 61 79 62 59 63 78 64
REMARK SMILES IDX 60 65 63 66 77 67 96 68 61 69 62 70 76 72 97 73 64 74 48 75
REMARK SMILES IDX 49 76 57 77 50 78 51 79 55 80 58 81 52 82 53 83 56 84 54 85
REMARK SMILES IDX 80 86 81 87 89 88 82 89 83 90 87 91 90 92 84 93 85 94 88 95
REMARK SMILES IDX 86 96 65 97 66 98 74 99 67 100 68 101 72 102 75 103 69 104
REMARK SMILES IDX 70 105 73 106 71 107
REMARK H PARENT 13 19 8 22 95 60 63 71
REMARK Flexibility Score: inf
ROOT
ATOM      1  C   UNL A   1      37.660  31.247  28.697  1.00  0.00     0.188 C 
ENDROOT
BRANCH   1   2
ATOM      2  O   UNL A   1      37.310  29.881  28.813  1.00  0.00    -0.376 OA
BRANCH   2   3
ATOM      3  C   UNL A   1      38.229  28.951  29.348  1.00  0.00     0.202 C 
BRANCH   3   4
ATOM      4  C   UNL A   1      39.185  28.191  28.420  1.00  0.00     0.261 C 
BRANCH   4   5
ATOM      5  O   UNL A   1      40.575  28.391  28.676  1.00  0.00    -0.460 OA
BRANCH   5   6
ATOM      6  C   UNL A   1      41.399  27.326  28.661  1.00  0.00     0.338 C 
ATOM      7  O   UNL A   1      41.156  26.223  29.117  1.00  0.00    -0.246 OA
BRANCH   6   8
ATOM      8  C   UNL A   1      42.581  27.642  27.811  1.00  0.00     0.068 A 
ATOM      9  C   UNL A   1      42.950  26.898  26.679  1.00  0.00     0.009 A 
ATOM     10  C   UNL A   1      44.111  27.204  25.963  1.00  0.00     0.010 A 
ATOM     11  C   UNL A   1      44.940  28.234  26.403  1.00  0.00     0.001 A 
ATOM     12  C   UNL A   1      43.426  28.673  28.244  1.00  0.00     0.016 A 
ATOM     13  C   UNL A   1      44.612  28.948  27.556  1.00  0.00     0.001 A 
BRANCH   9  14
ATOM     14  C   UNL A   1      42.411  25.558  26.476  1.00  0.00     0.142 C 
ATOM     15  N   UNL A   1      42.820  24.694  25.601  1.00  0.00    -0.180 NA
BRANCH  15  16
ATOM     16  N   UNL A   1      42.047  23.551  25.589  1.00  0.00    -0.239 N 
ATOM     17  C   UNL A   1      42.427  22.297  26.063  1.00  0.00     0.329 C 
ATOM     18  O   UNL A   1      41.631  21.569  26.648  1.00  0.00    -0.262 OA
ATOM     19  H   UNL A   1      41.141  23.629  25.211  1.00  0.00     0.194 HD
BRANCH  17  20
ATOM     20  C   UNL A   1      43.869  21.826  25.751  1.00  0.00     0.315 C 
ATOM     21  N   UNL A   1      44.951  22.362  26.420  1.00  0.00    -0.318 N 
ATOM     22  H   UNL A   1      45.820  22.032  26.094  1.00  0.00     0.170 HD
ATOM     23  O   UNL A   1      44.089  21.010  24.856  1.00  0.00    -0.263 OA
BRANCH  21  24
ATOM     24  C   UNL A   1      45.059  23.282  27.471  1.00  0.00     0.041 A 
ATOM     25  C   UNL A   1      45.311  25.305  29.439  1.00  0.00    -0.045 A 
ATOM     26  C   UNL A   1      44.397  24.259  29.566  1.00  0.00     0.006 A 
ATOM     27  C   UNL A   1      46.142  25.302  28.319  1.00  0.00     0.006 A 
ATOM     28  C   UNL A   1      44.291  23.244  28.621  1.00  0.00     0.026 A 
ATOM     29  C   UNL A   1      46.013  24.301  27.344  1.00  0.00     0.026 A 
BRANCH  25  30
ATOM     30  C   UNL A   1      45.394  26.335  30.548  1.00  0.00     0.013 C 
ATOM     31  C   UNL A   1      44.024  26.528  31.200  1.00  0.00     0.012 C 
ATOM     32  C   UNL A   1      46.474  26.035  31.585  1.00  0.00     0.012 C 
ENDBRANCH  25  30
ENDBRANCH  21  24
ENDBRANCH  17  20
ENDBRANCH  15  16
ENDBRANCH   9  14
ENDBRANCH   6   8
ENDBRANCH   5   6
ENDBRANCH   4   5
ENDBRANCH   3   4
ENDBRANCH   2   3
ENDBRANCH   1   2
BRANCH   1  33
ATOM     33  C   UNL A   1      37.555  32.024  30.026  1.00  0.00     0.188 C 
BRANCH  33  34
ATOM     34  O   UNL A   1      38.548  32.994  30.324  1.00  0.00    -0.377 OA
BRANCH  34  35
ATOM     35  C   UNL A   1      38.242  34.107  31.164  1.00  0.00     0.188 C 
BRANCH  35  36
ATOM     36  C   UNL A   1      36.816  34.354  31.716  1.00  0.00     0.188 C 
BRANCH  36  37
ATOM     37  O   UNL A   1      36.701  34.260  33.123  1.00  0.00    -0.376 OA
BRANCH  37  38
ATOM     38  C   UNL A   1      36.103  33.102  33.672  1.00  0.00     0.202 C 
BRANCH  38  39
ATOM     39  C   UNL A   1      37.034  32.055  34.298  1.00  0.00     0.261 C 
BRANCH  39  40
ATOM     40  O   UNL A   1      37.792  31.251  33.382  1.00  0.00    -0.460 OA
BRANCH  40  41
ATOM     41  C   UNL A   1      38.836  30.556  33.880  1.00  0.00     0.338 C 
ATOM     42  O   UNL A   1      38.799  29.659  34.708  1.00  0.00    -0.246 OA
BRANCH  41  43
ATOM     43  C   UNL A   1      40.038  30.943  33.112  1.00  0.00     0.060 A 
ATOM     44  C   UNL A   1      41.003  31.761  33.716  1.00  0.00     0.016 A 
ATOM     45  C   UNL A   1      40.215  30.490  31.803  1.00  0.00     0.016 A 
ATOM     46  C   UNL A   1      42.137  32.149  33.000  1.00  0.00     0.010 A 
ATOM     47  C   UNL A   1      41.343  30.894  31.082  1.00  0.00     0.010 A 
ATOM     48  C   UNL A   1      42.296  31.748  31.665  1.00  0.00    -0.014 A 
BRANCH  48  49
ATOM     49  C   UNL A   1      43.339  32.383  30.818  1.00  0.00     0.031 A 
ATOM     50  C   UNL A   1      44.653  31.662  30.660  1.00  0.00     0.074 A 
ATOM     51  C   UNL A   1      43.120  33.545  30.174  1.00  0.00     0.049 A 
ATOM     52  N   UNL A   1      45.748  32.041  30.052  1.00  0.00    -0.248 NA
ATOM     53  C   UNL A   1      44.738  30.321  31.264  1.00  0.00     0.031 C 
ATOM     54  C   UNL A   1      41.865  34.296  30.176  1.00  0.00     0.029 A 
ATOM     55  N   UNL A   1      43.963  34.310  29.402  1.00  0.00    -0.354 N 
ATOM     56  C   UNL A   1      46.644  30.987  30.196  1.00  0.00     0.074 A 
ATOM     57  C   UNL A   1      45.985  29.971  30.984  1.00  0.00     0.031 C 
ATOM     58  C   UNL A   1      42.026  35.422  29.455  1.00  0.00     0.029 A 
ATOM     59  C   UNL A   1      43.411  35.504  28.997  1.00  0.00     0.049 A 
ATOM     60  H   UNL A   1      44.876  34.030  29.160  1.00  0.00     0.167 HD
ATOM     61  C   UNL A   1      47.898  30.874  29.699  1.00  0.00     0.037 A 
ATOM     62  C   UNL A   1      43.983  36.561  28.384  1.00  0.00     0.037 A 
ATOM     63  C   UNL A   1      48.545  31.896  28.919  1.00  0.00     0.049 A 
ATOM     64  C   UNL A   1      45.435  36.477  27.997  1.00  0.00     0.074 A 
ATOM     65  C   UNL A   1      49.803  31.879  28.343  1.00  0.00     0.029 A 
ATOM     66  N   UNL A   1      47.983  33.130  28.617  1.00  0.00    -0.354 N 
ATOM     67  N   UNL A   1      46.280  35.486  28.144  1.00  0.00    -0.248 NA
ATOM     68  C   UNL A   1      46.008  37.664  27.348  1.00  0.00     0.031 C 
ATOM     69  C   UNL A   1      50.029  33.127  27.754  1.00  0.00     0.029 A 
ATOM     70  C   UNL A   1      48.885  33.896  27.898  1.00  0.00     0.049 A 
ATOM     71  H   UNL A   1      47.078  33.417  28.877  1.00  0.00     0.167 HD
ATOM     72  C   UNL A   1      47.467  35.906  27.559  1.00  0.00     0.074 A 
ATOM     73  C   UNL A   1      47.235  37.249  27.069  1.00  0.00     0.031 C 
ATOM     74  C   UNL A   1      48.637  35.233  27.420  1.00  0.00     0.037 A 
BRANCH  61  75
ATOM     75  C   UNL A   1      48.665  29.618  30.006  1.00  0.00     0.064 A 
ATOM     76  C   UNL A   1      48.555  28.468  29.209  1.00  0.00     0.173 A 
ATOM     77  C   UNL A   1      49.554  29.578  31.091  1.00  0.00     0.173 A 
ATOM     78  F   UNL A   1      47.713  28.446  28.165  1.00  0.00    -0.203 F 
ATOM     79  C   UNL A   1      49.287  27.318  29.502  1.00  0.00     0.198 A 
ATOM     80  C   UNL A   1      50.308  28.437  31.361  1.00  0.00     0.198 A 
ATOM     81  F   UNL A   1      49.704  30.649  31.884  1.00  0.00    -0.203 F 
ATOM     82  F   UNL A   1      49.129  26.216  28.755  1.00  0.00    -0.200 F 
ATOM     83  C   UNL A   1      50.168  27.307  30.573  1.00  0.00     0.200 A 
ATOM     84  F   UNL A   1      51.171  28.435  32.388  1.00  0.00    -0.200 F 
ATOM     85  F   UNL A   1      50.878  26.203  30.847  1.00  0.00    -0.200 F 
ENDBRANCH  61  75
BRANCH  62  86
ATOM     86  C   UNL A   1      43.213  37.809  28.128  1.00  0.00     0.064 A 
ATOM     87  C   UNL A   1      43.196  38.859  29.054  1.00  0.00     0.173 A 
ATOM     88  C   UNL A   1      42.421  37.958  26.982  1.00  0.00     0.173 A 
ATOM     89  F   UNL A   1      43.856  38.734  30.214  1.00  0.00    -0.203 F 
ATOM     90  C   UNL A   1      42.446  40.014  28.822  1.00  0.00     0.198 A 
ATOM     91  C   UNL A   1      41.719  39.132  26.720  1.00  0.00     0.198 A 
ATOM     92  F   UNL A   1      42.270  36.937  26.135  1.00  0.00    -0.203 F 
ATOM     93  F   UNL A   1      42.397  40.975  29.754  1.00  0.00    -0.200 F 
ATOM     94  C   UNL A   1      41.730  40.160  27.644  1.00  0.00     0.200 A 
ATOM     95  F   UNL A   1      41.015  39.250  25.585  1.00  0.00    -0.200 F 
ATOM     96  F   UNL A   1      41.022  41.275  27.414  1.00  0.00    -0.200 F 
ENDBRANCH  62  86
BRANCH  74  97
ATOM     97  C   UNL A   1      49.738  35.918  26.662  1.00  0.00     0.064 A 
ATOM     98  C   UNL A   1      50.746  36.645  27.311  1.00  0.00     0.173 A 
ATOM     99  C   UNL A   1      49.800  35.815  25.263  1.00  0.00     0.173 A 
ATOM    100  F   UNL A   1      50.723  36.787  28.645  1.00  0.00    -0.203 F 
ATOM    101  C   UNL A   1      51.758  37.269  26.586  1.00  0.00     0.198 A 
ATOM    102  C   UNL A   1      50.834  36.409  24.544  1.00  0.00     0.198 A 
ATOM    103  F   UNL A   1      48.866  35.125  24.592  1.00  0.00    -0.203 F 
ATOM    104  F   UNL A   1      52.677  38.008  27.223  1.00  0.00    -0.200 F 
ATOM    105  C   UNL A   1      51.805  37.144  25.206  1.00  0.00     0.200 A 
ATOM    106  F   UNL A   1      50.888  36.271  23.212  1.00  0.00    -0.200 F 
ATOM    107  F   UNL A   1      52.785  37.739  24.511  1.00  0.00    -0.200 F 
ENDBRANCH  74  97
ENDBRANCH  48  49
ENDBRANCH  41  43
ENDBRANCH  40  41
ENDBRANCH  39  40
ENDBRANCH  38  39
ENDBRANCH  37  38
ENDBRANCH  36  37
ENDBRANCH  35  36
ENDBRANCH  34  35
ENDBRANCH  33  34
ENDBRANCH   1  33
TORSDOF 25
ENDMDL
MODEL 2
REMARK VINA RESULT:      -7.1      3.432      6.077
REMARK SMILES CC(C)c1ccc(NC(=O)C(=O)N/N=C/c2ccccc2C(=O)OCCOCCOCCOCCOC(=O)c2ccc(-c3c4nc(c(-c5c(F)c(F)c(F)c(F)c5F)c5ccc([nH]5)c(-c5c(F)c(F)c(F)c(F)c5F)c5nc(c(-c6c(F)c(F)c(F)c(F)c6F)c6ccc3[nH]6)C=C5)C=C4)cc2)cc1
REMARK SMILES IDX 28 1 27 2 26 3 25 4 24 5 22 6 23 7 21 8 16 9 17 10 18 11
REMARK SMILES IDX 20 12 19 13 15 14 14 15 13 16 11 17 12 18 9 20 8 21 10 23
REMARK SMILES IDX 7 24 4 25 5 26 103 27 6 28 102 29 2 30 1 31 3 32 29 33 30 34
REMARK SMILES IDX 31 35 32 36 33 37 34 38 35 39 36 40 37 41 38 42 39 43 40 44
REMARK SMILES IDX 101 45 41 46 100 47 42 48 43 49 44 50 94 51 45 52 99 53
REMARK SMILES IDX 93 54 95 55 46 56 98 57 92 58 91 59 47 61 79 62 59 63 78 64
REMARK SMILES IDX 60 65 63 66 77 67 96 68 61 69 62 70 76 72 97 73 64 74 48 75
REMARK SMILES IDX 49 76 57 77 50 78 51 79 55 80 58 81 52 82 53 83 56 84 54 85
REMARK SMILES IDX 80 86 81 87 89 88 82 89 83 90 87 91 90 92 84 93 85 94 88 95
REMARK SMILES IDX 86 96 65 97 66 98 74 99 67 100 68 101 72 102 75 103 69 104
REMARK SMILES IDX 70 105 73 106 71 107
REMARK H PARENT 13 19 8 22 95 60 63 71
REMARK Flexibility Score: inf
ROOT
ATOM      1  C   UNL A   1      38.115  31.637  29.115  1.00  0.00     0.188 C 
ENDROOT
BRANCH   1   2
ATOM      2  O   UNL A   1      37.780  30.319  28.723  1.00  0.00    -0.376 OA
BRANCH   2   3
ATOM      3  C   UNL A   1      38.710  29.267  28.884  1.00  0.00     0.202 C 
BRANCH   3   4
ATOM      4  C   UNL A   1      39.799  29.031  27.831  1.00  0.00     0.261 C 
BRANCH   4   5
ATOM      5  O   UNL A   1      41.141  29.102  28.312  1.00  0.00    -0.460 OA
BRANCH   5   6
ATOM      6  C   UNL A   1      41.784  27.959  28.615  1.00  0.00     0.338 C 
ATOM      7  O   UNL A   1      41.612  27.279  29.611  1.00  0.00    -0.246 OA
BRANCH   6   8
ATOM      8  C   UNL A   1      42.595  27.534  27.439  1.00  0.00     0.068 A 
ATOM      9  C   UNL A   1      42.067  26.858  26.329  1.00  0.00     0.009 A 
ATOM     10  C   UNL A   1      42.893  26.424  25.288  1.00  0.00     0.010 A 
ATOM     11  C   UNL A   1      44.269  26.624  25.374  1.00  0.00     0.001 A 
ATOM     12  C   UNL A   1      43.981  27.725  27.514  1.00  0.00     0.016 A 
ATOM     13  C   UNL A   1      44.815  27.249  26.496  1.00  0.00     0.001 A 
BRANCH   9  14
ATOM     14  C   UNL A   1      40.763  26.210  26.418  1.00  0.00     0.142 C 
ATOM     15  N   UNL A   1      40.382  25.163  25.757  1.00  0.00    -0.180 NA
BRANCH  15  16
ATOM     16  N   UNL A   1      39.059  24.846  25.988  1.00  0.00    -0.239 N 
ATOM     17  C   UNL A   1      38.578  23.631  26.471  1.00  0.00     0.329 C 
ATOM     18  O   UNL A   1      37.636  23.587  27.259  1.00  0.00    -0.262 OA
ATOM     19  H   UNL A   1      38.394  25.545  25.794  1.00  0.00     0.194 HD
BRANCH  17  20
ATOM     20  C   UNL A   1      39.222  22.338  25.915  1.00  0.00     0.315 C 
ATOM     21  N   UNL A   1      40.544  22.035  26.173  1.00  0.00    -0.318 N 
ATOM     22  H   UNL A   1      40.860  21.222  25.716  1.00  0.00     0.170 HD
ATOM     23  O   UNL A   1      38.590  21.583  25.176  1.00  0.00    -0.263 OA
BRANCH  21  24
ATOM     24  C   UNL A   1      41.525  22.655  26.958  1.00  0.00     0.041 A 
ATOM     25  C   UNL A   1      43.582  24.015  28.353  1.00  0.00    -0.045 A 
ATOM     26  C   UNL A   1      42.326  23.793  28.918  1.00  0.00     0.006 A 
ATOM     27  C   UNL A   1      43.815  23.501  27.078  1.00  0.00     0.006 A 
ATOM     28  C   UNL A   1      41.323  23.098  28.252  1.00  0.00     0.026 A 
ATOM     29  C   UNL A   1      42.794  22.830  26.387  1.00  0.00     0.026 A 
BRANCH  25  30
ATOM     30  C   UNL A   1      44.632  24.734  29.177  1.00  0.00     0.013 C 
ATOM     31  C   UNL A   1      44.438  24.437  30.664  1.00  0.00     0.012 C 
ATOM     32  C   UNL A   1      46.065  24.452  28.729  1.00  0.00     0.012 C 
ENDBRANCH  25  30
ENDBRANCH  21  24
ENDBRANCH  17  20
ENDBRANCH  15  16
ENDBRANCH   9  14
ENDBRANCH   6   8
ENDBRANCH   5   6
ENDBRANCH   4   5
ENDBRANCH   3   4
ENDBRANCH   2   3
ENDBRANCH   1   2
BRANCH   1  33
ATOM     33  C   UNL A   1      37.831  31.926  30.604  1.00  0.00     0.188 C 
BRANCH  33  34
ATOM     34  O   UNL A   1      38.931  32.172  31.468  1.00  0.00    -0.377 OA
BRANCH  34  35
ATOM     35  C   UNL A   1      38.979  33.363  32.253  1.00  0.00     0.188 C 
BRANCH  35  36
ATOM     36  C   UNL A   1      38.131  34.612  31.908  1.00  0.00     0.188 C 
BRANCH  36  37
ATOM     37  O   UNL A   1      37.191  34.982  32.899  1.00  0.00    -0.376 OA
BRANCH  37  38
ATOM     38  C   UNL A   1      36.308  33.992  33.389  1.00  0.00     0.202 C 
BRANCH  38  39
ATOM     39  C   UNL A   1      36.629  33.372  34.755  1.00  0.00     0.261 C 
BRANCH  39  40
ATOM     40  O   UNL A   1      37.022  31.991  34.748  1.00  0.00    -0.460 OA
BRANCH  40  41
ATOM     41  C   UNL A   1      37.836  31.570  35.740  1.00  0.00     0.338 C 
ATOM     42  O   UNL A   1      37.599  31.569  36.938  1.00  0.00    -0.246 OA
BRANCH  41  43
ATOM     43  C   UNL A   1      39.011  30.931  35.114  1.00  0.00     0.060 A 
ATOM     44  C   UNL A   1      40.293  31.243  35.587  1.00  0.00     0.016 A 
ATOM     45  C   UNL A   1      38.846  30.020  34.070  1.00  0.00     0.016 A 
ATOM     46  C   UNL A   1      41.417  30.660  34.997  1.00  0.00     0.010 A 
ATOM     47  C   UNL A   1      39.973  29.451  33.468  1.00  0.00     0.010 A 
ATOM     48  C   UNL A   1      41.266  29.789  33.909  1.00  0.00    -0.014 A 
BRANCH  48  49
ATOM     49  C   UNL A   1      42.450  29.395  33.102  1.00  0.00     0.031 A 
ATOM     50  C   UNL A   1      43.267  28.221  33.576  1.00  0.00     0.074 A 
ATOM     51  C   UNL A   1      42.775  30.033  31.961  1.00  0.00     0.049 A 
ATOM     52  N   UNL A   1      44.387  27.735  33.105  1.00  0.00    -0.248 NA
ATOM     53  C   UNL A   1      42.738  27.485  34.738  1.00  0.00     0.031 C 
ATOM     54  C   UNL A   1      42.018  31.125  31.351  1.00  0.00     0.029 A 
ATOM     55  N   UNL A   1      43.847  29.859  31.116  1.00  0.00    -0.354 N 
ATOM     56  C   UNL A   1      44.691  26.641  33.907  1.00  0.00     0.074 A 
ATOM     57  C   UNL A   1      43.664  26.556  34.920  1.00  0.00     0.031 C 
ATOM     58  C   UNL A   1      42.658  31.536  30.240  1.00  0.00     0.029 A 
ATOM     59  C   UNL A   1      43.901  30.782  30.097  1.00  0.00     0.049 A 
ATOM     60  H   UNL A   1      44.512  29.142  31.229  1.00  0.00     0.167 HD
ATOM     61  C   UNL A   1      45.726  25.775  33.793  1.00  0.00     0.037 A 
ATOM     62  C   UNL A   1      44.877  31.023  29.196  1.00  0.00     0.037 A 
ATOM     63  C   UNL A   1      46.744  25.874  32.782  1.00  0.00     0.049 A 
ATOM     64  C   UNL A   1      46.105  30.152  29.205  1.00  0.00     0.074 A 
ATOM     65  C   UNL A   1      47.824  25.039  32.557  1.00  0.00     0.029 A 
ATOM     66  N   UNL A   1      46.813  26.882  31.830  1.00  0.00    -0.354 N 
ATOM     67  N   UNL A   1      46.393  29.127  29.969  1.00  0.00    -0.248 NA
ATOM     68  C   UNL A   1      47.141  30.472  28.214  1.00  0.00     0.031 C 
ATOM     69  C   UNL A   1      48.584  25.580  31.515  1.00  0.00     0.029 A 
ATOM     70  C   UNL A   1      47.940  26.713  31.043  1.00  0.00     0.049 A 
ATOM     71  H   UNL A   1      46.159  27.611  31.731  1.00  0.00     0.167 HD
ATOM     72  C   UNL A   1      47.614  28.646  29.519  1.00  0.00     0.074 A 
ATOM     73  C   UNL A   1      48.019  29.503  28.423  1.00  0.00     0.031 C 
ATOM     74  C   UNL A   1      48.327  27.578  29.957  1.00  0.00     0.037 A 
BRANCH  61  75
ATOM     75  C   UNL A   1      45.827  24.666  34.802  1.00  0.00     0.064 A 
ATOM     76  C   UNL A   1      46.421  24.857  36.060  1.00  0.00     0.173 A 
ATOM     77  C   UNL A   1      45.286  23.401  34.523  1.00  0.00     0.173 A 
ATOM     78  F   UNL A   1      46.965  26.041  36.377  1.00  0.00    -0.203 F 
ATOM     79  C   UNL A   1      46.492  23.818  36.987  1.00  0.00     0.198 A 
ATOM     80  C   UNL A   1      45.329  22.375  35.464  1.00  0.00     0.198 A 
ATOM     81  F   UNL A   1      44.701  23.162  33.339  1.00  0.00    -0.203 F 
ATOM     82  F   UNL A   1      47.107  24.012  38.163  1.00  0.00    -0.200 F 
ATOM     83  C   UNL A   1      45.939  22.582  36.691  1.00  0.00     0.200 A 
ATOM     84  F   UNL A   1      44.779  21.186  35.181  1.00  0.00    -0.200 F 
ATOM     85  F   UNL A   1      45.998  21.587  37.588  1.00  0.00    -0.200 F 
ENDBRANCH  61  75
BRANCH  62  86
ATOM     86  C   UNL A   1      44.771  32.155  28.234  1.00  0.00     0.064 A 
ATOM     87  C   UNL A   1      45.146  33.454  28.592  1.00  0.00     0.173 A 
ATOM     88  C   UNL A   1      44.229  31.977  26.953  1.00  0.00     0.173 A 
ATOM     89  F   UNL A   1      45.580  33.704  29.835  1.00  0.00    -0.203 F 
ATOM     90  C   UNL A   1      45.015  34.516  27.695  1.00  0.00     0.198 A 
ATOM     91  C   UNL A   1      44.152  33.022  26.037  1.00  0.00     0.198 A 
ATOM     92  F   UNL A   1      43.710  30.798  26.603  1.00  0.00    -0.203 F 
ATOM     93  F   UNL A   1      45.322  35.761  28.085  1.00  0.00    -0.200 F 
ATOM     94  C   UNL A   1      44.542  34.295  26.410  1.00  0.00     0.200 A 
ATOM     95  F   UNL A   1      43.674  32.796  24.805  1.00  0.00    -0.200 F 
ATOM     96  F   UNL A   1      44.429  35.311  25.544  1.00  0.00    -0.200 F 
ENDBRANCH  62  86
BRANCH  74  97
ATOM     97  C   UNL A   1      49.590  27.243  29.215  1.00  0.00     0.064 A 
ATOM     98  C   UNL A   1      49.577  26.517  28.016  1.00  0.00     0.173 A 
ATOM     99  C   UNL A   1      50.831  27.688  29.700  1.00  0.00     0.173 A 
ATOM    100  F   UNL A   1      48.420  26.055  27.519  1.00  0.00    -0.203 F 
ATOM    101  C   UNL A   1      50.762  26.222  27.346  1.00  0.00     0.198 A 
ATOM    102  C   UNL A   1      52.009  27.424  29.008  1.00  0.00     0.198 A 
ATOM    103  F   UNL A   1      50.900  28.394  30.839  1.00  0.00    -0.203 F 
ATOM    104  F   UNL A   1      50.731  25.476  26.233  1.00  0.00    -0.200 F 
ATOM    105  C   UNL A   1      51.974  26.682  27.837  1.00  0.00     0.200 A 
ATOM    106  F   UNL A   1      53.177  27.885  29.475  1.00  0.00    -0.200 F 
ATOM    107  F   UNL A   1      53.112  26.404  27.186  1.00  0.00    -0.200 F 
ENDBRANCH  74  97
ENDBRANCH  48  49
ENDBRANCH  41  43
ENDBRANCH  40  41
ENDBRANCH  39  40
ENDBRANCH  38  39
ENDBRANCH  37  38
ENDBRANCH  36  37
ENDBRANCH  35  36
ENDBRANCH  34  35
ENDBRANCH  33  34
ENDBRANCH   1  33
TORSDOF 25
ENDMDL
MODEL 3
REMARK VINA RESULT:      -7.0      4.672      9.219
REMARK SMILES CC(C)c1ccc(NC(=O)C(=O)N/N=C/c2ccccc2C(=O)OCCOCCOCCOCCOC(=O)c2ccc(-c3c4nc(c(-c5c(F)c(F)c(F)c(F)c5F)c5ccc([nH]5)c(-c5c(F)c(F)c(F)c(F)c5F)c5nc(c(-c6c(F)c(F)c(F)c(F)c6F)c6ccc3[nH]6)C=C5)C=C4)cc2)cc1
REMARK SMILES IDX 28 1 27 2 26 3 25 4 24 5 22 6 23 7 21 8 16 9 17 10 18 11
REMARK SMILES IDX 20 12 19 13 15 14 14 15 13 16 11 17 12 18 9 20 8 21 10 23
REMARK SMILES IDX 7 24 4 25 5 26 103 27 6 28 102 29 2 30 1 31 3 32 29 33 30 34
REMARK SMILES IDX 31 35 32 36 33 37 34 38 35 39 36 40 37 41 38 42 39 43 40 44
REMARK SMILES IDX 101 45 41 46 100 47 42 48 43 49 44 50 94 51 45 52 99 53
REMARK SMILES IDX 93 54 95 55 46 56 98 57 92 58 91 59 47 61 79 62 59 63 78 64
REMARK SMILES IDX 60 65 63 66 77 67 96 68 61 69 62 70 76 72 97 73 64 74 48 75
REMARK SMILES IDX 49 76 57 77 50 78 51 79 55 80 58 81 52 82 53 83 56 84 54 85
REMARK SMILES IDX 80 86 81 87 89 88 82 89 83 90 87 91 90 92 84 93 85 94 88 95
REMARK SMILES IDX 86 96 65 97 66 98 74 99 67 100 68 101 72 102 75 103 69 104
REMARK SMILES IDX 70 105 73 106 71 107
REMARK H PARENT 13 19 8 22 95 60 63 71
REMARK Flexibility Score: inf
ROOT
ATOM      1  C   UNL A   1      33.132  29.649  26.933  1.00  0.00     0.188 C 
ENDROOT
BRANCH   1   2
ATOM      2  O   UNL A   1      33.376  29.295  25.585  1.00  0.00    -0.376 OA
BRANCH   2   3
ATOM      3  C   UNL A   1      33.625  27.949  25.234  1.00  0.00     0.202 C 
BRANCH   3   4
ATOM      4  C   UNL A   1      33.879  27.568  23.770  1.00  0.00     0.261 C 
BRANCH   4   5
ATOM      5  O   UNL A   1      33.444  26.263  23.393  1.00  0.00    -0.460 OA
BRANCH   5   6
ATOM      6  C   UNL A   1      32.538  26.139  22.404  1.00  0.00     0.338 C 
ATOM      7  O   UNL A   1      32.711  25.578  21.337  1.00  0.00    -0.246 OA
BRANCH   6   8
ATOM      8  C   UNL A   1      31.215  26.611  22.899  1.00  0.00     0.068 A 
ATOM      9  C   UNL A   1      30.419  25.897  23.807  1.00  0.00     0.009 A 
ATOM     10  C   UNL A   1      29.154  26.361  24.179  1.00  0.00     0.010 A 
ATOM     11  C   UNL A   1      28.654  27.528  23.606  1.00  0.00     0.001 A 
ATOM     12  C   UNL A   1      30.697  27.782  22.328  1.00  0.00     0.016 A 
ATOM     13  C   UNL A   1      29.412  28.222  22.663  1.00  0.00     0.001 A 
BRANCH   9  14
ATOM     14  C   UNL A   1      30.672  24.480  24.045  1.00  0.00     0.142 C 
ATOM     15  N   UNL A   1      31.428  23.982  24.972  1.00  0.00    -0.180 NA
BRANCH  15  16
ATOM     16  N   UNL A   1      31.542  22.611  24.879  1.00  0.00    -0.239 N 
ATOM     17  C   UNL A   1      32.578  21.912  24.262  1.00  0.00     0.329 C 
ATOM     18  O   UNL A   1      33.011  20.866  24.736  1.00  0.00    -0.262 OA
ATOM     19  H   UNL A   1      30.824  22.075  25.287  1.00  0.00     0.194 HD
BRANCH  17  20
ATOM     20  C   UNL A   1      33.106  22.464  22.915  1.00  0.00     0.315 C 
ATOM     21  N   UNL A   1      34.368  23.017  22.820  1.00  0.00    -0.318 N 
ATOM     22  H   UNL A   1      34.569  23.390  21.931  1.00  0.00     0.170 HD
ATOM     23  O   UNL A   1      32.390  22.482  21.914  1.00  0.00    -0.263 OA
BRANCH  21  24
ATOM     24  C   UNL A   1      35.418  23.150  23.737  1.00  0.00     0.041 A 
ATOM     25  C   UNL A   1      37.386  23.421  25.757  1.00  0.00    -0.045 A 
ATOM     26  C   UNL A   1      37.593  22.638  24.622  1.00  0.00     0.006 A 
ATOM     27  C   UNL A   1      36.179  24.115  25.849  1.00  0.00     0.006 A 
ATOM     28  C   UNL A   1      36.646  22.526  23.611  1.00  0.00     0.026 A 
ATOM     29  C   UNL A   1      35.205  23.977  24.849  1.00  0.00     0.026 A 
BRANCH  25  30
ATOM     30  C   UNL A   1      38.499  23.527  26.781  1.00  0.00     0.013 C 
ATOM     31  C   UNL A   1      39.523  22.410  26.572  1.00  0.00     0.012 C 
ATOM     32  C   UNL A   1      39.166  24.900  26.824  1.00  0.00     0.012 C 
ENDBRANCH  25  30
ENDBRANCH  21  24
ENDBRANCH  17  20
ENDBRANCH  15  16
ENDBRANCH   9  14
ENDBRANCH   6   8
ENDBRANCH   5   6
ENDBRANCH   4   5
ENDBRANCH   3   4
ENDBRANCH   2   3
ENDBRANCH   1   2
BRANCH   1  33
ATOM     33  C   UNL A   1      34.295  30.427  27.584  1.00  0.00     0.188 C 
BRANCH  33  34
ATOM     34  O   UNL A   1      34.043  31.737  28.074  1.00  0.00    -0.377 OA
BRANCH  34  35
ATOM     35  C   UNL A   1      34.987  32.381  28.929  1.00  0.00     0.188 C 
BRANCH  35  36
ATOM     36  C   UNL A   1      36.512  32.321  28.667  1.00  0.00     0.188 C 
BRANCH  36  37
ATOM     37  O   UNL A   1      37.186  31.268  29.330  1.00  0.00    -0.376 OA
BRANCH  37  38
ATOM     38  C   UNL A   1      36.752  30.903  30.625  1.00  0.00     0.202 C 
BRANCH  38  39
ATOM     39  C   UNL A   1      36.795  29.414  30.992  1.00  0.00     0.261 C 
BRANCH  39  40
ATOM     40  O   UNL A   1      37.967  28.966  31.691  1.00  0.00    -0.460 OA
BRANCH  40  41
ATOM     41  C   UNL A   1      38.858  28.224  31.000  1.00  0.00     0.338 C 
ATOM     42  O   UNL A   1      38.733  27.064  30.641  1.00  0.00    -0.246 OA
BRANCH  41  43
ATOM     43  C   UNL A   1      39.958  29.119  30.585  1.00  0.00     0.060 A 
ATOM     44  C   UNL A   1      40.287  29.216  29.226  1.00  0.00     0.016 A 
ATOM     45  C   UNL A   1      40.655  29.868  31.535  1.00  0.00     0.016 A 
ATOM     46  C   UNL A   1      41.333  30.046  28.818  1.00  0.00     0.010 A 
ATOM     47  C   UNL A   1      41.714  30.685  31.126  1.00  0.00     0.010 A 
ATOM     48  C   UNL A   1      42.078  30.757  29.770  1.00  0.00    -0.014 A 
BRANCH  48  49
ATOM     49  C   UNL A   1      43.356  31.406  29.379  1.00  0.00     0.031 A 
ATOM     50  C   UNL A   1      43.344  32.892  29.127  1.00  0.00     0.074 A 
ATOM     51  C   UNL A   1      44.506  30.711  29.286  1.00  0.00     0.049 A 
ATOM     52  N   UNL A   1      44.297  33.675  28.694  1.00  0.00    -0.248 NA
ATOM     53  C   UNL A   1      42.080  33.592  29.416  1.00  0.00     0.031 C 
ATOM     54  C   UNL A   1      44.668  29.289  29.588  1.00  0.00     0.029 A 
ATOM     55  N   UNL A   1      45.762  31.111  28.890  1.00  0.00    -0.354 N 
ATOM     56  C   UNL A   1      43.751  34.954  28.663  1.00  0.00     0.074 A 
ATOM     57  C   UNL A   1      42.373  34.839  29.081  1.00  0.00     0.031 C 
ATOM     58  C   UNL A   1      45.944  28.932  29.349  1.00  0.00     0.029 A 
ATOM     59  C   UNL A   1      46.672  30.082  28.817  1.00  0.00     0.049 A 
ATOM     60  H   UNL A   1      45.988  32.046  28.681  1.00  0.00     0.167 HD
ATOM     61  C   UNL A   1      44.355  36.120  28.334  1.00  0.00     0.037 A 
ATOM     62  C   UNL A   1      47.925  30.066  28.317  1.00  0.00     0.037 A 
ATOM     63  C   UNL A   1      45.728  36.220  27.915  1.00  0.00     0.049 A 
ATOM     64  C   UNL A   1      48.513  31.348  27.791  1.00  0.00     0.074 A 
ATOM     65  C   UNL A   1      46.451  37.352  27.582  1.00  0.00     0.029 A 
ATOM     66  N   UNL A   1      46.585  35.138  27.761  1.00  0.00    -0.354 N 
ATOM     67  N   UNL A   1      47.991  32.550  27.755  1.00  0.00    -0.248 NA
ATOM     68  C   UNL A   1      49.874  31.267  27.243  1.00  0.00     0.031 C 
ATOM     69  C   UNL A   1      47.722  36.948  27.159  1.00  0.00     0.029 A 
ATOM     70  C   UNL A   1      47.816  35.573  27.298  1.00  0.00     0.049 A 
ATOM     71  H   UNL A   1      46.351  34.201  27.951  1.00  0.00     0.167 HD
ATOM     72  C   UNL A   1      48.975  33.378  27.232  1.00  0.00     0.074 A 
ATOM     73  C   UNL A   1      50.120  32.536  26.952  1.00  0.00     0.031 C 
ATOM     74  C   UNL A   1      48.944  34.718  27.023  1.00  0.00     0.037 A 
BRANCH  61  75
ATOM     75  C   UNL A   1      43.531  37.376  28.382  1.00  0.00     0.064 A 
ATOM     76  C   UNL A   1      43.600  38.268  29.463  1.00  0.00     0.173 A 
ATOM     77  C   UNL A   1      42.688  37.713  27.311  1.00  0.00     0.173 A 
ATOM     78  F   UNL A   1      44.379  37.992  30.519  1.00  0.00    -0.203 F 
ATOM     79  C   UNL A   1      42.837  39.436  29.482  1.00  0.00     0.198 A 
ATOM     80  C   UNL A   1      41.953  38.897  27.319  1.00  0.00     0.198 A 
ATOM     81  F   UNL A   1      42.587  36.901  26.248  1.00  0.00    -0.203 F 
ATOM     82  F   UNL A   1      42.883  40.248  30.548  1.00  0.00    -0.200 F 
ATOM     83  C   UNL A   1      42.022  39.752  28.407  1.00  0.00     0.200 A 
ATOM     84  F   UNL A   1      41.178  39.208  26.270  1.00  0.00    -0.200 F 
ATOM     85  F   UNL A   1      41.297  40.880  28.422  1.00  0.00    -0.200 F 
ENDBRANCH  61  75
BRANCH  62  86
ATOM     86  C   UNL A   1      48.706  28.800  28.242  1.00  0.00     0.064 A 
ATOM     87  C   UNL A   1      48.611  27.949  27.135  1.00  0.00     0.173 A 
ATOM     88  C   UNL A   1      49.516  28.377  29.304  1.00  0.00     0.173 A 
ATOM     89  F   UNL A   1      47.777  28.253  26.131  1.00  0.00    -0.203 F 
ATOM     90  C   UNL A   1      49.322  26.748  27.085  1.00  0.00     0.198 A 
ATOM     91  C   UNL A   1      50.272  27.210  29.233  1.00  0.00     0.198 A 
ATOM     92  F   UNL A   1      49.531  29.063  30.449  1.00  0.00    -0.203 F 
ATOM     93  F   UNL A   1      49.164  25.922  26.043  1.00  0.00    -0.200 F 
ATOM     94  C   UNL A   1      50.172  26.393  28.122  1.00  0.00     0.200 A 
ATOM     95  F   UNL A   1      51.074  26.870  30.252  1.00  0.00    -0.200 F 
ATOM     96  F   UNL A   1      50.866  25.247  28.069  1.00  0.00    -0.200 F 
ENDBRANCH  62  86
BRANCH  74  97
ATOM     97  C   UNL A   1      50.201  35.365  26.517  1.00  0.00     0.064 A 
ATOM     98  C   UNL A   1      50.387  35.667  25.161  1.00  0.00     0.173 A 
ATOM     99  C   UNL A   1      51.223  35.718  27.414  1.00  0.00     0.173 A 
ATOM    100  F   UNL A   1      49.448  35.335  24.260  1.00  0.00    -0.203 F 
ATOM    101  C   UNL A   1      51.561  36.270  24.716  1.00  0.00     0.198 A 
ATOM    102  C   UNL A   1      52.379  36.354  26.971  1.00  0.00     0.198 A 
ATOM    103  F   UNL A   1      51.094  35.459  28.723  1.00  0.00    -0.203 F 
ATOM    104  F   UNL A   1      51.742  36.495  23.407  1.00  0.00    -0.200 F 
ATOM    105  C   UNL A   1      52.552  36.619  25.621  1.00  0.00     0.200 A 
ATOM    106  F   UNL A   1      53.327  36.708  27.850  1.00  0.00    -0.200 F 
ATOM    107  F   UNL A   1      53.677  37.206  25.192  1.00  0.00    -0.200 F 
ENDBRANCH  74  97
ENDBRANCH  48  49
ENDBRANCH  41  43
ENDBRANCH  40  41
ENDBRANCH  39  40
ENDBRANCH  38  39
ENDBRANCH  37  38
ENDBRANCH  36  37
ENDBRANCH  35  36
ENDBRANCH  34  35
ENDBRANCH  33  34
ENDBRANCH   1  33
TORSDOF 25
ENDMDL
