MODEL 1
REMARK VINA RESULT:      -9.8      0.000      0.000
REMARK SMILES CC(C)[C@H]([NH2+][C@@H](C)C[C@@H]1CCCC[NH2+]1)C(=O)OCCOCCOCCOCCOC(=O)c1ccc(-c2c3nc(c(-c4c(F)c(F)c(F)c(F)c4F)c4ccc([nH]4)c(-c4c(F)c(F)c(F)c(F)c4F)c4nc(c(-c5c(F)c(F)c(F)c(F)c5F)c5ccc2[nH]5)C=C4)C=C3)cc1
REMARK SMILES IDX 22 1 21 2 20 3 19 4 18 5 17 6 15 7 16 8 4 9 2 10 1 11 3 12
REMARK SMILES IDX 5 13 6 16 7 17 8 18 9 19 10 20 14 21 11 22 13 23 12 26 23 27
REMARK SMILES IDX 24 28 25 29 26 30 27 31 28 32 29 33 30 34 31 35 32 36 33 37
REMARK SMILES IDX 94 38 34 39 93 40 35 41 36 42 37 43 87 44 38 45 92 46 86 47
REMARK SMILES IDX 88 48 39 49 91 50 85 51 84 52 40 54 72 55 52 56 71 57 53 58
REMARK SMILES IDX 56 59 70 60 89 61 54 62 55 63 69 65 90 66 57 67 41 68 42 69
REMARK SMILES IDX 50 70 43 71 44 72 48 73 51 74 45 75 46 76 49 77 47 78 73 79
REMARK SMILES IDX 74 80 82 81 75 82 76 83 80 84 83 85 77 86 78 87 81 88 79 89
REMARK SMILES IDX 58 90 59 91 67 92 60 93 61 94 65 95 68 96 62 97 63 98 66 99
REMARK SMILES IDX 64 100
REMARK H PARENT 5 14 5 15 14 24 14 25 88 53 56 64
REMARK Flexibility Score: inf
ROOT
ATOM      1  C   UNL A   1      33.239  26.179  22.256  1.00  0.00     0.188 C 
ENDROOT
BRANCH   1   2
ATOM      2  C   UNL A   1      32.459  24.909  21.844  1.00  0.00     0.188 C 
BRANCH   2   3
ATOM      3  O   UNL A   1      31.780  24.088  22.790  1.00  0.00    -0.376 OA
BRANCH   3   4
ATOM      4  C   UNL A   1      30.647  24.583  23.477  1.00  0.00     0.202 C 
BRANCH   4   5
ATOM      5  C   UNL A   1      30.854  25.131  24.898  1.00  0.00     0.261 C 
BRANCH   5   6
ATOM      6  O   UNL A   1      31.650  24.338  25.795  1.00  0.00    -0.459 OA
BRANCH   6   7
ATOM      7  C   UNL A   1      32.980  24.619  25.805  1.00  0.00     0.365 C 
ATOM      8  O   UNL A   1      33.443  25.749  25.951  1.00  0.00    -0.245 OA
BRANCH   7   9
ATOM      9  C   UNL A   1      33.881  23.413  25.473  1.00  0.00     0.296 C 
BRANCH   9  10
ATOM     10  C   UNL A   1      35.300  23.874  25.004  1.00  0.00     0.053 C 
ATOM     11  C   UNL A   1      36.450  23.426  25.913  1.00  0.00     0.014 C 
ATOM     12  C   UNL A   1      35.652  23.542  23.553  1.00  0.00     0.014 C 
ENDBRANCH   9  10
BRANCH   9  13
ATOM     13  N   UNL A   1      33.262  22.292  24.715  1.00  0.00    -0.332 N 
ATOM     14  H   UNL A   1      33.563  22.396  23.746  1.00  0.00     0.347 HD
ATOM     15  H   UNL A   1      32.269  22.400  24.920  1.00  0.00     0.347 HD
BRANCH  13  16
ATOM     16  C   UNL A   1      33.528  20.884  25.095  1.00  0.00     0.185 C 
ATOM     17  C   UNL A   1      33.780  20.907  26.620  1.00  0.00     0.075 C 
BRANCH  16  18
ATOM     18  C   UNL A   1      32.490  19.746  24.824  1.00  0.00     0.129 C 
BRANCH  18  19
ATOM     19  C   UNL A   1      33.013  18.336  25.144  1.00  0.00     0.188 C 
ATOM     20  C   UNL A   1      34.260  18.004  24.306  1.00  0.00     0.065 C 
ATOM     21  N   UNL A   1      32.063  17.238  24.887  1.00  0.00    -0.344 N 
ATOM     22  C   UNL A   1      34.956  16.815  24.954  1.00  0.00     0.012 C 
ATOM     23  C   UNL A   1      32.598  15.991  25.470  1.00  0.00     0.260 C 
ATOM     24  H   UNL A   1      31.941  17.120  23.881  1.00  0.00     0.346 HD
ATOM     25  H   UNL A   1      31.161  17.457  25.312  1.00  0.00     0.346 HD
ATOM     26  C   UNL A   1      34.003  15.626  24.962  1.00  0.00     0.062 C 
ENDBRANCH  18  19
ENDBRANCH  16  18
ENDBRANCH  13  16
ENDBRANCH   9  13
ENDBRANCH   7   9
ENDBRANCH   6   7
ENDBRANCH   5   6
ENDBRANCH   4   5
ENDBRANCH   3   4
ENDBRANCH   2   3
ENDBRANCH   1   2
BRANCH   1  27
ATOM     27  O   UNL A   1      32.466  27.366  22.280  1.00  0.00    -0.377 OA
BRANCH  27  28
ATOM     28  C   UNL A   1      32.397  28.004  23.536  1.00  0.00     0.188 C 
BRANCH  28  29
ATOM     29  C   UNL A   1      31.126  28.827  23.776  1.00  0.00     0.188 C 
BRANCH  29  30
ATOM     30  O   UNL A   1      31.084  29.410  25.077  1.00  0.00    -0.376 OA
BRANCH  30  31
ATOM     31  C   UNL A   1      31.035  30.825  25.167  1.00  0.00     0.202 C 
BRANCH  31  32
ATOM     32  C   UNL A   1      31.423  31.412  26.533  1.00  0.00     0.261 C 
BRANCH  32  33
ATOM     33  O   UNL A   1      32.797  31.259  26.922  1.00  0.00    -0.460 OA
BRANCH  33  34
ATOM     34  C   UNL A   1      33.421  32.326  27.465  1.00  0.00     0.338 C 
ATOM     35  O   UNL A   1      32.956  33.437  27.652  1.00  0.00    -0.246 OA
BRANCH  34  36
ATOM     36  C   UNL A   1      34.722  31.865  27.998  1.00  0.00     0.060 A 
ATOM     37  C   UNL A   1      34.866  30.514  28.343  1.00  0.00     0.016 A 
ATOM     38  C   UNL A   1      35.801  32.744  28.117  1.00  0.00     0.016 A 
ATOM     39  C   UNL A   1      36.085  30.041  28.832  1.00  0.00     0.010 A 
ATOM     40  C   UNL A   1      37.009  32.281  28.645  1.00  0.00     0.010 A 
ATOM     41  C   UNL A   1      37.142  30.936  29.039  1.00  0.00    -0.014 A 
BRANCH  41  42
ATOM     42  C   UNL A   1      38.265  30.544  29.923  1.00  0.00     0.031 A 
ATOM     43  C   UNL A   1      39.260  29.558  29.370  1.00  0.00     0.074 A 
ATOM     44  C   UNL A   1      38.414  31.041  31.162  1.00  0.00     0.049 A 
ATOM     45  N   UNL A   1      40.283  28.987  29.951  1.00  0.00    -0.248 NA
ATOM     46  C   UNL A   1      39.069  29.164  27.964  1.00  0.00     0.031 C 
ATOM     47  C   UNL A   1      37.553  32.043  31.785  1.00  0.00     0.029 A 
ATOM     48  N   UNL A   1      39.352  30.756  32.124  1.00  0.00    -0.354 N 
ATOM     49  C   UNL A   1      40.852  28.170  28.983  1.00  0.00     0.074 A 
ATOM     50  C   UNL A   1      40.048  28.291  27.789  1.00  0.00     0.031 C 
ATOM     51  C   UNL A   1      37.993  32.277  33.036  1.00  0.00     0.029 A 
ATOM     52  C   UNL A   1      39.143  31.415  33.310  1.00  0.00     0.049 A 
ATOM     53  H   UNL A   1      40.104  30.136  31.977  1.00  0.00     0.167 HD
ATOM     54  C   UNL A   1      41.954  27.391  29.079  1.00  0.00     0.037 A 
ATOM     55  C   UNL A   1      39.795  31.308  34.486  1.00  0.00     0.037 A 
ATOM     56  C   UNL A   1      42.742  27.258  30.272  1.00  0.00     0.049 A 
ATOM     57  C   UNL A   1      40.961  30.353  34.597  1.00  0.00     0.074 A 
ATOM     58  C   UNL A   1      43.866  26.480  30.482  1.00  0.00     0.029 A 
ATOM     59  N   UNL A   1      42.480  27.919  31.463  1.00  0.00    -0.354 N 
ATOM     60  N   UNL A   1      41.501  29.589  33.678  1.00  0.00    -0.248 NA
ATOM     61  C   UNL A   1      41.610  30.247  35.913  1.00  0.00     0.031 C 
ATOM     62  C   UNL A   1      44.256  26.634  31.816  1.00  0.00     0.029 A 
ATOM     63  C   UNL A   1      43.412  27.553  32.418  1.00  0.00     0.049 A 
ATOM     64  H   UNL A   1      41.741  28.553  31.607  1.00  0.00     0.167 HD
ATOM     65  C   UNL A   1      42.574  28.950  34.290  1.00  0.00     0.074 A 
ATOM     66  C   UNL A   1      42.612  29.419  35.658  1.00  0.00     0.031 C 
ATOM     67  C   UNL A   1      43.452  28.058  33.767  1.00  0.00     0.037 A 
BRANCH  54  68
ATOM     68  C   UNL A   1      42.350  26.604  27.866  1.00  0.00     0.064 A 
ATOM     69  C   UNL A   1      41.806  25.339  27.600  1.00  0.00     0.173 A 
ATOM     70  C   UNL A   1      43.268  27.132  26.945  1.00  0.00     0.173 A 
ATOM     71  F   UNL A   1      40.942  24.780  28.461  1.00  0.00    -0.203 F 
ATOM     72  C   UNL A   1      42.181  24.621  26.467  1.00  0.00     0.198 A 
ATOM     73  C   UNL A   1      43.618  26.424  25.798  1.00  0.00     0.198 A 
ATOM     74  F   UNL A   1      43.821  28.336  27.155  1.00  0.00    -0.203 F 
ATOM     75  F   UNL A   1      41.684  23.394  26.259  1.00  0.00    -0.200 F 
ATOM     76  C   UNL A   1      43.080  25.168  25.564  1.00  0.00     0.200 A 
ATOM     77  F   UNL A   1      44.478  26.958  24.921  1.00  0.00    -0.200 F 
ATOM     78  F   UNL A   1      43.433  24.481  24.469  1.00  0.00    -0.200 F 
ENDBRANCH  54  68
BRANCH  55  79
ATOM     79  C   UNL A   1      39.360  32.101  35.668  1.00  0.00     0.064 A 
ATOM     80  C   UNL A   1      39.930  33.352  35.949  1.00  0.00     0.173 A 
ATOM     81  C   UNL A   1      38.412  31.602  36.572  1.00  0.00     0.173 A 
ATOM     82  F   UNL A   1      40.865  33.860  35.132  1.00  0.00    -0.203 F 
ATOM     83  C   UNL A   1      39.589  34.058  37.103  1.00  0.00     0.198 A 
ATOM     84  C   UNL A   1      38.048  32.323  37.709  1.00  0.00     0.198 A 
ATOM     85  F   UNL A   1      37.840  30.408  36.357  1.00  0.00    -0.203 F 
ATOM     86  F   UNL A   1      40.197  35.219  37.378  1.00  0.00    -0.200 F 
ATOM     87  C   UNL A   1      38.646  33.544  37.979  1.00  0.00     0.200 A 
ATOM     88  F   UNL A   1      37.129  31.827  38.549  1.00  0.00    -0.200 F 
ATOM     89  F   UNL A   1      38.324  34.219  39.092  1.00  0.00    -0.200 F 
ENDBRANCH  55  79
BRANCH  67  90
ATOM     90  C   UNL A   1      44.571  27.582  34.647  1.00  0.00     0.064 A 
ATOM     91  C   UNL A   1      44.469  26.411  35.411  1.00  0.00     0.173 A 
ATOM     92  C   UNL A   1      45.790  28.279  34.671  1.00  0.00     0.173 A 
ATOM     93  F   UNL A   1      43.323  25.714  35.429  1.00  0.00    -0.203 F 
ATOM     94  C   UNL A   1      45.538  25.969  36.186  1.00  0.00     0.198 A 
ATOM     95  C   UNL A   1      46.867  27.816  35.422  1.00  0.00     0.198 A 
ATOM     96  F   UNL A   1      45.944  29.399  33.949  1.00  0.00    -0.203 F 
ATOM     97  F   UNL A   1      45.404  24.871  36.943  1.00  0.00    -0.200 F 
ATOM     98  C   UNL A   1      46.737  26.665  36.184  1.00  0.00     0.200 A 
ATOM     99  F   UNL A   1      48.030  28.481  35.403  1.00  0.00    -0.200 F 
ATOM    100  F   UNL A   1      47.769  26.229  36.920  1.00  0.00    -0.200 F 
ENDBRANCH  67  90
ENDBRANCH  41  42
ENDBRANCH  34  36
ENDBRANCH  33  34
ENDBRANCH  32  33
ENDBRANCH  31  32
ENDBRANCH  30  31
ENDBRANCH  29  30
ENDBRANCH  28  29
ENDBRANCH  27  28
ENDBRANCH   1  27
TORSDOF 25
ENDMDL
MODEL 2
REMARK VINA RESULT:      -9.0      0.566      1.992
REMARK SMILES CC(C)[C@H]([NH2+][C@@H](C)C[C@@H]1CCCC[NH2+]1)C(=O)OCCOCCOCCOCCOC(=O)c1ccc(-c2c3nc(c(-c4c(F)c(F)c(F)c(F)c4F)c4ccc([nH]4)c(-c4c(F)c(F)c(F)c(F)c4F)c4nc(c(-c5c(F)c(F)c(F)c(F)c5F)c5ccc2[nH]5)C=C4)C=C3)cc1
REMARK SMILES IDX 22 1 21 2 20 3 19 4 18 5 17 6 15 7 16 8 4 9 2 10 1 11 3 12
REMARK SMILES IDX 5 13 6 16 7 17 8 18 9 19 10 20 14 21 11 22 13 23 12 26 23 27
REMARK SMILES IDX 24 28 25 29 26 30 27 31 28 32 29 33 30 34 31 35 32 36 33 37
REMARK SMILES IDX 94 38 34 39 93 40 35 41 36 42 37 43 87 44 38 45 92 46 86 47
REMARK SMILES IDX 88 48 39 49 91 50 85 51 84 52 40 54 72 55 52 56 71 57 53 58
REMARK SMILES IDX 56 59 70 60 89 61 54 62 55 63 69 65 90 66 57 67 41 68 42 69
REMARK SMILES IDX 50 70 43 71 44 72 48 73 51 74 45 75 46 76 49 77 47 78 73 79
REMARK SMILES IDX 74 80 82 81 75 82 76 83 80 84 83 85 77 86 78 87 81 88 79 89
REMARK SMILES IDX 58 90 59 91 67 92 60 93 61 94 65 95 68 96 62 97 63 98 66 99
REMARK SMILES IDX 64 100
REMARK H PARENT 5 14 5 15 14 24 14 25 88 53 56 64
REMARK Flexibility Score: inf
ROOT
ATOM      1  C   UNL A   1      33.026  26.177  22.204  1.00  0.00     0.188 C 
ENDROOT
BRANCH   1   2
ATOM      2  C   UNL A   1      32.142  24.919  22.047  1.00  0.00     0.188 C 
BRANCH   2   3
ATOM      3  O   UNL A   1      31.470  24.314  23.149  1.00  0.00    -0.376 OA
BRANCH   3   4
ATOM      4  C   UNL A   1      30.636  25.091  23.986  1.00  0.00     0.202 C 
BRANCH   4   5
ATOM      5  C   UNL A   1      30.872  25.013  25.504  1.00  0.00     0.261 C 
BRANCH   5   6
ATOM      6  O   UNL A   1      31.892  24.109  25.961  1.00  0.00    -0.459 OA
BRANCH   6   7
ATOM      7  C   UNL A   1      33.169  24.562  25.852  1.00  0.00     0.365 C 
ATOM      8  O   UNL A   1      33.475  25.751  25.800  1.00  0.00    -0.245 OA
BRANCH   7   9
ATOM      9  C   UNL A   1      34.216  23.448  25.654  1.00  0.00     0.296 C 
BRANCH   9  10
ATOM     10  C   UNL A   1      35.499  23.992  24.943  1.00  0.00     0.053 C 
ATOM     11  C   UNL A   1      36.768  23.956  25.800  1.00  0.00     0.014 C 
ATOM     12  C   UNL A   1      35.802  23.376  23.575  1.00  0.00     0.014 C 
ENDBRANCH   9  10
BRANCH   9  13
ATOM     13  N   UNL A   1      33.718  22.121  25.203  1.00  0.00    -0.332 N 
ATOM     14  H   UNL A   1      34.218  21.900  24.342  1.00  0.00     0.347 HD
ATOM     15  H   UNL A   1      32.710  22.263  25.148  1.00  0.00     0.347 HD
BRANCH  13  16
ATOM     16  C   UNL A   1      33.837  20.930  26.079  1.00  0.00     0.185 C 
ATOM     17  C   UNL A   1      33.752  21.470  27.526  1.00  0.00     0.075 C 
BRANCH  16  18
ATOM     18  C   UNL A   1      32.837  19.732  25.984  1.00  0.00     0.129 C 
BRANCH  18  19
ATOM     19  C   UNL A   1      33.401  18.506  25.247  1.00  0.00     0.188 C 
ATOM     20  C   UNL A   1      32.621  18.232  23.950  1.00  0.00     0.065 C 
ATOM     21  N   UNL A   1      33.361  17.242  26.005  1.00  0.00    -0.344 N 
ATOM     22  C   UNL A   1      33.466  17.308  23.083  1.00  0.00     0.012 C 
ATOM     23  C   UNL A   1      34.155  16.223  25.287  1.00  0.00     0.260 C 
ATOM     24  H   UNL A   1      32.396  16.925  26.091  1.00  0.00     0.346 HD
ATOM     25  H   UNL A   1      33.751  17.387  26.937  1.00  0.00     0.346 HD
ATOM     26  C   UNL A   1      33.703  16.002  23.834  1.00  0.00     0.062 C 
ENDBRANCH  18  19
ENDBRANCH  16  18
ENDBRANCH  13  16
ENDBRANCH   9  13
ENDBRANCH   7   9
ENDBRANCH   6   7
ENDBRANCH   5   6
ENDBRANCH   4   5
ENDBRANCH   3   4
ENDBRANCH   2   3
ENDBRANCH   1   2
BRANCH   1  27
ATOM     27  O   UNL A   1      32.311  27.380  22.419  1.00  0.00    -0.377 OA
BRANCH  27  28
ATOM     28  C   UNL A   1      32.072  27.693  23.774  1.00  0.00     0.188 C 
BRANCH  28  29
ATOM     29  C   UNL A   1      30.988  28.752  24.012  1.00  0.00     0.188 C 
BRANCH  29  30
ATOM     30  O   UNL A   1      31.108  29.385  25.284  1.00  0.00    -0.376 OA
BRANCH  30  31
ATOM     31  C   UNL A   1      31.405  30.772  25.307  1.00  0.00     0.202 C 
BRANCH  31  32
ATOM     32  C   UNL A   1      31.782  31.343  26.683  1.00  0.00     0.261 C 
BRANCH  32  33
ATOM     33  O   UNL A   1      33.149  31.170  27.089  1.00  0.00    -0.460 OA
BRANCH  33  34
ATOM     34  C   UNL A   1      33.763  32.208  27.696  1.00  0.00     0.338 C 
ATOM     35  O   UNL A   1      33.287  33.301  27.950  1.00  0.00    -0.246 OA
BRANCH  34  36
ATOM     36  C   UNL A   1      35.067  31.727  28.203  1.00  0.00     0.060 A 
ATOM     37  C   UNL A   1      35.200  30.372  28.536  1.00  0.00     0.016 A 
ATOM     38  C   UNL A   1      36.159  32.592  28.307  1.00  0.00     0.016 A 
ATOM     39  C   UNL A   1      36.422  29.882  29.000  1.00  0.00     0.010 A 
ATOM     40  C   UNL A   1      37.370  32.110  28.810  1.00  0.00     0.010 A 
ATOM     41  C   UNL A   1      37.494  30.762  29.193  1.00  0.00    -0.014 A 
BRANCH  41  42
ATOM     42  C   UNL A   1      38.628  30.350  30.054  1.00  0.00     0.031 A 
ATOM     43  C   UNL A   1      39.606  29.362  29.474  1.00  0.00     0.074 A 
ATOM     44  C   UNL A   1      38.802  30.832  31.295  1.00  0.00     0.049 A 
ATOM     45  N   UNL A   1      40.632  28.776  30.031  1.00  0.00    -0.248 NA
ATOM     46  C   UNL A   1      39.387  28.985  28.066  1.00  0.00     0.031 C 
ATOM     47  C   UNL A   1      37.961  31.835  31.944  1.00  0.00     0.029 A 
ATOM     48  N   UNL A   1      39.754  30.528  32.239  1.00  0.00    -0.354 N 
ATOM     49  C   UNL A   1      41.178  27.964  29.044  1.00  0.00     0.074 A 
ATOM     50  C   UNL A   1      40.355  28.106  27.866  1.00  0.00     0.031 C 
ATOM     51  C   UNL A   1      38.423  32.050  33.190  1.00  0.00     0.029 A 
ATOM     52  C   UNL A   1      39.570  31.176  33.436  1.00  0.00     0.049 A 
ATOM     53  H   UNL A   1      40.497  29.904  32.072  1.00  0.00     0.167 HD
ATOM     54  C   UNL A   1      42.275  27.175  29.113  1.00  0.00     0.037 A 
ATOM     55  C   UNL A   1      40.240  31.049  34.599  1.00  0.00     0.037 A 
ATOM     56  C   UNL A   1      43.081  27.022  30.292  1.00  0.00     0.049 A 
ATOM     57  C   UNL A   1      41.400  30.084  34.680  1.00  0.00     0.074 A 
ATOM     58  C   UNL A   1      44.201  26.232  30.475  1.00  0.00     0.029 A 
ATOM     59  N   UNL A   1      42.845  27.672  31.494  1.00  0.00    -0.354 N 
ATOM     60  N   UNL A   1      41.918  29.325  33.744  1.00  0.00    -0.248 NA
ATOM     61  C   UNL A   1      42.070  29.958  35.983  1.00  0.00     0.031 C 
ATOM     62  C   UNL A   1      44.615  26.367  31.803  1.00  0.00     0.029 A 
ATOM     63  C   UNL A   1      43.790  27.287  32.429  1.00  0.00     0.049 A 
ATOM     64  H   UNL A   1      42.114  28.311  31.658  1.00  0.00     0.167 HD
ATOM     65  C   UNL A   1      42.995  28.671  34.330  1.00  0.00     0.074 A 
ATOM     66  C   UNL A   1      43.060  29.124  35.703  1.00  0.00     0.031 C 
ATOM     67  C   UNL A   1      43.856  27.777  33.783  1.00  0.00     0.037 A 
BRANCH  54  68
ATOM     68  C   UNL A   1      42.644  26.399  27.885  1.00  0.00     0.064 A 
ATOM     69  C   UNL A   1      43.602  26.872  26.976  1.00  0.00     0.173 A 
ATOM     70  C   UNL A   1      42.050  25.155  27.626  1.00  0.00     0.173 A 
ATOM     71  F   UNL A   1      44.183  28.067  27.167  1.00  0.00    -0.203 F 
ATOM     72  C   UNL A   1      43.938  26.138  25.841  1.00  0.00     0.198 A 
ATOM     73  C   UNL A   1      42.409  24.410  26.506  1.00  0.00     0.198 A 
ATOM     74  F   UNL A   1      41.124  24.660  28.461  1.00  0.00    -0.203 F 
ATOM     75  F   UNL A   1      44.821  26.631  24.963  1.00  0.00    -0.200 F 
ATOM     76  C   UNL A   1      43.347  24.904  25.613  1.00  0.00     0.200 A 
ATOM     77  F   UNL A   1      41.845  23.214  26.291  1.00  0.00    -0.200 F 
ATOM     78  F   UNL A   1      43.677  24.193  24.525  1.00  0.00    -0.200 F 
ENDBRANCH  54  68
BRANCH  55  79
ATOM     79  C   UNL A   1      39.832  31.833  35.797  1.00  0.00     0.064 A 
ATOM     80  C   UNL A   1      38.676  31.502  36.519  1.00  0.00     0.173 A 
ATOM     81  C   UNL A   1      40.554  32.962  36.210  1.00  0.00     0.173 A 
ATOM     82  F   UNL A   1      37.933  30.449  36.146  1.00  0.00    -0.203 F 
ATOM     83  C   UNL A   1      38.243  32.286  37.588  1.00  0.00     0.198 A 
ATOM     84  C   UNL A   1      40.138  33.727  37.299  1.00  0.00     0.198 A 
ATOM     85  F   UNL A   1      41.664  33.329  35.552  1.00  0.00    -0.203 F 
ATOM     86  F   UNL A   1      37.100  31.983  38.218  1.00  0.00    -0.200 F 
ATOM     87  C   UNL A   1      38.977  33.395  37.979  1.00  0.00     0.200 A 
ATOM     88  F   UNL A   1      40.855  34.794  37.679  1.00  0.00    -0.200 F 
ATOM     89  F   UNL A   1      38.556  34.153  39.002  1.00  0.00    -0.200 F 
ENDBRANCH  55  79
BRANCH  67  90
ATOM     90  C   UNL A   1      44.986  27.281  34.639  1.00  0.00     0.064 A 
ATOM     91  C   UNL A   1      46.206  27.966  34.728  1.00  0.00     0.173 A 
ATOM     92  C   UNL A   1      44.814  26.136  35.432  1.00  0.00     0.173 A 
ATOM     93  F   UNL A   1      46.423  29.060  33.984  1.00  0.00    -0.203 F 
ATOM     94  C   UNL A   1      47.222  27.507  35.562  1.00  0.00     0.198 A 
ATOM     95  C   UNL A   1      45.821  25.699  36.289  1.00  0.00     0.198 A 
ATOM     96  F   UNL A   1      43.661  25.451  35.393  1.00  0.00    -0.203 F 
ATOM     97  F   UNL A   1      48.397  28.152  35.599  1.00  0.00    -0.200 F 
ATOM     98  C   UNL A   1      47.026  26.382  36.348  1.00  0.00     0.200 A 
ATOM     99  F   UNL A   1      45.621  24.621  37.060  1.00  0.00    -0.200 F 
ATOM    100  F   UNL A   1      48.001  25.951  37.161  1.00  0.00    -0.200 F 
ENDBRANCH  67  90
ENDBRANCH  41  42
ENDBRANCH  34  36
ENDBRANCH  33  34
ENDBRANCH  32  33
ENDBRANCH  31  32
ENDBRANCH  30  31
ENDBRANCH  29  30
ENDBRANCH  28  29
ENDBRANCH  27  28
ENDBRANCH   1  27
TORSDOF 25
ENDMDL
MODEL 3
REMARK VINA RESULT:      -8.9      2.074      3.131
REMARK SMILES CC(C)[C@H]([NH2+][C@@H](C)C[C@@H]1CCCC[NH2+]1)C(=O)OCCOCCOCCOCCOC(=O)c1ccc(-c2c3nc(c(-c4c(F)c(F)c(F)c(F)c4F)c4ccc([nH]4)c(-c4c(F)c(F)c(F)c(F)c4F)c4nc(c(-c5c(F)c(F)c(F)c(F)c5F)c5ccc2[nH]5)C=C4)C=C3)cc1
REMARK SMILES IDX 22 1 21 2 20 3 19 4 18 5 17 6 15 7 16 8 4 9 2 10 1 11 3 12
REMARK SMILES IDX 5 13 6 16 7 17 8 18 9 19 10 20 14 21 11 22 13 23 12 26 23 27
REMARK SMILES IDX 24 28 25 29 26 30 27 31 28 32 29 33 30 34 31 35 32 36 33 37
REMARK SMILES IDX 94 38 34 39 93 40 35 41 36 42 37 43 87 44 38 45 92 46 86 47
REMARK SMILES IDX 88 48 39 49 91 50 85 51 84 52 40 54 72 55 52 56 71 57 53 58
REMARK SMILES IDX 56 59 70 60 89 61 54 62 55 63 69 65 90 66 57 67 41 68 42 69
REMARK SMILES IDX 50 70 43 71 44 72 48 73 51 74 45 75 46 76 49 77 47 78 73 79
REMARK SMILES IDX 74 80 82 81 75 82 76 83 80 84 83 85 77 86 78 87 81 88 79 89
REMARK SMILES IDX 58 90 59 91 67 92 60 93 61 94 65 95 68 96 62 97 63 98 66 99
REMARK SMILES IDX 64 100
REMARK H PARENT 5 14 5 15 14 24 14 25 88 53 56 64
REMARK Flexibility Score: inf
ROOT
ATOM      1  C   UNL A   1      33.422  25.413  22.626  1.00  0.00     0.188 C 
ENDROOT
BRANCH   1   2
ATOM      2  C   UNL A   1      33.132  24.186  21.733  1.00  0.00     0.188 C 
BRANCH   2   3
ATOM      3  O   UNL A   1      33.082  22.858  22.250  1.00  0.00    -0.376 OA
BRANCH   3   4
ATOM      4  C   UNL A   1      33.068  22.640  23.647  1.00  0.00     0.202 C 
BRANCH   4   5
ATOM      5  C   UNL A   1      33.401  21.227  24.154  1.00  0.00     0.261 C 
BRANCH   5   6
ATOM      6  O   UNL A   1      34.739  21.002  24.630  1.00  0.00    -0.459 OA
BRANCH   6   7
ATOM      7  C   UNL A   1      35.000  21.459  25.884  1.00  0.00     0.365 C 
ATOM      8  O   UNL A   1      34.149  21.581  26.763  1.00  0.00    -0.245 OA
BRANCH   7   9
ATOM      9  C   UNL A   1      36.446  21.954  26.084  1.00  0.00     0.296 C 
BRANCH   9  10
ATOM     10  C   UNL A   1      36.501  23.513  26.213  1.00  0.00     0.053 C 
ATOM     11  C   UNL A   1      37.915  24.096  26.306  1.00  0.00     0.014 C 
ATOM     12  C   UNL A   1      35.710  24.287  25.157  1.00  0.00     0.014 C 
ENDBRANCH   9  10
BRANCH   9  13
ATOM     13  N   UNL A   1      37.502  21.318  25.253  1.00  0.00    -0.332 N 
ATOM     14  H   UNL A   1      37.965  22.072  24.744  1.00  0.00     0.347 HD
ATOM     15  H   UNL A   1      36.981  20.628  24.713  1.00  0.00     0.347 HD
BRANCH  13  16
ATOM     16  C   UNL A   1      38.574  20.508  25.880  1.00  0.00     0.185 C 
ATOM     17  C   UNL A   1      38.640  19.200  25.058  1.00  0.00     0.075 C 
BRANCH  16  18
ATOM     18  C   UNL A   1      40.040  21.037  26.010  1.00  0.00     0.129 C 
BRANCH  18  19
ATOM     19  C   UNL A   1      41.093  19.927  26.154  1.00  0.00     0.188 C 
ATOM     20  C   UNL A   1      41.576  19.807  27.610  1.00  0.00     0.065 C 
ATOM     21  N   UNL A   1      42.315  20.108  25.349  1.00  0.00    -0.344 N 
ATOM     22  C   UNL A   1      42.268  18.459  27.763  1.00  0.00     0.012 C 
ATOM     23  C   UNL A   1      43.109  18.863  25.389  1.00  0.00     0.260 C 
ATOM     24  H   UNL A   1      42.865  20.877  25.731  1.00  0.00     0.346 HD
ATOM     25  H   UNL A   1      42.062  20.323  24.384  1.00  0.00     0.346 HD
ATOM     26  C   UNL A   1      43.459  18.402  26.814  1.00  0.00     0.062 C 
ENDBRANCH  18  19
ENDBRANCH  16  18
ENDBRANCH  13  16
ENDBRANCH   9  13
ENDBRANCH   7   9
ENDBRANCH   6   7
ENDBRANCH   5   6
ENDBRANCH   4   5
ENDBRANCH   3   4
ENDBRANCH   2   3
ENDBRANCH   1   2
BRANCH   1  27
ATOM     27  O   UNL A   1      32.290  26.214  22.917  1.00  0.00    -0.377 OA
BRANCH  27  28
ATOM     28  C   UNL A   1      31.878  26.189  24.266  1.00  0.00     0.188 C 
BRANCH  28  29
ATOM     29  C   UNL A   1      30.660  27.065  24.586  1.00  0.00     0.188 C 
BRANCH  29  30
ATOM     30  O   UNL A   1      30.965  28.118  25.498  1.00  0.00    -0.376 OA
BRANCH  30  31
ATOM     31  C   UNL A   1      31.449  29.339  24.961  1.00  0.00     0.202 C 
BRANCH  31  32
ATOM     32  C   UNL A   1      31.802  30.419  25.996  1.00  0.00     0.261 C 
BRANCH  32  33
ATOM     33  O   UNL A   1      33.167  30.452  26.440  1.00  0.00    -0.460 OA
BRANCH  33  34
ATOM     34  C   UNL A   1      33.549  31.477  27.232  1.00  0.00     0.338 C 
ATOM     35  O   UNL A   1      32.879  32.436  27.572  1.00  0.00    -0.246 OA
BRANCH  34  36
ATOM     36  C   UNL A   1      34.871  31.137  27.803  1.00  0.00     0.060 A 
ATOM     37  C   UNL A   1      35.157  29.794  28.083  1.00  0.00     0.016 A 
ATOM     38  C   UNL A   1      35.834  32.126  28.019  1.00  0.00     0.016 A 
ATOM     39  C   UNL A   1      36.401  29.437  28.605  1.00  0.00     0.010 A 
ATOM     40  C   UNL A   1      37.064  31.774  28.580  1.00  0.00     0.010 A 
ATOM     41  C   UNL A   1      37.337  30.434  28.909  1.00  0.00    -0.014 A 
BRANCH  41  42
ATOM     42  C   UNL A   1      38.460  30.122  29.825  1.00  0.00     0.031 A 
ATOM     43  C   UNL A   1      39.515  29.174  29.319  1.00  0.00     0.074 A 
ATOM     44  C   UNL A   1      38.560  30.660  31.051  1.00  0.00     0.049 A 
ATOM     45  N   UNL A   1      40.552  28.671  29.934  1.00  0.00    -0.248 NA
ATOM     46  C   UNL A   1      39.372  28.732  27.920  1.00  0.00     0.031 C 
ATOM     47  C   UNL A   1      37.638  31.633  31.631  1.00  0.00     0.029 A 
ATOM     48  N   UNL A   1      39.491  30.448  32.039  1.00  0.00    -0.354 N 
ATOM     49  C   UNL A   1      41.181  27.857  29.000  1.00  0.00     0.074 A 
ATOM     50  C   UNL A   1      40.396  27.906  27.788  1.00  0.00     0.031 C 
ATOM     51  C   UNL A   1      38.039  31.922  32.883  1.00  0.00     0.029 A 
ATOM     52  C   UNL A   1      39.225  31.128  33.202  1.00  0.00     0.049 A 
ATOM     53  H   UNL A   1      40.275  29.863  31.923  1.00  0.00     0.167 HD
ATOM     54  C   UNL A   1      42.318  27.138  29.138  1.00  0.00     0.037 A 
ATOM     55  C   UNL A   1      39.858  31.084  34.393  1.00  0.00     0.037 A 
ATOM     56  C   UNL A   1      43.088  27.077  30.349  1.00  0.00     0.049 A 
ATOM     57  C   UNL A   1      41.068  30.193  34.552  1.00  0.00     0.074 A 
ATOM     58  C   UNL A   1      44.244  26.362  30.602  1.00  0.00     0.029 A 
ATOM     59  N   UNL A   1      42.769  27.755  31.516  1.00  0.00    -0.354 N 
ATOM     60  N   UNL A   1      41.664  29.433  33.665  1.00  0.00    -0.248 NA
ATOM     61  C   UNL A   1      41.695  30.156  35.882  1.00  0.00     0.031 C 
ATOM     62  C   UNL A   1      44.600  26.571  31.938  1.00  0.00     0.029 A 
ATOM     63  C   UNL A   1      43.699  27.463  32.498  1.00  0.00     0.049 A 
ATOM     64  H   UNL A   1      41.997  28.355  31.629  1.00  0.00     0.167 HD
ATOM     65  C   UNL A   1      42.754  28.866  34.314  1.00  0.00     0.074 A 
ATOM     66  C   UNL A   1      42.742  29.373  35.670  1.00  0.00     0.031 C 
ATOM     67  C   UNL A   1      43.686  28.006  33.833  1.00  0.00     0.037 A 
BRANCH  54  68
ATOM     68  C   UNL A   1      42.778  26.340  27.955  1.00  0.00     0.064 A 
ATOM     69  C   UNL A   1      42.383  25.006  27.770  1.00  0.00     0.173 A 
ATOM     70  C   UNL A   1      43.603  26.922  26.982  1.00  0.00     0.173 A 
ATOM     71  F   UNL A   1      41.613  24.396  28.684  1.00  0.00    -0.203 F 
ATOM     72  C   UNL A   1      42.815  24.278  26.664  1.00  0.00     0.198 A 
ATOM     73  C   UNL A   1      44.008  26.201  25.862  1.00  0.00     0.198 A 
ATOM     74  F   UNL A   1      44.012  28.193  27.114  1.00  0.00    -0.203 F 
ATOM     75  F   UNL A   1      42.465  22.992  26.533  1.00  0.00    -0.200 F 
ATOM     76  C   UNL A   1      43.620  24.879  25.708  1.00  0.00     0.200 A 
ATOM     77  F   UNL A   1      44.778  26.785  24.934  1.00  0.00    -0.200 F 
ATOM     78  F   UNL A   1      44.028  24.180  24.639  1.00  0.00    -0.200 F 
ENDBRANCH  54  68
BRANCH  55  79
ATOM     79  C   UNL A   1      39.361  31.886  35.544  1.00  0.00     0.064 A 
ATOM     80  C   UNL A   1      38.447  31.346  36.461  1.00  0.00     0.173 A 
ATOM     81  C   UNL A   1      39.741  33.225  35.719  1.00  0.00     0.173 A 
ATOM     82  F   UNL A   1      38.028  30.079  36.321  1.00  0.00    -0.203 F 
ATOM     83  C   UNL A   1      37.912  32.121  37.490  1.00  0.00     0.198 A 
ATOM     84  C   UNL A   1      39.230  33.990  36.766  1.00  0.00     0.198 A 
ATOM     85  F   UNL A   1      40.606  33.795  34.867  1.00  0.00    -0.203 F 
ATOM     86  F   UNL A   1      36.993  31.597  38.311  1.00  0.00    -0.200 F 
ATOM     87  C   UNL A   1      38.307  33.441  37.643  1.00  0.00     0.200 A 
ATOM     88  F   UNL A   1      39.621  35.263  36.916  1.00  0.00    -0.200 F 
ATOM     89  F   UNL A   1      37.787  34.188  38.627  1.00  0.00    -0.200 F 
ENDBRANCH  55  79
BRANCH  67  90
ATOM     90  C   UNL A   1      44.810  27.610  34.747  1.00  0.00     0.064 A 
ATOM     91  C   UNL A   1      44.753  26.454  35.538  1.00  0.00     0.173 A 
ATOM     92  C   UNL A   1      45.990  28.370  34.777  1.00  0.00     0.173 A 
ATOM     93  F   UNL A   1      43.644  25.699  35.551  1.00  0.00    -0.203 F 
ATOM     94  C   UNL A   1      45.826  26.088  36.345  1.00  0.00     0.198 A 
ATOM     95  C   UNL A   1      47.074  27.982  35.561  1.00  0.00     0.198 A 
ATOM     96  F   UNL A   1      46.101  29.479  34.030  1.00  0.00    -0.203 F 
ATOM     97  F   UNL A   1      45.734  25.003  37.127  1.00  0.00    -0.200 F 
ATOM     98  C   UNL A   1      46.988  26.845  36.349  1.00  0.00     0.200 A 
ATOM     99  F   UNL A   1      48.201  28.708  35.548  1.00  0.00    -0.200 F 
ATOM    100  F   UNL A   1      48.025  26.482  37.117  1.00  0.00    -0.200 F 
ENDBRANCH  67  90
ENDBRANCH  41  42
ENDBRANCH  34  36
ENDBRANCH  33  34
ENDBRANCH  32  33
ENDBRANCH  31  32
ENDBRANCH  30  31
ENDBRANCH  29  30
ENDBRANCH  28  29
ENDBRANCH  27  28
ENDBRANCH   1  27
TORSDOF 25
ENDMDL
