MODEL 1
REMARK VINA RESULT:     -10.6      0.000      0.000
REMARK SMILES Cc1onc(-c2cnn(C)c2C)c1C(=O)OCCOCCOCCOCCOC(=O)c1ccc(-c2c3nc(c(-c4c(F)c(F)c(F)c(F)c4F)c4ccc([nH]4)c(-c4c(F)c(F)c(F)c(F)c4F)c4nc(c(-c5c(F)c(F)c(F)c(F)c5F)c5ccc2[nH]5)C=C4)C=C3)cc1
REMARK SMILES IDX 23 1 22 2 21 3 20 4 19 5 18 6 17 7 16 8 14 9 15 10 13 11
REMARK SMILES IDX 1 12 2 13 3 14 4 15 5 16 6 17 7 18 11 19 8 20 9 21 12 22
REMARK SMILES IDX 10 23 24 24 25 25 26 26 27 27 28 28 29 29 30 30 31 31 32 32
REMARK SMILES IDX 93 33 33 34 92 35 34 36 35 37 36 38 86 39 37 40 91 41 85 42
REMARK SMILES IDX 87 43 38 44 90 45 84 46 83 47 39 49 71 50 51 51 70 52 52 53
REMARK SMILES IDX 55 54 69 55 88 56 53 57 54 58 68 60 89 61 56 62 40 63 41 64
REMARK SMILES IDX 49 65 42 66 43 67 47 68 50 69 44 70 45 71 48 72 46 73 72 74
REMARK SMILES IDX 73 75 81 76 74 77 75 78 79 79 82 80 76 81 77 82 80 83 78 84
REMARK SMILES IDX 57 85 58 86 66 87 59 88 60 89 64 90 67 91 61 92 62 93 65 94
REMARK SMILES IDX 63 95
REMARK H PARENT 87 48 55 59
REMARK Flexibility Score: inf
ROOT
ATOM      1  C   UNL A   1      40.162  20.810  26.150  1.00  0.00     0.188 C 
ENDROOT
BRANCH   1   2
ATOM      2  O   UNL A   1      38.994  21.617  26.111  1.00  0.00    -0.377 OA
BRANCH   2   3
ATOM      3  C   UNL A   1      38.066  21.451  25.052  1.00  0.00     0.188 C 
BRANCH   3   4
ATOM      4  C   UNL A   1      36.656  20.956  25.401  1.00  0.00     0.188 C 
BRANCH   4   5
ATOM      5  O   UNL A   1      35.749  22.015  25.707  1.00  0.00    -0.376 OA
BRANCH   5   6
ATOM      6  C   UNL A   1      34.713  21.664  26.619  1.00  0.00     0.202 C 
BRANCH   6   7
ATOM      7  C   UNL A   1      33.526  22.627  26.527  1.00  0.00     0.261 C 
BRANCH   7   8
ATOM      8  O   UNL A   1      32.398  22.102  25.806  1.00  0.00    -0.459 OA
BRANCH   8   9
ATOM      9  C   UNL A   1      31.779  22.926  24.919  1.00  0.00     0.344 C 
ATOM     10  O   UNL A   1      31.830  22.787  23.704  1.00  0.00    -0.246 OA
BRANCH   9  11
ATOM     11  C   UNL A   1      30.991  23.935  25.582  1.00  0.00     0.130 A 
ATOM     12  C   UNL A   1      29.369  22.577  27.169  1.00  0.00     0.092 C 
ATOM     13  C   UNL A   1      29.989  23.748  26.517  1.00  0.00     0.148 A 
ATOM     14  O   UNL A   1      29.473  24.955  26.875  1.00  0.00    -0.360 OA
ATOM     15  N   UNL A   1      30.067  25.953  26.130  1.00  0.00    -0.079 NA
ATOM     16  C   UNL A   1      30.955  25.333  25.348  1.00  0.00     0.132 A 
BRANCH  16  17
ATOM     17  C   UNL A   1      31.617  26.022  24.253  1.00  0.00     0.046 A 
ATOM     18  C   UNL A   1      31.140  26.032  22.931  1.00  0.00     0.145 A 
ATOM     19  C   UNL A   1      32.755  26.801  24.241  1.00  0.00     0.044 A 
ATOM     20  N   UNL A   1      31.947  26.704  22.110  1.00  0.00    -0.181 NA
ATOM     21  N   UNL A   1      32.915  27.174  22.926  1.00  0.00    -0.272 N 
ATOM     22  C   UNL A   1      33.647  27.220  25.348  1.00  0.00     0.067 C 
ATOM     23  C   UNL A   1      33.952  28.006  22.361  1.00  0.00     0.174 C 
ENDBRANCH  16  17
ENDBRANCH   9  11
ENDBRANCH   8   9
ENDBRANCH   7   8
ENDBRANCH   6   7
ENDBRANCH   5   6
ENDBRANCH   4   5
ENDBRANCH   3   4
ENDBRANCH   2   3
ENDBRANCH   1   2
BRANCH   1  24
ATOM     24  C   UNL A   1      41.053  20.780  27.402  1.00  0.00     0.188 C 
BRANCH  24  25
ATOM     25  O   UNL A   1      42.415  21.125  27.159  1.00  0.00    -0.376 OA
BRANCH  25  26
ATOM     26  C   UNL A   1      42.964  20.661  25.931  1.00  0.00     0.202 C 
BRANCH  26  27
ATOM     27  C   UNL A   1      43.751  21.749  25.194  1.00  0.00     0.261 C 
BRANCH  27  28
ATOM     28  O   UNL A   1      43.001  22.952  24.969  1.00  0.00    -0.460 OA
BRANCH  28  29
ATOM     29  C   UNL A   1      43.698  24.107  25.007  1.00  0.00     0.338 C 
ATOM     30  O   UNL A   1      44.664  24.416  24.335  1.00  0.00    -0.246 OA
BRANCH  29  31
ATOM     31  C   UNL A   1      42.991  25.033  25.907  1.00  0.00     0.060 A 
ATOM     32  C   UNL A   1      43.397  26.373  25.938  1.00  0.00     0.016 A 
ATOM     33  C   UNL A   1      41.947  24.580  26.718  1.00  0.00     0.016 A 
ATOM     34  C   UNL A   1      42.782  27.259  26.821  1.00  0.00     0.010 A 
ATOM     35  C   UNL A   1      41.347  25.462  27.614  1.00  0.00     0.010 A 
ATOM     36  C   UNL A   1      41.788  26.793  27.693  1.00  0.00    -0.014 A 
BRANCH  36  37
ATOM     37  C   UNL A   1      41.361  27.634  28.832  1.00  0.00     0.031 A 
ATOM     38  C   UNL A   1      42.126  27.518  30.120  1.00  0.00     0.074 A 
ATOM     39  C   UNL A   1      40.312  28.465  28.732  1.00  0.00     0.049 A 
ATOM     40  N   UNL A   1      41.932  28.129  31.260  1.00  0.00    -0.248 NA
ATOM     41  C   UNL A   1      43.265  26.584  30.121  1.00  0.00     0.031 C 
ATOM     42  C   UNL A   1      39.505  28.670  27.532  1.00  0.00     0.029 A 
ATOM     43  N   UNL A   1      39.739  29.285  29.670  1.00  0.00    -0.354 N 
ATOM     44  C   UNL A   1      42.928  27.663  32.106  1.00  0.00     0.074 A 
ATOM     45  C   UNL A   1      43.708  26.699  31.363  1.00  0.00     0.031 C 
ATOM     46  C   UNL A   1      38.527  29.550  27.811  1.00  0.00     0.029 A 
ATOM     47  C   UNL A   1      38.632  29.954  29.213  1.00  0.00     0.049 A 
ATOM     48  H   UNL A   1      40.089  29.384  30.585  1.00  0.00     0.167 HD
ATOM     49  C   UNL A   1      43.174  28.013  33.390  1.00  0.00     0.037 A 
ATOM     50  C   UNL A   1      37.796  30.785  29.864  1.00  0.00     0.037 A 
ATOM     51  C   UNL A   1      42.386  28.951  34.138  1.00  0.00     0.049 A 
ATOM     52  C   UNL A   1      38.050  31.104  31.314  1.00  0.00     0.074 A 
ATOM     53  C   UNL A   1      42.562  29.384  35.440  1.00  0.00     0.029 A 
ATOM     54  N   UNL A   1      41.259  29.592  33.647  1.00  0.00    -0.354 N 
ATOM     55  N   UNL A   1      39.022  30.698  32.094  1.00  0.00    -0.248 NA
ATOM     56  C   UNL A   1      37.088  31.999  31.974  1.00  0.00     0.031 C 
ATOM     57  C   UNL A   1      41.517  30.263  35.749  1.00  0.00     0.029 A 
ATOM     58  C   UNL A   1      40.712  30.400  34.630  1.00  0.00     0.049 A 
ATOM     59  H   UNL A   1      40.900  29.488  32.736  1.00  0.00     0.167 HD
ATOM     60  C   UNL A   1      38.804  31.303  33.324  1.00  0.00     0.074 A 
ATOM     61  C   UNL A   1      37.610  32.112  33.188  1.00  0.00     0.031 C 
ATOM     62  C   UNL A   1      39.528  31.202  34.466  1.00  0.00     0.037 A 
BRANCH  49  63
ATOM     63  C   UNL A   1      44.337  27.355  34.063  1.00  0.00     0.064 A 
ATOM     64  C   UNL A   1      45.613  27.937  34.045  1.00  0.00     0.173 A 
ATOM     65  C   UNL A   1      44.176  26.134  34.734  1.00  0.00     0.173 A 
ATOM     66  F   UNL A   1      45.818  29.094  33.397  1.00  0.00    -0.203 F 
ATOM     67  C   UNL A   1      46.692  27.311  34.663  1.00  0.00     0.198 A 
ATOM     68  C   UNL A   1      45.253  25.520  35.366  1.00  0.00     0.198 A 
ATOM     69  F   UNL A   1      42.975  25.537  34.771  1.00  0.00    -0.203 F 
ATOM     70  F   UNL A   1      47.910  27.864  34.603  1.00  0.00    -0.200 F 
ATOM     71  C   UNL A   1      46.510  26.106  35.326  1.00  0.00     0.200 A 
ATOM     72  F   UNL A   1      45.077  24.356  36.007  1.00  0.00    -0.200 F 
ATOM     73  F   UNL A   1      47.550  25.503  35.919  1.00  0.00    -0.200 F 
ENDBRANCH  49  63
BRANCH  50  74
ATOM     74  C   UNL A   1      36.636  31.376  29.154  1.00  0.00     0.064 A 
ATOM     75  C   UNL A   1      35.533  30.588  28.797  1.00  0.00     0.173 A 
ATOM     76  C   UNL A   1      36.614  32.732  28.800  1.00  0.00     0.173 A 
ATOM     77  F   UNL A   1      35.523  29.280  29.093  1.00  0.00    -0.203 F 
ATOM     78  C   UNL A   1      34.458  31.132  28.100  1.00  0.00     0.198 A 
ATOM     79  C   UNL A   1      35.528  33.279  28.119  1.00  0.00     0.198 A 
ATOM     80  F   UNL A   1      37.648  33.525  29.115  1.00  0.00    -0.203 F 
ATOM     81  F   UNL A   1      33.432  30.349  27.737  1.00  0.00    -0.200 F 
ATOM     82  C   UNL A   1      34.454  32.478  27.764  1.00  0.00     0.200 A 
ATOM     83  F   UNL A   1      35.526  34.581  27.802  1.00  0.00    -0.200 F 
ATOM     84  F   UNL A   1      33.420  33.000  27.092  1.00  0.00    -0.200 F 
ENDBRANCH  50  74
BRANCH  62  85
ATOM     85  C   UNL A   1      39.068  32.003  35.646  1.00  0.00     0.064 A 
ATOM     86  C   UNL A   1      38.245  31.443  36.632  1.00  0.00     0.173 A 
ATOM     87  C   UNL A   1      39.503  33.326  35.818  1.00  0.00     0.173 A 
ATOM     88  F   UNL A   1      37.795  30.187  36.502  1.00  0.00    -0.203 F 
ATOM     89  C   UNL A   1      37.861  32.187  37.745  1.00  0.00     0.198 A 
ATOM     90  C   UNL A   1      39.134  34.058  36.942  1.00  0.00     0.198 A 
ATOM     91  F   UNL A   1      40.296  33.901  34.901  1.00  0.00    -0.203 F 
ATOM     92  F   UNL A   1      37.049  31.643  38.662  1.00  0.00    -0.200 F 
ATOM     93  C   UNL A   1      38.311  33.489  37.902  1.00  0.00     0.200 A 
ATOM     94  F   UNL A   1      39.576  35.313  37.097  1.00  0.00    -0.200 F 
ATOM     95  F   UNL A   1      37.946  34.200  38.978  1.00  0.00    -0.200 F 
ENDBRANCH  62  85
ENDBRANCH  36  37
ENDBRANCH  29  31
ENDBRANCH  28  29
ENDBRANCH  27  28
ENDBRANCH  26  27
ENDBRANCH  25  26
ENDBRANCH  24  25
ENDBRANCH   1  24
TORSDOF 21
ENDMDL
MODEL 2
REMARK VINA RESULT:     -10.5      1.295      2.584
REMARK SMILES Cc1onc(-c2cnn(C)c2C)c1C(=O)OCCOCCOCCOCCOC(=O)c1ccc(-c2c3nc(c(-c4c(F)c(F)c(F)c(F)c4F)c4ccc([nH]4)c(-c4c(F)c(F)c(F)c(F)c4F)c4nc(c(-c5c(F)c(F)c(F)c(F)c5F)c5ccc2[nH]5)C=C4)C=C3)cc1
REMARK SMILES IDX 23 1 22 2 21 3 20 4 19 5 18 6 17 7 16 8 14 9 15 10 13 11
REMARK SMILES IDX 1 12 2 13 3 14 4 15 5 16 6 17 7 18 11 19 8 20 9 21 12 22
REMARK SMILES IDX 10 23 24 24 25 25 26 26 27 27 28 28 29 29 30 30 31 31 32 32
REMARK SMILES IDX 93 33 33 34 92 35 34 36 35 37 36 38 86 39 37 40 91 41 85 42
REMARK SMILES IDX 87 43 38 44 90 45 84 46 83 47 39 49 71 50 51 51 70 52 52 53
REMARK SMILES IDX 55 54 69 55 88 56 53 57 54 58 68 60 89 61 56 62 40 63 41 64
REMARK SMILES IDX 49 65 42 66 43 67 47 68 50 69 44 70 45 71 48 72 46 73 72 74
REMARK SMILES IDX 73 75 81 76 74 77 75 78 79 79 82 80 76 81 77 82 80 83 78 84
REMARK SMILES IDX 57 85 58 86 66 87 59 88 60 89 64 90 67 91 61 92 62 93 65 94
REMARK SMILES IDX 63 95
REMARK H PARENT 87 48 55 59
REMARK Flexibility Score: inf
ROOT
ATOM      1  C   UNL A   1      40.221  20.954  26.407  1.00  0.00     0.188 C 
ENDROOT
BRANCH   1   2
ATOM      2  O   UNL A   1      39.131  21.797  26.061  1.00  0.00    -0.377 OA
BRANCH   2   3
ATOM      3  C   UNL A   1      38.036  21.261  25.338  1.00  0.00     0.188 C 
BRANCH   3   4
ATOM      4  C   UNL A   1      36.747  22.089  25.264  1.00  0.00     0.188 C 
BRANCH   4   5
ATOM      5  O   UNL A   1      36.986  23.484  25.072  1.00  0.00    -0.376 OA
BRANCH   5   6
ATOM      6  C   UNL A   1      36.046  24.341  25.714  1.00  0.00     0.202 C 
BRANCH   6   7
ATOM      7  C   UNL A   1      34.672  24.279  25.041  1.00  0.00     0.261 C 
BRANCH   7   8
ATOM      8  O   UNL A   1      34.111  25.566  24.732  1.00  0.00    -0.459 OA
BRANCH   8   9
ATOM      9  C   UNL A   1      32.983  25.937  25.394  1.00  0.00     0.344 C 
ATOM     10  O   UNL A   1      32.968  26.334  26.552  1.00  0.00    -0.246 OA
BRANCH   9  11
ATOM     11  C   UNL A   1      31.818  25.884  24.545  1.00  0.00     0.130 A 
ATOM     12  C   UNL A   1      31.034  28.401  24.331  1.00  0.00     0.092 C 
ATOM     13  C   UNL A   1      31.029  26.938  24.125  1.00  0.00     0.148 A 
ATOM     14  O   UNL A   1      30.009  26.463  23.359  1.00  0.00    -0.360 OA
ATOM     15  N   UNL A   1      30.060  25.084  23.322  1.00  0.00    -0.079 NA
ATOM     16  C   UNL A   1      31.130  24.748  24.049  1.00  0.00     0.132 A 
BRANCH  16  17
ATOM     17  C   UNL A   1      31.383  23.371  24.439  1.00  0.00     0.046 A 
ATOM     18  C   UNL A   1      30.928  22.801  25.640  1.00  0.00     0.145 A 
ATOM     19  C   UNL A   1      32.040  22.358  23.774  1.00  0.00     0.044 A 
ATOM     20  N   UNL A   1      31.324  21.535  25.776  1.00  0.00    -0.181 NA
ATOM     21  N   UNL A   1      31.987  21.280  24.629  1.00  0.00    -0.272 N 
ATOM     22  C   UNL A   1      32.665  22.334  22.430  1.00  0.00     0.067 C 
ATOM     23  C   UNL A   1      32.519  19.955  24.417  1.00  0.00     0.174 C 
ENDBRANCH  16  17
ENDBRANCH   9  11
ENDBRANCH   8   9
ENDBRANCH   7   8
ENDBRANCH   6   7
ENDBRANCH   5   6
ENDBRANCH   4   5
ENDBRANCH   3   4
ENDBRANCH   2   3
ENDBRANCH   1   2
BRANCH   1  24
ATOM     24  C   UNL A   1      41.108  21.277  27.620  1.00  0.00     0.188 C 
BRANCH  24  25
ATOM     25  O   UNL A   1      42.483  21.476  27.302  1.00  0.00    -0.376 OA
BRANCH  25  26
ATOM     26  C   UNL A   1      42.911  20.963  26.045  1.00  0.00     0.202 C 
BRANCH  26  27
ATOM     27  C   UNL A   1      43.751  21.973  25.256  1.00  0.00     0.261 C 
BRANCH  27  28
ATOM     28  O   UNL A   1      43.060  23.199  24.968  1.00  0.00    -0.460 OA
BRANCH  28  29
ATOM     29  C   UNL A   1      43.792  24.330  25.052  1.00  0.00     0.338 C 
ATOM     30  O   UNL A   1      44.788  24.621  24.415  1.00  0.00    -0.246 OA
BRANCH  29  31
ATOM     31  C   UNL A   1      43.087  25.261  25.948  1.00  0.00     0.060 A 
ATOM     32  C   UNL A   1      43.582  26.564  26.079  1.00  0.00     0.016 A 
ATOM     33  C   UNL A   1      41.956  24.847  26.657  1.00  0.00     0.016 A 
ATOM     34  C   UNL A   1      42.967  27.448  26.963  1.00  0.00     0.010 A 
ATOM     35  C   UNL A   1      41.354  25.726  27.555  1.00  0.00     0.010 A 
ATOM     36  C   UNL A   1      41.881  27.016  27.737  1.00  0.00    -0.014 A 
BRANCH  36  37
ATOM     37  C   UNL A   1      41.431  27.829  28.887  1.00  0.00     0.031 A 
ATOM     38  C   UNL A   1      42.180  27.695  30.182  1.00  0.00     0.074 A 
ATOM     39  C   UNL A   1      40.374  28.651  28.789  1.00  0.00     0.049 A 
ATOM     40  N   UNL A   1      41.965  28.281  31.331  1.00  0.00    -0.248 NA
ATOM     41  C   UNL A   1      43.329  26.773  30.180  1.00  0.00     0.031 C 
ATOM     42  C   UNL A   1      39.581  28.872  27.583  1.00  0.00     0.029 A 
ATOM     43  N   UNL A   1      39.781  29.447  29.736  1.00  0.00    -0.354 N 
ATOM     44  C   UNL A   1      42.954  27.808  32.181  1.00  0.00     0.074 A 
ATOM     45  C   UNL A   1      43.754  26.867  31.429  1.00  0.00     0.031 C 
ATOM     46  C   UNL A   1      38.590  29.736  27.867  1.00  0.00     0.029 A 
ATOM     47  C   UNL A   1      38.673  30.113  29.278  1.00  0.00     0.049 A 
ATOM     48  H   UNL A   1      40.118  29.530  30.657  1.00  0.00     0.167 HD
ATOM     49  C   UNL A   1      43.181  28.135  33.475  1.00  0.00     0.037 A 
ATOM     50  C   UNL A   1      37.820  30.923  29.934  1.00  0.00     0.037 A 
ATOM     51  C   UNL A   1      42.373  29.050  34.231  1.00  0.00     0.049 A 
ATOM     52  C   UNL A   1      38.052  31.215  31.394  1.00  0.00     0.074 A 
ATOM     53  C   UNL A   1      42.527  29.458  35.543  1.00  0.00     0.029 A 
ATOM     54  N   UNL A   1      41.245  29.689  33.738  1.00  0.00    -0.354 N 
ATOM     55  N   UNL A   1      39.017  30.803  32.178  1.00  0.00    -0.248 NA
ATOM     56  C   UNL A   1      37.072  32.087  32.058  1.00  0.00     0.031 C 
ATOM     57  C   UNL A   1      41.469  30.320  35.856  1.00  0.00     0.029 A 
ATOM     58  C   UNL A   1      40.678  30.472  34.729  1.00  0.00     0.049 A 
ATOM     59  H   UNL A   1      40.900  29.600  32.821  1.00  0.00     0.167 HD
ATOM     60  C   UNL A   1      38.777  31.381  33.417  1.00  0.00     0.074 A 
ATOM     61  C   UNL A   1      37.577  32.181  33.281  1.00  0.00     0.031 C 
ATOM     62  C   UNL A   1      39.488  31.265  34.566  1.00  0.00     0.037 A 
BRANCH  49  63
ATOM     63  C   UNL A   1      44.341  27.475  34.149  1.00  0.00     0.064 A 
ATOM     64  C   UNL A   1      44.196  26.248  34.814  1.00  0.00     0.173 A 
ATOM     65  C   UNL A   1      45.610  28.071  34.130  1.00  0.00     0.173 A 
ATOM     66  F   UNL A   1      42.995  25.653  34.876  1.00  0.00    -0.203 F 
ATOM     67  C   UNL A   1      45.280  25.649  35.449  1.00  0.00     0.198 A 
ATOM     68  C   UNL A   1      46.695  27.460  34.751  1.00  0.00     0.198 A 
ATOM     69  F   UNL A   1      45.794  29.248  33.512  1.00  0.00    -0.203 F 
ATOM     70  F   UNL A   1      45.112  24.495  36.111  1.00  0.00    -0.200 F 
ATOM     71  C   UNL A   1      46.527  26.253  35.414  1.00  0.00     0.200 A 
ATOM     72  F   UNL A   1      47.901  28.042  34.716  1.00  0.00    -0.200 F 
ATOM     73  F   UNL A   1      47.570  25.675  36.029  1.00  0.00    -0.200 F 
ENDBRANCH  49  63
BRANCH  50  74
ATOM     74  C   UNL A   1      36.663  31.516  29.221  1.00  0.00     0.064 A 
ATOM     75  C   UNL A   1      36.633  32.882  28.909  1.00  0.00     0.173 A 
ATOM     76  C   UNL A   1      35.557  30.735  28.856  1.00  0.00     0.173 A 
ATOM     77  F   UNL A   1      37.658  33.671  29.262  1.00  0.00    -0.203 F 
ATOM     78  C   UNL A   1      35.533  33.448  28.270  1.00  0.00     0.198 A 
ATOM     79  C   UNL A   1      34.465  31.300  28.199  1.00  0.00     0.198 A 
ATOM     80  F   UNL A   1      35.537  29.425  29.138  1.00  0.00    -0.203 F 
ATOM     81  F   UNL A   1      35.512  34.764  28.016  1.00  0.00    -0.200 F 
ATOM     82  C   UNL A   1      34.451  32.657  27.912  1.00  0.00     0.200 A 
ATOM     83  F   UNL A   1      33.424  30.531  27.851  1.00  0.00    -0.200 F 
ATOM     84  F   UNL A   1      33.393  33.203  27.299  1.00  0.00    -0.200 F 
ENDBRANCH  50  74
BRANCH  62  85
ATOM     85  C   UNL A   1      39.004  32.037  35.755  1.00  0.00     0.064 A 
ATOM     86  C   UNL A   1      38.209  31.438  36.740  1.00  0.00     0.173 A 
ATOM     87  C   UNL A   1      39.390  33.374  35.937  1.00  0.00     0.173 A 
ATOM     88  F   UNL A   1      37.805  30.167  36.601  1.00  0.00    -0.203 F 
ATOM     89  C   UNL A   1      37.803  32.157  37.862  1.00  0.00     0.198 A 
ATOM     90  C   UNL A   1      38.999  34.082  37.069  1.00  0.00     0.198 A 
ATOM     91  F   UNL A   1      40.156  33.987  35.021  1.00  0.00    -0.203 F 
ATOM     92  F   UNL A   1      37.016  31.575  38.779  1.00  0.00    -0.200 F 
ATOM     93  C   UNL A   1      38.204  33.474  38.029  1.00  0.00     0.200 A 
ATOM     94  F   UNL A   1      39.395  35.352  37.233  1.00  0.00    -0.200 F 
ATOM     95  F   UNL A   1      37.818  34.161  39.113  1.00  0.00    -0.200 F 
ENDBRANCH  62  85
ENDBRANCH  36  37
ENDBRANCH  29  31
ENDBRANCH  28  29
ENDBRANCH  27  28
ENDBRANCH  26  27
ENDBRANCH  25  26
ENDBRANCH  24  25
ENDBRANCH   1  24
TORSDOF 21
ENDMDL
MODEL 3
REMARK VINA RESULT:     -10.5      5.587     11.557
REMARK SMILES Cc1onc(-c2cnn(C)c2C)c1C(=O)OCCOCCOCCOCCOC(=O)c1ccc(-c2c3nc(c(-c4c(F)c(F)c(F)c(F)c4F)c4ccc([nH]4)c(-c4c(F)c(F)c(F)c(F)c4F)c4nc(c(-c5c(F)c(F)c(F)c(F)c5F)c5ccc2[nH]5)C=C4)C=C3)cc1
REMARK SMILES IDX 23 1 22 2 21 3 20 4 19 5 18 6 17 7 16 8 14 9 15 10 13 11
REMARK SMILES IDX 1 12 2 13 3 14 4 15 5 16 6 17 7 18 11 19 8 20 9 21 12 22
REMARK SMILES IDX 10 23 24 24 25 25 26 26 27 27 28 28 29 29 30 30 31 31 32 32
REMARK SMILES IDX 93 33 33 34 92 35 34 36 35 37 36 38 86 39 37 40 91 41 85 42
REMARK SMILES IDX 87 43 38 44 90 45 84 46 83 47 39 49 71 50 51 51 70 52 52 53
REMARK SMILES IDX 55 54 69 55 88 56 53 57 54 58 68 60 89 61 56 62 40 63 41 64
REMARK SMILES IDX 49 65 42 66 43 67 47 68 50 69 44 70 45 71 48 72 46 73 72 74
REMARK SMILES IDX 73 75 81 76 74 77 75 78 79 79 82 80 76 81 77 82 80 83 78 84
REMARK SMILES IDX 57 85 58 86 66 87 59 88 60 89 64 90 67 91 61 92 62 93 65 94
REMARK SMILES IDX 63 95
REMARK H PARENT 87 48 55 59
REMARK Flexibility Score: inf
ROOT
ATOM      1  C   UNL A   1      32.752  36.123  30.402  1.00  0.00     0.188 C 
ENDROOT
BRANCH   1   2
ATOM      2  O   UNL A   1      32.563  37.008  31.496  1.00  0.00    -0.377 OA
BRANCH   2   3
ATOM      3  C   UNL A   1      33.636  37.255  32.389  1.00  0.00     0.188 C 
BRANCH   3   4
ATOM      4  C   UNL A   1      34.623  36.113  32.662  1.00  0.00     0.188 C 
BRANCH   4   5
ATOM      5  O   UNL A   1      34.247  35.301  33.774  1.00  0.00    -0.376 OA
BRANCH   5   6
ATOM      6  C   UNL A   1      34.680  33.946  33.693  1.00  0.00     0.202 C 
BRANCH   6   7
ATOM      7  C   UNL A   1      34.378  33.336  32.321  1.00  0.00     0.261 C 
BRANCH   7   8
ATOM      8  O   UNL A   1      35.538  32.848  31.626  1.00  0.00    -0.459 OA
BRANCH   8   9
ATOM      9  C   UNL A   1      36.513  32.256  32.366  1.00  0.00     0.344 C 
ATOM     10  O   UNL A   1      36.444  31.116  32.804  1.00  0.00    -0.246 OA
BRANCH   9  11
ATOM     11  C   UNL A   1      37.671  33.105  32.507  1.00  0.00     0.130 A 
ATOM     12  C   UNL A   1      38.085  34.074  30.081  1.00  0.00     0.092 C 
ATOM     13  C   UNL A   1      38.300  33.847  31.524  1.00  0.00     0.148 A 
ATOM     14  O   UNL A   1      39.375  34.487  32.060  1.00  0.00    -0.360 OA
ATOM     15  N   UNL A   1      39.523  34.120  33.382  1.00  0.00    -0.079 NA
ATOM     16  C   UNL A   1      38.515  33.280  33.633  1.00  0.00     0.132 A 
BRANCH  16  17
ATOM     17  C   UNL A   1      38.463  32.496  34.856  1.00  0.00     0.046 A 
ATOM     18  C   UNL A   1      39.223  31.335  35.075  1.00  0.00     0.145 A 
ATOM     19  C   UNL A   1      37.750  32.697  36.019  1.00  0.00     0.044 A 
ATOM     20  N   UNL A   1      38.966  30.783  36.261  1.00  0.00    -0.181 NA
ATOM     21  N   UNL A   1      38.080  31.630  36.824  1.00  0.00    -0.272 N 
ATOM     22  C   UNL A   1      36.839  33.797  36.413  1.00  0.00     0.067 C 
ATOM     23  C   UNL A   1      37.615  31.356  38.164  1.00  0.00     0.174 C 
ENDBRANCH  16  17
ENDBRANCH   9  11
ENDBRANCH   8   9
ENDBRANCH   7   8
ENDBRANCH   6   7
ENDBRANCH   5   6
ENDBRANCH   4   5
ENDBRANCH   3   4
ENDBRANCH   2   3
ENDBRANCH   1   2
BRANCH   1  24
ATOM     24  C   UNL A   1      33.346  36.629  29.077  1.00  0.00     0.188 C 
BRANCH  24  25
ATOM     25  O   UNL A   1      34.148  35.671  28.392  1.00  0.00    -0.376 OA
BRANCH  25  26
ATOM     26  C   UNL A   1      33.698  34.322  28.458  1.00  0.00     0.202 C 
BRANCH  26  27
ATOM     27  C   UNL A   1      34.789  33.321  28.067  1.00  0.00     0.261 C 
BRANCH  27  28
ATOM     28  O   UNL A   1      34.812  32.142  28.887  1.00  0.00    -0.460 OA
BRANCH  28  29
ATOM     29  C   UNL A   1      34.727  30.962  28.237  1.00  0.00     0.338 C 
ATOM     30  O   UNL A   1      33.838  30.582  27.496  1.00  0.00    -0.246 OA
BRANCH  29  31
ATOM     31  C   UNL A   1      35.994  30.240  28.440  1.00  0.00     0.060 A 
ATOM     32  C   UNL A   1      36.212  29.609  29.671  1.00  0.00     0.016 A 
ATOM     33  C   UNL A   1      36.958  30.197  27.430  1.00  0.00     0.016 A 
ATOM     34  C   UNL A   1      37.425  28.968  29.911  1.00  0.00     0.010 A 
ATOM     35  C   UNL A   1      38.179  29.572  27.678  1.00  0.00     0.010 A 
ATOM     36  C   UNL A   1      38.428  28.988  28.931  1.00  0.00    -0.014 A 
BRANCH  36  37
ATOM     37  C   UNL A   1      39.808  28.594  29.287  1.00  0.00     0.031 A 
ATOM     38  C   UNL A   1      40.605  29.523  30.157  1.00  0.00     0.074 A 
ATOM     39  C   UNL A   1      40.346  27.450  28.835  1.00  0.00     0.049 A 
ATOM     40  N   UNL A   1      41.835  29.411  30.585  1.00  0.00    -0.248 NA
ATOM     41  C   UNL A   1      39.918  30.748  30.605  1.00  0.00     0.031 C 
ATOM     42  C   UNL A   1      39.665  26.466  27.998  1.00  0.00     0.029 A 
ATOM     43  N   UNL A   1      41.603  26.932  29.014  1.00  0.00    -0.354 N 
ATOM     44  C   UNL A   1      42.065  30.540  31.358  1.00  0.00     0.074 A 
ATOM     45  C   UNL A   1      40.861  31.340  31.321  1.00  0.00     0.031 C 
ATOM     46  C   UNL A   1      40.520  25.466  27.720  1.00  0.00     0.029 A 
ATOM     47  C   UNL A   1      41.810  25.751  28.347  1.00  0.00     0.049 A 
ATOM     48  H   UNL A   1      42.291  27.366  29.568  1.00  0.00     0.167 HD
ATOM     49  C   UNL A   1      43.181  30.879  32.045  1.00  0.00     0.037 A 
ATOM     50  C   UNL A   1      42.924  25.000  28.247  1.00  0.00     0.037 A 
ATOM     51  C   UNL A   1      44.386  30.098  32.064  1.00  0.00     0.049 A 
ATOM     52  C   UNL A   1      44.176  25.434  28.964  1.00  0.00     0.074 A 
ATOM     53  C   UNL A   1      45.567  30.348  32.739  1.00  0.00     0.029 A 
ATOM     54  N   UNL A   1      44.566  28.919  31.357  1.00  0.00    -0.354 N 
ATOM     55  N   UNL A   1      44.371  26.478  29.732  1.00  0.00    -0.248 NA
ATOM     56  C   UNL A   1      45.364  24.584  28.796  1.00  0.00     0.031 C 
ATOM     57  C   UNL A   1      46.476  29.334  32.413  1.00  0.00     0.029 A 
ATOM     58  C   UNL A   1      45.848  28.439  31.561  1.00  0.00     0.049 A 
ATOM     59  H   UNL A   1      43.883  28.487  30.794  1.00  0.00     0.167 HD
ATOM     60  C   UNL A   1      45.690  26.397  30.159  1.00  0.00     0.074 A 
ATOM     61  C   UNL A   1      46.249  25.198  29.569  1.00  0.00     0.031 C 
ATOM     62  C   UNL A   1      46.378  27.239  30.969  1.00  0.00     0.037 A 
BRANCH  49  63
ATOM     63  C   UNL A   1      43.144  32.160  32.814  1.00  0.00     0.064 A 
ATOM     64  C   UNL A   1      43.464  33.384  32.207  1.00  0.00     0.173 A 
ATOM     65  C   UNL A   1      42.782  32.169  34.169  1.00  0.00     0.173 A 
ATOM     66  F   UNL A   1      43.837  33.420  30.918  1.00  0.00    -0.203 F 
ATOM     67  C   UNL A   1      43.438  34.570  32.934  1.00  0.00     0.198 A 
ATOM     68  C   UNL A   1      42.740  33.360  34.889  1.00  0.00     0.198 A 
ATOM     69  F   UNL A   1      42.474  31.022  34.793  1.00  0.00    -0.203 F 
ATOM     70  F   UNL A   1      43.784  35.723  32.346  1.00  0.00    -0.200 F 
ATOM     71  C   UNL A   1      43.073  34.557  34.272  1.00  0.00     0.200 A 
ATOM     72  F   UNL A   1      42.386  33.348  36.181  1.00  0.00    -0.200 F 
ATOM     73  F   UNL A   1      43.051  35.700  34.973  1.00  0.00    -0.200 F 
ENDBRANCH  49  63
BRANCH  50  74
ATOM     74  C   UNL A   1      42.911  23.758  27.436  1.00  0.00     0.064 A 
ATOM     75  C   UNL A   1      42.502  22.539  27.993  1.00  0.00     0.173 A 
ATOM     76  C   UNL A   1      43.326  23.761  26.097  1.00  0.00     0.173 A 
ATOM     77  F   UNL A   1      42.121  22.485  29.277  1.00  0.00    -0.203 F 
ATOM     78  C   UNL A   1      42.522  21.365  27.244  1.00  0.00     0.198 A 
ATOM     79  C   UNL A   1      43.328  22.589  25.343  1.00  0.00     0.198 A 
ATOM     80  F   UNL A   1      43.732  24.902  25.522  1.00  0.00    -0.203 F 
ATOM     81  F   UNL A   1      42.161  20.205  27.811  1.00  0.00    -0.200 F 
ATOM     82  C   UNL A   1      42.931  21.391  25.919  1.00  0.00     0.200 A 
ATOM     83  F   UNL A   1      43.718  22.620  24.062  1.00  0.00    -0.200 F 
ATOM     84  F   UNL A   1      42.951  20.262  25.199  1.00  0.00    -0.200 F 
ENDBRANCH  50  74
BRANCH  62  85
ATOM     85  C   UNL A   1      47.798  26.880  31.287  1.00  0.00     0.064 A 
ATOM     86  C   UNL A   1      48.110  25.968  32.303  1.00  0.00     0.173 A 
ATOM     87  C   UNL A   1      48.850  27.414  30.528  1.00  0.00     0.173 A 
ATOM     88  F   UNL A   1      47.137  25.443  33.062  1.00  0.00    -0.203 F 
ATOM     89  C   UNL A   1      49.432  25.611  32.558  1.00  0.00     0.198 A 
ATOM     90  C   UNL A   1      50.168  27.039  30.773  1.00  0.00     0.198 A 
ATOM     91  F   UNL A   1      48.597  28.287  29.542  1.00  0.00    -0.203 F 
ATOM     92  F   UNL A   1      49.714  24.759  33.554  1.00  0.00    -0.200 F 
ATOM     93  C   UNL A   1      50.458  26.141  31.789  1.00  0.00     0.200 A 
ATOM     94  F   UNL A   1      51.156  27.545  30.023  1.00  0.00    -0.200 F 
ATOM     95  F   UNL A   1      51.728  25.791  32.031  1.00  0.00    -0.200 F 
ENDBRANCH  62  85
ENDBRANCH  36  37
ENDBRANCH  29  31
ENDBRANCH  28  29
ENDBRANCH  27  28
ENDBRANCH  26  27
ENDBRANCH  25  26
ENDBRANCH  24  25
ENDBRANCH   1  24
TORSDOF 21
ENDMDL
