MODEL 1
REMARK VINA RESULT:      -9.3      0.000      0.000
REMARK SMILES CCCN(C(=O)NCC(=O)OCCOCCOCCOCCOC(=O)c1ccc(-c2c3nc(c(-c4c(F)c(F)c(F)c(F)c4F)c4ccc([nH]4)c(-c4c(F)c(F)c(F)c(F)c4F)c4nc(c(-c5c(F)c(F)c(F)c(F)c5F)c5ccc2[nH]5)C=C4)C=C3)cc1)C(C)C
REMARK SMILES IDX 16 1 15 2 14 3 13 4 12 5 11 6 9 7 10 8 8 9 7 10 5 11 6 12
REMARK SMILES IDX 4 14 3 15 2 16 1 17 89 18 90 19 91 20 17 21 18 22 19 23
REMARK SMILES IDX 20 24 21 25 22 26 23 27 24 28 25 29 26 30 27 31 88 32 28 33
REMARK SMILES IDX 87 34 29 35 30 36 31 37 81 38 32 39 86 40 80 41 82 42 33 43
REMARK SMILES IDX 85 44 79 45 78 46 34 48 66 49 46 50 65 51 47 52 50 53 64 54
REMARK SMILES IDX 83 55 48 56 49 57 63 59 84 60 51 61 35 62 36 63 44 64 37 65
REMARK SMILES IDX 38 66 42 67 45 68 39 69 40 70 43 71 41 72 67 73 68 74 76 75
REMARK SMILES IDX 69 76 70 77 74 78 77 79 71 80 72 81 75 82 73 83 52 84 53 85
REMARK SMILES IDX 61 86 54 87 55 88 59 89 62 90 56 91 57 92 60 93 58 94
REMARK H PARENT 7 13 82 47 50 58
REMARK Flexibility Score: inf
ROOT
ATOM      1  C   UNL A   1      42.221  18.976  26.049  1.00  0.00     0.188 C 
ENDROOT
BRANCH   1   2
ATOM      2  C   UNL A   1      41.809  20.245  26.816  1.00  0.00     0.188 C 
BRANCH   2   3
ATOM      3  O   UNL A   1      40.792  21.106  26.321  1.00  0.00    -0.376 OA
BRANCH   3   4
ATOM      4  C   UNL A   1      39.462  20.645  26.128  1.00  0.00     0.202 C 
BRANCH   4   5
ATOM      5  C   UNL A   1      38.456  21.393  25.232  1.00  0.00     0.261 C 
BRANCH   5   6
ATOM      6  O   UNL A   1      37.256  21.855  25.872  1.00  0.00    -0.462 OA
BRANCH   6   7
ATOM      7  C   UNL A   1      36.668  22.946  25.325  1.00  0.00     0.325 C 
ATOM      8  O   UNL A   1      36.699  24.071  25.814  1.00  0.00    -0.250 OA
BRANCH   7   9
ATOM      9  C   UNL A   1      36.102  22.692  23.922  1.00  0.00     0.240 C 
BRANCH   9  10
ATOM     10  N   UNL A   1      34.957  23.428  23.394  1.00  0.00    -0.327 N 
ATOM     11  C   UNL A   1      33.636  23.517  23.593  1.00  0.00     0.318 C 
ATOM     12  O   UNL A   1      33.099  24.429  22.954  1.00  0.00    -0.249 OA
ATOM     13  H   UNL A   1      35.241  24.042  22.680  1.00  0.00     0.166 HD
BRANCH  11  14
ATOM     14  N   UNL A   1      32.932  22.691  24.430  1.00  0.00    -0.322 N 
BRANCH  14  15
ATOM     15  C   UNL A   1      32.425  21.365  24.078  1.00  0.00     0.121 C 
BRANCH  15  16
ATOM     16  C   UNL A   1      33.432  20.224  24.258  1.00  0.00     0.018 C 
ATOM     17  C   UNL A   1      33.194  19.349  25.473  1.00  0.00     0.006 C 
ENDBRANCH  15  16
ENDBRANCH  14  15
BRANCH  14  18
ATOM     18  C   UNL A   1      32.690  23.209  25.803  1.00  0.00     0.080 C 
ATOM     19  C   UNL A   1      31.225  23.163  26.243  1.00  0.00     0.031 C 
ATOM     20  C   UNL A   1      33.601  22.553  26.836  1.00  0.00     0.031 C 
ENDBRANCH  14  18
ENDBRANCH  11  14
ENDBRANCH   9  10
ENDBRANCH   7   9
ENDBRANCH   6   7
ENDBRANCH   5   6
ENDBRANCH   4   5
ENDBRANCH   3   4
ENDBRANCH   2   3
ENDBRANCH   1   2
BRANCH   1  21
ATOM     21  O   UNL A   1      43.611  18.723  26.031  1.00  0.00    -0.377 OA
BRANCH  21  22
ATOM     22  C   UNL A   1      44.294  19.060  24.834  1.00  0.00     0.188 C 
BRANCH  22  23
ATOM     23  C   UNL A   1      45.508  20.003  24.951  1.00  0.00     0.188 C 
BRANCH  23  24
ATOM     24  O   UNL A   1      45.239  21.211  25.654  1.00  0.00    -0.376 OA
BRANCH  24  25
ATOM     25  C   UNL A   1      46.079  22.336  25.437  1.00  0.00     0.202 C 
BRANCH  25  26
ATOM     26  C   UNL A   1      45.686  23.328  24.329  1.00  0.00     0.261 C 
BRANCH  26  27
ATOM     27  O   UNL A   1      44.739  24.346  24.687  1.00  0.00    -0.460 OA
BRANCH  27  28
ATOM     28  C   UNL A   1      43.443  23.996  24.796  1.00  0.00     0.338 C 
ATOM     29  O   UNL A   1      42.915  22.981  24.372  1.00  0.00    -0.246 OA
BRANCH  28  30
ATOM     30  C   UNL A   1      42.790  24.955  25.710  1.00  0.00     0.060 A 
ATOM     31  C   UNL A   1      43.296  26.260  25.789  1.00  0.00     0.016 A 
ATOM     32  C   UNL A   1      41.690  24.576  26.481  1.00  0.00     0.016 A 
ATOM     33  C   UNL A   1      42.732  27.176  26.674  1.00  0.00     0.010 A 
ATOM     34  C   UNL A   1      41.139  25.488  27.387  1.00  0.00     0.010 A 
ATOM     35  C   UNL A   1      41.685  26.778  27.515  1.00  0.00    -0.014 A 
BRANCH  35  36
ATOM     36  C   UNL A   1      41.311  27.633  28.667  1.00  0.00     0.031 A 
ATOM     37  C   UNL A   1      42.114  27.513  29.932  1.00  0.00     0.074 A 
ATOM     38  C   UNL A   1      40.297  28.511  28.590  1.00  0.00     0.049 A 
ATOM     39  N   UNL A   1      41.954  28.115  31.083  1.00  0.00    -0.248 NA
ATOM     40  C   UNL A   1      43.250  26.580  29.892  1.00  0.00     0.031 C 
ATOM     41  C   UNL A   1      39.470  28.744  27.410  1.00  0.00     0.029 A 
ATOM     42  N   UNL A   1      39.785  29.361  29.539  1.00  0.00    -0.354 N 
ATOM     43  C   UNL A   1      42.955  27.618  31.907  1.00  0.00     0.074 A 
ATOM     44  C   UNL A   1      43.699  26.647  31.134  1.00  0.00     0.031 C 
ATOM     45  C   UNL A   1      38.533  29.660  27.712  1.00  0.00     0.029 A 
ATOM     46  C   UNL A   1      38.677  30.049  29.115  1.00  0.00     0.049 A 
ATOM     47  H   UNL A   1      40.174  29.466  30.438  1.00  0.00     0.167 HD
ATOM     48  C   UNL A   1      43.231  27.945  33.192  1.00  0.00     0.037 A 
ATOM     49  C   UNL A   1      37.853  30.873  29.794  1.00  0.00     0.037 A 
ATOM     50  C   UNL A   1      42.485  28.911  33.955  1.00  0.00     0.049 A 
ATOM     51  C   UNL A   1      38.142  31.182  31.241  1.00  0.00     0.074 A 
ATOM     52  C   UNL A   1      42.708  29.347  35.248  1.00  0.00     0.029 A 
ATOM     53  N   UNL A   1      41.356  29.576  33.498  1.00  0.00    -0.354 N 
ATOM     54  N   UNL A   1      39.114  30.745  32.004  1.00  0.00    -0.248 NA
ATOM     55  C   UNL A   1      37.221  32.106  31.918  1.00  0.00     0.031 C 
ATOM     56  C   UNL A   1      41.672  30.218  35.600  1.00  0.00     0.029 A 
ATOM     57  C   UNL A   1      40.846  30.388  34.500  1.00  0.00     0.049 A 
ATOM     58  H   UNL A   1      40.973  29.486  32.595  1.00  0.00     0.167 HD
ATOM     59  C   UNL A   1      38.939  31.355  33.240  1.00  0.00     0.074 A 
ATOM     60  C   UNL A   1      37.774  32.207  33.120  1.00  0.00     0.031 C 
ATOM     61  C   UNL A   1      39.679  31.226  34.371  1.00  0.00     0.037 A 
BRANCH  48  62
ATOM     62  C   UNL A   1      44.353  27.208  33.867  1.00  0.00     0.064 A 
ATOM     63  C   UNL A   1      44.150  25.998  34.548  1.00  0.00     0.173 A 
ATOM     64  C   UNL A   1      45.657  27.727  33.830  1.00  0.00     0.173 A 
ATOM     65  F   UNL A   1      42.922  25.463  34.628  1.00  0.00    -0.203 F 
ATOM     66  C   UNL A   1      45.201  25.360  35.205  1.00  0.00     0.198 A 
ATOM     67  C   UNL A   1      46.712  27.067  34.456  1.00  0.00     0.198 A 
ATOM     68  F   UNL A   1      45.909  28.879  33.190  1.00  0.00    -0.203 F 
ATOM     69  F   UNL A   1      44.970  24.243  35.908  1.00  0.00    -0.200 F 
ATOM     70  C   UNL A   1      46.480  25.892  35.153  1.00  0.00     0.200 A 
ATOM     71  F   UNL A   1      47.949  27.575  34.390  1.00  0.00    -0.200 F 
ATOM     72  F   UNL A   1      47.490  25.277  35.784  1.00  0.00    -0.200 F 
ENDBRANCH  48  62
BRANCH  49  73
ATOM     73  C   UNL A   1      36.661  31.440  29.110  1.00  0.00     0.064 A 
ATOM     74  C   UNL A   1      35.530  30.657  28.845  1.00  0.00     0.173 A 
ATOM     75  C   UNL A   1      36.628  32.789  28.720  1.00  0.00     0.173 A 
ATOM     76  F   UNL A   1      35.524  29.357  29.172  1.00  0.00    -0.203 F 
ATOM     77  C   UNL A   1      34.414  31.198  28.209  1.00  0.00     0.198 A 
ATOM     78  C   UNL A   1      35.499  33.336  28.114  1.00  0.00     0.198 A 
ATOM     79  F   UNL A   1      37.686  33.580  28.947  1.00  0.00    -0.203 F 
ATOM     80  F   UNL A   1      33.360  30.419  27.934  1.00  0.00    -0.200 F 
ATOM     81  C   UNL A   1      34.395  32.539  27.854  1.00  0.00     0.200 A 
ATOM     82  F   UNL A   1      35.482  34.635  27.786  1.00  0.00    -0.200 F 
ATOM     83  F   UNL A   1      33.315  33.062  27.257  1.00  0.00    -0.200 F 
ENDBRANCH  49  73
BRANCH  61  84
ATOM     84  C   UNL A   1      39.274  32.047  35.564  1.00  0.00     0.064 A 
ATOM     85  C   UNL A   1      38.366  31.568  36.521  1.00  0.00     0.173 A 
ATOM     86  C   UNL A   1      39.842  33.313  35.780  1.00  0.00     0.173 A 
ATOM     87  F   UNL A   1      37.784  30.370  36.359  1.00  0.00    -0.203 F 
ATOM     88  C   UNL A   1      38.020  32.336  37.629  1.00  0.00     0.198 A 
ATOM     89  C   UNL A   1      39.523  34.063  36.908  1.00  0.00     0.198 A 
ATOM     90  F   UNL A   1      40.724  33.816  34.902  1.00  0.00    -0.203 F 
ATOM     91  F   UNL A   1      37.111  31.881  38.502  1.00  0.00    -0.200 F 
ATOM     92  C   UNL A   1      38.605  33.578  37.827  1.00  0.00     0.200 A 
ATOM     93  F   UNL A   1      40.104  35.254  37.105  1.00  0.00    -0.200 F 
ATOM     94  F   UNL A   1      38.279  34.312  38.900  1.00  0.00    -0.200 F 
ENDBRANCH  61  84
ENDBRANCH  35  36
ENDBRANCH  28  30
ENDBRANCH  27  28
ENDBRANCH  26  27
ENDBRANCH  25  26
ENDBRANCH  24  25
ENDBRANCH  23  24
ENDBRANCH  22  23
ENDBRANCH  21  22
ENDBRANCH   1  21
TORSDOF 25
ENDMDL
MODEL 2
REMARK VINA RESULT:      -9.3      0.744      2.333
REMARK SMILES CCCN(C(=O)NCC(=O)OCCOCCOCCOCCOC(=O)c1ccc(-c2c3nc(c(-c4c(F)c(F)c(F)c(F)c4F)c4ccc([nH]4)c(-c4c(F)c(F)c(F)c(F)c4F)c4nc(c(-c5c(F)c(F)c(F)c(F)c5F)c5ccc2[nH]5)C=C4)C=C3)cc1)C(C)C
REMARK SMILES IDX 16 1 15 2 14 3 13 4 12 5 11 6 9 7 10 8 8 9 7 10 5 11 6 12
REMARK SMILES IDX 4 14 3 15 2 16 1 17 89 18 90 19 91 20 17 21 18 22 19 23
REMARK SMILES IDX 20 24 21 25 22 26 23 27 24 28 25 29 26 30 27 31 88 32 28 33
REMARK SMILES IDX 87 34 29 35 30 36 31 37 81 38 32 39 86 40 80 41 82 42 33 43
REMARK SMILES IDX 85 44 79 45 78 46 34 48 66 49 46 50 65 51 47 52 50 53 64 54
REMARK SMILES IDX 83 55 48 56 49 57 63 59 84 60 51 61 35 62 36 63 44 64 37 65
REMARK SMILES IDX 38 66 42 67 45 68 39 69 40 70 43 71 41 72 67 73 68 74 76 75
REMARK SMILES IDX 69 76 70 77 74 78 77 79 71 80 72 81 75 82 73 83 52 84 53 85
REMARK SMILES IDX 61 86 54 87 55 88 59 89 62 90 56 91 57 92 60 93 58 94
REMARK H PARENT 7 13 82 47 50 58
REMARK Flexibility Score: inf
ROOT
ATOM      1  C   UNL A   1      42.097  18.997  25.962  1.00  0.00     0.188 C 
ENDROOT
BRANCH   1   2
ATOM      2  C   UNL A   1      41.684  20.117  26.934  1.00  0.00     0.188 C 
BRANCH   2   3
ATOM      3  O   UNL A   1      40.714  21.089  26.567  1.00  0.00    -0.376 OA
BRANCH   3   4
ATOM      4  C   UNL A   1      39.436  20.710  26.076  1.00  0.00     0.202 C 
BRANCH   4   5
ATOM      5  C   UNL A   1      38.437  21.737  25.509  1.00  0.00     0.261 C 
BRANCH   5   6
ATOM      6  O   UNL A   1      37.046  21.473  25.754  1.00  0.00    -0.462 OA
BRANCH   6   7
ATOM      7  C   UNL A   1      36.164  22.321  25.172  1.00  0.00     0.325 C 
ATOM      8  O   UNL A   1      36.474  23.354  24.589  1.00  0.00    -0.250 OA
BRANCH   7   9
ATOM      9  C   UNL A   1      34.729  21.779  25.145  1.00  0.00     0.240 C 
BRANCH   9  10
ATOM     10  N   UNL A   1      33.853  21.938  23.988  1.00  0.00    -0.327 N 
ATOM     11  C   UNL A   1      33.048  22.864  23.453  1.00  0.00     0.318 C 
ATOM     12  O   UNL A   1      32.609  22.554  22.339  1.00  0.00    -0.249 OA
ATOM     13  H   UNL A   1      33.857  21.123  23.437  1.00  0.00     0.166 HD
BRANCH  11  14
ATOM     14  N   UNL A   1      32.736  24.051  24.062  1.00  0.00    -0.322 N 
BRANCH  14  15
ATOM     15  C   UNL A   1      33.488  25.298  23.916  1.00  0.00     0.121 C 
BRANCH  15  16
ATOM     16  C   UNL A   1      33.689  25.761  22.469  1.00  0.00     0.018 C 
ATOM     17  C   UNL A   1      32.412  26.072  21.716  1.00  0.00     0.006 C 
ENDBRANCH  15  16
ENDBRANCH  14  15
BRANCH  14  18
ATOM     18  C   UNL A   1      31.524  24.042  24.923  1.00  0.00     0.080 C 
ATOM     19  C   UNL A   1      31.778  24.470  26.370  1.00  0.00     0.031 C 
ATOM     20  C   UNL A   1      30.371  24.827  24.305  1.00  0.00     0.031 C 
ENDBRANCH  14  18
ENDBRANCH  11  14
ENDBRANCH   9  10
ENDBRANCH   7   9
ENDBRANCH   6   7
ENDBRANCH   5   6
ENDBRANCH   4   5
ENDBRANCH   3   4
ENDBRANCH   2   3
ENDBRANCH   1   2
BRANCH   1  21
ATOM     21  O   UNL A   1      43.478  18.702  25.955  1.00  0.00    -0.377 OA
BRANCH  21  22
ATOM     22  C   UNL A   1      44.201  19.108  24.804  1.00  0.00     0.188 C 
BRANCH  22  23
ATOM     23  C   UNL A   1      45.426  20.018  25.019  1.00  0.00     0.188 C 
BRANCH  23  24
ATOM     24  O   UNL A   1      45.124  21.262  25.640  1.00  0.00    -0.376 OA
BRANCH  24  25
ATOM     25  C   UNL A   1      46.039  22.341  25.503  1.00  0.00     0.202 C 
BRANCH  25  26
ATOM     26  C   UNL A   1      45.793  23.357  24.374  1.00  0.00     0.261 C 
BRANCH  26  27
ATOM     27  O   UNL A   1      44.828  24.386  24.639  1.00  0.00    -0.460 OA
BRANCH  27  28
ATOM     28  C   UNL A   1      43.530  24.033  24.722  1.00  0.00     0.338 C 
ATOM     29  O   UNL A   1      43.008  23.030  24.263  1.00  0.00    -0.246 OA
BRANCH  28  30
ATOM     30  C   UNL A   1      42.866  24.966  25.655  1.00  0.00     0.060 A 
ATOM     31  C   UNL A   1      43.303  26.296  25.701  1.00  0.00     0.016 A 
ATOM     32  C   UNL A   1      41.821  24.536  26.476  1.00  0.00     0.016 A 
ATOM     33  C   UNL A   1      42.729  27.191  26.602  1.00  0.00     0.010 A 
ATOM     34  C   UNL A   1      41.261  25.428  27.397  1.00  0.00     0.010 A 
ATOM     35  C   UNL A   1      41.741  26.746  27.490  1.00  0.00    -0.014 A 
BRANCH  35  36
ATOM     36  C   UNL A   1      41.371  27.593  28.649  1.00  0.00     0.031 A 
ATOM     37  C   UNL A   1      42.178  27.464  29.911  1.00  0.00     0.074 A 
ATOM     38  C   UNL A   1      40.357  28.471  28.582  1.00  0.00     0.049 A 
ATOM     39  N   UNL A   1      42.022  28.057  31.067  1.00  0.00    -0.248 NA
ATOM     40  C   UNL A   1      43.314  26.531  29.860  1.00  0.00     0.031 C 
ATOM     41  C   UNL A   1      39.525  28.712  27.407  1.00  0.00     0.029 A 
ATOM     42  N   UNL A   1      39.847  29.313  29.540  1.00  0.00    -0.354 N 
ATOM     43  C   UNL A   1      43.026  27.554  31.884  1.00  0.00     0.074 A 
ATOM     44  C   UNL A   1      43.768  26.589  31.102  1.00  0.00     0.031 C 
ATOM     45  C   UNL A   1      38.589  29.625  27.719  1.00  0.00     0.029 A 
ATOM     46  C   UNL A   1      38.737  30.004  29.124  1.00  0.00     0.049 A 
ATOM     47  H   UNL A   1      40.239  29.412  30.438  1.00  0.00     0.167 HD
ATOM     48  C   UNL A   1      43.306  27.872  33.171  1.00  0.00     0.037 A 
ATOM     49  C   UNL A   1      37.915  30.822  29.812  1.00  0.00     0.037 A 
ATOM     50  C   UNL A   1      42.562  28.831  33.943  1.00  0.00     0.049 A 
ATOM     51  C   UNL A   1      38.209  31.121  31.261  1.00  0.00     0.074 A 
ATOM     52  C   UNL A   1      42.789  29.258  35.239  1.00  0.00     0.029 A 
ATOM     53  N   UNL A   1      41.431  29.500  33.495  1.00  0.00    -0.354 N 
ATOM     54  N   UNL A   1      39.184  30.679  32.017  1.00  0.00    -0.248 NA
ATOM     55  C   UNL A   1      37.290  32.039  31.947  1.00  0.00     0.031 C 
ATOM     56  C   UNL A   1      41.754  30.126  35.600  1.00  0.00     0.029 A 
ATOM     57  C   UNL A   1      40.924  30.303  34.504  1.00  0.00     0.049 A 
ATOM     58  H   UNL A   1      41.045  29.416  32.592  1.00  0.00     0.167 HD
ATOM     59  C   UNL A   1      39.013  31.279  33.258  1.00  0.00     0.074 A 
ATOM     60  C   UNL A   1      37.846  32.132  33.148  1.00  0.00     0.031 C 
ATOM     61  C   UNL A   1      39.757  31.142  34.385  1.00  0.00     0.037 A 
BRANCH  48  62
ATOM     62  C   UNL A   1      44.431  27.130  33.836  1.00  0.00     0.064 A 
ATOM     63  C   UNL A   1      45.750  27.610  33.830  1.00  0.00     0.173 A 
ATOM     64  C   UNL A   1      44.181  25.912  34.489  1.00  0.00     0.173 A 
ATOM     65  F   UNL A   1      46.048  28.760  33.209  1.00  0.00    -0.203 F 
ATOM     66  C   UNL A   1      46.781  26.877  34.415  1.00  0.00     0.198 A 
ATOM     67  C   UNL A   1      45.208  25.202  35.104  1.00  0.00     0.198 A 
ATOM     68  F   UNL A   1      42.938  25.408  34.528  1.00  0.00    -0.203 F 
ATOM     69  F   UNL A   1      48.044  27.321  34.336  1.00  0.00    -0.200 F 
ATOM     70  C   UNL A   1      46.509  25.678  35.055  1.00  0.00     0.200 A 
ATOM     71  F   UNL A   1      44.938  24.052  35.736  1.00  0.00    -0.200 F 
ATOM     72  F   UNL A   1      47.501  24.975  35.617  1.00  0.00    -0.200 F 
ENDBRANCH  48  62
BRANCH  49  73
ATOM     73  C   UNL A   1      36.721  31.394  29.136  1.00  0.00     0.064 A 
ATOM     74  C   UNL A   1      36.675  32.740  28.751  1.00  0.00     0.173 A 
ATOM     75  C   UNL A   1      35.603  30.594  28.849  1.00  0.00     0.173 A 
ATOM     76  F   UNL A   1      37.706  33.552  29.028  1.00  0.00    -0.203 F 
ATOM     77  C   UNL A   1      35.554  33.268  28.112  1.00  0.00     0.198 A 
ATOM     78  C   UNL A   1      34.497  31.115  28.182  1.00  0.00     0.198 A 
ATOM     79  F   UNL A   1      35.595  29.300  29.200  1.00  0.00    -0.203 F 
ATOM     80  F   UNL A   1      35.521  34.566  27.787  1.00  0.00    -0.200 F 
ATOM     81  C   UNL A   1      34.471  32.452  27.818  1.00  0.00     0.200 A 
ATOM     82  F   UNL A   1      33.459  30.319  27.888  1.00  0.00    -0.200 F 
ATOM     83  F   UNL A   1      33.401  32.956  27.189  1.00  0.00    -0.200 F 
ENDBRANCH  49  73
BRANCH  61  84
ATOM     84  C   UNL A   1      39.355  31.954  35.586  1.00  0.00     0.064 A 
ATOM     85  C   UNL A   1      39.837  33.255  35.796  1.00  0.00     0.173 A 
ATOM     86  C   UNL A   1      38.436  31.440  36.515  1.00  0.00     0.173 A 
ATOM     87  F   UNL A   1      40.727  33.791  34.947  1.00  0.00    -0.203 F 
ATOM     88  C   UNL A   1      39.437  33.997  36.905  1.00  0.00     0.198 A 
ATOM     89  C   UNL A   1      38.009  32.199  37.601  1.00  0.00     0.198 A 
ATOM     90  F   UNL A   1      37.935  30.205  36.357  1.00  0.00    -0.203 F 
ATOM     91  F   UNL A   1      39.950  35.218  37.114  1.00  0.00    -0.200 F 
ATOM     92  C   UNL A   1      38.517  33.473  37.801  1.00  0.00     0.200 A 
ATOM     93  F   UNL A   1      37.106  31.695  38.454  1.00  0.00    -0.200 F 
ATOM     94  F   UNL A   1      38.125  34.192  38.861  1.00  0.00    -0.200 F 
ENDBRANCH  61  84
ENDBRANCH  35  36
ENDBRANCH  28  30
ENDBRANCH  27  28
ENDBRANCH  26  27
ENDBRANCH  25  26
ENDBRANCH  24  25
ENDBRANCH  23  24
ENDBRANCH  22  23
ENDBRANCH  21  22
ENDBRANCH   1  21
TORSDOF 25
ENDMDL
MODEL 3
REMARK VINA RESULT:      -9.2      1.537      2.687
REMARK SMILES CCCN(C(=O)NCC(=O)OCCOCCOCCOCCOC(=O)c1ccc(-c2c3nc(c(-c4c(F)c(F)c(F)c(F)c4F)c4ccc([nH]4)c(-c4c(F)c(F)c(F)c(F)c4F)c4nc(c(-c5c(F)c(F)c(F)c(F)c5F)c5ccc2[nH]5)C=C4)C=C3)cc1)C(C)C
REMARK SMILES IDX 16 1 15 2 14 3 13 4 12 5 11 6 9 7 10 8 8 9 7 10 5 11 6 12
REMARK SMILES IDX 4 14 3 15 2 16 1 17 89 18 90 19 91 20 17 21 18 22 19 23
REMARK SMILES IDX 20 24 21 25 22 26 23 27 24 28 25 29 26 30 27 31 88 32 28 33
REMARK SMILES IDX 87 34 29 35 30 36 31 37 81 38 32 39 86 40 80 41 82 42 33 43
REMARK SMILES IDX 85 44 79 45 78 46 34 48 66 49 46 50 65 51 47 52 50 53 64 54
REMARK SMILES IDX 83 55 48 56 49 57 63 59 84 60 51 61 35 62 36 63 44 64 37 65
REMARK SMILES IDX 38 66 42 67 45 68 39 69 40 70 43 71 41 72 67 73 68 74 76 75
REMARK SMILES IDX 69 76 70 77 74 78 77 79 71 80 72 81 75 82 73 83 52 84 53 85
REMARK SMILES IDX 61 86 54 87 55 88 59 89 62 90 56 91 57 92 60 93 58 94
REMARK H PARENT 7 13 82 47 50 58
REMARK Flexibility Score: inf
ROOT
ATOM      1  C   UNL A   1      38.499  21.213  25.431  1.00  0.00     0.188 C 
ENDROOT
BRANCH   1   2
ATOM      2  C   UNL A   1      37.527  22.356  25.085  1.00  0.00     0.188 C 
BRANCH   2   3
ATOM      3  O   UNL A   1      36.923  23.140  26.104  1.00  0.00    -0.376 OA
BRANCH   3   4
ATOM      4  C   UNL A   1      35.513  23.297  26.179  1.00  0.00     0.202 C 
BRANCH   4   5
ATOM      5  C   UNL A   1      34.548  22.097  26.101  1.00  0.00     0.261 C 
BRANCH   5   6
ATOM      6  O   UNL A   1      33.165  22.407  25.869  1.00  0.00    -0.462 OA
BRANCH   6   7
ATOM      7  C   UNL A   1      32.456  22.821  26.947  1.00  0.00     0.325 C 
ATOM      8  O   UNL A   1      32.717  22.522  28.108  1.00  0.00    -0.250 OA
BRANCH   7   9
ATOM      9  C   UNL A   1      31.384  23.863  26.604  1.00  0.00     0.240 C 
BRANCH   9  10
ATOM     10  N   UNL A   1      30.767  23.949  25.284  1.00  0.00    -0.327 N 
ATOM     11  C   UNL A   1      30.770  24.764  24.222  1.00  0.00     0.318 C 
ATOM     12  O   UNL A   1      30.156  24.310  23.248  1.00  0.00    -0.249 OA
ATOM     13  H   UNL A   1      30.175  23.179  25.128  1.00  0.00     0.166 HD
BRANCH  11  14
ATOM     14  N   UNL A   1      31.394  25.983  24.194  1.00  0.00    -0.322 N 
BRANCH  14  15
ATOM     15  C   UNL A   1      30.989  27.158  24.966  1.00  0.00     0.121 C 
BRANCH  15  16
ATOM     16  C   UNL A   1      31.344  28.503  24.323  1.00  0.00     0.018 C 
ATOM     17  C   UNL A   1      31.492  29.655  25.296  1.00  0.00     0.006 C 
ENDBRANCH  15  16
ENDBRANCH  14  15
BRANCH  14  18
ATOM     18  C   UNL A   1      32.584  26.084  23.307  1.00  0.00     0.080 C 
ATOM     19  C   UNL A   1      33.645  25.008  23.553  1.00  0.00     0.031 C 
ATOM     20  C   UNL A   1      32.200  26.159  21.833  1.00  0.00     0.031 C 
ENDBRANCH  14  18
ENDBRANCH  11  14
ENDBRANCH   9  10
ENDBRANCH   7   9
ENDBRANCH   6   7
ENDBRANCH   5   6
ENDBRANCH   4   5
ENDBRANCH   3   4
ENDBRANCH   2   3
ENDBRANCH   1   2
BRANCH   1  21
ATOM     21  O   UNL A   1      39.478  21.543  26.394  1.00  0.00    -0.377 OA
BRANCH  21  22
ATOM     22  C   UNL A   1      40.449  20.546  26.669  1.00  0.00     0.188 C 
BRANCH  22  23
ATOM     23  C   UNL A   1      41.919  20.997  26.780  1.00  0.00     0.188 C 
BRANCH  23  24
ATOM     24  O   UNL A   1      42.560  21.198  25.525  1.00  0.00    -0.376 OA
BRANCH  24  25
ATOM     25  C   UNL A   1      43.908  20.777  25.365  1.00  0.00     0.202 C 
BRANCH  25  26
ATOM     26  C   UNL A   1      45.019  21.827  25.543  1.00  0.00     0.261 C 
BRANCH  26  27
ATOM     27  O   UNL A   1      44.660  23.025  26.247  1.00  0.00    -0.460 OA
BRANCH  27  28
ATOM     28  C   UNL A   1      44.362  24.122  25.522  1.00  0.00     0.338 C 
ATOM     29  O   UNL A   1      44.520  24.278  24.323  1.00  0.00    -0.246 OA
BRANCH  28  30
ATOM     30  C   UNL A   1      43.604  25.046  26.390  1.00  0.00     0.060 A 
ATOM     31  C   UNL A   1      44.007  26.386  26.460  1.00  0.00     0.016 A 
ATOM     32  C   UNL A   1      42.506  24.599  27.128  1.00  0.00     0.016 A 
ATOM     33  C   UNL A   1      43.342  27.274  27.303  1.00  0.00     0.010 A 
ATOM     34  C   UNL A   1      41.855  25.484  27.993  1.00  0.00     0.010 A 
ATOM     35  C   UNL A   1      42.297  26.813  28.113  1.00  0.00    -0.014 A 
BRANCH  35  36
ATOM     36  C   UNL A   1      41.816  27.659  29.231  1.00  0.00     0.031 A 
ATOM     37  C   UNL A   1      42.531  27.570  30.550  1.00  0.00     0.074 A 
ATOM     38  C   UNL A   1      40.782  28.503  29.079  1.00  0.00     0.049 A 
ATOM     39  N   UNL A   1      42.272  28.169  31.684  1.00  0.00    -0.248 NA
ATOM     40  C   UNL A   1      43.697  26.673  30.594  1.00  0.00     0.031 C 
ATOM     41  C   UNL A   1      40.032  28.706  27.843  1.00  0.00     0.029 A 
ATOM     42  N   UNL A   1      40.177  29.339  29.985  1.00  0.00    -0.354 N 
ATOM     43  C   UNL A   1      43.229  27.707  32.578  1.00  0.00     0.074 A 
ATOM     44  C   UNL A   1      44.055  26.759  31.865  1.00  0.00     0.031 C 
ATOM     45  C   UNL A   1      39.047  29.591  28.074  1.00  0.00     0.029 A 
ATOM     46  C   UNL A   1      39.079  29.989  29.481  1.00  0.00     0.049 A 
ATOM     47  H   UNL A   1      40.499  29.459  30.909  1.00  0.00     0.167 HD
ATOM     48  C   UNL A   1      43.402  28.047  33.878  1.00  0.00     0.037 A 
ATOM     49  C   UNL A   1      38.184  30.788  30.097  1.00  0.00     0.037 A 
ATOM     50  C   UNL A   1      42.574  28.991  34.582  1.00  0.00     0.049 A 
ATOM     51  C   UNL A   1      38.360  31.110  31.559  1.00  0.00     0.074 A 
ATOM     52  C   UNL A   1      42.692  29.437  35.885  1.00  0.00     0.029 A 
ATOM     53  N   UNL A   1      41.459  29.617  34.044  1.00  0.00    -0.354 N 
ATOM     54  N   UNL A   1      39.291  30.708  32.390  1.00  0.00    -0.248 NA
ATOM     55  C   UNL A   1      37.365  32.006  32.165  1.00  0.00     0.031 C 
ATOM     56  C   UNL A   1      41.606  30.275  36.159  1.00  0.00     0.029 A 
ATOM     57  C   UNL A   1      40.854  30.414  35.003  1.00  0.00     0.049 A 
ATOM     58  H   UNL A   1      41.143  29.511  33.116  1.00  0.00     0.167 HD
ATOM     59  C   UNL A   1      39.010  31.315  33.608  1.00  0.00     0.074 A 
ATOM     60  C   UNL A   1      37.828  32.128  33.402  1.00  0.00     0.031 C 
ATOM     61  C   UNL A   1      39.672  31.214  34.788  1.00  0.00     0.037 A 
BRANCH  48  62
ATOM     62  C   UNL A   1      44.498  27.349  34.633  1.00  0.00     0.064 A 
ATOM     63  C   UNL A   1      44.292  26.127  35.292  1.00  0.00     0.173 A 
ATOM     64  C   UNL A   1      45.779  27.919  34.700  1.00  0.00     0.173 A 
ATOM     65  F   UNL A   1      43.083  25.545  35.274  1.00  0.00    -0.203 F 
ATOM     66  C   UNL A   1      45.314  25.526  36.024  1.00  0.00     0.198 A 
ATOM     67  C   UNL A   1      46.808  27.296  35.401  1.00  0.00     0.198 A 
ATOM     68  F   UNL A   1      46.035  29.085  34.086  1.00  0.00    -0.203 F 
ATOM     69  F   UNL A   1      45.074  24.395  36.702  1.00  0.00    -0.200 F 
ATOM     70  C   UNL A   1      46.571  26.107  36.073  1.00  0.00     0.200 A 
ATOM     71  F   UNL A   1      48.026  27.852  35.433  1.00  0.00    -0.200 F 
ATOM     72  F   UNL A   1      47.553  25.528  36.777  1.00  0.00    -0.200 F 
ENDBRANCH  48  62
BRANCH  49  73
ATOM     73  C   UNL A   1      37.025  31.314  29.328  1.00  0.00     0.064 A 
ATOM     74  C   UNL A   1      35.953  30.487  28.967  1.00  0.00     0.173 A 
ATOM     75  C   UNL A   1      36.964  32.665  28.951  1.00  0.00     0.173 A 
ATOM     76  F   UNL A   1      35.977  29.183  29.279  1.00  0.00    -0.203 F 
ATOM     77  C   UNL A   1      34.866  30.989  28.252  1.00  0.00     0.198 A 
ATOM     78  C   UNL A   1      35.863  33.172  28.265  1.00  0.00     0.198 A 
ATOM     79  F   UNL A   1      37.966  33.497  29.269  1.00  0.00    -0.203 F 
ATOM     80  F   UNL A   1      33.872  30.170  27.888  1.00  0.00    -0.200 F 
ATOM     81  C   UNL A   1      34.818  32.333  27.912  1.00  0.00     0.200 A 
ATOM     82  F   UNL A   1      35.814  34.474  27.950  1.00  0.00    -0.200 F 
ATOM     83  F   UNL A   1      33.766  32.818  27.238  1.00  0.00    -0.200 F 
ENDBRANCH  49  73
BRANCH  61  84
ATOM     84  C   UNL A   1      39.158  32.025  35.946  1.00  0.00     0.064 A 
ATOM     85  C   UNL A   1      38.239  31.501  36.868  1.00  0.00     0.173 A 
ATOM     86  C   UNL A   1      39.631  33.328  36.164  1.00  0.00     0.173 A 
ATOM     87  F   UNL A   1      37.745  30.265  36.702  1.00  0.00    -0.203 F 
ATOM     88  C   UNL A   1      37.792  32.263  37.945  1.00  0.00     0.198 A 
ATOM     89  C   UNL A   1      39.210  34.073  37.262  1.00  0.00     0.198 A 
ATOM     90  F   UNL A   1      40.520  33.876  35.319  1.00  0.00    -0.203 F 
ATOM     91  F   UNL A   1      36.873  31.761  38.783  1.00  0.00    -0.200 F 
ATOM     92  C   UNL A   1      38.284  33.544  38.147  1.00  0.00     0.200 A 
ATOM     93  F   UNL A   1      39.703  35.303  37.464  1.00  0.00    -0.200 F 
ATOM     94  F   UNL A   1      37.860  34.271  39.189  1.00  0.00    -0.200 F 
ENDBRANCH  61  84
ENDBRANCH  35  36
ENDBRANCH  28  30
ENDBRANCH  27  28
ENDBRANCH  26  27
ENDBRANCH  25  26
ENDBRANCH  24  25
ENDBRANCH  23  24
ENDBRANCH  22  23
ENDBRANCH  21  22
ENDBRANCH   1  21
TORSDOF 25
ENDMDL
