MODEL 1
REMARK VINA RESULT:     -10.9      0.000      0.000
REMARK SMILES CC(C)C(=O)Nc1ccc2c([C@H](C(=O)OCCOCCOCCOCCOC(=O)c3ccc(-c4c5nc(c(-c6c(F)c(F)c(F)c(F)c6F)c6ccc([nH]6)c(-c6c(F)c(F)c(F)c(F)c6F)c6nc(c(-c7c(F)c(F)c(F)c(F)c7F)c7ccc4[nH]7)C=C6)C=C5)cc3)[NH+]3CC[NH+](CC(=O)N(C)C)CC3)c[nH]c2c1
REMARK SMILES IDX 20 1 19 2 18 3 17 4 16 5 15 6 13 7 14 8 12 9 11 10 7 11 8 12
REMARK SMILES IDX 108 13 9 14 107 15 10 16 106 17 105 18 6 20 4 21 5 22 2 24
REMARK SMILES IDX 1 25 3 26 93 27 94 28 104 29 95 31 103 32 96 33 97 35 98 36
REMARK SMILES IDX 99 37 100 38 101 39 102 40 21 41 22 42 23 43 24 44 25 45
REMARK SMILES IDX 26 46 27 47 28 48 29 49 30 50 31 51 92 52 32 53 91 54 33 55
REMARK SMILES IDX 34 56 35 57 85 58 36 59 90 60 84 61 86 62 37 63 89 64 83 65
REMARK SMILES IDX 82 66 38 68 70 69 50 70 69 71 51 72 54 73 68 74 87 75 52 76
REMARK SMILES IDX 53 77 67 79 88 80 55 81 39 82 40 83 48 84 41 85 42 86 46 87
REMARK SMILES IDX 49 88 43 89 44 90 47 91 45 92 71 93 72 94 80 95 73 96 74 97
REMARK SMILES IDX 78 98 81 99 75 100 76 101 79 102 77 103 56 104 57 105 65 106
REMARK SMILES IDX 58 107 59 108 63 109 66 110 60 111 61 112 64 113 62 114
REMARK H PARENT 106 19 6 23 93 30 96 34 86 67 54 78
REMARK Flexibility Score: inf
ROOT
ATOM      1  C   UNL A   1      39.650  24.126  27.456  1.00  0.00     0.188 C 
ENDROOT
BRANCH   1   2
ATOM      2  C   UNL A   1      38.396  24.584  26.704  1.00  0.00     0.188 C 
BRANCH   2   3
ATOM      3  O   UNL A   1      37.293  23.712  26.478  1.00  0.00    -0.376 OA
BRANCH   3   4
ATOM      4  C   UNL A   1      36.879  23.414  25.158  1.00  0.00     0.202 C 
BRANCH   4   5
ATOM      5  C   UNL A   1      35.551  24.049  24.687  1.00  0.00     0.261 C 
BRANCH   5   6
ATOM      6  O   UNL A   1      34.462  24.307  25.611  1.00  0.00    -0.459 OA
BRANCH   6   7
ATOM      7  C   UNL A   1      33.207  24.020  25.135  1.00  0.00     0.370 C 
ATOM      8  O   UNL A   1      32.258  23.809  25.884  1.00  0.00    -0.245 OA
BRANCH   7   9
ATOM      9  C   UNL A   1      33.171  23.865  23.586  1.00  0.00     0.328 C 
BRANCH   9  10
ATOM     10  C   UNL A   1      32.677  22.479  23.144  1.00  0.00     0.046 A 
ATOM     11  C   UNL A   1      32.692  18.653  24.865  1.00  0.00     0.043 A 
ATOM     12  C   UNL A   1      33.462  19.597  25.524  1.00  0.00     0.027 A 
ATOM     13  C   UNL A   1      32.195  18.900  23.583  1.00  0.00     0.052 A 
ATOM     14  C   UNL A   1      33.522  20.906  25.060  1.00  0.00     0.013 A 
ATOM     15  C   UNL A   1      32.275  20.219  23.125  1.00  0.00     0.048 A 
ATOM     16  C   UNL A   1      32.866  21.245  23.862  1.00  0.00     0.009 A 
ATOM     17  N   UNL A   1      31.805  20.779  21.966  1.00  0.00    -0.361 N 
ATOM     18  C   UNL A   1      31.990  22.132  21.992  1.00  0.00     0.094 A 
ATOM     19  H   UNL A   1      31.395  20.280  21.223  1.00  0.00     0.166 HD
BRANCH  11  20
ATOM     20  N   UNL A   1      32.343  17.455  25.484  1.00  0.00    -0.326 N 
ATOM     21  C   UNL A   1      32.919  16.222  25.349  1.00  0.00     0.226 C 
ATOM     22  O   UNL A   1      32.394  15.287  25.966  1.00  0.00    -0.274 OA
ATOM     23  H   UNL A   1      31.578  17.502  26.103  1.00  0.00     0.169 HD
BRANCH  21  24
ATOM     24  C   UNL A   1      34.220  15.964  24.563  1.00  0.00     0.072 C 
ATOM     25  C   UNL A   1      34.241  16.520  23.143  1.00  0.00     0.018 C 
ATOM     26  C   UNL A   1      35.509  16.260  25.332  1.00  0.00     0.018 C 
ENDBRANCH  21  24
ENDBRANCH  11  20
ENDBRANCH   9  10
BRANCH   9  27
ATOM     27  N   UNL A   1      32.394  24.873  22.852  1.00  0.00    -0.310 N 
ATOM     28  C   UNL A   1      31.072  25.287  23.294  1.00  0.00     0.325 C 
ATOM     29  C   UNL A   1      33.045  25.827  21.984  1.00  0.00     0.325 C 
ATOM     30  H   UNL A   1      32.185  24.086  22.237  1.00  0.00     0.349 HD
ATOM     31  C   UNL A   1      31.014  26.699  23.885  1.00  0.00     0.325 C 
ATOM     32  C   UNL A   1      33.072  27.231  22.596  1.00  0.00     0.325 C 
ATOM     33  N   UNL A   1      31.844  27.729  23.237  1.00  0.00    -0.318 N 
ATOM     34  H   UNL A   1      32.237  28.278  24.003  1.00  0.00     0.348 HD
BRANCH  33  35
ATOM     35  C   UNL A   1      31.061  28.715  22.478  1.00  0.00     0.364 C 
BRANCH  35  36
ATOM     36  C   UNL A   1      30.315  29.712  23.352  1.00  0.00     0.277 C 
ATOM     37  O   UNL A   1      30.635  29.836  24.538  1.00  0.00    -0.268 OA
ATOM     38  N   UNL A   1      29.265  30.435  22.794  1.00  0.00    -0.344 N 
ATOM     39  C   UNL A   1      28.931  30.549  21.380  1.00  0.00     0.146 C 
ATOM     40  C   UNL A   1      28.446  31.221  23.696  1.00  0.00     0.146 C 
ENDBRANCH  35  36
ENDBRANCH  33  35
ENDBRANCH   9  27
ENDBRANCH   7   9
ENDBRANCH   6   7
ENDBRANCH   5   6
ENDBRANCH   4   5
ENDBRANCH   3   4
ENDBRANCH   2   3
ENDBRANCH   1   2
BRANCH   1  41
ATOM     41  O   UNL A   1      40.504  23.300  26.690  1.00  0.00    -0.377 OA
BRANCH  41  42
ATOM     42  C   UNL A   1      40.454  21.894  26.795  1.00  0.00     0.188 C 
BRANCH  42  43
ATOM     43  C   UNL A   1      41.685  21.189  26.232  1.00  0.00     0.188 C 
BRANCH  43  44
ATOM     44  O   UNL A   1      42.962  21.778  26.464  1.00  0.00    -0.376 OA
BRANCH  44  45
ATOM     45  C   UNL A   1      43.902  21.786  25.397  1.00  0.00     0.202 C 
BRANCH  45  46
ATOM     46  C   UNL A   1      43.811  22.963  24.432  1.00  0.00     0.261 C 
BRANCH  46  47
ATOM     47  O   UNL A   1      43.454  24.155  25.148  1.00  0.00    -0.460 OA
BRANCH  47  48
ATOM     48  C   UNL A   1      44.479  25.004  25.367  1.00  0.00     0.338 C 
ATOM     49  O   UNL A   1      45.342  25.362  24.579  1.00  0.00    -0.246 OA
BRANCH  48  50
ATOM     50  C   UNL A   1      44.275  25.643  26.672  1.00  0.00     0.060 A 
ATOM     51  C   UNL A   1      43.358  25.037  27.539  1.00  0.00     0.016 A 
ATOM     52  C   UNL A   1      44.929  26.826  27.022  1.00  0.00     0.016 A 
ATOM     53  C   UNL A   1      43.069  25.619  28.758  1.00  0.00     0.010 A 
ATOM     54  C   UNL A   1      44.599  27.445  28.228  1.00  0.00     0.010 A 
ATOM     55  C   UNL A   1      43.635  26.859  29.068  1.00  0.00    -0.014 A 
BRANCH  55  56
ATOM     56  C   UNL A   1      42.964  27.654  30.110  1.00  0.00     0.031 A 
ATOM     57  C   UNL A   1      43.649  27.756  31.442  1.00  0.00     0.074 A 
ATOM     58  C   UNL A   1      41.850  28.346  29.832  1.00  0.00     0.049 A 
ATOM     59  N   UNL A   1      43.284  28.399  32.519  1.00  0.00    -0.248 NA
ATOM     60  C   UNL A   1      44.931  27.040  31.576  1.00  0.00     0.031 C 
ATOM     61  C   UNL A   1      41.176  28.374  28.536  1.00  0.00     0.029 A 
ATOM     62  N   UNL A   1      41.098  29.168  30.626  1.00  0.00    -0.354 N 
ATOM     63  C   UNL A   1      44.286  28.161  33.452  1.00  0.00     0.074 A 
ATOM     64  C   UNL A   1      45.260  27.295  32.831  1.00  0.00     0.031 C 
ATOM     65  C   UNL A   1      40.094  29.166  28.628  1.00  0.00     0.029 A 
ATOM     66  C   UNL A   1      39.987  29.666  29.996  1.00  0.00     0.049 A 
ATOM     67  H   UNL A   1      41.333  29.380  31.558  1.00  0.00     0.167 HD
ATOM     68  C   UNL A   1      44.379  28.634  34.715  1.00  0.00     0.037 A 
ATOM     69  C   UNL A   1      38.988  30.418  30.495  1.00  0.00     0.037 A 
ATOM     70  C   UNL A   1      43.390  29.490  35.311  1.00  0.00     0.049 A 
ATOM     71  C   UNL A   1      39.067  30.849  31.937  1.00  0.00     0.074 A 
ATOM     72  C   UNL A   1      43.364  30.024  36.585  1.00  0.00     0.029 A 
ATOM     73  N   UNL A   1      42.241  29.927  34.666  1.00  0.00    -0.354 N 
ATOM     74  N   UNL A   1      40.009  30.621  32.822  1.00  0.00    -0.248 NA
ATOM     75  C   UNL A   1      37.946  31.646  32.449  1.00  0.00     0.031 C 
ATOM     76  C   UNL A   1      42.167  30.731  36.732  1.00  0.00     0.029 A 
ATOM     77  C   UNL A   1      41.482  30.701  35.527  1.00  0.00     0.049 A 
ATOM     78  H   UNL A   1      42.002  29.719  33.734  1.00  0.00     0.167 HD
ATOM     79  C   UNL A   1      39.612  31.270  33.983  1.00  0.00     0.074 A 
ATOM     80  C   UNL A   1      38.349  31.915  33.682  1.00  0.00     0.031 C 
ATOM     81  C   UNL A   1      40.231  31.333  35.190  1.00  0.00     0.037 A 
BRANCH  68  82
ATOM     82  C   UNL A   1      45.554  28.191  35.538  1.00  0.00     0.064 A 
ATOM     83  C   UNL A   1      46.748  28.925  35.589  1.00  0.00     0.173 A 
ATOM     84  C   UNL A   1      45.478  27.011  36.293  1.00  0.00     0.173 A 
ATOM     85  F   UNL A   1      46.884  30.047  34.867  1.00  0.00    -0.203 F 
ATOM     86  C   UNL A   1      47.831  28.480  36.346  1.00  0.00     0.198 A 
ATOM     87  C   UNL A   1      46.550  26.588  37.075  1.00  0.00     0.198 A 
ATOM     88  F   UNL A   1      44.362  26.266  36.274  1.00  0.00    -0.203 F 
ATOM     89  F   UNL A   1      48.981  29.169  36.336  1.00  0.00    -0.200 F 
ATOM     90  C   UNL A   1      47.728  27.317  37.094  1.00  0.00     0.200 A 
ATOM     91  F   UNL A   1      46.443  25.468  37.803  1.00  0.00    -0.200 F 
ATOM     92  F   UNL A   1      48.767  26.894  37.826  1.00  0.00    -0.200 F 
ENDBRANCH  68  82
BRANCH  69  93
ATOM     93  C   UNL A   1      37.831  30.783  29.637  1.00  0.00     0.064 A 
ATOM     94  C   UNL A   1      36.814  29.863  29.354  1.00  0.00     0.173 A 
ATOM     95  C   UNL A   1      37.728  32.063  29.068  1.00  0.00     0.173 A 
ATOM     96  F   UNL A   1      36.875  28.621  29.856  1.00  0.00    -0.203 F 
ATOM     97  C   UNL A   1      35.750  30.199  28.518  1.00  0.00     0.198 A 
ATOM     98  C   UNL A   1      36.647  32.408  28.260  1.00  0.00     0.198 A 
ATOM     99  F   UNL A   1      38.673  32.984  29.308  1.00  0.00    -0.203 F 
ATOM    100  F   UNL A   1      34.817  29.284  28.223  1.00  0.00    -0.200 F 
ATOM    101  C   UNL A   1      35.664  31.474  27.977  1.00  0.00     0.200 A 
ATOM    102  F   UNL A   1      36.561  33.647  27.755  1.00  0.00    -0.200 F 
ATOM    103  F   UNL A   1      34.639  31.798  27.177  1.00  0.00    -0.200 F 
ENDBRANCH  69  93
BRANCH  81 104
ATOM    104  C   UNL A   1      39.571  32.161  36.255  1.00  0.00     0.064 A 
ATOM    105  C   UNL A   1      38.504  31.670  37.020  1.00  0.00     0.173 A 
ATOM    106  C   UNL A   1      40.048  33.450  36.542  1.00  0.00     0.173 A 
ATOM    107  F   UNL A   1      38.004  30.449  36.776  1.00  0.00    -0.203 F 
ATOM    108  C   UNL A   1      37.916  32.452  38.009  1.00  0.00     0.198 A 
ATOM    109  C   UNL A   1      39.484  34.213  37.558  1.00  0.00     0.198 A 
ATOM    110  F   UNL A   1      41.077  33.962  35.848  1.00  0.00    -0.203 F 
ATOM    111  F   UNL A   1      36.858  31.985  38.688  1.00  0.00    -0.200 F 
ATOM    112  C   UNL A   1      38.411  33.718  38.283  1.00  0.00     0.200 A 
ATOM    113  F   UNL A   1      39.978  35.427  37.835  1.00  0.00    -0.200 F 
ATOM    114  F   UNL A   1      37.849  34.466  39.244  1.00  0.00    -0.200 F 
ENDBRANCH  81 104
ENDBRANCH  55  56
ENDBRANCH  48  50
ENDBRANCH  47  48
ENDBRANCH  46  47
ENDBRANCH  45  46
ENDBRANCH  44  45
ENDBRANCH  43  44
ENDBRANCH  42  43
ENDBRANCH  41  42
ENDBRANCH   1  41
TORSDOF 26
ENDMDL
MODEL 2
REMARK VINA RESULT:      -9.5      5.486     10.187
REMARK SMILES CC(C)C(=O)Nc1ccc2c([C@H](C(=O)OCCOCCOCCOCCOC(=O)c3ccc(-c4c5nc(c(-c6c(F)c(F)c(F)c(F)c6F)c6ccc([nH]6)c(-c6c(F)c(F)c(F)c(F)c6F)c6nc(c(-c7c(F)c(F)c(F)c(F)c7F)c7ccc4[nH]7)C=C6)C=C5)cc3)[NH+]3CC[NH+](CC(=O)N(C)C)CC3)c[nH]c2c1
REMARK SMILES IDX 20 1 19 2 18 3 17 4 16 5 15 6 13 7 14 8 12 9 11 10 7 11 8 12
REMARK SMILES IDX 108 13 9 14 107 15 10 16 106 17 105 18 6 20 4 21 5 22 2 24
REMARK SMILES IDX 1 25 3 26 93 27 94 28 104 29 95 31 103 32 96 33 97 35 98 36
REMARK SMILES IDX 99 37 100 38 101 39 102 40 21 41 22 42 23 43 24 44 25 45
REMARK SMILES IDX 26 46 27 47 28 48 29 49 30 50 31 51 92 52 32 53 91 54 33 55
REMARK SMILES IDX 34 56 35 57 85 58 36 59 90 60 84 61 86 62 37 63 89 64 83 65
REMARK SMILES IDX 82 66 38 68 70 69 50 70 69 71 51 72 54 73 68 74 87 75 52 76
REMARK SMILES IDX 53 77 67 79 88 80 55 81 39 82 40 83 48 84 41 85 42 86 46 87
REMARK SMILES IDX 49 88 43 89 44 90 47 91 45 92 71 93 72 94 80 95 73 96 74 97
REMARK SMILES IDX 78 98 81 99 75 100 76 101 79 102 77 103 56 104 57 105 65 106
REMARK SMILES IDX 58 107 59 108 63 109 66 110 60 111 61 112 64 113 62 114
REMARK H PARENT 106 19 6 23 93 30 96 34 86 67 54 78
REMARK Flexibility Score: inf
ROOT
ATOM      1  C   UNL A   1      39.945  25.177  26.423  1.00  0.00     0.188 C 
ENDROOT
BRANCH   1   2
ATOM      2  C   UNL A   1      39.161  23.939  26.869  1.00  0.00     0.188 C 
BRANCH   2   3
ATOM      3  O   UNL A   1      37.749  23.846  26.715  1.00  0.00    -0.376 OA
BRANCH   3   4
ATOM      4  C   UNL A   1      37.185  23.599  25.440  1.00  0.00     0.202 C 
BRANCH   4   5
ATOM      5  C   UNL A   1      35.723  24.052  25.227  1.00  0.00     0.261 C 
BRANCH   5   6
ATOM      6  O   UNL A   1      34.682  23.736  26.188  1.00  0.00    -0.459 OA
BRANCH   6   7
ATOM      7  C   UNL A   1      33.403  23.726  25.688  1.00  0.00     0.370 C 
ATOM      8  O   UNL A   1      32.423  23.573  26.409  1.00  0.00    -0.245 OA
BRANCH   7   9
ATOM      9  C   UNL A   1      33.365  23.793  24.132  1.00  0.00     0.328 C 
BRANCH   9  10
ATOM     10  C   UNL A   1      32.795  22.514  23.502  1.00  0.00     0.046 A 
ATOM     11  C   UNL A   1      32.597  18.487  24.661  1.00  0.00     0.043 A 
ATOM     12  C   UNL A   1      33.418  19.283  25.441  1.00  0.00     0.027 A 
ATOM     13  C   UNL A   1      32.114  18.941  23.431  1.00  0.00     0.052 A 
ATOM     14  C   UNL A   1      33.551  20.640  25.168  1.00  0.00     0.013 A 
ATOM     15  C   UNL A   1      32.267  20.306  23.164  1.00  0.00     0.048 A 
ATOM     16  C   UNL A   1      32.915  21.182  24.035  1.00  0.00     0.009 A 
ATOM     17  N   UNL A   1      31.829  21.050  22.100  1.00  0.00    -0.361 N 
ATOM     18  C   UNL A   1      32.089  22.374  22.317  1.00  0.00     0.094 A 
ATOM     19  H   UNL A   1      31.392  20.685  21.297  1.00  0.00     0.166 HD
BRANCH  11  20
ATOM     20  N   UNL A   1      32.181  17.234  25.106  1.00  0.00    -0.326 N 
ATOM     21  C   UNL A   1      32.800  16.024  24.955  1.00  0.00     0.226 C 
ATOM     22  O   UNL A   1      32.205  15.031  25.393  1.00  0.00    -0.274 OA
ATOM     23  H   UNL A   1      31.326  17.217  25.596  1.00  0.00     0.169 HD
BRANCH  21  24
ATOM     24  C   UNL A   1      34.215  15.851  24.368  1.00  0.00     0.072 C 
ATOM     25  C   UNL A   1      34.463  16.574  23.048  1.00  0.00     0.018 C 
ATOM     26  C   UNL A   1      35.357  16.040  25.368  1.00  0.00     0.018 C 
ENDBRANCH  21  24
ENDBRANCH  11  20
ENDBRANCH   9  10
BRANCH   9  27
ATOM     27  N   UNL A   1      32.650  24.938  23.551  1.00  0.00    -0.310 N 
ATOM     28  C   UNL A   1      31.774  25.777  24.353  1.00  0.00     0.325 C 
ATOM     29  C   UNL A   1      33.119  25.573  22.342  1.00  0.00     0.325 C 
ATOM     30  H   UNL A   1      32.014  24.213  23.216  1.00  0.00     0.349 HD
ATOM     31  C   UNL A   1      32.328  27.175  24.644  1.00  0.00     0.325 C 
ATOM     32  C   UNL A   1      33.755  26.938  22.621  1.00  0.00     0.325 C 
ATOM     33  N   UNL A   1      33.063  27.842  23.556  1.00  0.00    -0.318 N 
ATOM     34  H   UNL A   1      33.859  28.295  24.008  1.00  0.00     0.348 HD
BRANCH  33  35
ATOM     35  C   UNL A   1      32.327  28.965  22.959  1.00  0.00     0.364 C 
BRANCH  35  36
ATOM     36  C   UNL A   1      30.884  28.636  22.606  1.00  0.00     0.277 C 
ATOM     37  O   UNL A   1      30.643  27.664  21.883  1.00  0.00    -0.268 OA
ATOM     38  N   UNL A   1      29.873  29.467  23.082  1.00  0.00    -0.344 N 
ATOM     39  C   UNL A   1      29.994  30.497  24.106  1.00  0.00     0.146 C 
ATOM     40  C   UNL A   1      28.537  29.251  22.565  1.00  0.00     0.146 C 
ENDBRANCH  35  36
ENDBRANCH  33  35
ENDBRANCH   9  27
ENDBRANCH   7   9
ENDBRANCH   6   7
ENDBRANCH   5   6
ENDBRANCH   4   5
ENDBRANCH   3   4
ENDBRANCH   2   3
ENDBRANCH   1   2
BRANCH   1  41
ATOM     41  O   UNL A   1      40.357  26.006  27.490  1.00  0.00    -0.377 OA
BRANCH  41  42
ATOM     42  C   UNL A   1      39.619  26.080  28.690  1.00  0.00     0.188 C 
BRANCH  42  43
ATOM     43  C   UNL A   1      39.284  27.505  29.122  1.00  0.00     0.188 C 
BRANCH  43  44
ATOM     44  O   UNL A   1      38.402  28.266  28.301  1.00  0.00    -0.376 OA
BRANCH  44  45
ATOM     45  C   UNL A   1      37.606  29.270  28.920  1.00  0.00     0.202 C 
BRANCH  45  46
ATOM     46  C   UNL A   1      37.792  29.440  30.424  1.00  0.00     0.261 C 
BRANCH  46  47
ATOM     47  O   UNL A   1      38.303  30.752  30.708  1.00  0.00    -0.460 OA
BRANCH  47  48
ATOM     48  C   UNL A   1      39.099  30.818  31.794  1.00  0.00     0.338 C 
ATOM     49  O   UNL A   1      38.782  30.708  32.968  1.00  0.00    -0.246 OA
BRANCH  48  50
ATOM     50  C   UNL A   1      40.495  30.814  31.340  1.00  0.00     0.060 A 
ATOM     51  C   UNL A   1      40.742  31.283  30.044  1.00  0.00     0.016 A 
ATOM     52  C   UNL A   1      41.529  30.327  32.143  1.00  0.00     0.016 A 
ATOM     53  C   UNL A   1      42.023  31.249  29.528  1.00  0.00     0.010 A 
ATOM     54  C   UNL A   1      42.812  30.240  31.605  1.00  0.00     0.010 A 
ATOM     55  C   UNL A   1      43.042  30.660  30.283  1.00  0.00    -0.014 A 
BRANCH  55  56
ATOM     56  C   UNL A   1      44.239  30.216  29.550  1.00  0.00     0.031 A 
ATOM     57  C   UNL A   1      44.209  28.836  28.958  1.00  0.00     0.074 A 
ATOM     58  C   UNL A   1      45.257  31.059  29.328  1.00  0.00     0.049 A 
ATOM     59  N   UNL A   1      45.117  28.210  28.260  1.00  0.00    -0.248 NA
ATOM     60  C   UNL A   1      42.977  28.057  29.177  1.00  0.00     0.031 C 
ATOM     61  C   UNL A   1      45.321  32.445  29.789  1.00  0.00     0.029 A 
ATOM     62  N   UNL A   1      46.429  30.871  28.648  1.00  0.00    -0.354 N 
ATOM     63  C   UNL A   1      44.569  26.969  27.962  1.00  0.00     0.074 A 
ATOM     64  C   UNL A   1      43.263  26.914  28.576  1.00  0.00     0.031 C 
ATOM     65  C   UNL A   1      46.487  32.981  29.388  1.00  0.00     0.029 A 
ATOM     66  C   UNL A   1      47.257  31.963  28.677  1.00  0.00     0.049 A 
ATOM     67  H   UNL A   1      46.655  30.033  28.183  1.00  0.00     0.167 HD
ATOM     68  C   UNL A   1      45.113  25.969  27.234  1.00  0.00     0.037 A 
ATOM     69  C   UNL A   1      48.510  32.098  28.202  1.00  0.00     0.037 A 
ATOM     70  C   UNL A   1      46.419  26.047  26.640  1.00  0.00     0.049 A 
ATOM     71  C   UNL A   1      49.132  30.931  27.480  1.00  0.00     0.074 A 
ATOM     72  C   UNL A   1      47.086  25.097  25.891  1.00  0.00     0.029 A 
ATOM     73  N   UNL A   1      47.261  27.146  26.741  1.00  0.00    -0.354 N 
ATOM     74  N   UNL A   1      48.618  29.755  27.203  1.00  0.00    -0.248 NA
ATOM     75  C   UNL A   1      50.507  31.110  27.000  1.00  0.00     0.031 C 
ATOM     76  C   UNL A   1      48.358  25.596  25.594  1.00  0.00     0.029 A 
ATOM     77  C   UNL A   1      48.456  26.886  26.093  1.00  0.00     0.049 A 
ATOM     78  H   UNL A   1      47.040  27.987  27.204  1.00  0.00     0.167 HD
ATOM     79  C   UNL A   1      49.591  29.067  26.492  1.00  0.00     0.074 A 
ATOM     80  C   UNL A   1      50.721  29.966  26.366  1.00  0.00     0.031 C 
ATOM     81  C   UNL A   1      49.558  27.809  25.983  1.00  0.00     0.037 A 
BRANCH  68  82
ATOM     82  C   UNL A   1      44.320  24.701  27.093  1.00  0.00     0.064 A 
ATOM     83  C   UNL A   1      43.722  24.326  25.881  1.00  0.00     0.173 A 
ATOM     84  C   UNL A   1      44.163  23.845  28.193  1.00  0.00     0.173 A 
ATOM     85  F   UNL A   1      43.819  25.120  24.804  1.00  0.00    -0.203 F 
ATOM     86  C   UNL A   1      42.975  23.154  25.783  1.00  0.00     0.198 A 
ATOM     87  C   UNL A   1      43.444  22.657  28.082  1.00  0.00     0.198 A 
ATOM     88  F   UNL A   1      44.707  24.159  29.379  1.00  0.00    -0.203 F 
ATOM     89  F   UNL A   1      42.366  22.843  24.630  1.00  0.00    -0.200 F 
ATOM     90  C   UNL A   1      42.844  22.317  26.881  1.00  0.00     0.200 A 
ATOM     91  F   UNL A   1      43.327  21.847  29.143  1.00  0.00    -0.200 F 
ATOM     92  F   UNL A   1      42.130  21.186  26.783  1.00  0.00    -0.200 F 
ENDBRANCH  68  82
BRANCH  69  93
ATOM     93  C   UNL A   1      49.255  33.366  28.417  1.00  0.00     0.064 A 
ATOM     94  C   UNL A   1      49.305  34.359  27.429  1.00  0.00     0.173 A 
ATOM     95  C   UNL A   1      49.946  33.605  29.615  1.00  0.00     0.173 A 
ATOM     96  F   UNL A   1      48.678  34.171  26.259  1.00  0.00    -0.203 F 
ATOM     97  C   UNL A   1      50.036  35.530  27.621  1.00  0.00     0.198 A 
ATOM     98  C   UNL A   1      50.649  34.790  29.819  1.00  0.00     0.198 A 
ATOM     99  F   UNL A   1      49.930  32.689  30.595  1.00  0.00    -0.203 F 
ATOM    100  F   UNL A   1      50.109  36.440  26.641  1.00  0.00    -0.200 F 
ATOM    101  C   UNL A   1      50.702  35.747  28.819  1.00  0.00     0.200 A 
ATOM    102  F   UNL A   1      51.276  35.002  30.985  1.00  0.00    -0.200 F 
ATOM    103  F   UNL A   1      51.401  36.876  29.005  1.00  0.00    -0.200 F 
ENDBRANCH  69  93
BRANCH  81 104
ATOM    104  C   UNL A   1      50.763  27.351  25.211  1.00  0.00     0.064 A 
ATOM    105  C   UNL A   1      50.866  27.533  23.825  1.00  0.00     0.173 A 
ATOM    106  C   UNL A   1      51.847  26.763  25.880  1.00  0.00     0.173 A 
ATOM    107  F   UNL A   1      49.850  28.079  23.138  1.00  0.00    -0.203 F 
ATOM    108  C   UNL A   1      51.996  27.111  23.131  1.00  0.00     0.198 A 
ATOM    109  C   UNL A   1      52.991  26.379  25.190  1.00  0.00     0.198 A 
ATOM    110  F   UNL A   1      51.805  26.579  27.208  1.00  0.00    -0.203 F 
ATOM    111  F   UNL A   1      52.048  27.240  21.799  1.00  0.00    -0.200 F 
ATOM    112  C   UNL A   1      53.060  26.542  23.815  1.00  0.00     0.200 A 
ATOM    113  F   UNL A   1      54.027  25.850  25.855  1.00  0.00    -0.200 F 
ATOM    114  F   UNL A   1      54.152  26.146  23.146  1.00  0.00    -0.200 F 
ENDBRANCH  81 104
ENDBRANCH  55  56
ENDBRANCH  48  50
ENDBRANCH  47  48
ENDBRANCH  46  47
ENDBRANCH  45  46
ENDBRANCH  44  45
ENDBRANCH  43  44
ENDBRANCH  42  43
ENDBRANCH  41  42
ENDBRANCH   1  41
TORSDOF 26
ENDMDL
MODEL 3
REMARK VINA RESULT:      -9.0      6.310     10.292
REMARK SMILES CC(C)C(=O)Nc1ccc2c([C@H](C(=O)OCCOCCOCCOCCOC(=O)c3ccc(-c4c5nc(c(-c6c(F)c(F)c(F)c(F)c6F)c6ccc([nH]6)c(-c6c(F)c(F)c(F)c(F)c6F)c6nc(c(-c7c(F)c(F)c(F)c(F)c7F)c7ccc4[nH]7)C=C6)C=C5)cc3)[NH+]3CC[NH+](CC(=O)N(C)C)CC3)c[nH]c2c1
REMARK SMILES IDX 20 1 19 2 18 3 17 4 16 5 15 6 13 7 14 8 12 9 11 10 7 11 8 12
REMARK SMILES IDX 108 13 9 14 107 15 10 16 106 17 105 18 6 20 4 21 5 22 2 24
REMARK SMILES IDX 1 25 3 26 93 27 94 28 104 29 95 31 103 32 96 33 97 35 98 36
REMARK SMILES IDX 99 37 100 38 101 39 102 40 21 41 22 42 23 43 24 44 25 45
REMARK SMILES IDX 26 46 27 47 28 48 29 49 30 50 31 51 92 52 32 53 91 54 33 55
REMARK SMILES IDX 34 56 35 57 85 58 36 59 90 60 84 61 86 62 37 63 89 64 83 65
REMARK SMILES IDX 82 66 38 68 70 69 50 70 69 71 51 72 54 73 68 74 87 75 52 76
REMARK SMILES IDX 53 77 67 79 88 80 55 81 39 82 40 83 48 84 41 85 42 86 46 87
REMARK SMILES IDX 49 88 43 89 44 90 47 91 45 92 71 93 72 94 80 95 73 96 74 97
REMARK SMILES IDX 78 98 81 99 75 100 76 101 79 102 77 103 56 104 57 105 65 106
REMARK SMILES IDX 58 107 59 108 63 109 66 110 60 111 61 112 64 113 62 114
REMARK H PARENT 106 19 6 23 93 30 96 34 86 67 54 78
REMARK Flexibility Score: inf
ROOT
ATOM      1  C   UNL A   1      40.107  25.492  26.539  1.00  0.00     0.188 C 
ENDROOT
BRANCH   1   2
ATOM      2  C   UNL A   1      39.144  24.332  26.808  1.00  0.00     0.188 C 
BRANCH   2   3
ATOM      3  O   UNL A   1      37.736  24.467  26.642  1.00  0.00    -0.376 OA
BRANCH   3   4
ATOM      4  C   UNL A   1      37.068  23.759  25.615  1.00  0.00     0.202 C 
BRANCH   4   5
ATOM      5  C   UNL A   1      35.602  24.161  25.336  1.00  0.00     0.261 C 
BRANCH   5   6
ATOM      6  O   UNL A   1      34.539  23.857  26.276  1.00  0.00    -0.459 OA
BRANCH   6   7
ATOM      7  C   UNL A   1      33.297  23.672  25.720  1.00  0.00     0.370 C 
ATOM      8  O   UNL A   1      32.313  23.398  26.399  1.00  0.00    -0.245 OA
BRANCH   7   9
ATOM      9  C   UNL A   1      33.322  23.714  24.163  1.00  0.00     0.328 C 
BRANCH   9  10
ATOM     10  C   UNL A   1      32.768  22.429  23.530  1.00  0.00     0.046 A 
ATOM     11  C   UNL A   1      32.617  18.398  24.683  1.00  0.00     0.043 A 
ATOM     12  C   UNL A   1      33.428  19.203  25.465  1.00  0.00     0.027 A 
ATOM     13  C   UNL A   1      32.130  18.848  23.453  1.00  0.00     0.052 A 
ATOM     14  C   UNL A   1      33.545  20.562  25.194  1.00  0.00     0.013 A 
ATOM     15  C   UNL A   1      32.267  20.215  23.189  1.00  0.00     0.048 A 
ATOM     16  C   UNL A   1      32.904  21.098  24.061  1.00  0.00     0.009 A 
ATOM     17  N   UNL A   1      31.822  20.956  22.126  1.00  0.00    -0.361 N 
ATOM     18  C   UNL A   1      32.065  22.282  22.345  1.00  0.00     0.094 A 
ATOM     19  H   UNL A   1      31.390  20.587  21.322  1.00  0.00     0.166 HD
BRANCH  11  20
ATOM     20  N   UNL A   1      32.216  17.140  25.126  1.00  0.00    -0.326 N 
ATOM     21  C   UNL A   1      32.849  15.937  24.972  1.00  0.00     0.226 C 
ATOM     22  O   UNL A   1      32.265  14.937  25.409  1.00  0.00    -0.274 OA
ATOM     23  H   UNL A   1      31.362  17.112  25.616  1.00  0.00     0.169 HD
BRANCH  21  24
ATOM     24  C   UNL A   1      34.265  15.781  24.383  1.00  0.00     0.072 C 
ATOM     25  C   UNL A   1      34.500  16.502  23.060  1.00  0.00     0.018 C 
ATOM     26  C   UNL A   1      35.406  15.990  25.380  1.00  0.00     0.018 C 
ENDBRANCH  21  24
ENDBRANCH  11  20
ENDBRANCH   9  10
BRANCH   9  27
ATOM     27  N   UNL A   1      32.640  24.854  23.535  1.00  0.00    -0.310 N 
ATOM     28  C   UNL A   1      31.780  25.743  24.300  1.00  0.00     0.325 C 
ATOM     29  C   UNL A   1      33.134  25.434  22.308  1.00  0.00     0.325 C 
ATOM     30  H   UNL A   1      31.989  24.134  23.221  1.00  0.00     0.349 HD
ATOM     31  C   UNL A   1      32.366  27.137  24.545  1.00  0.00     0.325 C 
ATOM     32  C   UNL A   1      33.801  26.792  22.544  1.00  0.00     0.325 C 
ATOM     33  N   UNL A   1      33.125  27.746  23.440  1.00  0.00    -0.318 N 
ATOM     34  H   UNL A   1      33.929  28.195  23.882  1.00  0.00     0.348 HD
BRANCH  33  35
ATOM     35  C   UNL A   1      32.422  28.864  22.797  1.00  0.00     0.364 C 
BRANCH  35  36
ATOM     36  C   UNL A   1      30.947  28.595  22.536  1.00  0.00     0.277 C 
ATOM     37  O   UNL A   1      30.625  27.687  21.763  1.00  0.00    -0.268 OA
ATOM     38  N   UNL A   1      30.000  29.408  23.152  1.00  0.00    -0.344 N 
ATOM     39  C   UNL A   1      30.227  30.352  24.238  1.00  0.00     0.146 C 
ATOM     40  C   UNL A   1      28.622  29.260  22.728  1.00  0.00     0.146 C 
ENDBRANCH  35  36
ENDBRANCH  33  35
ENDBRANCH   9  27
ENDBRANCH   7   9
ENDBRANCH   6   7
ENDBRANCH   5   6
ENDBRANCH   4   5
ENDBRANCH   3   4
ENDBRANCH   2   3
ENDBRANCH   1   2
BRANCH   1  41
ATOM     41  O   UNL A   1      40.489  26.198  27.701  1.00  0.00    -0.377 OA
BRANCH  41  42
ATOM     42  C   UNL A   1      39.741  26.108  28.894  1.00  0.00     0.188 C 
BRANCH  42  43
ATOM     43  C   UNL A   1      39.338  27.461  29.474  1.00  0.00     0.188 C 
BRANCH  43  44
ATOM     44  O   UNL A   1      38.316  28.199  28.809  1.00  0.00    -0.376 OA
BRANCH  44  45
ATOM     45  C   UNL A   1      37.461  29.020  29.595  1.00  0.00     0.202 C 
BRANCH  45  46
ATOM     46  C   UNL A   1      37.752  29.054  31.091  1.00  0.00     0.261 C 
BRANCH  46  47
ATOM     47  O   UNL A   1      37.819  30.415  31.545  1.00  0.00    -0.460 OA
BRANCH  47  48
ATOM     48  C   UNL A   1      38.829  30.668  32.402  1.00  0.00     0.338 C 
ATOM     49  O   UNL A   1      38.811  30.615  33.623  1.00  0.00    -0.246 OA
BRANCH  48  50
ATOM     50  C   UNL A   1      40.068  30.800  31.627  1.00  0.00     0.060 A 
ATOM     51  C   UNL A   1      41.269  30.799  32.347  1.00  0.00     0.016 A 
ATOM     52  C   UNL A   1      40.055  30.961  30.240  1.00  0.00     0.016 A 
ATOM     53  C   UNL A   1      42.470  30.983  31.688  1.00  0.00     0.010 A 
ATOM     54  C   UNL A   1      41.260  31.201  29.580  1.00  0.00     0.010 A 
ATOM     55  C   UNL A   1      42.456  31.257  30.317  1.00  0.00    -0.014 A 
BRANCH  55  56
ATOM     56  C   UNL A   1      43.655  31.901  29.757  1.00  0.00     0.031 A 
ATOM     57  C   UNL A   1      43.555  33.361  29.419  1.00  0.00     0.074 A 
ATOM     58  C   UNL A   1      44.813  31.232  29.667  1.00  0.00     0.049 A 
ATOM     59  N   UNL A   1      44.459  34.166  28.930  1.00  0.00    -0.248 NA
ATOM     60  C   UNL A   1      42.255  34.005  29.678  1.00  0.00     0.031 C 
ATOM     61  C   UNL A   1      45.016  29.840  30.063  1.00  0.00     0.029 A 
ATOM     62  N   UNL A   1      46.040  31.642  29.222  1.00  0.00    -0.354 N 
ATOM     63  C   UNL A   1      43.837  35.403  28.821  1.00  0.00     0.074 A 
ATOM     64  C   UNL A   1      42.473  35.242  29.266  1.00  0.00     0.031 C 
ATOM     65  C   UNL A   1      46.296  29.505  29.828  1.00  0.00     0.029 A 
ATOM     66  C   UNL A   1      46.984  30.649  29.234  1.00  0.00     0.049 A 
ATOM     67  H   UNL A   1      46.226  32.562  28.924  1.00  0.00     0.167 HD
ATOM     68  C   UNL A   1      44.368  36.570  28.390  1.00  0.00     0.037 A 
ATOM     69  C   UNL A   1      48.252  30.671  28.783  1.00  0.00     0.037 A 
ATOM     70  C   UNL A   1      45.728  36.700  27.945  1.00  0.00     0.049 A 
ATOM     71  C   UNL A   1      48.789  31.959  28.215  1.00  0.00     0.074 A 
ATOM     72  C   UNL A   1      46.379  37.823  27.474  1.00  0.00     0.029 A 
ATOM     73  N   UNL A   1      46.644  35.657  27.911  1.00  0.00    -0.354 N 
ATOM     74  N   UNL A   1      48.200  33.127  28.105  1.00  0.00    -0.248 NA
ATOM     75  C   UNL A   1      50.167  31.933  27.711  1.00  0.00     0.031 C 
ATOM     76  C   UNL A   1      47.670  37.446  27.092  1.00  0.00     0.029 A 
ATOM     77  C   UNL A   1      47.848  36.104  27.395  1.00  0.00     0.049 A 
ATOM     78  H   UNL A   1      46.464  34.736  28.209  1.00  0.00     0.167 HD
ATOM     79  C   UNL A   1      49.143  33.982  27.551  1.00  0.00     0.074 A 
ATOM     80  C   UNL A   1      50.348  33.199  27.362  1.00  0.00     0.031 C 
ATOM     81  C   UNL A   1      49.030  35.296  27.227  1.00  0.00     0.037 A 
BRANCH  68  82
ATOM     82  C   UNL A   1      43.462  37.766  28.332  1.00  0.00     0.064 A 
ATOM     83  C   UNL A   1      43.416  38.718  29.360  1.00  0.00     0.173 A 
ATOM     84  C   UNL A   1      42.627  37.961  27.221  1.00  0.00     0.173 A 
ATOM     85  F   UNL A   1      44.174  38.567  30.457  1.00  0.00    -0.203 F 
ATOM     86  C   UNL A   1      42.551  39.809  29.289  1.00  0.00     0.198 A 
ATOM     87  C   UNL A   1      41.789  39.070  27.138  1.00  0.00     0.198 A 
ATOM     88  F   UNL A   1      42.624  37.077  26.212  1.00  0.00    -0.203 F 
ATOM     89  F   UNL A   1      42.485  40.677  30.309  1.00  0.00    -0.200 F 
ATOM     90  C   UNL A   1      41.745  39.988  28.176  1.00  0.00     0.200 A 
ATOM     91  F   UNL A   1      41.018  39.245  26.056  1.00  0.00    -0.200 F 
ATOM     92  F   UNL A   1      40.918  41.041  28.106  1.00  0.00    -0.200 F 
ENDBRANCH  68  82
BRANCH  69  93
ATOM     93  C   UNL A   1      49.080  29.437  28.830  1.00  0.00     0.064 A 
ATOM     94  C   UNL A   1      49.122  28.545  27.750  1.00  0.00     0.173 A 
ATOM     95  C   UNL A   1      49.839  29.118  29.967  1.00  0.00     0.173 A 
ATOM     96  F   UNL A   1      48.400  28.795  26.648  1.00  0.00    -0.203 F 
ATOM     97  C   UNL A   1      49.871  27.371  27.813  1.00  0.00     0.198 A 
ATOM     98  C   UNL A   1      50.613  27.961  30.016  1.00  0.00     0.198 A 
ATOM     99  F   UNL A   1      49.838  29.937  31.029  1.00  0.00    -0.203 F 
ATOM    100  F   UNL A   1      49.853  26.512  26.786  1.00  0.00    -0.200 F 
ATOM    101  C   UNL A   1      50.621  27.083  28.944  1.00  0.00     0.200 A 
ATOM    102  F   UNL A   1      51.350  27.697  31.105  1.00  0.00    -0.200 F 
ATOM    103  F   UNL A   1      51.345  25.957  29.002  1.00  0.00    -0.200 F 
ENDBRANCH  69  93
BRANCH  81 104
ATOM    104  C   UNL A   1      50.253  35.974  26.679  1.00  0.00     0.064 A 
ATOM    105  C   UNL A   1      50.506  36.044  25.302  1.00  0.00     0.173 A 
ATOM    106  C   UNL A   1      51.160  36.601  27.547  1.00  0.00     0.173 A 
ATOM    107  F   UNL A   1      49.675  35.449  24.431  1.00  0.00    -0.203 F 
ATOM    108  C   UNL A   1      51.640  36.687  24.816  1.00  0.00     0.198 A 
ATOM    109  C   UNL A   1      52.271  37.277  27.056  1.00  0.00     0.198 A 
ATOM    110  F   UNL A   1      50.957  36.575  28.873  1.00  0.00    -0.203 F 
ATOM    111  F   UNL A   1      51.893  36.690  23.500  1.00  0.00    -0.200 F 
ATOM    112  C   UNL A   1      52.517  37.309  25.692  1.00  0.00     0.200 A 
ATOM    113  F   UNL A   1      53.105  37.896  27.902  1.00  0.00    -0.200 F 
ATOM    114  F   UNL A   1      53.604  37.937  25.221  1.00  0.00    -0.200 F 
ENDBRANCH  81 104
ENDBRANCH  55  56
ENDBRANCH  48  50
ENDBRANCH  47  48
ENDBRANCH  46  47
ENDBRANCH  45  46
ENDBRANCH  44  45
ENDBRANCH  43  44
ENDBRANCH  42  43
ENDBRANCH  41  42
ENDBRANCH   1  41
TORSDOF 26
ENDMDL
