MODEL 1
REMARK VINA RESULT:     -11.7      0.000      0.000
REMARK SMILES COc1ccccc1[C@@H]1CN(C(=O)c2cnn3ccccc23)C[C@H]1C(=O)OCCOCCOCCOCCOC(=O)c1ccc(-c2c3nc(c(-c4c(F)c(F)c(F)c(F)c4F)c4ccc([nH]4)c(-c4c(F)c(F)c(F)c(F)c4F)c4nc(c(-c5c(F)c(F)c(F)c(F)c5F)c5ccc2[nH]5)C=C4)C=C3)cc1
REMARK SMILES IDX 33 1 32 2 31 3 30 4 29 5 28 6 27 7 25 8 26 9 24 10 9 11
REMARK SMILES IDX 10 12 11 13 23 14 8 15 3 16 4 17 5 18 7 19 6 20 2 21 1 22
REMARK SMILES IDX 12 23 13 24 14 25 15 26 22 27 16 28 17 29 21 30 18 31 20 32
REMARK SMILES IDX 19 33 34 34 35 35 36 36 37 37 38 38 39 39 40 40 41 41 42 42
REMARK SMILES IDX 43 43 104 44 44 45 103 46 45 47 46 48 47 49 97 50 48 51
REMARK SMILES IDX 102 52 96 53 98 54 49 55 101 56 95 57 94 58 50 60 82 61
REMARK SMILES IDX 62 62 81 63 63 64 66 65 80 66 99 67 64 68 65 69 79 71 100 72
REMARK SMILES IDX 67 73 51 74 52 75 60 76 53 77 54 78 58 79 61 80 55 81 56 82
REMARK SMILES IDX 59 83 57 84 83 85 84 86 92 87 85 88 86 89 90 90 93 91 87 92
REMARK SMILES IDX 88 93 91 94 89 95 68 96 69 97 77 98 70 99 71 100 75 101
REMARK SMILES IDX 78 102 72 103 73 104 76 105 74 106
REMARK H PARENT 98 59 66 70
REMARK Flexibility Score: inf
ROOT
ATOM      1  O   UNL A   1      32.889  34.596  29.461  1.00  0.00    -0.377 OA
ENDROOT
BRANCH   1   2
ATOM      2  C   UNL A   1      33.192  34.040  28.198  1.00  0.00     0.188 C 
BRANCH   2   3
ATOM      3  C   UNL A   1      34.660  33.651  27.936  1.00  0.00     0.188 C 
BRANCH   3   4
ATOM      4  O   UNL A   1      35.012  32.318  27.597  1.00  0.00    -0.376 OA
BRANCH   4   5
ATOM      5  C   UNL A   1      34.140  31.246  27.916  1.00  0.00     0.202 C 
BRANCH   5   6
ATOM      6  C   UNL A   1      33.571  30.345  26.801  1.00  0.00     0.261 C 
BRANCH   6   7
ATOM      7  O   UNL A   1      34.017  28.966  26.766  1.00  0.00    -0.463 OA
BRANCH   7   8
ATOM      8  C   UNL A   1      33.030  28.049  26.739  1.00  0.00     0.311 C 
ATOM      9  O   UNL A   1      32.111  28.019  27.558  1.00  0.00    -0.252 OA
BRANCH   8  10
ATOM     10  C   UNL A   1      33.108  26.970  25.672  1.00  0.00     0.128 C 
ATOM     11  C   UNL A   1      32.436  25.562  25.643  1.00  0.00     0.058 C 
ATOM     12  C   UNL A   1      32.159  25.355  24.154  1.00  0.00     0.129 C 
ATOM     13  N   UNL A   1      31.825  26.679  23.691  1.00  0.00    -0.337 N 
ATOM     14  C   UNL A   1      32.599  27.666  24.407  1.00  0.00     0.135 C 
BRANCH  11  15
ATOM     15  C   UNL A   1      33.145  24.302  26.154  1.00  0.00    -0.000 A 
ATOM     16  C   UNL A   1      32.550  23.252  26.878  1.00  0.00     0.122 A 
ATOM     17  C   UNL A   1      33.292  22.114  27.238  1.00  0.00     0.047 A 
ATOM     18  C   UNL A   1      34.662  22.047  26.983  1.00  0.00     0.004 A 
ATOM     19  C   UNL A   1      34.550  24.241  25.987  1.00  0.00     0.008 A 
ATOM     20  C   UNL A   1      35.299  23.138  26.407  1.00  0.00     0.001 A 
BRANCH  16  21
ATOM     21  O   UNL A   1      31.391  23.454  27.583  1.00  0.00    -0.496 OA
ATOM     22  C   UNL A   1      30.196  22.998  26.967  1.00  0.00     0.278 C 
ENDBRANCH  16  21
ENDBRANCH  11  15
BRANCH  13  23
ATOM     23  C   UNL A   1      31.043  27.038  22.615  1.00  0.00     0.257 C 
ATOM     24  O   UNL A   1      31.397  26.824  21.458  1.00  0.00    -0.269 OA
BRANCH  23  25
ATOM     25  C   UNL A   1      29.770  27.657  22.901  1.00  0.00     0.085 A 
ATOM     26  C   UNL A   1      28.669  27.051  23.531  1.00  0.00     0.150 A 
ATOM     27  C   UNL A   1      29.322  28.924  22.581  1.00  0.00     0.079 A 
ATOM     28  N   UNL A   1      27.635  27.877  23.686  1.00  0.00    -0.176 NA
ATOM     29  N   UNL A   1      28.034  29.039  23.111  1.00  0.00    -0.240 N 
ATOM     30  C   UNL A   1      29.863  30.057  21.896  1.00  0.00     0.029 A 
ATOM     31  C   UNL A   1      27.309  30.229  23.036  1.00  0.00     0.113 A 
ATOM     32  C   UNL A   1      29.157  31.201  21.839  1.00  0.00     0.004 A 
ATOM     33  C   UNL A   1      27.835  31.307  22.431  1.00  0.00     0.020 A 
ENDBRANCH  23  25
ENDBRANCH  13  23
ENDBRANCH   8  10
ENDBRANCH   7   8
ENDBRANCH   6   7
ENDBRANCH   5   6
ENDBRANCH   4   5
ENDBRANCH   3   4
ENDBRANCH   2   3
ENDBRANCH   1   2
BRANCH   1  34
ATOM     34  C   UNL A   1      33.979  35.044  30.247  1.00  0.00     0.188 C 
BRANCH  34  35
ATOM     35  C   UNL A   1      33.965  34.738  31.761  1.00  0.00     0.188 C 
BRANCH  35  36
ATOM     36  O   UNL A   1      34.890  33.738  32.175  1.00  0.00    -0.376 OA
BRANCH  36  37
ATOM     37  C   UNL A   1      35.022  32.520  31.461  1.00  0.00     0.202 C 
BRANCH  37  38
ATOM     38  C   UNL A   1      36.437  32.016  31.181  1.00  0.00     0.261 C 
BRANCH  38  39
ATOM     39  O   UNL A   1      36.490  30.777  30.501  1.00  0.00    -0.460 OA
BRANCH  39  40
ATOM     40  C   UNL A   1      36.860  29.739  31.276  1.00  0.00     0.338 C 
ATOM     41  O   UNL A   1      36.769  29.650  32.482  1.00  0.00    -0.246 OA
BRANCH  40  42
ATOM     42  C   UNL A   1      37.523  28.744  30.423  1.00  0.00     0.060 A 
ATOM     43  C   UNL A   1      38.307  27.828  31.115  1.00  0.00     0.016 A 
ATOM     44  C   UNL A   1      37.706  29.038  29.062  1.00  0.00     0.016 A 
ATOM     45  C   UNL A   1      39.513  27.515  30.555  1.00  0.00     0.010 A 
ATOM     46  C   UNL A   1      38.913  28.723  28.502  1.00  0.00     0.010 A 
ATOM     47  C   UNL A   1      39.838  28.084  29.316  1.00  0.00    -0.014 A 
BRANCH  47  48
ATOM     48  C   UNL A   1      41.206  27.961  28.891  1.00  0.00     0.031 A 
ATOM     49  C   UNL A   1      41.474  26.647  28.294  1.00  0.00     0.074 A 
ATOM     50  C   UNL A   1      42.110  28.939  29.059  1.00  0.00     0.049 A 
ATOM     51  N   UNL A   1      42.108  25.664  28.836  1.00  0.00    -0.248 NA
ATOM     52  C   UNL A   1      40.760  26.316  27.055  1.00  0.00     0.031 C 
ATOM     53  C   UNL A   1      41.911  30.342  29.423  1.00  0.00     0.029 A 
ATOM     54  N   UNL A   1      43.449  28.854  28.867  1.00  0.00    -0.354 N 
ATOM     55  C   UNL A   1      42.034  24.634  27.912  1.00  0.00     0.074 A 
ATOM     56  C   UNL A   1      41.039  25.017  26.945  1.00  0.00     0.031 C 
ATOM     57  C   UNL A   1      43.064  31.021  29.208  1.00  0.00     0.029 A 
ATOM     58  C   UNL A   1      44.102  30.074  28.835  1.00  0.00     0.049 A 
ATOM     59  H   UNL A   1      43.919  27.996  28.758  1.00  0.00     0.167 HD
ATOM     60  C   UNL A   1      42.997  23.678  27.872  1.00  0.00     0.037 A 
ATOM     61  C   UNL A   1      45.385  30.258  28.437  1.00  0.00     0.037 A 
ATOM     62  C   UNL A   1      43.727  23.619  29.115  1.00  0.00     0.049 A 
ATOM     63  C   UNL A   1      46.078  28.946  28.570  1.00  0.00     0.074 A 
ATOM     64  C   UNL A   1      43.385  23.330  30.423  1.00  0.00     0.029 A 
ATOM     65  N   UNL A   1      44.942  24.255  29.180  1.00  0.00    -0.354 N 
ATOM     66  N   UNL A   1      46.321  28.374  29.718  1.00  0.00    -0.248 NA
ATOM     67  C   UNL A   1      46.069  28.049  27.420  1.00  0.00     0.031 C 
ATOM     68  C   UNL A   1      44.177  24.209  31.220  1.00  0.00     0.029 A 
ATOM     69  C   UNL A   1      44.989  24.952  30.362  1.00  0.00     0.049 A 
ATOM     70  H   UNL A   1      45.652  24.219  28.501  1.00  0.00     0.167 HD
ATOM     71  C   UNL A   1      46.082  27.023  29.504  1.00  0.00     0.074 A 
ATOM     72  C   UNL A   1      46.010  26.873  28.053  1.00  0.00     0.031 C 
ATOM     73  C   UNL A   1      45.679  26.210  30.526  1.00  0.00     0.037 A 
BRANCH  60  74
ATOM     74  C   UNL A   1      43.525  23.105  26.584  1.00  0.00     0.064 A 
ATOM     75  C   UNL A   1      43.309  21.742  26.313  1.00  0.00     0.173 A 
ATOM     76  C   UNL A   1      44.476  23.749  25.759  1.00  0.00     0.173 A 
ATOM     77  F   UNL A   1      42.439  21.029  27.043  1.00  0.00    -0.203 F 
ATOM     78  C   UNL A   1      44.056  21.058  25.351  1.00  0.00     0.198 A 
ATOM     79  C   UNL A   1      45.177  23.076  24.763  1.00  0.00     0.198 A 
ATOM     80  F   UNL A   1      44.859  25.016  25.949  1.00  0.00    -0.203 F 
ATOM     81  F   UNL A   1      43.914  19.732  25.222  1.00  0.00    -0.200 F 
ATOM     82  C   UNL A   1      44.994  21.724  24.584  1.00  0.00     0.200 A 
ATOM     83  F   UNL A   1      46.093  23.739  24.045  1.00  0.00    -0.200 F 
ATOM     84  F   UNL A   1      45.759  21.057  23.710  1.00  0.00    -0.200 F 
ENDBRANCH  60  74
BRANCH  61  85
ATOM     85  C   UNL A   1      45.911  31.370  27.612  1.00  0.00     0.064 A 
ATOM     86  C   UNL A   1      45.134  31.960  26.605  1.00  0.00     0.173 A 
ATOM     87  C   UNL A   1      47.089  32.055  27.977  1.00  0.00     0.173 A 
ATOM     88  F   UNL A   1      43.971  31.402  26.238  1.00  0.00    -0.203 F 
ATOM     89  C   UNL A   1      45.505  33.170  26.007  1.00  0.00     0.198 A 
ATOM     90  C   UNL A   1      47.461  33.256  27.376  1.00  0.00     0.198 A 
ATOM     91  F   UNL A   1      47.854  31.621  28.989  1.00  0.00    -0.203 F 
ATOM     92  F   UNL A   1      44.709  33.734  25.088  1.00  0.00    -0.200 F 
ATOM     93  C   UNL A   1      46.664  33.821  26.399  1.00  0.00     0.200 A 
ATOM     94  F   UNL A   1      48.565  33.894  27.794  1.00  0.00    -0.200 F 
ATOM     95  F   UNL A   1      46.990  35.008  25.867  1.00  0.00    -0.200 F 
ENDBRANCH  61  85
BRANCH  73  96
ATOM     96  C   UNL A   1      45.739  26.773  31.919  1.00  0.00     0.064 A 
ATOM     97  C   UNL A   1      46.909  26.794  32.699  1.00  0.00     0.173 A 
ATOM     98  C   UNL A   1      44.617  27.440  32.422  1.00  0.00     0.173 A 
ATOM     99  F   UNL A   1      48.051  26.265  32.241  1.00  0.00    -0.203 F 
ATOM    100  C   UNL A   1      46.937  27.420  33.945  1.00  0.00     0.198 A 
ATOM    101  C   UNL A   1      44.658  28.096  33.651  1.00  0.00     0.198 A 
ATOM    102  F   UNL A   1      43.491  27.503  31.695  1.00  0.00    -0.203 F 
ATOM    103  F   UNL A   1      48.064  27.418  34.673  1.00  0.00    -0.200 F 
ATOM    104  C   UNL A   1      45.813  28.076  34.416  1.00  0.00     0.200 A 
ATOM    105  F   UNL A   1      43.584  28.772  34.080  1.00  0.00    -0.200 F 
ATOM    106  F   UNL A   1      45.851  28.715  35.593  1.00  0.00    -0.200 F 
ENDBRANCH  73  96
ENDBRANCH  47  48
ENDBRANCH  40  42
ENDBRANCH  39  40
ENDBRANCH  38  39
ENDBRANCH  37  38
ENDBRANCH  36  37
ENDBRANCH  35  36
ENDBRANCH  34  35
ENDBRANCH   1  34
TORSDOF 24
ENDMDL
MODEL 2
REMARK VINA RESULT:     -11.3      1.611      4.058
REMARK SMILES COc1ccccc1[C@@H]1CN(C(=O)c2cnn3ccccc23)C[C@H]1C(=O)OCCOCCOCCOCCOC(=O)c1ccc(-c2c3nc(c(-c4c(F)c(F)c(F)c(F)c4F)c4ccc([nH]4)c(-c4c(F)c(F)c(F)c(F)c4F)c4nc(c(-c5c(F)c(F)c(F)c(F)c5F)c5ccc2[nH]5)C=C4)C=C3)cc1
REMARK SMILES IDX 33 1 32 2 31 3 30 4 29 5 28 6 27 7 25 8 26 9 24 10 9 11
REMARK SMILES IDX 10 12 11 13 23 14 8 15 3 16 4 17 5 18 7 19 6 20 2 21 1 22
REMARK SMILES IDX 12 23 13 24 14 25 15 26 22 27 16 28 17 29 21 30 18 31 20 32
REMARK SMILES IDX 19 33 34 34 35 35 36 36 37 37 38 38 39 39 40 40 41 41 42 42
REMARK SMILES IDX 43 43 104 44 44 45 103 46 45 47 46 48 47 49 97 50 48 51
REMARK SMILES IDX 102 52 96 53 98 54 49 55 101 56 95 57 94 58 50 60 82 61
REMARK SMILES IDX 62 62 81 63 63 64 66 65 80 66 99 67 64 68 65 69 79 71 100 72
REMARK SMILES IDX 67 73 51 74 52 75 60 76 53 77 54 78 58 79 61 80 55 81 56 82
REMARK SMILES IDX 59 83 57 84 83 85 84 86 92 87 85 88 86 89 90 90 93 91 87 92
REMARK SMILES IDX 88 93 91 94 89 95 68 96 69 97 77 98 70 99 71 100 75 101
REMARK SMILES IDX 78 102 72 103 73 104 76 105 74 106
REMARK H PARENT 98 59 66 70
REMARK Flexibility Score: inf
ROOT
ATOM      1  O   UNL A   1      33.716  33.407  29.308  1.00  0.00    -0.377 OA
ENDROOT
BRANCH   1   2
ATOM      2  C   UNL A   1      34.316  33.161  28.052  1.00  0.00     0.188 C 
BRANCH   2   3
ATOM      3  C   UNL A   1      35.211  31.913  27.933  1.00  0.00     0.188 C 
BRANCH   3   4
ATOM      4  O   UNL A   1      34.689  30.686  27.445  1.00  0.00    -0.376 OA
BRANCH   4   5
ATOM      5  C   UNL A   1      33.306  30.561  27.162  1.00  0.00     0.202 C 
BRANCH   5   6
ATOM      6  C   UNL A   1      32.825  29.679  25.992  1.00  0.00     0.261 C 
BRANCH   6   7
ATOM      7  O   UNL A   1      32.967  28.243  26.136  1.00  0.00    -0.463 OA
BRANCH   7   8
ATOM      8  C   UNL A   1      31.808  27.556  26.162  1.00  0.00     0.311 C 
ATOM      9  O   UNL A   1      31.201  27.293  27.200  1.00  0.00    -0.252 OA
BRANCH   8  10
ATOM     10  C   UNL A   1      31.272  27.039  24.838  1.00  0.00     0.128 C 
ATOM     11  C   UNL A   1      31.227  27.748  23.449  1.00  0.00     0.058 C 
ATOM     12  C   UNL A   1      31.416  26.586  22.473  1.00  0.00     0.129 C 
ATOM     13  N   UNL A   1      32.329  25.714  23.170  1.00  0.00    -0.337 N 
ATOM     14  C   UNL A   1      32.073  25.758  24.591  1.00  0.00     0.135 C 
BRANCH  11  15
ATOM     15  C   UNL A   1      30.009  28.549  22.972  1.00  0.00    -0.000 A 
ATOM     16  C   UNL A   1      28.660  28.225  23.209  1.00  0.00     0.122 A 
ATOM     17  C   UNL A   1      27.628  29.073  22.774  1.00  0.00     0.047 A 
ATOM     18  C   UNL A   1      27.911  30.201  22.002  1.00  0.00     0.004 A 
ATOM     19  C   UNL A   1      30.256  29.648  22.116  1.00  0.00     0.008 A 
ATOM     20  C   UNL A   1      29.224  30.454  21.626  1.00  0.00     0.001 A 
BRANCH  16  21
ATOM     21  O   UNL A   1      28.288  26.937  23.501  1.00  0.00    -0.496 OA
ATOM     22  C   UNL A   1      27.091  26.785  24.249  1.00  0.00     0.278 C 
ENDBRANCH  16  21
ENDBRANCH  11  15
BRANCH  13  23
ATOM     23  C   UNL A   1      33.214  24.801  22.639  1.00  0.00     0.257 C 
ATOM     24  O   UNL A   1      33.468  24.769  21.438  1.00  0.00    -0.269 OA
BRANCH  23  25
ATOM     25  C   UNL A   1      33.856  23.893  23.560  1.00  0.00     0.085 A 
ATOM     26  C   UNL A   1      34.990  24.162  24.346  1.00  0.00     0.150 A 
ATOM     27  C   UNL A   1      33.561  22.570  23.832  1.00  0.00     0.079 A 
ATOM     28  N   UNL A   1      35.344  23.139  25.124  1.00  0.00    -0.176 NA
ATOM     29  N   UNL A   1      34.460  22.155  24.819  1.00  0.00    -0.240 N 
ATOM     30  C   UNL A   1      32.597  21.621  23.369  1.00  0.00     0.029 A 
ATOM     31  C   UNL A   1      34.395  20.882  25.388  1.00  0.00     0.113 A 
ATOM     32  C   UNL A   1      32.539  20.401  23.932  1.00  0.00     0.004 A 
ATOM     33  C   UNL A   1      33.461  20.006  24.984  1.00  0.00     0.020 A 
ENDBRANCH  23  25
ENDBRANCH  13  23
ENDBRANCH   8  10
ENDBRANCH   7   8
ENDBRANCH   6   7
ENDBRANCH   5   6
ENDBRANCH   4   5
ENDBRANCH   3   4
ENDBRANCH   2   3
ENDBRANCH   1   2
BRANCH   1  34
ATOM     34  C   UNL A   1      34.579  33.741  30.381  1.00  0.00     0.188 C 
BRANCH  34  35
ATOM     35  C   UNL A   1      34.766  32.714  31.518  1.00  0.00     0.188 C 
BRANCH  35  36
ATOM     36  O   UNL A   1      35.978  32.853  32.252  1.00  0.00    -0.376 OA
BRANCH  36  37
ATOM     37  C   UNL A   1      37.235  32.886  31.595  1.00  0.00     0.202 C 
BRANCH  37  38
ATOM     38  C   UNL A   1      37.953  31.555  31.378  1.00  0.00     0.261 C 
BRANCH  38  39
ATOM     39  O   UNL A   1      37.728  30.972  30.109  1.00  0.00    -0.460 OA
BRANCH  39  40
ATOM     40  C   UNL A   1      37.144  29.758  30.157  1.00  0.00     0.338 C 
ATOM     41  O   UNL A   1      36.210  29.415  30.850  1.00  0.00    -0.246 OA
BRANCH  40  42
ATOM     42  C   UNL A   1      37.913  28.848  29.298  1.00  0.00     0.060 A 
ATOM     43  C   UNL A   1      38.442  27.746  29.961  1.00  0.00     0.016 A 
ATOM     44  C   UNL A   1      38.431  29.338  28.088  1.00  0.00     0.016 A 
ATOM     45  C   UNL A   1      39.719  27.393  29.628  1.00  0.00     0.010 A 
ATOM     46  C   UNL A   1      39.709  28.982  27.756  1.00  0.00     0.010 A 
ATOM     47  C   UNL A   1      40.367  28.117  28.617  1.00  0.00    -0.014 A 
BRANCH  47  48
ATOM     48  C   UNL A   1      41.783  27.908  28.485  1.00  0.00     0.031 A 
ATOM     49  C   UNL A   1      42.086  26.644  27.802  1.00  0.00     0.074 A 
ATOM     50  C   UNL A   1      42.693  28.772  28.962  1.00  0.00     0.049 A 
ATOM     51  N   UNL A   1      42.511  25.554  28.342  1.00  0.00    -0.248 NA
ATOM     52  C   UNL A   1      41.647  26.515  26.407  1.00  0.00     0.031 C 
ATOM     53  C   UNL A   1      42.516  30.143  29.445  1.00  0.00     0.029 A 
ATOM     54  N   UNL A   1      44.032  28.581  29.053  1.00  0.00    -0.354 N 
ATOM     55  C   UNL A   1      42.575  24.639  27.304  1.00  0.00     0.074 A 
ATOM     56  C   UNL A   1      41.852  25.215  26.200  1.00  0.00     0.031 C 
ATOM     57  C   UNL A   1      43.732  30.727  29.569  1.00  0.00     0.029 A 
ATOM     58  C   UNL A   1      44.759  29.729  29.313  1.00  0.00     0.049 A 
ATOM     59  H   UNL A   1      44.453  27.698  28.944  1.00  0.00     0.167 HD
ATOM     60  C   UNL A   1      43.453  23.605  27.354  1.00  0.00     0.037 A 
ATOM     61  C   UNL A   1      46.108  29.831  29.226  1.00  0.00     0.037 A 
ATOM     62  C   UNL A   1      43.879  23.346  28.708  1.00  0.00     0.049 A 
ATOM     63  C   UNL A   1      46.660  28.452  29.342  1.00  0.00     0.074 A 
ATOM     64  C   UNL A   1      43.233  22.956  29.866  1.00  0.00     0.029 A 
ATOM     65  N   UNL A   1      45.090  23.853  29.111  1.00  0.00    -0.354 N 
ATOM     66  N   UNL A   1      46.598  27.742  30.436  1.00  0.00    -0.248 NA
ATOM     67  C   UNL A   1      46.846  27.685  28.116  1.00  0.00     0.031 C 
ATOM     68  C   UNL A   1      43.885  23.666  30.917  1.00  0.00     0.029 A 
ATOM     69  C   UNL A   1      44.919  24.415  30.352  1.00  0.00     0.049 A 
ATOM     70  H   UNL A   1      45.930  23.821  28.601  1.00  0.00     0.167 HD
ATOM     71  C   UNL A   1      46.320  26.450  30.011  1.00  0.00     0.074 A 
ATOM     72  C   UNL A   1      46.565  26.461  28.571  1.00  0.00     0.031 C 
ATOM     73  C   UNL A   1      45.641  25.577  30.814  1.00  0.00     0.037 A 
BRANCH  60  74
ATOM     74  C   UNL A   1      44.215  23.121  26.149  1.00  0.00     0.064 A 
ATOM     75  C   UNL A   1      44.114  21.767  25.784  1.00  0.00     0.173 A 
ATOM     76  C   UNL A   1      45.258  23.846  25.527  1.00  0.00     0.173 A 
ATOM     77  F   UNL A   1      43.170  20.982  26.324  1.00  0.00    -0.203 F 
ATOM     78  C   UNL A   1      45.043  21.165  24.933  1.00  0.00     0.198 A 
ATOM     79  C   UNL A   1      46.147  23.255  24.634  1.00  0.00     0.198 A 
ATOM     80  F   UNL A   1      45.542  25.115  25.836  1.00  0.00    -0.203 F 
ATOM     81  F   UNL A   1      44.989  19.844  24.722  1.00  0.00    -0.200 F 
ATOM     82  C   UNL A   1      46.062  21.908  24.365  1.00  0.00     0.200 A 
ATOM     83  F   UNL A   1      47.137  23.992  24.111  1.00  0.00    -0.200 F 
ATOM     84  F   UNL A   1      46.993  21.320  23.604  1.00  0.00    -0.200 F 
ENDBRANCH  60  74
BRANCH  61  85
ATOM     85  C   UNL A   1      46.883  30.968  28.678  1.00  0.00     0.064 A 
ATOM     86  C   UNL A   1      46.587  31.509  27.419  1.00  0.00     0.173 A 
ATOM     87  C   UNL A   1      47.753  31.719  29.494  1.00  0.00     0.173 A 
ATOM     88  F   UNL A   1      45.725  30.885  26.602  1.00  0.00    -0.203 F 
ATOM     89  C   UNL A   1      47.119  32.736  27.005  1.00  0.00     0.198 A 
ATOM     90  C   UNL A   1      48.288  32.937  29.079  1.00  0.00     0.198 A 
ATOM     91  F   UNL A   1      48.028  31.333  30.748  1.00  0.00    -0.203 F 
ATOM     92  F   UNL A   1      46.770  33.251  25.818  1.00  0.00    -0.200 F 
ATOM     93  C   UNL A   1      47.963  33.453  27.839  1.00  0.00     0.200 A 
ATOM     94  F   UNL A   1      49.071  33.638  29.913  1.00  0.00    -0.200 F 
ATOM     95  F   UNL A   1      48.428  34.654  27.466  1.00  0.00    -0.200 F 
ENDBRANCH  61  85
BRANCH  73  96
ATOM     96  C   UNL A   1      45.426  25.982  32.246  1.00  0.00     0.064 A 
ATOM     97  C   UNL A   1      44.282  26.662  32.699  1.00  0.00     0.173 A 
ATOM     98  C   UNL A   1      46.338  25.539  33.212  1.00  0.00     0.173 A 
ATOM     99  F   UNL A   1      43.317  27.028  31.846  1.00  0.00    -0.203 F 
ATOM    100  C   UNL A   1      44.084  26.924  34.055  1.00  0.00     0.198 A 
ATOM    101  C   UNL A   1      46.120  25.770  34.569  1.00  0.00     0.198 A 
ATOM    102  F   UNL A   1      47.417  24.833  32.843  1.00  0.00    -0.203 F 
ATOM    103  F   UNL A   1      42.988  27.583  34.459  1.00  0.00    -0.200 F 
ATOM    104  C   UNL A   1      45.000  26.471  34.989  1.00  0.00     0.200 A 
ATOM    105  F   UNL A   1      46.983  25.286  35.472  1.00  0.00    -0.200 F 
ATOM    106  F   UNL A   1      44.790  26.682  36.295  1.00  0.00    -0.200 F 
ENDBRANCH  73  96
ENDBRANCH  47  48
ENDBRANCH  40  42
ENDBRANCH  39  40
ENDBRANCH  38  39
ENDBRANCH  37  38
ENDBRANCH  36  37
ENDBRANCH  35  36
ENDBRANCH  34  35
ENDBRANCH   1  34
TORSDOF 24
ENDMDL
MODEL 3
REMARK VINA RESULT:     -10.9      4.363      9.773
REMARK SMILES COc1ccccc1[C@@H]1CN(C(=O)c2cnn3ccccc23)C[C@H]1C(=O)OCCOCCOCCOCCOC(=O)c1ccc(-c2c3nc(c(-c4c(F)c(F)c(F)c(F)c4F)c4ccc([nH]4)c(-c4c(F)c(F)c(F)c(F)c4F)c4nc(c(-c5c(F)c(F)c(F)c(F)c5F)c5ccc2[nH]5)C=C4)C=C3)cc1
REMARK SMILES IDX 33 1 32 2 31 3 30 4 29 5 28 6 27 7 25 8 26 9 24 10 9 11
REMARK SMILES IDX 10 12 11 13 23 14 8 15 3 16 4 17 5 18 7 19 6 20 2 21 1 22
REMARK SMILES IDX 12 23 13 24 14 25 15 26 22 27 16 28 17 29 21 30 18 31 20 32
REMARK SMILES IDX 19 33 34 34 35 35 36 36 37 37 38 38 39 39 40 40 41 41 42 42
REMARK SMILES IDX 43 43 104 44 44 45 103 46 45 47 46 48 47 49 97 50 48 51
REMARK SMILES IDX 102 52 96 53 98 54 49 55 101 56 95 57 94 58 50 60 82 61
REMARK SMILES IDX 62 62 81 63 63 64 66 65 80 66 99 67 64 68 65 69 79 71 100 72
REMARK SMILES IDX 67 73 51 74 52 75 60 76 53 77 54 78 58 79 61 80 55 81 56 82
REMARK SMILES IDX 59 83 57 84 83 85 84 86 92 87 85 88 86 89 90 90 93 91 87 92
REMARK SMILES IDX 88 93 91 94 89 95 68 96 69 97 77 98 70 99 71 100 75 101
REMARK SMILES IDX 78 102 72 103 73 104 76 105 74 106
REMARK H PARENT 98 59 66 70
REMARK Flexibility Score: inf
ROOT
ATOM      1  O   UNL A   1      43.031  21.150  25.495  1.00  0.00    -0.377 OA
ENDROOT
BRANCH   1   2
ATOM      2  C   UNL A   1      41.817  20.808  26.132  1.00  0.00     0.188 C 
BRANCH   2   3
ATOM      3  C   UNL A   1      40.700  21.870  26.130  1.00  0.00     0.188 C 
BRANCH   3   4
ATOM      4  O   UNL A   1      39.374  21.533  26.512  1.00  0.00    -0.376 OA
BRANCH   4   5
ATOM      5  C   UNL A   1      38.294  21.767  25.625  1.00  0.00     0.202 C 
BRANCH   5   6
ATOM      6  C   UNL A   1      37.321  22.938  25.870  1.00  0.00     0.261 C 
BRANCH   6   7
ATOM      7  O   UNL A   1      35.902  22.650  25.807  1.00  0.00    -0.463 OA
BRANCH   7   8
ATOM      8  C   UNL A   1      35.315  22.935  24.627  1.00  0.00     0.311 C 
ATOM      9  O   UNL A   1      35.892  23.514  23.707  1.00  0.00    -0.252 OA
BRANCH   8  10
ATOM     10  C   UNL A   1      33.850  22.566  24.469  1.00  0.00     0.128 C 
ATOM     11  C   UNL A   1      33.020  21.479  25.221  1.00  0.00     0.058 C 
ATOM     12  C   UNL A   1      31.631  22.111  25.297  1.00  0.00     0.129 C 
ATOM     13  N   UNL A   1      31.914  23.514  25.473  1.00  0.00    -0.337 N 
ATOM     14  C   UNL A   1      33.108  23.876  24.745  1.00  0.00     0.135 C 
BRANCH  11  15
ATOM     15  C   UNL A   1      32.844  20.056  24.677  1.00  0.00    -0.000 A 
ATOM     16  C   UNL A   1      32.550  19.708  23.346  1.00  0.00     0.122 A 
ATOM     17  C   UNL A   1      32.474  18.361  22.953  1.00  0.00     0.047 A 
ATOM     18  C   UNL A   1      32.580  17.337  23.895  1.00  0.00     0.004 A 
ATOM     19  C   UNL A   1      32.860  19.000  25.620  1.00  0.00     0.008 A 
ATOM     20  C   UNL A   1      32.717  17.662  25.238  1.00  0.00     0.001 A 
BRANCH  16  21
ATOM     21  O   UNL A   1      31.954  20.609  22.500  1.00  0.00    -0.496 OA
ATOM     22  C   UNL A   1      31.768  20.181  21.159  1.00  0.00     0.278 C 
ENDBRANCH  16  21
ENDBRANCH  11  15
BRANCH  13  23
ATOM     23  C   UNL A   1      31.129  24.477  26.068  1.00  0.00     0.257 C 
ATOM     24  O   UNL A   1      30.602  24.299  27.163  1.00  0.00    -0.269 OA
BRANCH  23  25
ATOM     25  C   UNL A   1      30.967  25.726  25.361  1.00  0.00     0.085 A 
ATOM     26  C   UNL A   1      30.364  25.902  24.103  1.00  0.00     0.150 A 
ATOM     27  C   UNL A   1      31.406  26.990  25.706  1.00  0.00     0.079 A 
ATOM     28  N   UNL A   1      30.333  27.175  23.710  1.00  0.00    -0.176 NA
ATOM     29  N   UNL A   1      30.966  27.855  24.699  1.00  0.00    -0.240 N 
ATOM     30  C   UNL A   1      32.137  27.556  26.796  1.00  0.00     0.029 A 
ATOM     31  C   UNL A   1      31.172  29.234  24.769  1.00  0.00     0.113 A 
ATOM     32  C   UNL A   1      32.321  28.888  26.855  1.00  0.00     0.004 A 
ATOM     33  C   UNL A   1      31.821  29.770  25.815  1.00  0.00     0.020 A 
ENDBRANCH  23  25
ENDBRANCH  13  23
ENDBRANCH   8  10
ENDBRANCH   7   8
ENDBRANCH   6   7
ENDBRANCH   5   6
ENDBRANCH   4   5
ENDBRANCH   3   4
ENDBRANCH   2   3
ENDBRANCH   1   2
BRANCH   1  34
ATOM     34  C   UNL A   1      43.471  22.490  25.620  1.00  0.00     0.188 C 
BRANCH  34  35
ATOM     35  C   UNL A   1      44.040  23.195  24.370  1.00  0.00     0.188 C 
BRANCH  35  36
ATOM     36  O   UNL A   1      44.568  24.496  24.609  1.00  0.00    -0.376 OA
BRANCH  36  37
ATOM     37  C   UNL A   1      44.566  25.062  25.909  1.00  0.00     0.202 C 
BRANCH  37  38
ATOM     38  C   UNL A   1      43.700  26.299  26.138  1.00  0.00     0.261 C 
BRANCH  38  39
ATOM     39  O   UNL A   1      42.526  26.058  26.890  1.00  0.00    -0.460 OA
BRANCH  39  40
ATOM     40  C   UNL A   1      41.386  26.156  26.178  1.00  0.00     0.338 C 
ATOM     41  O   UNL A   1      41.179  25.744  25.056  1.00  0.00    -0.246 OA
BRANCH  40  42
ATOM     42  C   UNL A   1      40.436  26.970  26.947  1.00  0.00     0.060 A 
ATOM     43  C   UNL A   1      40.580  28.341  26.768  1.00  0.00     0.016 A 
ATOM     44  C   UNL A   1      39.822  26.403  28.077  1.00  0.00     0.016 A 
ATOM     45  C   UNL A   1      40.478  29.115  27.889  1.00  0.00     0.010 A 
ATOM     46  C   UNL A   1      39.719  27.179  29.198  1.00  0.00     0.010 A 
ATOM     47  C   UNL A   1      40.180  28.485  29.106  1.00  0.00    -0.014 A 
BRANCH  47  48
ATOM     48  C   UNL A   1      40.352  29.272  30.296  1.00  0.00     0.031 A 
ATOM     49  C   UNL A   1      39.234  30.202  30.501  1.00  0.00     0.074 A 
ATOM     50  C   UNL A   1      41.430  29.165  31.088  1.00  0.00     0.049 A 
ATOM     51  N   UNL A   1      39.236  31.474  30.296  1.00  0.00    -0.248 NA
ATOM     52  C   UNL A   1      37.910  29.614  30.737  1.00  0.00     0.031 C 
ATOM     53  C   UNL A   1      42.473  28.138  31.112  1.00  0.00     0.029 A 
ATOM     54  N   UNL A   1      41.773  29.980  32.116  1.00  0.00    -0.354 N 
ATOM     55  C   UNL A   1      37.940  31.885  30.563  1.00  0.00     0.074 A 
ATOM     56  C   UNL A   1      37.135  30.693  30.630  1.00  0.00     0.031 C 
ATOM     57  C   UNL A   1      43.204  28.279  32.245  1.00  0.00     0.029 A 
ATOM     58  C   UNL A   1      42.768  29.481  32.937  1.00  0.00     0.049 A 
ATOM     59  H   UNL A   1      41.349  30.856  32.266  1.00  0.00     0.167 HD
ATOM     60  C   UNL A   1      37.695  33.153  30.979  1.00  0.00     0.037 A 
ATOM     61  C   UNL A   1      43.117  30.001  34.139  1.00  0.00     0.037 A 
ATOM     62  C   UNL A   1      38.785  34.035  30.639  1.00  0.00     0.049 A 
ATOM     63  C   UNL A   1      42.660  31.419  34.152  1.00  0.00     0.074 A 
ATOM     64  C   UNL A   1      39.356  34.452  29.451  1.00  0.00     0.029 A 
ATOM     65  N   UNL A   1      39.703  34.332  31.616  1.00  0.00    -0.354 N 
ATOM     66  N   UNL A   1      43.176  32.347  33.392  1.00  0.00    -0.248 NA
ATOM     67  C   UNL A   1      41.320  31.701  34.652  1.00  0.00     0.031 C 
ATOM     68  C   UNL A   1      40.753  34.548  29.720  1.00  0.00     0.029 A 
ATOM     69  C   UNL A   1      40.954  34.229  31.063  1.00  0.00     0.049 A 
ATOM     70  H   UNL A   1      39.499  34.575  32.548  1.00  0.00     0.167 HD
ATOM     71  C   UNL A   1      42.095  33.117  32.982  1.00  0.00     0.074 A 
ATOM     72  C   UNL A   1      40.992  32.721  33.854  1.00  0.00     0.031 C 
ATOM     73  C   UNL A   1      42.120  33.786  31.791  1.00  0.00     0.037 A 
BRANCH  60  74
ATOM     74  C   UNL A   1      36.673  33.482  32.035  1.00  0.00     0.064 A 
ATOM     75  C   UNL A   1      35.580  34.295  31.687  1.00  0.00     0.173 A 
ATOM     76  C   UNL A   1      36.875  33.290  33.422  1.00  0.00     0.173 A 
ATOM     77  F   UNL A   1      35.305  34.556  30.400  1.00  0.00    -0.203 F 
ATOM     78  C   UNL A   1      34.805  34.938  32.655  1.00  0.00     0.198 A 
ATOM     79  C   UNL A   1      36.065  33.887  34.383  1.00  0.00     0.198 A 
ATOM     80  F   UNL A   1      37.922  32.621  33.915  1.00  0.00    -0.203 F 
ATOM     81  F   UNL A   1      33.862  35.809  32.276  1.00  0.00    -0.200 F 
ATOM     82  C   UNL A   1      35.054  34.739  34.001  1.00  0.00     0.200 A 
ATOM     83  F   UNL A   1      36.337  33.693  35.681  1.00  0.00    -0.200 F 
ATOM     84  F   UNL A   1      34.358  35.407  34.929  1.00  0.00    -0.200 F 
ENDBRANCH  60  74
BRANCH  61  85
ATOM     85  C   UNL A   1      43.460  29.251  35.370  1.00  0.00     0.064 A 
ATOM     86  C   UNL A   1      42.593  28.283  35.897  1.00  0.00     0.173 A 
ATOM     87  C   UNL A   1      44.766  29.279  35.901  1.00  0.00     0.173 A 
ATOM     88  F   UNL A   1      41.350  28.154  35.408  1.00  0.00    -0.203 F 
ATOM     89  C   UNL A   1      43.010  27.386  36.887  1.00  0.00     0.198 A 
ATOM     90  C   UNL A   1      45.178  28.389  36.892  1.00  0.00     0.198 A 
ATOM     91  F   UNL A   1      45.695  30.106  35.404  1.00  0.00    -0.203 F 
ATOM     92  F   UNL A   1      42.172  26.437  37.327  1.00  0.00    -0.200 F 
ATOM     93  C   UNL A   1      44.306  27.435  37.378  1.00  0.00     0.200 A 
ATOM     94  F   UNL A   1      46.447  28.423  37.328  1.00  0.00    -0.200 F 
ATOM     95  F   UNL A   1      44.723  26.540  38.284  1.00  0.00    -0.200 F 
ENDBRANCH  61  85
BRANCH  73  96
ATOM     96  C   UNL A   1      43.437  33.857  31.068  1.00  0.00     0.064 A 
ATOM     97  C   UNL A   1      44.429  34.814  31.348  1.00  0.00     0.173 A 
ATOM     98  C   UNL A   1      43.763  32.835  30.168  1.00  0.00     0.173 A 
ATOM     99  F   UNL A   1      44.227  35.762  32.272  1.00  0.00    -0.203 F 
ATOM    100  C   UNL A   1      45.673  34.773  30.720  1.00  0.00     0.198 A 
ATOM    101  C   UNL A   1      45.020  32.776  29.569  1.00  0.00     0.198 A 
ATOM    102  F   UNL A   1      42.878  31.862  29.908  1.00  0.00    -0.203 F 
ATOM    103  F   UNL A   1      46.598  35.704  30.999  1.00  0.00    -0.200 F 
ATOM    104  C   UNL A   1      45.969  33.749  29.837  1.00  0.00     0.200 A 
ATOM    105  F   UNL A   1      45.320  31.755  28.754  1.00  0.00    -0.200 F 
ATOM    106  F   UNL A   1      47.180  33.682  29.266  1.00  0.00    -0.200 F 
ENDBRANCH  73  96
ENDBRANCH  47  48
ENDBRANCH  40  42
ENDBRANCH  39  40
ENDBRANCH  38  39
ENDBRANCH  37  38
ENDBRANCH  36  37
ENDBRANCH  35  36
ENDBRANCH  34  35
ENDBRANCH   1  34
TORSDOF 24
ENDMDL
