MODEL 1
REMARK VINA RESULT:      -8.3      0.000      0.000
REMARK SMILES CCCCCCNC(=O)Oc1cccc(-c2ccc(CC(=O)OCCOCCOCCOCCOC(=O)c3ccc(-c4c5nc(c(-c6c(F)c(F)c(F)c(F)c6F)c6ccc([nH]6)c(-c6c(F)c(F)c(F)c(F)c6F)c6nc(c(-c7c(F)c(F)c(F)c(F)c7F)c7ccc4[nH]7)C=C6)C=C5)cc3)cc2F)c1
REMARK SMILES IDX 25 1 24 2 23 3 21 4 22 5 20 6 19 7 16 8 17 9 102 10 18 11
REMARK SMILES IDX 101 12 103 13 15 14 11 15 12 16 104 17 13 18 14 19 10 20
REMARK SMILES IDX 8 21 7 22 9 24 6 25 5 26 4 27 3 28 2 29 1 30 26 31 27 32
REMARK SMILES IDX 28 33 29 34 30 35 31 36 32 37 33 38 34 39 35 40 36 41 37 42
REMARK SMILES IDX 38 43 39 44 100 45 40 46 99 47 41 48 42 49 43 50 93 51 44 52
REMARK SMILES IDX 98 53 92 54 94 55 45 56 97 57 91 58 90 59 46 61 78 62 58 63
REMARK SMILES IDX 77 64 59 65 62 66 76 67 95 68 60 69 61 70 75 72 96 73 63 74
REMARK SMILES IDX 47 75 48 76 56 77 49 78 50 79 54 80 57 81 51 82 52 83 55 84
REMARK SMILES IDX 53 85 79 86 80 87 88 88 81 89 82 90 86 91 89 92 83 93 84 94
REMARK SMILES IDX 87 95 85 96 64 97 65 98 73 99 66 100 67 101 71 102 74 103
REMARK SMILES IDX 68 104 69 105 72 106 70 107
REMARK H PARENT 7 23 94 60 62 71
REMARK Flexibility Score: inf
ROOT
ATOM      1  C   UNL A   1      34.306  23.808  24.900  1.00  0.00     0.202 C 
ENDROOT
BRANCH   1   2
ATOM      2  C   UNL A   1      34.060  25.255  24.430  1.00  0.00     0.261 C 
BRANCH   2   3
ATOM      3  O   UNL A   1      32.791  25.844  24.798  1.00  0.00    -0.463 OA
BRANCH   3   4
ATOM      4  C   UNL A   1      32.373  26.893  24.050  1.00  0.00     0.310 C 
ATOM      5  O   UNL A   1      32.655  27.031  22.862  1.00  0.00    -0.252 OA
BRANCH   4   6
ATOM      6  C   UNL A   1      31.527  27.933  24.770  1.00  0.00     0.158 C 
BRANCH   6   7
ATOM      7  C   UNL A   1      32.130  29.108  25.525  1.00  0.00    -0.034 A 
ATOM      8  C   UNL A   1      33.176  31.237  27.129  1.00  0.00     0.018 A 
ATOM      9  C   UNL A   1      33.908  30.058  26.932  1.00  0.00     0.012 A 
ATOM     10  C   UNL A   1      31.925  31.329  26.501  1.00  0.00     0.131 A 
ATOM     11  C   UNL A   1      33.385  29.003  26.159  1.00  0.00     0.005 A 
ATOM     12  C   UNL A   1      31.410  30.295  25.706  1.00  0.00     0.044 A 
ATOM     13  F   UNL A   1      31.168  32.421  26.685  1.00  0.00    -0.206 F 
BRANCH   8  14
ATOM     14  C   UNL A   1      33.665  32.303  28.016  1.00  0.00    -0.012 A 
ATOM     15  C   UNL A   1      35.140  33.029  29.809  1.00  0.00     0.133 A 
ATOM     16  C   UNL A   1      34.567  34.297  29.805  1.00  0.00     0.047 A 
ATOM     17  C   UNL A   1      34.689  32.034  28.938  1.00  0.00     0.056 A 
ATOM     18  C   UNL A   1      33.555  34.583  28.888  1.00  0.00     0.004 A 
ATOM     19  C   UNL A   1      33.110  33.596  27.998  1.00  0.00     0.009 A 
BRANCH  15  20
ATOM     20  O   UNL A   1      36.091  32.751  30.806  1.00  0.00    -0.410 OA
BRANCH  20  21
ATOM     21  C   UNL A   1      35.684  31.975  31.883  1.00  0.00     0.412 C 
ATOM     22  N   UNL A   1      36.056  30.664  31.780  1.00  0.00    -0.321 N 
ATOM     23  H   UNL A   1      35.777  30.072  32.515  1.00  0.00     0.167 HD
ATOM     24  O   UNL A   1      35.048  32.369  32.854  1.00  0.00    -0.224 OA
BRANCH  22  25
ATOM     25  C   UNL A   1      36.814  30.047  30.711  1.00  0.00     0.119 C 
BRANCH  25  26
ATOM     26  C   UNL A   1      37.454  28.728  31.148  1.00  0.00     0.021 C 
BRANCH  26  27
ATOM     27  C   UNL A   1      38.942  28.583  30.801  1.00  0.00     0.002 C 
BRANCH  27  28
ATOM     28  C   UNL A   1      39.285  27.451  29.825  1.00  0.00    -0.000 C 
BRANCH  28  29
ATOM     29  C   UNL A   1      39.011  27.751  28.350  1.00  0.00    -0.003 C 
ATOM     30  C   UNL A   1      39.083  29.232  28.012  1.00  0.00     0.004 C 
ENDBRANCH  28  29
ENDBRANCH  27  28
ENDBRANCH  26  27
ENDBRANCH  25  26
ENDBRANCH  22  25
ENDBRANCH  20  21
ENDBRANCH  15  20
ENDBRANCH   8  14
ENDBRANCH   6   7
ENDBRANCH   4   6
ENDBRANCH   3   4
ENDBRANCH   2   3
ENDBRANCH   1   2
BRANCH   1  31
ATOM     31  O   UNL A   1      35.319  23.597  25.868  1.00  0.00    -0.376 OA
BRANCH  31  32
ATOM     32  C   UNL A   1      36.597  23.116  25.458  1.00  0.00     0.188 C 
BRANCH  32  33
ATOM     33  C   UNL A   1      37.902  23.671  26.074  1.00  0.00     0.188 C 
BRANCH  33  34
ATOM     34  O   UNL A   1      38.962  22.734  26.146  1.00  0.00    -0.377 OA
BRANCH  34  35
ATOM     35  C   UNL A   1      39.988  23.057  27.061  1.00  0.00     0.188 C 
BRANCH  35  36
ATOM     36  C   UNL A   1      41.229  22.155  26.992  1.00  0.00     0.188 C 
BRANCH  36  37
ATOM     37  O   UNL A   1      41.982  22.373  25.808  1.00  0.00    -0.376 OA
BRANCH  37  38
ATOM     38  C   UNL A   1      43.346  22.741  25.893  1.00  0.00     0.202 C 
BRANCH  38  39
ATOM     39  C   UNL A   1      43.732  24.229  25.825  1.00  0.00     0.261 C 
BRANCH  39  40
ATOM     40  O   UNL A   1      42.954  25.149  26.600  1.00  0.00    -0.460 OA
BRANCH  40  41
ATOM     41  C   UNL A   1      42.302  26.132  25.935  1.00  0.00     0.338 C 
ATOM     42  O   UNL A   1      41.546  26.007  25.002  1.00  0.00    -0.246 OA
BRANCH  41  43
ATOM     43  C   UNL A   1      42.524  27.392  26.690  1.00  0.00     0.060 A 
ATOM     44  C   UNL A   1      42.185  28.607  26.080  1.00  0.00     0.016 A 
ATOM     45  C   UNL A   1      43.015  27.372  27.998  1.00  0.00     0.016 A 
ATOM     46  C   UNL A   1      42.355  29.809  26.768  1.00  0.00     0.010 A 
ATOM     47  C   UNL A   1      43.219  28.580  28.675  1.00  0.00     0.010 A 
ATOM     48  C   UNL A   1      42.919  29.804  28.050  1.00  0.00    -0.014 A 
BRANCH  48  49
ATOM     49  C   UNL A   1      43.406  31.075  28.637  1.00  0.00     0.031 A 
ATOM     50  C   UNL A   1      42.623  31.671  29.772  1.00  0.00     0.074 A 
ATOM     51  C   UNL A   1      44.524  31.675  28.196  1.00  0.00     0.049 A 
ATOM     52  N   UNL A   1      42.819  32.783  30.432  1.00  0.00    -0.248 NA
ATOM     53  C   UNL A   1      41.450  30.902  30.220  1.00  0.00     0.031 C 
ATOM     54  C   UNL A   1      45.395  31.171  27.139  1.00  0.00     0.029 A 
ATOM     55  N   UNL A   1      45.113  32.853  28.588  1.00  0.00    -0.354 N 
ATOM     56  C   UNL A   1      41.794  32.849  31.367  1.00  0.00     0.074 A 
ATOM     57  C   UNL A   1      40.957  31.687  31.163  1.00  0.00     0.031 C 
ATOM     58  C   UNL A   1      46.407  32.038  26.960  1.00  0.00     0.029 A 
ATOM     59  C   UNL A   1      46.234  33.174  27.866  1.00  0.00     0.049 A 
ATOM     60  H   UNL A   1      44.762  33.413  29.318  1.00  0.00     0.167 HD
ATOM     61  C   UNL A   1      41.575  33.790  32.316  1.00  0.00     0.037 A 
ATOM     62  C   UNL A   1      47.015  34.270  27.921  1.00  0.00     0.037 A 
ATOM     63  C   UNL A   1      42.401  34.953  32.500  1.00  0.00     0.049 A 
ATOM     64  C   UNL A   1      46.696  35.356  28.918  1.00  0.00     0.074 A 
ATOM     65  C   UNL A   1      42.276  35.963  33.437  1.00  0.00     0.029 A 
ATOM     66  N   UNL A   1      43.499  35.273  31.713  1.00  0.00    -0.354 N 
ATOM     67  N   UNL A   1      45.745  35.401  29.821  1.00  0.00    -0.248 NA
ATOM     68  C   UNL A   1      47.563  36.542  28.905  1.00  0.00     0.031 C 
ATOM     69  C   UNL A   1      43.254  36.927  33.173  1.00  0.00     0.029 A 
ATOM     70  C   UNL A   1      44.038  36.483  32.119  1.00  0.00     0.049 A 
ATOM     71  H   UNL A   1      43.844  34.721  30.975  1.00  0.00     0.167 HD
ATOM     72  C   UNL A   1      45.918  36.601  30.502  1.00  0.00     0.074 A 
ATOM     73  C   UNL A   1      47.074  37.248  29.915  1.00  0.00     0.031 C 
ATOM     74  C   UNL A   1      45.190  37.116  31.526  1.00  0.00     0.037 A 
BRANCH  61  75
ATOM     75  C   UNL A   1      40.363  33.613  33.188  1.00  0.00     0.064 A 
ATOM     76  C   UNL A   1      39.129  34.204  32.875  1.00  0.00     0.173 A 
ATOM     77  C   UNL A   1      40.445  32.856  34.366  1.00  0.00     0.173 A 
ATOM     78  F   UNL A   1      38.998  34.953  31.769  1.00  0.00    -0.203 F 
ATOM     79  C   UNL A   1      38.038  34.084  33.732  1.00  0.00     0.198 A 
ATOM     80  C   UNL A   1      39.341  32.706  35.202  1.00  0.00     0.198 A 
ATOM     81  F   UNL A   1      41.598  32.266  34.714  1.00  0.00    -0.203 F 
ATOM     82  F   UNL A   1      36.893  34.723  33.451  1.00  0.00    -0.200 F 
ATOM     83  C   UNL A   1      38.144  33.332  34.892  1.00  0.00     0.200 A 
ATOM     84  F   UNL A   1      39.442  31.967  36.315  1.00  0.00    -0.200 F 
ATOM     85  F   UNL A   1      37.095  33.222  35.720  1.00  0.00    -0.200 F 
ENDBRANCH  61  75
BRANCH  62  86
ATOM     86  C   UNL A   1      48.182  34.394  27.007  1.00  0.00     0.064 A 
ATOM     87  C   UNL A   1      49.370  33.694  27.254  1.00  0.00     0.173 A 
ATOM     88  C   UNL A   1      48.134  35.215  25.870  1.00  0.00     0.173 A 
ATOM     89  F   UNL A   1      49.475  32.919  28.344  1.00  0.00    -0.203 F 
ATOM     90  C   UNL A   1      50.468  33.814  26.405  1.00  0.00     0.198 A 
ATOM     91  C   UNL A   1      49.223  35.312  25.005  1.00  0.00     0.198 A 
ATOM     92  F   UNL A   1      47.024  35.913  25.591  1.00  0.00    -0.203 F 
ATOM     93  F   UNL A   1      51.605  33.163  26.688  1.00  0.00    -0.200 F 
ATOM     94  C   UNL A   1      50.391  34.616  25.277  1.00  0.00     0.200 A 
ATOM     95  F   UNL A   1      49.140  36.081  23.911  1.00  0.00    -0.200 F 
ATOM     96  F   UNL A   1      51.445  34.724  24.456  1.00  0.00    -0.200 F 
ENDBRANCH  62  86
BRANCH  74  97
ATOM     97  C   UNL A   1      45.643  38.427  32.108  1.00  0.00     0.064 A 
ATOM     98  C   UNL A   1      45.115  39.653  31.678  1.00  0.00     0.173 A 
ATOM     99  C   UNL A   1      46.588  38.451  33.147  1.00  0.00     0.173 A 
ATOM    100  F   UNL A   1      44.219  39.690  30.681  1.00  0.00    -0.203 F 
ATOM    101  C   UNL A   1      45.537  40.854  32.244  1.00  0.00     0.198 A 
ATOM    102  C   UNL A   1      46.979  39.649  33.736  1.00  0.00     0.198 A 
ATOM    103  F   UNL A   1      47.119  37.307  33.605  1.00  0.00    -0.203 F 
ATOM    104  F   UNL A   1      45.059  42.017  31.780  1.00  0.00    -0.200 F 
ATOM    105  C   UNL A   1      46.462  40.850  33.278  1.00  0.00     0.200 A 
ATOM    106  F   UNL A   1      47.859  39.641  34.748  1.00  0.00    -0.200 F 
ATOM    107  F   UNL A   1      46.859  42.006  33.829  1.00  0.00    -0.200 F 
ENDBRANCH  74  97
ENDBRANCH  48  49
ENDBRANCH  41  43
ENDBRANCH  40  41
ENDBRANCH  39  40
ENDBRANCH  38  39
ENDBRANCH  37  38
ENDBRANCH  36  37
ENDBRANCH  35  36
ENDBRANCH  34  35
ENDBRANCH  33  34
ENDBRANCH  32  33
ENDBRANCH  31  32
ENDBRANCH   1  31
TORSDOF 29
ENDMDL
MODEL 2
REMARK VINA RESULT:      -8.1      5.302     11.578
REMARK SMILES CCCCCCNC(=O)Oc1cccc(-c2ccc(CC(=O)OCCOCCOCCOCCOC(=O)c3ccc(-c4c5nc(c(-c6c(F)c(F)c(F)c(F)c6F)c6ccc([nH]6)c(-c6c(F)c(F)c(F)c(F)c6F)c6nc(c(-c7c(F)c(F)c(F)c(F)c7F)c7ccc4[nH]7)C=C6)C=C5)cc3)cc2F)c1
REMARK SMILES IDX 25 1 24 2 23 3 21 4 22 5 20 6 19 7 16 8 17 9 102 10 18 11
REMARK SMILES IDX 101 12 103 13 15 14 11 15 12 16 104 17 13 18 14 19 10 20
REMARK SMILES IDX 8 21 7 22 9 24 6 25 5 26 4 27 3 28 2 29 1 30 26 31 27 32
REMARK SMILES IDX 28 33 29 34 30 35 31 36 32 37 33 38 34 39 35 40 36 41 37 42
REMARK SMILES IDX 38 43 39 44 100 45 40 46 99 47 41 48 42 49 43 50 93 51 44 52
REMARK SMILES IDX 98 53 92 54 94 55 45 56 97 57 91 58 90 59 46 61 78 62 58 63
REMARK SMILES IDX 77 64 59 65 62 66 76 67 95 68 60 69 61 70 75 72 96 73 63 74
REMARK SMILES IDX 47 75 48 76 56 77 49 78 50 79 54 80 57 81 51 82 52 83 55 84
REMARK SMILES IDX 53 85 79 86 80 87 88 88 81 89 82 90 86 91 89 92 83 93 84 94
REMARK SMILES IDX 87 95 85 96 64 97 65 98 73 99 66 100 67 101 71 102 74 103
REMARK SMILES IDX 68 104 69 105 72 106 70 107
REMARK H PARENT 7 23 94 60 62 71
REMARK Flexibility Score: inf
ROOT
ATOM      1  C   UNL A   1      39.777  34.581  29.924  1.00  0.00     0.202 C 
ENDROOT
BRANCH   1   2
ATOM      2  C   UNL A   1      41.039  35.221  29.314  1.00  0.00     0.261 C 
BRANCH   2   3
ATOM      3  O   UNL A   1      40.949  35.630  27.930  1.00  0.00    -0.463 OA
BRANCH   3   4
ATOM      4  C   UNL A   1      42.066  36.170  27.385  1.00  0.00     0.310 C 
ATOM      5  O   UNL A   1      42.579  35.758  26.347  1.00  0.00    -0.252 OA
BRANCH   4   6
ATOM      6  C   UNL A   1      42.687  37.332  28.146  1.00  0.00     0.158 C 
BRANCH   6   7
ATOM      7  C   UNL A   1      42.925  38.696  27.517  1.00  0.00    -0.034 A 
ATOM      8  C   UNL A   1      43.446  41.160  26.154  1.00  0.00     0.018 A 
ATOM      9  C   UNL A   1      42.201  40.526  26.044  1.00  0.00     0.012 A 
ATOM     10  C   UNL A   1      44.411  40.543  26.964  1.00  0.00     0.131 A 
ATOM     11  C   UNL A   1      41.951  39.304  26.699  1.00  0.00     0.005 A 
ATOM     12  C   UNL A   1      44.161  39.342  27.643  1.00  0.00     0.044 A 
ATOM     13  F   UNL A   1      45.632  41.090  27.076  1.00  0.00    -0.206 F 
BRANCH   8  14
ATOM     14  C   UNL A   1      43.754  42.381  25.395  1.00  0.00    -0.012 A 
ATOM     15  C   UNL A   1      43.566  43.683  23.348  1.00  0.00     0.133 A 
ATOM     16  C   UNL A   1      44.401  44.669  23.865  1.00  0.00     0.047 A 
ATOM     17  C   UNL A   1      43.254  42.542  24.092  1.00  0.00     0.056 A 
ATOM     18  C   UNL A   1      44.897  44.529  25.161  1.00  0.00     0.004 A 
ATOM     19  C   UNL A   1      44.573  43.396  25.922  1.00  0.00     0.009 A 
BRANCH  15  20
ATOM     20  O   UNL A   1      43.161  43.814  22.008  1.00  0.00    -0.410 OA
BRANCH  20  21
ATOM     21  C   UNL A   1      43.128  42.663  21.232  1.00  0.00     0.412 C 
ATOM     22  N   UNL A   1      43.899  42.744  20.107  1.00  0.00    -0.321 N 
ATOM     23  H   UNL A   1      43.896  41.955  19.517  1.00  0.00     0.167 HD
ATOM     24  O   UNL A   1      42.486  41.647  21.477  1.00  0.00    -0.224 OA
BRANCH  22  25
ATOM     25  C   UNL A   1      44.721  43.859  19.682  1.00  0.00     0.119 C 
BRANCH  25  26
ATOM     26  C   UNL A   1      44.369  44.326  18.268  1.00  0.00     0.021 C 
BRANCH  26  27
ATOM     27  C   UNL A   1      43.209  45.328  18.187  1.00  0.00     0.002 C 
BRANCH  27  28
ATOM     28  C   UNL A   1      43.616  46.805  18.130  1.00  0.00    -0.000 C 
BRANCH  28  29
ATOM     29  C   UNL A   1      43.282  47.528  16.824  1.00  0.00    -0.003 C 
ATOM     30  C   UNL A   1      41.787  47.646  16.566  1.00  0.00     0.004 C 
ENDBRANCH  28  29
ENDBRANCH  27  28
ENDBRANCH  26  27
ENDBRANCH  25  26
ENDBRANCH  22  25
ENDBRANCH  20  21
ENDBRANCH  15  20
ENDBRANCH   8  14
ENDBRANCH   6   7
ENDBRANCH   4   6
ENDBRANCH   3   4
ENDBRANCH   2   3
ENDBRANCH   1   2
BRANCH   1  31
ATOM     31  O   UNL A   1      38.704  34.285  29.048  1.00  0.00    -0.376 OA
BRANCH  31  32
ATOM     32  C   UNL A   1      38.087  33.001  29.096  1.00  0.00     0.188 C 
BRANCH  32  33
ATOM     33  C   UNL A   1      37.216  32.570  30.299  1.00  0.00     0.188 C 
BRANCH  33  34
ATOM     34  O   UNL A   1      37.606  31.346  30.897  1.00  0.00    -0.377 OA
BRANCH  34  35
ATOM     35  C   UNL A   1      38.335  30.474  30.059  1.00  0.00     0.188 C 
BRANCH  35  36
ATOM     36  C   UNL A   1      38.337  29.002  30.497  1.00  0.00     0.188 C 
BRANCH  36  37
ATOM     37  O   UNL A   1      39.575  28.364  30.219  1.00  0.00    -0.376 OA
BRANCH  37  38
ATOM     38  C   UNL A   1      39.856  27.900  28.912  1.00  0.00     0.202 C 
BRANCH  38  39
ATOM     39  C   UNL A   1      40.841  26.733  28.722  1.00  0.00     0.261 C 
BRANCH  39  40
ATOM     40  O   UNL A   1      41.747  26.807  27.615  1.00  0.00    -0.460 OA
BRANCH  40  41
ATOM     41  C   UNL A   1      43.071  26.870  27.893  1.00  0.00     0.338 C 
ATOM     42  O   UNL A   1      43.906  26.026  27.673  1.00  0.00    -0.246 OA
BRANCH  41  43
ATOM     43  C   UNL A   1      43.359  28.258  28.337  1.00  0.00     0.060 A 
ATOM     44  C   UNL A   1      44.066  28.445  29.533  1.00  0.00     0.016 A 
ATOM     45  C   UNL A   1      42.978  29.357  27.564  1.00  0.00     0.016 A 
ATOM     46  C   UNL A   1      44.377  29.733  29.969  1.00  0.00     0.010 A 
ATOM     47  C   UNL A   1      43.257  30.650  28.020  1.00  0.00     0.010 A 
ATOM     48  C   UNL A   1      43.931  30.843  29.240  1.00  0.00    -0.014 A 
BRANCH  48  49
ATOM     49  C   UNL A   1      43.964  32.187  29.864  1.00  0.00     0.031 A 
ATOM     50  C   UNL A   1      44.930  33.196  29.310  1.00  0.00     0.074 A 
ATOM     51  C   UNL A   1      43.147  32.516  30.877  1.00  0.00     0.049 A 
ATOM     52  N   UNL A   1      45.174  34.421  29.696  1.00  0.00    -0.248 NA
ATOM     53  C   UNL A   1      45.735  32.753  28.160  1.00  0.00     0.031 C 
ATOM     54  C   UNL A   1      42.135  31.645  31.466  1.00  0.00     0.029 A 
ATOM     55  N   UNL A   1      43.048  33.684  31.594  1.00  0.00    -0.354 N 
ATOM     56  C   UNL A   1      46.162  34.893  28.841  1.00  0.00     0.074 A 
ATOM     57  C   UNL A   1      46.500  33.811  27.943  1.00  0.00     0.031 C 
ATOM     58  C   UNL A   1      41.519  32.307  32.463  1.00  0.00     0.029 A 
ATOM     59  C   UNL A   1      42.118  33.634  32.601  1.00  0.00     0.049 A 
ATOM     60  H   UNL A   1      43.593  34.482  31.402  1.00  0.00     0.167 HD
ATOM     61  C   UNL A   1      46.732  36.121  28.804  1.00  0.00     0.037 A 
ATOM     62  C   UNL A   1      41.806  34.551  33.538  1.00  0.00     0.037 A 
ATOM     63  C   UNL A   1      46.405  37.187  29.713  1.00  0.00     0.049 A 
ATOM     64  C   UNL A   1      42.523  35.878  33.542  1.00  0.00     0.074 A 
ATOM     65  C   UNL A   1      46.912  38.472  29.757  1.00  0.00     0.029 A 
ATOM     66  N   UNL A   1      45.495  37.081  30.757  1.00  0.00    -0.354 N 
ATOM     67  N   UNL A   1      43.434  36.332  32.715  1.00  0.00    -0.248 NA
ATOM     68  C   UNL A   1      42.163  36.821  34.609  1.00  0.00     0.031 C 
ATOM     69  C   UNL A   1      46.363  39.121  30.868  1.00  0.00     0.029 A 
ATOM     70  C   UNL A   1      45.455  38.266  31.473  1.00  0.00     0.049 A 
ATOM     71  H   UNL A   1      44.958  36.281  30.958  1.00  0.00     0.167 HD
ATOM     72  C   UNL A   1      43.733  37.621  33.142  1.00  0.00     0.074 A 
ATOM     73  C   UNL A   1      42.895  37.880  34.295  1.00  0.00     0.031 C 
ATOM     74  C   UNL A   1      44.616  38.512  32.621  1.00  0.00     0.037 A 
BRANCH  61  75
ATOM     75  C   UNL A   1      47.801  36.348  27.772  1.00  0.00     0.064 A 
ATOM     76  C   UNL A   1      49.112  35.876  27.943  1.00  0.00     0.173 A 
ATOM     77  C   UNL A   1      47.513  37.068  26.603  1.00  0.00     0.173 A 
ATOM     78  F   UNL A   1      49.447  35.197  29.051  1.00  0.00    -0.203 F 
ATOM     79  C   UNL A   1      50.104  36.157  27.007  1.00  0.00     0.198 A 
ATOM     80  C   UNL A   1      48.499  37.314  25.650  1.00  0.00     0.198 A 
ATOM     81  F   UNL A   1      46.277  37.540  26.385  1.00  0.00    -0.203 F 
ATOM     82  F   UNL A   1      51.366  35.763  27.230  1.00  0.00    -0.200 F 
ATOM     83  C   UNL A   1      49.796  36.872  25.860  1.00  0.00     0.200 A 
ATOM     84  F   UNL A   1      48.194  37.993  24.535  1.00  0.00    -0.200 F 
ATOM     85  F   UNL A   1      50.752  37.147  24.962  1.00  0.00    -0.200 F 
ENDBRANCH  61  75
BRANCH  62  86
ATOM     86  C   UNL A   1      40.758  34.248  34.549  1.00  0.00     0.064 A 
ATOM     87  C   UNL A   1      39.403  34.476  34.274  1.00  0.00     0.173 A 
ATOM     88  C   UNL A   1      41.088  33.726  35.809  1.00  0.00     0.173 A 
ATOM     89  F   UNL A   1      39.039  35.000  33.095  1.00  0.00    -0.203 F 
ATOM     90  C   UNL A   1      38.419  34.202  35.222  1.00  0.00     0.198 A 
ATOM     91  C   UNL A   1      40.101  33.426  36.746  1.00  0.00     0.198 A 
ATOM     92  F   UNL A   1      42.370  33.497  36.126  1.00  0.00    -0.203 F 
ATOM     93  F   UNL A   1      37.135  34.467  34.946  1.00  0.00    -0.200 F 
ATOM     94  C   UNL A   1      38.767  33.670  36.453  1.00  0.00     0.200 A 
ATOM     95  F   UNL A   1      40.442  32.901  37.931  1.00  0.00    -0.200 F 
ATOM     96  F   UNL A   1      37.819  33.398  37.361  1.00  0.00    -0.200 F 
ENDBRANCH  62  86
BRANCH  74  97
ATOM     97  C   UNL A   1      44.696  39.868  33.266  1.00  0.00     0.064 A 
ATOM     98  C   UNL A   1      45.570  40.134  34.330  1.00  0.00     0.173 A 
ATOM     99  C   UNL A   1      43.916  40.930  32.779  1.00  0.00     0.173 A 
ATOM    100  F   UNL A   1      46.328  39.154  34.842  1.00  0.00    -0.203 F 
ATOM    101  C   UNL A   1      45.639  41.403  34.901  1.00  0.00     0.198 A 
ATOM    102  C   UNL A   1      44.015  42.205  33.327  1.00  0.00     0.198 A 
ATOM    103  F   UNL A   1      43.070  40.735  31.757  1.00  0.00    -0.203 F 
ATOM    104  F   UNL A   1      46.442  41.620  35.952  1.00  0.00    -0.200 F 
ATOM    105  C   UNL A   1      44.868  42.439  34.393  1.00  0.00     0.200 A 
ATOM    106  F   UNL A   1      43.284  43.209  32.822  1.00  0.00    -0.200 F 
ATOM    107  F   UNL A   1      44.945  43.662  34.938  1.00  0.00    -0.200 F 
ENDBRANCH  74  97
ENDBRANCH  48  49
ENDBRANCH  41  43
ENDBRANCH  40  41
ENDBRANCH  39  40
ENDBRANCH  38  39
ENDBRANCH  37  38
ENDBRANCH  36  37
ENDBRANCH  35  36
ENDBRANCH  34  35
ENDBRANCH  33  34
ENDBRANCH  32  33
ENDBRANCH  31  32
ENDBRANCH   1  31
TORSDOF 29
ENDMDL
MODEL 3
REMARK VINA RESULT:      -7.6      5.255     11.404
REMARK SMILES CCCCCCNC(=O)Oc1cccc(-c2ccc(CC(=O)OCCOCCOCCOCCOC(=O)c3ccc(-c4c5nc(c(-c6c(F)c(F)c(F)c(F)c6F)c6ccc([nH]6)c(-c6c(F)c(F)c(F)c(F)c6F)c6nc(c(-c7c(F)c(F)c(F)c(F)c7F)c7ccc4[nH]7)C=C6)C=C5)cc3)cc2F)c1
REMARK SMILES IDX 25 1 24 2 23 3 21 4 22 5 20 6 19 7 16 8 17 9 102 10 18 11
REMARK SMILES IDX 101 12 103 13 15 14 11 15 12 16 104 17 13 18 14 19 10 20
REMARK SMILES IDX 8 21 7 22 9 24 6 25 5 26 4 27 3 28 2 29 1 30 26 31 27 32
REMARK SMILES IDX 28 33 29 34 30 35 31 36 32 37 33 38 34 39 35 40 36 41 37 42
REMARK SMILES IDX 38 43 39 44 100 45 40 46 99 47 41 48 42 49 43 50 93 51 44 52
REMARK SMILES IDX 98 53 92 54 94 55 45 56 97 57 91 58 90 59 46 61 78 62 58 63
REMARK SMILES IDX 77 64 59 65 62 66 76 67 95 68 60 69 61 70 75 72 96 73 63 74
REMARK SMILES IDX 47 75 48 76 56 77 49 78 50 79 54 80 57 81 51 82 52 83 55 84
REMARK SMILES IDX 53 85 79 86 80 87 88 88 81 89 82 90 86 91 89 92 83 93 84 94
REMARK SMILES IDX 87 95 85 96 64 97 65 98 73 99 66 100 67 101 71 102 74 103
REMARK SMILES IDX 68 104 69 105 72 106 70 107
REMARK H PARENT 7 23 94 60 62 71
REMARK Flexibility Score: inf
ROOT
ATOM      1  C   UNL A   1      39.956  34.179  30.130  1.00  0.00     0.202 C 
ENDROOT
BRANCH   1   2
ATOM      2  C   UNL A   1      41.024  35.005  29.386  1.00  0.00     0.261 C 
BRANCH   2   3
ATOM      3  O   UNL A   1      40.755  35.301  27.996  1.00  0.00    -0.463 OA
BRANCH   3   4
ATOM      4  C   UNL A   1      41.710  35.993  27.331  1.00  0.00     0.310 C 
ATOM      5  O   UNL A   1      42.195  35.621  26.265  1.00  0.00    -0.252 OA
BRANCH   4   6
ATOM      6  C   UNL A   1      42.183  37.282  27.987  1.00  0.00     0.158 C 
BRANCH   6   7
ATOM      7  C   UNL A   1      42.589  38.512  27.191  1.00  0.00    -0.034 A 
ATOM      8  C   UNL A   1      43.356  40.939  25.880  1.00  0.00     0.018 A 
ATOM      9  C   UNL A   1      44.322  40.048  26.366  1.00  0.00     0.012 A 
ATOM     10  C   UNL A   1      42.010  40.585  26.052  1.00  0.00     0.131 A 
ATOM     11  C   UNL A   1      43.944  38.864  27.028  1.00  0.00     0.005 A 
ATOM     12  C   UNL A   1      41.626  39.394  26.684  1.00  0.00     0.044 A 
ATOM     13  F   UNL A   1      41.045  41.419  25.636  1.00  0.00    -0.206 F 
BRANCH   8  14
ATOM     14  C   UNL A   1      43.735  42.227  25.279  1.00  0.00    -0.012 A 
ATOM     15  C   UNL A   1      43.833  43.689  23.336  1.00  0.00     0.133 A 
ATOM     16  C   UNL A   1      44.531  44.651  24.060  1.00  0.00     0.047 A 
ATOM     17  C   UNL A   1      43.449  42.482  23.928  1.00  0.00     0.056 A 
ATOM     18  C   UNL A   1      44.814  44.417  25.406  1.00  0.00     0.004 A 
ATOM     19  C   UNL A   1      44.416  43.216  26.012  1.00  0.00     0.009 A 
BRANCH  15  20
ATOM     20  O   UNL A   1      43.647  43.920  21.962  1.00  0.00    -0.410 OA
BRANCH  20  21
ATOM     21  C   UNL A   1      43.841  42.850  21.100  1.00  0.00     0.412 C 
ATOM     22  N   UNL A   1      44.890  43.027  20.242  1.00  0.00    -0.321 N 
ATOM     23  H   UNL A   1      45.058  42.298  19.601  1.00  0.00     0.167 HD
ATOM     24  O   UNL A   1      43.169  41.826  21.060  1.00  0.00    -0.224 OA
BRANCH  22  25
ATOM     25  C   UNL A   1      45.784  44.165  20.168  1.00  0.00     0.119 C 
BRANCH  25  26
ATOM     26  C   UNL A   1      45.023  45.491  20.145  1.00  0.00     0.021 C 
BRANCH  26  27
ATOM     27  C   UNL A   1      45.604  46.588  21.048  1.00  0.00     0.002 C 
BRANCH  27  28
ATOM     28  C   UNL A   1      45.949  47.907  20.347  1.00  0.00    -0.000 C 
BRANCH  28  29
ATOM     29  C   UNL A   1      44.797  48.906  20.223  1.00  0.00    -0.003 C 
ATOM     30  C   UNL A   1      44.506  49.315  18.787  1.00  0.00     0.004 C 
ENDBRANCH  28  29
ENDBRANCH  27  28
ENDBRANCH  26  27
ENDBRANCH  25  26
ENDBRANCH  22  25
ENDBRANCH  20  21
ENDBRANCH  15  20
ENDBRANCH   8  14
ENDBRANCH   6   7
ENDBRANCH   4   6
ENDBRANCH   3   4
ENDBRANCH   2   3
ENDBRANCH   1   2
BRANCH   1  31
ATOM     31  O   UNL A   1      38.714  33.978  29.482  1.00  0.00    -0.376 OA
BRANCH  31  32
ATOM     32  C   UNL A   1      38.214  32.654  29.306  1.00  0.00     0.188 C 
BRANCH  32  33
ATOM     33  C   UNL A   1      37.212  32.031  30.305  1.00  0.00     0.188 C 
BRANCH  33  34
ATOM     34  O   UNL A   1      37.483  30.683  30.644  1.00  0.00    -0.377 OA
BRANCH  34  35
ATOM     35  C   UNL A   1      38.232  29.962  29.688  1.00  0.00     0.188 C 
BRANCH  35  36
ATOM     36  C   UNL A   1      38.268  28.442  29.903  1.00  0.00     0.188 C 
BRANCH  36  37
ATOM     37  O   UNL A   1      39.596  27.942  29.954  1.00  0.00    -0.376 OA
BRANCH  37  38
ATOM     38  C   UNL A   1      40.160  27.310  28.821  1.00  0.00     0.202 C 
BRANCH  38  39
ATOM     39  C   UNL A   1      41.481  26.534  28.968  1.00  0.00     0.261 C 
BRANCH  39  40
ATOM     40  O   UNL A   1      42.447  26.669  27.920  1.00  0.00    -0.460 OA
BRANCH  40  41
ATOM     41  C   UNL A   1      43.745  26.812  28.280  1.00  0.00     0.338 C 
ATOM     42  O   UNL A   1      44.629  25.997  28.165  1.00  0.00    -0.246 OA
BRANCH  41  43
ATOM     43  C   UNL A   1      43.940  28.235  28.659  1.00  0.00     0.060 A 
ATOM     44  C   UNL A   1      44.801  28.531  29.724  1.00  0.00     0.016 A 
ATOM     45  C   UNL A   1      43.320  29.263  27.945  1.00  0.00     0.016 A 
ATOM     46  C   UNL A   1      45.028  29.857  30.093  1.00  0.00     0.010 A 
ATOM     47  C   UNL A   1      43.520  30.591  28.338  1.00  0.00     0.010 A 
ATOM     48  C   UNL A   1      44.351  30.890  29.433  1.00  0.00    -0.014 A 
BRANCH  48  49
ATOM     49  C   UNL A   1      44.330  32.247  30.030  1.00  0.00     0.031 A 
ATOM     50  C   UNL A   1      45.268  33.277  29.470  1.00  0.00     0.074 A 
ATOM     51  C   UNL A   1      43.487  32.568  31.026  1.00  0.00     0.049 A 
ATOM     52  N   UNL A   1      45.466  34.517  29.835  1.00  0.00    -0.248 NA
ATOM     53  C   UNL A   1      46.105  32.840  28.340  1.00  0.00     0.031 C 
ATOM     54  C   UNL A   1      42.498  31.674  31.619  1.00  0.00     0.029 A 
ATOM     55  N   UNL A   1      43.339  33.745  31.717  1.00  0.00    -0.354 N 
ATOM     56  C   UNL A   1      46.449  35.006  28.984  1.00  0.00     0.074 A 
ATOM     57  C   UNL A   1      46.837  33.918  28.113  1.00  0.00     0.031 C 
ATOM     58  C   UNL A   1      41.846  32.333  32.593  1.00  0.00     0.029 A 
ATOM     59  C   UNL A   1      42.397  33.683  32.713  1.00  0.00     0.049 A 
ATOM     60  H   UNL A   1      43.859  34.557  31.517  1.00  0.00     0.167 HD
ATOM     61  C   UNL A   1      46.977  36.251  28.930  1.00  0.00     0.037 A 
ATOM     62  C   UNL A   1      42.040  34.607  33.627  1.00  0.00     0.037 A 
ATOM     63  C   UNL A   1      46.602  37.323  29.813  1.00  0.00     0.049 A 
ATOM     64  C   UNL A   1      42.712  35.957  33.614  1.00  0.00     0.074 A 
ATOM     65  C   UNL A   1      47.064  38.626  29.839  1.00  0.00     0.029 A 
ATOM     66  N   UNL A   1      45.681  37.207  30.847  1.00  0.00    -0.354 N 
ATOM     67  N   UNL A   1      43.619  36.426  32.791  1.00  0.00    -0.248 NA
ATOM     68  C   UNL A   1      42.305  36.908  34.658  1.00  0.00     0.031 C 
ATOM     69  C   UNL A   1      46.478  39.277  30.929  1.00  0.00     0.029 A 
ATOM     70  C   UNL A   1      45.591  38.404  31.539  1.00  0.00     0.049 A 
ATOM     71  H   UNL A   1      45.168  36.393  31.057  1.00  0.00     0.167 HD
ATOM     72  C   UNL A   1      43.868  37.732  33.196  1.00  0.00     0.074 A 
ATOM     73  C   UNL A   1      43.006  37.985  34.332  1.00  0.00     0.031 C 
ATOM     74  C   UNL A   1      44.727  38.642  32.670  1.00  0.00     0.037 A 
BRANCH  61  75
ATOM     75  C   UNL A   1      48.053  36.495  27.909  1.00  0.00     0.064 A 
ATOM     76  C   UNL A   1      47.778  37.084  26.665  1.00  0.00     0.173 A 
ATOM     77  C   UNL A   1      49.377  36.114  28.173  1.00  0.00     0.173 A 
ATOM     78  F   UNL A   1      46.526  37.452  26.352  1.00  0.00    -0.203 F 
ATOM     79  C   UNL A   1      48.777  37.238  25.706  1.00  0.00     0.198 A 
ATOM     80  C   UNL A   1      50.382  36.304  27.227  1.00  0.00     0.198 A 
ATOM     81  F   UNL A   1      49.698  35.549  29.346  1.00  0.00    -0.203 F 
ATOM     82  F   UNL A   1      48.474  37.731  24.498  1.00  0.00    -0.200 F 
ATOM     83  C   UNL A   1      50.078  36.852  25.990  1.00  0.00     0.200 A 
ATOM     84  F   UNL A   1      51.641  35.943  27.509  1.00  0.00    -0.200 F 
ATOM     85  F   UNL A   1      51.038  36.994  25.065  1.00  0.00    -0.200 F 
ENDBRANCH  61  75
BRANCH  62  86
ATOM     86  C   UNL A   1      40.989  34.288  34.630  1.00  0.00     0.064 A 
ATOM     87  C   UNL A   1      41.325  33.765  35.886  1.00  0.00     0.173 A 
ATOM     88  C   UNL A   1      39.629  34.498  34.354  1.00  0.00     0.173 A 
ATOM     89  F   UNL A   1      42.609  33.520  36.186  1.00  0.00    -0.203 F 
ATOM     90  C   UNL A   1      40.344  33.456  36.825  1.00  0.00     0.198 A 
ATOM     91  C   UNL A   1      38.650  34.216  35.305  1.00  0.00     0.198 A 
ATOM     92  F   UNL A   1      39.253  34.989  33.166  1.00  0.00    -0.203 F 
ATOM     93  F   UNL A   1      40.691  32.920  38.003  1.00  0.00    -0.200 F 
ATOM     94  C   UNL A   1      39.008  33.690  36.537  1.00  0.00     0.200 A 
ATOM     95  F   UNL A   1      37.361  34.453  35.026  1.00  0.00    -0.200 F 
ATOM     96  F   UNL A   1      38.064  33.401  37.444  1.00  0.00    -0.200 F 
ENDBRANCH  62  86
BRANCH  74  97
ATOM     97  C   UNL A   1      44.752  40.013  33.289  1.00  0.00     0.064 A 
ATOM     98  C   UNL A   1      43.817  41.000  32.945  1.00  0.00     0.173 A 
ATOM     99  C   UNL A   1      45.700  40.325  34.276  1.00  0.00     0.173 A 
ATOM    100  F   UNL A   1      42.897  40.760  32.000  1.00  0.00    -0.203 F 
ATOM    101  C   UNL A   1      43.849  42.258  33.545  1.00  0.00     0.198 A 
ATOM    102  C   UNL A   1      45.706  41.570  34.900  1.00  0.00     0.198 A 
ATOM    103  F   UNL A   1      46.612  39.416  34.651  1.00  0.00    -0.203 F 
ATOM    104  F   UNL A   1      42.980  43.203  33.161  1.00  0.00    -0.200 F 
ATOM    105  C   UNL A   1      44.787  42.538  34.528  1.00  0.00     0.200 A 
ATOM    106  F   UNL A   1      46.601  41.831  35.863  1.00  0.00    -0.200 F 
ATOM    107  F   UNL A   1      44.809  43.745  35.110  1.00  0.00    -0.200 F 
ENDBRANCH  74  97
ENDBRANCH  48  49
ENDBRANCH  41  43
ENDBRANCH  40  41
ENDBRANCH  39  40
ENDBRANCH  38  39
ENDBRANCH  37  38
ENDBRANCH  36  37
ENDBRANCH  35  36
ENDBRANCH  34  35
ENDBRANCH  33  34
ENDBRANCH  32  33
ENDBRANCH  31  32
ENDBRANCH   1  31
TORSDOF 29
ENDMDL
