MODEL 1
REMARK VINA RESULT:      -7.7      0.000      0.000
REMARK SMILES C[C@@H](C(=O)[C@H](C)[C@@H](C)C(=O)OCCOCCOCCOCCOC(=O)c1ccc(-c2c3nc(c(-c4c(F)c(F)c(F)c(F)c4F)c4ccc([nH]4)c(-c4c(F)c(F)c(F)c(F)c4F)c4nc(c(-c5c(F)c(F)c(F)c(F)c5F)c5ccc2[nH]5)C=C4)C=C3)cc1)c1ccccc1
REMARK SMILES IDX 16 1 15 2 14 3 13 4 12 5 11 6 9 7 10 8 7 9 8 10 5 11 6 12
REMARK SMILES IDX 3 13 4 14 2 15 1 16 89 17 90 18 94 19 91 20 93 21 92 22
REMARK SMILES IDX 17 23 18 24 19 25 20 26 21 27 22 28 23 29 24 30 25 31 26 32
REMARK SMILES IDX 27 33 88 34 28 35 87 36 29 37 30 38 31 39 81 40 32 41 86 42
REMARK SMILES IDX 80 43 82 44 33 45 85 46 79 47 78 48 34 50 66 51 46 52 65 53
REMARK SMILES IDX 47 54 50 55 64 56 83 57 48 58 49 59 63 61 84 62 51 63 35 64
REMARK SMILES IDX 36 65 44 66 37 67 38 68 42 69 45 70 39 71 40 72 43 73 41 74
REMARK SMILES IDX 67 75 68 76 76 77 69 78 70 79 74 80 77 81 71 82 72 83 75 84
REMARK SMILES IDX 73 85 52 86 53 87 61 88 54 89 55 90 59 91 62 92 56 93 57 94
REMARK SMILES IDX 60 95 58 96
REMARK H PARENT 82 49 50 60
REMARK Flexibility Score: inf
ROOT
ATOM      1  C   UNL A   1      32.853  36.101  30.538  1.00  0.00     0.188 C 
ENDROOT
BRANCH   1   2
ATOM      2  C   UNL A   1      33.081  35.712  29.076  1.00  0.00     0.188 C 
BRANCH   2   3
ATOM      3  O   UNL A   1      34.387  35.463  28.575  1.00  0.00    -0.376 OA
BRANCH   3   4
ATOM      4  C   UNL A   1      34.915  34.148  28.522  1.00  0.00     0.202 C 
BRANCH   4   5
ATOM      5  C   UNL A   1      35.683  33.614  29.740  1.00  0.00     0.261 C 
BRANCH   5   6
ATOM      6  O   UNL A   1      36.504  32.439  29.543  1.00  0.00    -0.463 OA
BRANCH   6   7
ATOM      7  C   UNL A   1      36.458  31.514  30.542  1.00  0.00     0.309 C 
ATOM      8  O   UNL A   1      35.633  31.531  31.450  1.00  0.00    -0.252 OA
BRANCH   7   9
ATOM      9  C   UNL A   1      37.639  30.540  30.551  1.00  0.00     0.106 C 
ATOM     10  C   UNL A   1      38.796  31.320  29.912  1.00  0.00     0.021 C 
BRANCH   9  11
ATOM     11  C   UNL A   1      37.426  29.118  29.927  1.00  0.00     0.067 C 
ATOM     12  C   UNL A   1      36.897  29.215  28.488  1.00  0.00     0.017 C 
BRANCH  11  13
ATOM     13  C   UNL A   1      38.743  28.288  29.853  1.00  0.00     0.143 C 
ATOM     14  O   UNL A   1      39.392  28.138  30.891  1.00  0.00    -0.299 OA
BRANCH  13  15
ATOM     15  C   UNL A   1      39.244  27.777  28.458  1.00  0.00     0.083 C 
ATOM     16  C   UNL A   1      39.393  26.248  28.441  1.00  0.00     0.021 C 
BRANCH  15  17
ATOM     17  C   UNL A   1      40.534  28.381  27.847  1.00  0.00    -0.038 A 
ATOM     18  C   UNL A   1      41.416  29.095  28.695  1.00  0.00     0.004 A 
ATOM     19  C   UNL A   1      40.901  28.299  26.497  1.00  0.00     0.004 A 
ATOM     20  C   UNL A   1      42.556  29.745  28.208  1.00  0.00     0.000 A 
ATOM     21  C   UNL A   1      42.054  28.935  26.010  1.00  0.00     0.000 A 
ATOM     22  C   UNL A   1      42.872  29.669  26.860  1.00  0.00     0.000 A 
ENDBRANCH  15  17
ENDBRANCH  13  15
ENDBRANCH  11  13
ENDBRANCH   9  11
ENDBRANCH   7   9
ENDBRANCH   6   7
ENDBRANCH   5   6
ENDBRANCH   4   5
ENDBRANCH   3   4
ENDBRANCH   2   3
ENDBRANCH   1   2
BRANCH   1  23
ATOM     23  O   UNL A   1      32.872  35.050  31.480  1.00  0.00    -0.377 OA
BRANCH  23  24
ATOM     24  C   UNL A   1      33.553  35.237  32.706  1.00  0.00     0.188 C 
BRANCH  24  25
ATOM     25  C   UNL A   1      35.052  35.531  32.676  1.00  0.00     0.188 C 
BRANCH  25  26
ATOM     26  O   UNL A   1      35.798  35.241  33.857  1.00  0.00    -0.376 OA
BRANCH  26  27
ATOM     27  C   UNL A   1      35.885  33.887  34.313  1.00  0.00     0.202 C 
BRANCH  27  28
ATOM     28  C   UNL A   1      36.717  33.647  35.565  1.00  0.00     0.261 C 
BRANCH  28  29
ATOM     29  O   UNL A   1      37.006  32.240  35.656  1.00  0.00    -0.460 OA
BRANCH  29  30
ATOM     30  C   UNL A   1      38.121  31.938  36.342  1.00  0.00     0.338 C 
ATOM     31  O   UNL A   1      38.219  31.639  37.515  1.00  0.00    -0.246 OA
BRANCH  30  32
ATOM     32  C   UNL A   1      39.230  31.850  35.383  1.00  0.00     0.060 A 
ATOM     33  C   UNL A   1      39.007  31.131  34.203  1.00  0.00     0.016 A 
ATOM     34  C   UNL A   1      40.497  32.354  35.694  1.00  0.00     0.016 A 
ATOM     35  C   UNL A   1      40.080  30.831  33.372  1.00  0.00     0.010 A 
ATOM     36  C   UNL A   1      41.572  32.048  34.856  1.00  0.00     0.010 A 
ATOM     37  C   UNL A   1      41.374  31.235  33.725  1.00  0.00    -0.014 A 
BRANCH  37  38
ATOM     38  C   UNL A   1      42.525  30.621  33.021  1.00  0.00     0.031 A 
ATOM     39  C   UNL A   1      43.175  31.386  31.899  1.00  0.00     0.074 A 
ATOM     40  C   UNL A   1      43.032  29.444  33.427  1.00  0.00     0.049 A 
ATOM     41  N   UNL A   1      44.227  31.082  31.183  1.00  0.00    -0.248 NA
ATOM     42  C   UNL A   1      42.557  32.675  31.539  1.00  0.00     0.031 C 
ATOM     43  C   UNL A   1      42.509  28.638  34.526  1.00  0.00     0.029 A 
ATOM     44  N   UNL A   1      44.108  28.731  32.963  1.00  0.00    -0.354 N 
ATOM     45  C   UNL A   1      44.402  32.140  30.300  1.00  0.00     0.074 A 
ATOM     46  C   UNL A   1      43.329  33.079  30.542  1.00  0.00     0.031 C 
ATOM     47  C   UNL A   1      43.266  27.533  34.652  1.00  0.00     0.029 A 
ATOM     48  C   UNL A   1      44.311  27.548  33.630  1.00  0.00     0.049 A 
ATOM     49  H   UNL A   1      44.679  29.037  32.222  1.00  0.00     0.167 HD
ATOM     50  C   UNL A   1      45.379  32.319  29.381  1.00  0.00     0.037 A 
ATOM     51  C   UNL A   1      45.232  26.587  33.426  1.00  0.00     0.037 A 
ATOM     52  C   UNL A   1      46.443  31.380  29.141  1.00  0.00     0.049 A 
ATOM     53  C   UNL A   1      46.267  26.779  32.348  1.00  0.00     0.074 A 
ATOM     54  C   UNL A   1      47.489  31.471  28.241  1.00  0.00     0.029 A 
ATOM     55  N   UNL A   1      46.588  30.171  29.804  1.00  0.00    -0.354 N 
ATOM     56  N   UNL A   1      46.445  27.798  31.541  1.00  0.00    -0.248 NA
ATOM     57  C   UNL A   1      47.233  25.688  32.154  1.00  0.00     0.031 C 
ATOM     58  C   UNL A   1      48.241  30.293  28.326  1.00  0.00     0.029 A 
ATOM     59  C   UNL A   1      47.689  29.492  29.313  1.00  0.00     0.049 A 
ATOM     60  H   UNL A   1      45.994  29.843  30.519  1.00  0.00     0.167 HD
ATOM     61  C   UNL A   1      47.551  27.482  30.763  1.00  0.00     0.074 A 
ATOM     62  C   UNL A   1      48.015  26.183  31.206  1.00  0.00     0.031 C 
ATOM     63  C   UNL A   1      48.132  28.200  29.770  1.00  0.00     0.037 A 
BRANCH  50  64
ATOM     64  C   UNL A   1      45.332  33.566  28.548  1.00  0.00     0.064 A 
ATOM     65  C   UNL A   1      46.023  34.727  28.924  1.00  0.00     0.173 A 
ATOM     66  C   UNL A   1      44.617  33.588  27.341  1.00  0.00     0.173 A 
ATOM     67  F   UNL A   1      46.708  34.762  30.076  1.00  0.00    -0.203 F 
ATOM     68  C   UNL A   1      45.987  35.871  28.128  1.00  0.00     0.198 A 
ATOM     69  C   UNL A   1      44.602  34.724  26.537  1.00  0.00     0.198 A 
ATOM     70  F   UNL A   1      43.939  32.503  26.937  1.00  0.00    -0.203 F 
ATOM     71  F   UNL A   1      46.624  36.981  28.524  1.00  0.00    -0.200 F 
ATOM     72  C   UNL A   1      45.283  35.866  26.934  1.00  0.00     0.200 A 
ATOM     73  F   UNL A   1      43.929  34.715  25.378  1.00  0.00    -0.200 F 
ATOM     74  F   UNL A   1      45.254  36.963  26.166  1.00  0.00    -0.200 F 
ENDBRANCH  50  64
BRANCH  51  75
ATOM     75  C   UNL A   1      45.212  25.352  34.253  1.00  0.00     0.064 A 
ATOM     76  C   UNL A   1      45.855  25.298  35.497  1.00  0.00     0.173 A 
ATOM     77  C   UNL A   1      44.564  24.192  33.803  1.00  0.00     0.173 A 
ATOM     78  F   UNL A   1      46.510  26.372  35.959  1.00  0.00    -0.203 F 
ATOM     79  C   UNL A   1      45.866  24.126  36.251  1.00  0.00     0.198 A 
ATOM     80  C   UNL A   1      44.550  23.030  34.571  1.00  0.00     0.198 A 
ATOM     81  F   UNL A   1      43.935  24.191  32.619  1.00  0.00    -0.203 F 
ATOM     82  F   UNL A   1      46.527  24.086  37.416  1.00  0.00    -0.200 F 
ATOM     83  C   UNL A   1      45.209  22.995  35.790  1.00  0.00     0.200 A 
ATOM     84  F   UNL A   1      43.903  21.944  34.126  1.00  0.00    -0.200 F 
ATOM     85  F   UNL A   1      45.217  21.869  36.517  1.00  0.00    -0.200 F 
ENDBRANCH  51  75
BRANCH  63  86
ATOM     86  C   UNL A   1      49.340  27.605  29.109  1.00  0.00     0.064 A 
ATOM     87  C   UNL A   1      50.624  27.762  29.653  1.00  0.00     0.173 A 
ATOM     88  C   UNL A   1      49.209  26.836  27.943  1.00  0.00     0.173 A 
ATOM     89  F   UNL A   1      50.803  28.500  30.758  1.00  0.00    -0.203 F 
ATOM     90  C   UNL A   1      51.735  27.188  29.040  1.00  0.00     0.198 A 
ATOM     91  C   UNL A   1      50.318  26.241  27.349  1.00  0.00     0.198 A 
ATOM     92  F   UNL A   1      48.001  26.650  27.389  1.00  0.00    -0.203 F 
ATOM     93  F   UNL A   1      52.957  27.388  29.552  1.00  0.00    -0.200 F 
ATOM     94  C   UNL A   1      51.580  26.424  27.893  1.00  0.00     0.200 A 
ATOM     95  F   UNL A   1      50.165  25.491  26.248  1.00  0.00    -0.200 F 
ATOM     96  F   UNL A   1      52.649  25.868  27.309  1.00  0.00    -0.200 F 
ENDBRANCH  63  86
ENDBRANCH  37  38
ENDBRANCH  30  32
ENDBRANCH  29  30
ENDBRANCH  28  29
ENDBRANCH  27  28
ENDBRANCH  26  27
ENDBRANCH  25  26
ENDBRANCH  24  25
ENDBRANCH  23  24
ENDBRANCH   1  23
TORSDOF 24
ENDMDL
MODEL 2
REMARK VINA RESULT:      -7.6      5.143     11.959
REMARK SMILES C[C@@H](C(=O)[C@H](C)[C@@H](C)C(=O)OCCOCCOCCOCCOC(=O)c1ccc(-c2c3nc(c(-c4c(F)c(F)c(F)c(F)c4F)c4ccc([nH]4)c(-c4c(F)c(F)c(F)c(F)c4F)c4nc(c(-c5c(F)c(F)c(F)c(F)c5F)c5ccc2[nH]5)C=C4)C=C3)cc1)c1ccccc1
REMARK SMILES IDX 16 1 15 2 14 3 13 4 12 5 11 6 9 7 10 8 7 9 8 10 5 11 6 12
REMARK SMILES IDX 3 13 4 14 2 15 1 16 89 17 90 18 94 19 91 20 93 21 92 22
REMARK SMILES IDX 17 23 18 24 19 25 20 26 21 27 22 28 23 29 24 30 25 31 26 32
REMARK SMILES IDX 27 33 88 34 28 35 87 36 29 37 30 38 31 39 81 40 32 41 86 42
REMARK SMILES IDX 80 43 82 44 33 45 85 46 79 47 78 48 34 50 66 51 46 52 65 53
REMARK SMILES IDX 47 54 50 55 64 56 83 57 48 58 49 59 63 61 84 62 51 63 35 64
REMARK SMILES IDX 36 65 44 66 37 67 38 68 42 69 45 70 39 71 40 72 43 73 41 74
REMARK SMILES IDX 67 75 68 76 76 77 69 78 70 79 74 80 77 81 71 82 72 83 75 84
REMARK SMILES IDX 73 85 52 86 53 87 61 88 54 89 55 90 59 91 62 92 56 93 57 94
REMARK SMILES IDX 60 95 58 96
REMARK H PARENT 82 49 50 60
REMARK Flexibility Score: inf
ROOT
ATOM      1  C   UNL A   1      41.383  25.471  28.493  1.00  0.00     0.188 C 
ENDROOT
BRANCH   1   2
ATOM      2  C   UNL A   1      40.727  26.226  27.336  1.00  0.00     0.188 C 
BRANCH   2   3
ATOM      3  O   UNL A   1      39.986  25.541  26.336  1.00  0.00    -0.376 OA
BRANCH   3   4
ATOM      4  C   UNL A   1      39.553  24.205  26.527  1.00  0.00     0.202 C 
BRANCH   4   5
ATOM      5  C   UNL A   1      38.048  23.904  26.483  1.00  0.00     0.261 C 
BRANCH   5   6
ATOM      6  O   UNL A   1      37.489  23.494  25.213  1.00  0.00    -0.463 OA
BRANCH   6   7
ATOM      7  C   UNL A   1      37.235  22.163  25.083  1.00  0.00     0.309 C 
ATOM      8  O   UNL A   1      38.045  21.284  25.361  1.00  0.00    -0.252 OA
BRANCH   7   9
ATOM      9  C   UNL A   1      35.912  21.841  24.384  1.00  0.00     0.106 C 
ATOM     10  C   UNL A   1      35.587  23.096  23.562  1.00  0.00     0.021 C 
BRANCH   9  11
ATOM     11  C   UNL A   1      34.714  21.347  25.266  1.00  0.00     0.067 C 
ATOM     12  C   UNL A   1      34.809  21.902  26.695  1.00  0.00     0.017 C 
BRANCH  11  13
ATOM     13  C   UNL A   1      33.329  21.799  24.712  1.00  0.00     0.143 C 
ATOM     14  O   UNL A   1      32.946  21.315  23.646  1.00  0.00    -0.299 OA
BRANCH  13  15
ATOM     15  C   UNL A   1      32.539  22.924  25.466  1.00  0.00     0.083 C 
ATOM     16  C   UNL A   1      31.030  22.636  25.480  1.00  0.00     0.021 C 
BRANCH  15  17
ATOM     17  C   UNL A   1      32.730  24.402  25.040  1.00  0.00    -0.038 A 
ATOM     18  C   UNL A   1      32.134  24.842  23.832  1.00  0.00     0.004 A 
ATOM     19  C   UNL A   1      33.472  25.356  25.750  1.00  0.00     0.004 A 
ATOM     20  C   UNL A   1      32.330  26.133  23.331  1.00  0.00     0.000 A 
ATOM     21  C   UNL A   1      33.654  26.658  25.258  1.00  0.00     0.000 A 
ATOM     22  C   UNL A   1      33.097  27.043  24.044  1.00  0.00     0.000 A 
ENDBRANCH  15  17
ENDBRANCH  13  15
ENDBRANCH  11  13
ENDBRANCH   9  11
ENDBRANCH   7   9
ENDBRANCH   6   7
ENDBRANCH   5   6
ENDBRANCH   4   5
ENDBRANCH   3   4
ENDBRANCH   2   3
ENDBRANCH   1   2
BRANCH   1  23
ATOM     23  O   UNL A   1      42.619  24.847  28.219  1.00  0.00    -0.377 OA
BRANCH  23  24
ATOM     24  C   UNL A   1      42.837  23.523  28.667  1.00  0.00     0.188 C 
BRANCH  24  25
ATOM     25  C   UNL A   1      42.610  22.371  27.689  1.00  0.00     0.188 C 
BRANCH  25  26
ATOM     26  O   UNL A   1      43.545  22.230  26.621  1.00  0.00    -0.376 OA
BRANCH  26  27
ATOM     27  C   UNL A   1      43.177  22.667  25.308  1.00  0.00     0.202 C 
BRANCH  27  28
ATOM     28  C   UNL A   1      44.127  23.644  24.629  1.00  0.00     0.261 C 
BRANCH  28  29
ATOM     29  O   UNL A   1      44.762  24.441  25.646  1.00  0.00    -0.460 OA
BRANCH  29  30
ATOM     30  C   UNL A   1      45.601  25.381  25.181  1.00  0.00     0.338 C 
ATOM     31  O   UNL A   1      46.410  25.283  24.281  1.00  0.00    -0.246 OA
BRANCH  30  32
ATOM     32  C   UNL A   1      45.258  26.652  25.834  1.00  0.00     0.060 A 
ATOM     33  C   UNL A   1      46.258  27.285  26.580  1.00  0.00     0.016 A 
ATOM     34  C   UNL A   1      43.949  27.143  25.816  1.00  0.00     0.016 A 
ATOM     35  C   UNL A   1      45.926  28.363  27.393  1.00  0.00     0.010 A 
ATOM     36  C   UNL A   1      43.620  28.226  26.635  1.00  0.00     0.010 A 
ATOM     37  C   UNL A   1      44.597  28.799  27.470  1.00  0.00    -0.014 A 
BRANCH  37  38
ATOM     38  C   UNL A   1      44.211  29.704  28.579  1.00  0.00     0.031 A 
ATOM     39  C   UNL A   1      43.949  29.109  29.937  1.00  0.00     0.074 A 
ATOM     40  C   UNL A   1      44.177  31.036  28.400  1.00  0.00     0.049 A 
ATOM     41  N   UNL A   1      43.662  29.705  31.066  1.00  0.00    -0.248 NA
ATOM     42  C   UNL A   1      44.028  27.642  30.037  1.00  0.00     0.031 C 
ATOM     43  C   UNL A   1      44.453  31.723  27.140  1.00  0.00     0.029 A 
ATOM     44  N   UNL A   1      43.904  32.047  29.286  1.00  0.00    -0.354 N 
ATOM     45  C   UNL A   1      43.536  28.691  32.007  1.00  0.00     0.074 A 
ATOM     46  C   UNL A   1      43.742  27.439  31.314  1.00  0.00     0.031 C 
ATOM     47  C   UNL A   1      44.331  33.048  27.333  1.00  0.00     0.029 A 
ATOM     48  C   UNL A   1      43.951  33.298  28.722  1.00  0.00     0.049 A 
ATOM     49  H   UNL A   1      43.693  31.890  30.235  1.00  0.00     0.167 HD
ATOM     50  C   UNL A   1      43.287  28.797  33.333  1.00  0.00     0.037 A 
ATOM     51  C   UNL A   1      43.704  34.503  29.270  1.00  0.00     0.037 A 
ATOM     52  C   UNL A   1      43.079  30.045  34.017  1.00  0.00     0.049 A 
ATOM     53  C   UNL A   1      43.359  34.587  30.734  1.00  0.00     0.074 A 
ATOM     54  C   UNL A   1      42.831  30.264  35.360  1.00  0.00     0.029 A 
ATOM     55  N   UNL A   1      43.087  31.289  33.404  1.00  0.00    -0.354 N 
ATOM     56  N   UNL A   1      43.276  33.626  31.623  1.00  0.00    -0.248 NA
ATOM     57  C   UNL A   1      43.076  35.925  31.273  1.00  0.00     0.031 C 
ATOM     58  C   UNL A   1      42.641  31.637  35.551  1.00  0.00     0.029 A 
ATOM     59  C   UNL A   1      42.818  32.277  34.335  1.00  0.00     0.049 A 
ATOM     60  H   UNL A   1      43.258  31.446  32.446  1.00  0.00     0.167 HD
ATOM     61  C   UNL A   1      42.956  34.243  32.826  1.00  0.00     0.074 A 
ATOM     62  C   UNL A   1      42.876  35.664  32.557  1.00  0.00     0.031 C 
ATOM     63  C   UNL A   1      42.745  33.686  34.044  1.00  0.00     0.037 A 
BRANCH  50  64
ATOM     64  C   UNL A   1      43.202  27.528  34.129  1.00  0.00     0.064 A 
ATOM     65  C   UNL A   1      41.970  26.926  34.424  1.00  0.00     0.173 A 
ATOM     66  C   UNL A   1      44.369  26.887  34.569  1.00  0.00     0.173 A 
ATOM     67  F   UNL A   1      40.825  27.508  34.038  1.00  0.00    -0.203 F 
ATOM     68  C   UNL A   1      41.910  25.736  35.145  1.00  0.00     0.198 A 
ATOM     69  C   UNL A   1      44.306  25.685  35.269  1.00  0.00     0.198 A 
ATOM     70  F   UNL A   1      45.573  27.422  34.312  1.00  0.00    -0.203 F 
ATOM     71  F   UNL A   1      40.721  25.197  35.448  1.00  0.00    -0.200 F 
ATOM     72  C   UNL A   1      43.077  25.113  35.561  1.00  0.00     0.200 A 
ATOM     73  F   UNL A   1      45.436  25.080  35.662  1.00  0.00    -0.200 F 
ATOM     74  F   UNL A   1      43.018  23.965  36.248  1.00  0.00    -0.200 F 
ENDBRANCH  50  64
BRANCH  51  75
ATOM     75  C   UNL A   1      43.764  35.727  28.429  1.00  0.00     0.064 A 
ATOM     76  C   UNL A   1      44.975  36.392  28.195  1.00  0.00     0.173 A 
ATOM     77  C   UNL A   1      42.601  36.268  27.858  1.00  0.00     0.173 A 
ATOM     78  F   UNL A   1      46.109  35.929  28.740  1.00  0.00    -0.203 F 
ATOM     79  C   UNL A   1      45.019  37.561  27.437  1.00  0.00     0.198 A 
ATOM     80  C   UNL A   1      42.651  37.420  27.077  1.00  0.00     0.198 A 
ATOM     81  F   UNL A   1      41.417  35.671  28.053  1.00  0.00    -0.203 F 
ATOM     82  F   UNL A   1      46.182  38.204  27.267  1.00  0.00    -0.200 F 
ATOM     83  C   UNL A   1      43.859  38.071  26.874  1.00  0.00     0.200 A 
ATOM     84  F   UNL A   1      41.529  37.901  26.525  1.00  0.00    -0.200 F 
ATOM     85  F   UNL A   1      43.902  39.193  26.143  1.00  0.00    -0.200 F 
ENDBRANCH  51  75
BRANCH  63  86
ATOM     86  C   UNL A   1      42.426  34.614  35.178  1.00  0.00     0.064 A 
ATOM     87  C   UNL A   1      43.439  35.213  35.941  1.00  0.00     0.173 A 
ATOM     88  C   UNL A   1      41.095  34.941  35.479  1.00  0.00     0.173 A 
ATOM     89  F   UNL A   1      44.726  34.922  35.701  1.00  0.00    -0.203 F 
ATOM     90  C   UNL A   1      43.129  36.089  36.979  1.00  0.00     0.198 A 
ATOM     91  C   UNL A   1      40.790  35.838  36.498  1.00  0.00     0.198 A 
ATOM     92  F   UNL A   1      40.090  34.400  34.773  1.00  0.00    -0.203 F 
ATOM     93  F   UNL A   1      44.111  36.615  37.723  1.00  0.00    -0.200 F 
ATOM     94  C   UNL A   1      41.806  36.405  37.252  1.00  0.00     0.200 A 
ATOM     95  F   UNL A   1      39.512  36.152  36.753  1.00  0.00    -0.200 F 
ATOM     96  F   UNL A   1      41.512  37.252  38.247  1.00  0.00    -0.200 F 
ENDBRANCH  63  86
ENDBRANCH  37  38
ENDBRANCH  30  32
ENDBRANCH  29  30
ENDBRANCH  28  29
ENDBRANCH  27  28
ENDBRANCH  26  27
ENDBRANCH  25  26
ENDBRANCH  24  25
ENDBRANCH  23  24
ENDBRANCH   1  23
TORSDOF 24
ENDMDL
MODEL 3
REMARK VINA RESULT:      -7.4      1.228      7.258
REMARK SMILES C[C@@H](C(=O)[C@H](C)[C@@H](C)C(=O)OCCOCCOCCOCCOC(=O)c1ccc(-c2c3nc(c(-c4c(F)c(F)c(F)c(F)c4F)c4ccc([nH]4)c(-c4c(F)c(F)c(F)c(F)c4F)c4nc(c(-c5c(F)c(F)c(F)c(F)c5F)c5ccc2[nH]5)C=C4)C=C3)cc1)c1ccccc1
REMARK SMILES IDX 16 1 15 2 14 3 13 4 12 5 11 6 9 7 10 8 7 9 8 10 5 11 6 12
REMARK SMILES IDX 3 13 4 14 2 15 1 16 89 17 90 18 94 19 91 20 93 21 92 22
REMARK SMILES IDX 17 23 18 24 19 25 20 26 21 27 22 28 23 29 24 30 25 31 26 32
REMARK SMILES IDX 27 33 88 34 28 35 87 36 29 37 30 38 31 39 81 40 32 41 86 42
REMARK SMILES IDX 80 43 82 44 33 45 85 46 79 47 78 48 34 50 66 51 46 52 65 53
REMARK SMILES IDX 47 54 50 55 64 56 83 57 48 58 49 59 63 61 84 62 51 63 35 64
REMARK SMILES IDX 36 65 44 66 37 67 38 68 42 69 45 70 39 71 40 72 43 73 41 74
REMARK SMILES IDX 67 75 68 76 76 77 69 78 70 79 74 80 77 81 71 82 72 83 75 84
REMARK SMILES IDX 73 85 52 86 53 87 61 88 54 89 55 90 59 91 62 92 56 93 57 94
REMARK SMILES IDX 60 95 58 96
REMARK H PARENT 82 49 50 60
REMARK Flexibility Score: inf
ROOT
ATOM      1  C   UNL A   1      34.202  34.229  29.638  1.00  0.00     0.188 C 
ENDROOT
BRANCH   1   2
ATOM      2  C   UNL A   1      34.197  33.306  28.418  1.00  0.00     0.188 C 
BRANCH   2   3
ATOM      3  O   UNL A   1      35.385  33.052  27.682  1.00  0.00    -0.376 OA
BRANCH   3   4
ATOM      4  C   UNL A   1      36.312  32.065  28.101  1.00  0.00     0.202 C 
BRANCH   4   5
ATOM      5  C   UNL A   1      37.370  32.445  29.147  1.00  0.00     0.261 C 
BRANCH   5   6
ATOM      6  O   UNL A   1      38.525  31.581  29.268  1.00  0.00    -0.463 OA
BRANCH   6   7
ATOM      7  C   UNL A   1      38.686  30.980  30.480  1.00  0.00     0.309 C 
ATOM      8  O   UNL A   1      38.077  31.311  31.492  1.00  0.00    -0.252 OA
BRANCH   7   9
ATOM      9  C   UNL A   1      39.832  29.966  30.530  1.00  0.00     0.106 C 
ATOM     10  C   UNL A   1      40.841  30.462  29.485  1.00  0.00     0.021 C 
BRANCH   9  11
ATOM     11  C   UNL A   1      39.478  28.446  30.382  1.00  0.00     0.067 C 
ATOM     12  C   UNL A   1      38.340  28.045  31.332  1.00  0.00     0.017 C 
BRANCH  11  13
ATOM     13  C   UNL A   1      38.999  28.075  28.946  1.00  0.00     0.143 C 
ATOM     14  O   UNL A   1      37.930  28.545  28.552  1.00  0.00    -0.299 OA
BRANCH  13  15
ATOM     15  C   UNL A   1      39.830  27.041  28.110  1.00  0.00     0.083 C 
ATOM     16  C   UNL A   1      39.471  25.596  28.488  1.00  0.00     0.021 C 
BRANCH  15  17
ATOM     17  C   UNL A   1      41.376  27.149  28.087  1.00  0.00    -0.038 A 
ATOM     18  C   UNL A   1      42.124  26.362  28.998  1.00  0.00     0.004 A 
ATOM     19  C   UNL A   1      42.113  27.991  27.243  1.00  0.00     0.004 A 
ATOM     20  C   UNL A   1      43.515  26.464  29.103  1.00  0.00     0.000 A 
ATOM     21  C   UNL A   1      43.510  28.081  27.335  1.00  0.00     0.000 A 
ATOM     22  C   UNL A   1      44.210  27.331  28.273  1.00  0.00     0.000 A 
ENDBRANCH  15  17
ENDBRANCH  13  15
ENDBRANCH  11  13
ENDBRANCH   9  11
ENDBRANCH   7   9
ENDBRANCH   6   7
ENDBRANCH   5   6
ENDBRANCH   4   5
ENDBRANCH   3   4
ENDBRANCH   2   3
ENDBRANCH   1   2
BRANCH   1  23
ATOM     23  O   UNL A   1      34.002  33.616  30.893  1.00  0.00    -0.377 OA
BRANCH  23  24
ATOM     24  C   UNL A   1      34.373  34.314  32.068  1.00  0.00     0.188 C 
BRANCH  24  25
ATOM     25  C   UNL A   1      35.754  34.964  32.129  1.00  0.00     0.188 C 
BRANCH  25  26
ATOM     26  O   UNL A   1      36.397  35.011  33.402  1.00  0.00    -0.376 OA
BRANCH  26  27
ATOM     27  C   UNL A   1      36.885  33.798  33.983  1.00  0.00     0.202 C 
BRANCH  27  28
ATOM     28  C   UNL A   1      36.449  33.509  35.413  1.00  0.00     0.261 C 
BRANCH  28  29
ATOM     29  O   UNL A   1      37.204  32.385  35.900  1.00  0.00    -0.460 OA
BRANCH  29  30
ATOM     30  C   UNL A   1      38.365  32.704  36.497  1.00  0.00     0.338 C 
ATOM     31  O   UNL A   1      38.540  33.436  37.449  1.00  0.00    -0.246 OA
BRANCH  30  32
ATOM     32  C   UNL A   1      39.418  31.863  35.910  1.00  0.00     0.060 A 
ATOM     33  C   UNL A   1      40.735  32.100  36.318  1.00  0.00     0.016 A 
ATOM     34  C   UNL A   1      39.130  30.951  34.891  1.00  0.00     0.016 A 
ATOM     35  C   UNL A   1      41.782  31.492  35.637  1.00  0.00     0.010 A 
ATOM     36  C   UNL A   1      40.186  30.342  34.208  1.00  0.00     0.010 A 
ATOM     37  C   UNL A   1      41.515  30.659  34.542  1.00  0.00    -0.014 A 
BRANCH  37  38
ATOM     38  C   UNL A   1      42.631  30.303  33.633  1.00  0.00     0.031 A 
ATOM     39  C   UNL A   1      43.338  28.990  33.840  1.00  0.00     0.074 A 
ATOM     40  C   UNL A   1      42.954  31.095  32.597  1.00  0.00     0.049 A 
ATOM     41  N   UNL A   1      44.294  28.439  33.137  1.00  0.00    -0.248 NA
ATOM     42  C   UNL A   1      42.901  28.183  34.993  1.00  0.00     0.031 C 
ATOM     43  C   UNL A   1      42.311  32.367  32.278  1.00  0.00     0.029 A 
ATOM     44  N   UNL A   1      43.899  30.937  31.615  1.00  0.00    -0.354 N 
ATOM     45  C   UNL A   1      44.565  27.224  33.754  1.00  0.00     0.074 A 
ATOM     46  C   UNL A   1      43.700  27.130  34.909  1.00  0.00     0.031 C 
ATOM     47  C   UNL A   1      42.884  32.879  31.174  1.00  0.00     0.029 A 
ATOM     48  C   UNL A   1      43.945  31.980  30.724  1.00  0.00     0.049 A 
ATOM     49  H   UNL A   1      44.490  30.151  31.557  1.00  0.00     0.167 HD
ATOM     50  C   UNL A   1      45.446  26.267  33.381  1.00  0.00     0.037 A 
ATOM     51  C   UNL A   1      44.760  32.184  29.671  1.00  0.00     0.037 A 
ATOM     52  C   UNL A   1      46.308  26.366  32.233  1.00  0.00     0.049 A 
ATOM     53  C   UNL A   1      45.781  31.133  29.319  1.00  0.00     0.074 A 
ATOM     54  C   UNL A   1      47.228  25.448  31.761  1.00  0.00     0.029 A 
ATOM     55  N   UNL A   1      46.359  27.459  31.381  1.00  0.00    -0.354 N 
ATOM     56  N   UNL A   1      46.006  29.972  29.888  1.00  0.00    -0.248 NA
ATOM     57  C   UNL A   1      46.659  31.418  28.176  1.00  0.00     0.031 C 
ATOM     58  C   UNL A   1      47.870  26.006  30.650  1.00  0.00     0.029 A 
ATOM     59  C   UNL A   1      47.316  27.251  30.403  1.00  0.00     0.049 A 
ATOM     60  H   UNL A   1      45.797  28.264  31.460  1.00  0.00     0.167 HD
ATOM     61  C   UNL A   1      47.032  29.382  29.161  1.00  0.00     0.074 A 
ATOM     62  C   UNL A   1      47.374  30.304  28.098  1.00  0.00     0.031 C 
ATOM     63  C   UNL A   1      47.638  28.184  29.354  1.00  0.00     0.037 A 
BRANCH  50  64
ATOM     64  C   UNL A   1      45.540  25.037  34.235  1.00  0.00     0.064 A 
ATOM     65  C   UNL A   1      46.374  24.985  35.361  1.00  0.00     0.173 A 
ATOM     66  C   UNL A   1      44.756  23.910  33.945  1.00  0.00     0.173 A 
ATOM     67  F   UNL A   1      47.154  26.031  35.672  1.00  0.00    -0.203 F 
ATOM     68  C   UNL A   1      46.433  23.843  36.156  1.00  0.00     0.198 A 
ATOM     69  C   UNL A   1      44.800  22.779  34.756  1.00  0.00     0.198 A 
ATOM     70  F   UNL A   1      43.941  23.909  32.879  1.00  0.00    -0.203 F 
ATOM     71  F   UNL A   1      47.265  23.801  37.206  1.00  0.00    -0.200 F 
ATOM     72  C   UNL A   1      45.642  22.744  35.858  1.00  0.00     0.200 A 
ATOM     73  F   UNL A   1      44.027  21.721  34.470  1.00  0.00    -0.200 F 
ATOM     74  F   UNL A   1      45.694  21.649  36.627  1.00  0.00    -0.200 F 
ENDBRANCH  50  64
BRANCH  51  75
ATOM     75  C   UNL A   1      44.652  33.437  28.880  1.00  0.00     0.064 A 
ATOM     76  C   UNL A   1      44.042  33.452  27.619  1.00  0.00     0.173 A 
ATOM     77  C   UNL A   1      45.178  34.644  29.365  1.00  0.00     0.173 A 
ATOM     78  F   UNL A   1      43.546  32.319  27.101  1.00  0.00    -0.203 F 
ATOM     79  C   UNL A   1      43.978  34.623  26.865  1.00  0.00     0.198 A 
ATOM     80  C   UNL A   1      45.088  35.820  28.623  1.00  0.00     0.198 A 
ATOM     81  F   UNL A   1      45.774  34.683  30.566  1.00  0.00    -0.203 F 
ATOM     82  F   UNL A   1      43.430  34.601  25.642  1.00  0.00    -0.200 F 
ATOM     83  C   UNL A   1      44.495  35.806  27.369  1.00  0.00     0.200 A 
ATOM     84  F   UNL A   1      45.578  36.963  29.121  1.00  0.00    -0.200 F 
ATOM     85  F   UNL A   1      44.431  36.932  26.646  1.00  0.00    -0.200 F 
ENDBRANCH  51  75
BRANCH  63  86
ATOM     86  C   UNL A   1      48.719  27.798  28.388  1.00  0.00     0.064 A 
ATOM     87  C   UNL A   1      50.065  28.105  28.634  1.00  0.00     0.173 A 
ATOM     88  C   UNL A   1      48.410  27.076  27.226  1.00  0.00     0.173 A 
ATOM     89  F   UNL A   1      50.409  28.806  29.725  1.00  0.00    -0.203 F 
ATOM     90  C   UNL A   1      51.060  27.723  27.738  1.00  0.00     0.198 A 
ATOM     91  C   UNL A   1      49.410  26.672  26.347  1.00  0.00     0.198 A 
ATOM     92  F   UNL A   1      47.137  26.751  26.950  1.00  0.00    -0.203 F 
ATOM     93  F   UNL A   1      52.335  28.066  27.971  1.00  0.00    -0.200 F 
ATOM     94  C   UNL A   1      50.733  27.002  26.599  1.00  0.00     0.200 A 
ATOM     95  F   UNL A   1      49.094  25.963  25.253  1.00  0.00    -0.200 F 
ATOM     96  F   UNL A   1      51.693  26.630  25.742  1.00  0.00    -0.200 F 
ENDBRANCH  63  86
ENDBRANCH  37  38
ENDBRANCH  30  32
ENDBRANCH  29  30
ENDBRANCH  28  29
ENDBRANCH  27  28
ENDBRANCH  26  27
ENDBRANCH  25  26
ENDBRANCH  24  25
ENDBRANCH  23  24
ENDBRANCH   1  23
TORSDOF 24
ENDMDL
