MODEL 1
REMARK VINA RESULT:      -9.2      0.000      0.000
REMARK SMILES C/C(C(=O)N[C@@H](C)CCCO)=C(\C)C(=O)OCCOCCOCCOCCOC(=O)c1ccc(-c2c3nc(c(-c4c(F)c(F)c(F)c(F)c4F)c4ccc([nH]4)c(-c4c(F)c(F)c(F)c(F)c4F)c4nc(c(-c5c(F)c(F)c(F)c(F)c5F)c5ccc2[nH]5)C=C4)C=C3)cc1
REMARK SMILES IDX 20 1 19 2 18 3 17 4 16 5 14 6 15 7 12 8 1 9 2 10 13 11 3 12
REMARK SMILES IDX 4 13 5 14 6 16 7 17 8 18 9 19 10 20 11 21 21 23 22 24 23 25
REMARK SMILES IDX 24 26 25 27 26 28 27 29 28 30 29 31 30 32 31 33 32 34 93 35
REMARK SMILES IDX 33 36 92 37 34 38 35 39 36 40 86 41 37 42 91 43 85 44 87 45
REMARK SMILES IDX 38 46 90 47 84 48 83 49 39 51 71 52 51 53 70 54 52 55 55 56
REMARK SMILES IDX 69 57 88 58 53 59 54 60 68 62 89 63 56 64 40 65 41 66 49 67
REMARK SMILES IDX 42 68 43 69 47 70 50 71 44 72 45 73 48 74 46 75 72 76 73 77
REMARK SMILES IDX 81 78 74 79 75 80 79 81 82 82 76 83 77 84 80 85 78 86 57 87
REMARK SMILES IDX 58 88 66 89 59 90 60 91 64 92 67 93 61 94 62 95 65 96 63 97
REMARK H PARENT 5 15 11 22 87 50 55 61
REMARK Flexibility Score: inf
ROOT
ATOM      1  C   UNL A   1      35.578  22.267  24.821  1.00  0.00     0.188 C 
ENDROOT
BRANCH   1   2
ATOM      2  O   UNL A   1      34.635  23.157  25.411  1.00  0.00    -0.376 OA
BRANCH   2   3
ATOM      3  C   UNL A   1      35.058  24.506  25.551  1.00  0.00     0.202 C 
BRANCH   3   4
ATOM      4  C   UNL A   1      34.608  25.417  24.409  1.00  0.00     0.261 C 
BRANCH   4   5
ATOM      5  O   UNL A   1      33.852  26.542  24.875  1.00  0.00    -0.460 OA
BRANCH   5   6
ATOM      6  C   UNL A   1      33.358  27.401  23.954  1.00  0.00     0.334 C 
ATOM      7  O   UNL A   1      34.005  28.082  23.178  1.00  0.00    -0.247 OA
BRANCH   6   8
ATOM      8  C   UNL A   1      31.877  27.498  24.168  1.00  0.00     0.042 C 
ATOM      9  C   UNL A   1      29.499  27.272  23.532  1.00  0.00     0.051 C 
ATOM     10  C   UNL A   1      30.940  26.894  23.384  1.00  0.00     0.024 C 
ATOM     11  C   UNL A   1      31.577  28.331  25.397  1.00  0.00     0.053 C 
BRANCH  10  12
ATOM     12  C   UNL A   1      31.341  25.796  22.423  1.00  0.00     0.247 C 
ATOM     13  O   UNL A   1      31.606  26.045  21.247  1.00  0.00    -0.270 OA
ATOM     14  N   UNL A   1      31.571  24.499  22.767  1.00  0.00    -0.350 N 
ATOM     15  H   UNL A   1      32.215  24.065  22.163  1.00  0.00     0.164 HD
BRANCH  14  16
ATOM     16  C   UNL A   1      31.102  23.589  23.810  1.00  0.00     0.079 C 
ATOM     17  C   UNL A   1      31.663  22.195  23.510  1.00  0.00     0.031 C 
BRANCH  16  18
ATOM     18  C   UNL A   1      31.549  24.024  25.219  1.00  0.00     0.027 C 
BRANCH  18  19
ATOM     19  C   UNL A   1      30.449  24.095  26.286  1.00  0.00     0.030 C 
BRANCH  19  20
ATOM     20  C   UNL A   1      30.249  22.839  27.123  1.00  0.00     0.156 C 
BRANCH  20  21
ATOM     21  O   UNL A   1      29.201  22.029  26.614  1.00  0.00    -0.396 OA
ATOM     22  H   UNL A   1      28.347  22.438  26.823  1.00  0.00     0.210 HD
ENDBRANCH  20  21
ENDBRANCH  19  20
ENDBRANCH  18  19
ENDBRANCH  16  18
ENDBRANCH  14  16
ENDBRANCH  10  12
ENDBRANCH   6   8
ENDBRANCH   5   6
ENDBRANCH   4   5
ENDBRANCH   3   4
ENDBRANCH   2   3
ENDBRANCH   1   2
BRANCH   1  23
ATOM     23  C   UNL A   1      37.005  22.836  24.654  1.00  0.00     0.188 C 
BRANCH  23  24
ATOM     24  O   UNL A   1      37.975  22.664  25.679  1.00  0.00    -0.377 OA
BRANCH  24  25
ATOM     25  C   UNL A   1      38.791  21.498  25.677  1.00  0.00     0.188 C 
BRANCH  25  26
ATOM     26  C   UNL A   1      40.228  21.563  26.239  1.00  0.00     0.188 C 
BRANCH  26  27
ATOM     27  O   UNL A   1      40.937  20.335  26.173  1.00  0.00    -0.376 OA
BRANCH  27  28
ATOM     28  C   UNL A   1      42.280  20.336  26.627  1.00  0.00     0.202 C 
BRANCH  28  29
ATOM     29  C   UNL A   1      43.274  21.179  25.818  1.00  0.00     0.261 C 
BRANCH  29  30
ATOM     30  O   UNL A   1      43.662  22.432  26.402  1.00  0.00    -0.460 OA
BRANCH  30  31
ATOM     31  C   UNL A   1      43.518  23.552  25.661  1.00  0.00     0.338 C 
ATOM     32  O   UNL A   1      43.629  23.664  24.453  1.00  0.00    -0.246 OA
BRANCH  31  33
ATOM     33  C   UNL A   1      43.007  24.601  26.567  1.00  0.00     0.060 A 
ATOM     34  C   UNL A   1      43.544  25.895  26.504  1.00  0.00     0.016 A 
ATOM     35  C   UNL A   1      41.957  24.311  27.440  1.00  0.00     0.016 A 
ATOM     36  C   UNL A   1      43.031  26.903  27.322  1.00  0.00     0.010 A 
ATOM     37  C   UNL A   1      41.464  25.312  28.276  1.00  0.00     0.010 A 
ATOM     38  C   UNL A   1      42.011  26.607  28.236  1.00  0.00    -0.014 A 
BRANCH  38  39
ATOM     39  C   UNL A   1      41.634  27.580  29.287  1.00  0.00     0.031 A 
ATOM     40  C   UNL A   1      42.422  27.581  30.565  1.00  0.00     0.074 A 
ATOM     41  C   UNL A   1      40.602  28.426  29.125  1.00  0.00     0.049 A 
ATOM     42  N   UNL A   1      42.221  28.248  31.671  1.00  0.00    -0.248 NA
ATOM     43  C   UNL A   1      43.601  26.699  30.596  1.00  0.00     0.031 C 
ATOM     44  C   UNL A   1      39.794  28.555  27.917  1.00  0.00     0.029 A 
ATOM     45  N   UNL A   1      40.049  29.327  30.001  1.00  0.00    -0.354 N 
ATOM     46  C   UNL A   1      43.240  27.863  32.531  1.00  0.00     0.074 A 
ATOM     47  C   UNL A   1      44.040  26.882  31.832  1.00  0.00     0.031 C 
ATOM     48  C   UNL A   1      38.834  29.472  28.131  1.00  0.00     0.029 A 
ATOM     49  C   UNL A   1      38.937  29.962  29.506  1.00  0.00     0.049 A 
ATOM     50  H   UNL A   1      40.414  29.503  30.899  1.00  0.00     0.167 HD
ATOM     51  C   UNL A   1      43.490  28.296  33.789  1.00  0.00     0.037 A 
ATOM     52  C   UNL A   1      38.085  30.816  30.109  1.00  0.00     0.037 A 
ATOM     53  C   UNL A   1      42.679  29.258  34.486  1.00  0.00     0.049 A 
ATOM     54  C   UNL A   1      38.320  31.199  31.550  1.00  0.00     0.074 A 
ATOM     55  C   UNL A   1      42.847  29.767  35.761  1.00  0.00     0.029 A 
ATOM     56  N   UNL A   1      41.536  29.849  33.967  1.00  0.00    -0.354 N 
ATOM     57  N   UNL A   1      39.295  30.850  32.355  1.00  0.00    -0.248 NA
ATOM     58  C   UNL A   1      37.330  32.094  32.168  1.00  0.00     0.031 C 
ATOM     59  C   UNL A   1      41.774  30.619  36.036  1.00  0.00     0.029 A 
ATOM     60  C   UNL A   1      40.971  30.693  34.909  1.00  0.00     0.049 A 
ATOM     61  H   UNL A   1      41.180  29.692  33.063  1.00  0.00     0.167 HD
ATOM     62  C   UNL A   1      39.055  31.505  33.557  1.00  0.00     0.074 A 
ATOM     63  C   UNL A   1      37.848  32.281  33.374  1.00  0.00     0.031 C 
ATOM     64  C   UNL A   1      39.773  31.468  34.707  1.00  0.00     0.037 A 
BRANCH  51  65
ATOM     65  C   UNL A   1      44.669  27.697  34.501  1.00  0.00     0.064 A 
ATOM     66  C   UNL A   1      44.551  26.527  35.267  1.00  0.00     0.173 A 
ATOM     67  C   UNL A   1      45.933  28.295  34.406  1.00  0.00     0.173 A 
ATOM     68  F   UNL A   1      43.359  25.925  35.403  1.00  0.00    -0.203 F 
ATOM     69  C   UNL A   1      45.651  25.998  35.939  1.00  0.00     0.198 A 
ATOM     70  C   UNL A   1      47.037  27.744  35.053  1.00  0.00     0.198 A 
ATOM     71  F   UNL A   1      46.102  29.414  33.686  1.00  0.00    -0.203 F 
ATOM     72  F   UNL A   1      45.502  24.913  36.712  1.00  0.00    -0.200 F 
ATOM     73  C   UNL A   1      46.893  26.603  35.825  1.00  0.00     0.200 A 
ATOM     74  F   UNL A   1      48.240  28.323  34.931  1.00  0.00    -0.200 F 
ATOM     75  F   UNL A   1      47.950  26.091  36.470  1.00  0.00    -0.200 F 
ENDBRANCH  51  65
BRANCH  52  76
ATOM     76  C   UNL A   1      36.918  31.360  29.364  1.00  0.00     0.064 A 
ATOM     77  C   UNL A   1      35.838  30.538  29.016  1.00  0.00     0.173 A 
ATOM     78  C   UNL A   1      36.870  32.703  28.959  1.00  0.00     0.173 A 
ATOM     79  F   UNL A   1      35.850  29.240  29.353  1.00  0.00    -0.203 F 
ATOM     80  C   UNL A   1      34.763  31.032  28.280  1.00  0.00     0.198 A 
ATOM     81  C   UNL A   1      35.782  33.203  28.249  1.00  0.00     0.198 A 
ATOM     82  F   UNL A   1      37.882  33.531  29.258  1.00  0.00    -0.203 F 
ATOM     83  F   UNL A   1      33.768  30.210  27.918  1.00  0.00    -0.200 F 
ATOM     84  C   UNL A   1      34.733  32.366  27.902  1.00  0.00     0.200 A 
ATOM     85  F   UNL A   1      35.751  34.495  27.895  1.00  0.00    -0.200 F 
ATOM     86  F   UNL A   1      33.698  32.841  27.195  1.00  0.00    -0.200 F 
ENDBRANCH  52  76
BRANCH  64  87
ATOM     87  C   UNL A   1      39.301  32.325  35.849  1.00  0.00     0.064 A 
ATOM     88  C   UNL A   1      38.407  31.842  36.816  1.00  0.00     0.173 A 
ATOM     89  C   UNL A   1      39.799  33.628  36.009  1.00  0.00     0.173 A 
ATOM     90  F   UNL A   1      37.892  30.608  36.702  1.00  0.00    -0.203 F 
ATOM     91  C   UNL A   1      38.013  32.638  37.888  1.00  0.00     0.198 A 
ATOM     92  C   UNL A   1      39.428  34.409  37.100  1.00  0.00     0.198 A 
ATOM     93  F   UNL A   1      40.663  34.136  35.119  1.00  0.00    -0.203 F 
ATOM     94  F   UNL A   1      37.123  32.172  38.775  1.00  0.00    -0.200 F 
ATOM     95  C   UNL A   1      38.530  33.917  38.034  1.00  0.00     0.200 A 
ATOM     96  F   UNL A   1      39.943  35.637  37.248  1.00  0.00    -0.200 F 
ATOM     97  F   UNL A   1      38.160  34.677  39.075  1.00  0.00    -0.200 F 
ENDBRANCH  64  87
ENDBRANCH  38  39
ENDBRANCH  31  33
ENDBRANCH  30  31
ENDBRANCH  29  30
ENDBRANCH  28  29
ENDBRANCH  27  28
ENDBRANCH  26  27
ENDBRANCH  25  26
ENDBRANCH  24  25
ENDBRANCH  23  24
ENDBRANCH   1  23
TORSDOF 26
ENDMDL
MODEL 2
REMARK VINA RESULT:      -9.0      0.860      2.226
REMARK SMILES C/C(C(=O)N[C@@H](C)CCCO)=C(\C)C(=O)OCCOCCOCCOCCOC(=O)c1ccc(-c2c3nc(c(-c4c(F)c(F)c(F)c(F)c4F)c4ccc([nH]4)c(-c4c(F)c(F)c(F)c(F)c4F)c4nc(c(-c5c(F)c(F)c(F)c(F)c5F)c5ccc2[nH]5)C=C4)C=C3)cc1
REMARK SMILES IDX 20 1 19 2 18 3 17 4 16 5 14 6 15 7 12 8 1 9 2 10 13 11 3 12
REMARK SMILES IDX 4 13 5 14 6 16 7 17 8 18 9 19 10 20 11 21 21 23 22 24 23 25
REMARK SMILES IDX 24 26 25 27 26 28 27 29 28 30 29 31 30 32 31 33 32 34 93 35
REMARK SMILES IDX 33 36 92 37 34 38 35 39 36 40 86 41 37 42 91 43 85 44 87 45
REMARK SMILES IDX 38 46 90 47 84 48 83 49 39 51 71 52 51 53 70 54 52 55 55 56
REMARK SMILES IDX 69 57 88 58 53 59 54 60 68 62 89 63 56 64 40 65 41 66 49 67
REMARK SMILES IDX 42 68 43 69 47 70 50 71 44 72 45 73 48 74 46 75 72 76 73 77
REMARK SMILES IDX 81 78 74 79 75 80 79 81 82 82 76 83 77 84 80 85 78 86 57 87
REMARK SMILES IDX 58 88 66 89 59 90 60 91 64 92 67 93 61 94 62 95 65 96 63 97
REMARK H PARENT 5 15 11 22 87 50 55 61
REMARK Flexibility Score: inf
ROOT
ATOM      1  C   UNL A   1      35.912  21.708  25.498  1.00  0.00     0.188 C 
ENDROOT
BRANCH   1   2
ATOM      2  O   UNL A   1      34.887  22.652  25.203  1.00  0.00    -0.376 OA
BRANCH   2   3
ATOM      3  C   UNL A   1      35.289  24.014  25.170  1.00  0.00     0.202 C 
BRANCH   3   4
ATOM      4  C   UNL A   1      34.424  24.892  24.266  1.00  0.00     0.261 C 
BRANCH   4   5
ATOM      5  O   UNL A   1      34.000  26.095  24.920  1.00  0.00    -0.460 OA
BRANCH   5   6
ATOM      6  C   UNL A   1      33.763  27.185  24.154  1.00  0.00     0.334 C 
ATOM      7  O   UNL A   1      34.091  27.339  22.990  1.00  0.00    -0.247 OA
BRANCH   6   8
ATOM      8  C   UNL A   1      33.173  28.245  25.037  1.00  0.00     0.042 C 
ATOM      9  C   UNL A   1      31.705  30.160  25.568  1.00  0.00     0.051 C 
ATOM     10  C   UNL A   1      32.049  28.957  24.746  1.00  0.00     0.024 C 
ATOM     11  C   UNL A   1      33.985  28.380  26.309  1.00  0.00     0.053 C 
BRANCH  10  12
ATOM     12  C   UNL A   1      31.114  28.495  23.650  1.00  0.00     0.247 C 
ATOM     13  O   UNL A   1      30.978  29.144  22.613  1.00  0.00    -0.270 OA
ATOM     14  N   UNL A   1      30.455  27.303  23.632  1.00  0.00    -0.350 N 
ATOM     15  H   UNL A   1      30.275  26.993  22.716  1.00  0.00     0.164 HD
BRANCH  14  16
ATOM     16  C   UNL A   1      29.948  26.368  24.634  1.00  0.00     0.079 C 
ATOM     17  C   UNL A   1      28.463  26.121  24.343  1.00  0.00     0.031 C 
BRANCH  16  18
ATOM     18  C   UNL A   1      30.698  25.022  24.619  1.00  0.00     0.027 C 
BRANCH  18  19
ATOM     19  C   UNL A   1      30.307  24.017  25.711  1.00  0.00     0.030 C 
BRANCH  19  20
ATOM     20  C   UNL A   1      31.373  23.721  26.758  1.00  0.00     0.156 C 
BRANCH  20  21
ATOM     21  O   UNL A   1      31.016  22.617  27.575  1.00  0.00    -0.396 OA
ATOM     22  H   UNL A   1      30.588  22.939  28.384  1.00  0.00     0.210 HD
ENDBRANCH  20  21
ENDBRANCH  19  20
ENDBRANCH  18  19
ENDBRANCH  16  18
ENDBRANCH  14  16
ENDBRANCH  10  12
ENDBRANCH   6   8
ENDBRANCH   5   6
ENDBRANCH   4   5
ENDBRANCH   3   4
ENDBRANCH   2   3
ENDBRANCH   1   2
BRANCH   1  23
ATOM     23  C   UNL A   1      37.302  22.039  24.909  1.00  0.00     0.188 C 
BRANCH  23  24
ATOM     24  O   UNL A   1      38.407  22.294  25.767  1.00  0.00    -0.377 OA
BRANCH  24  25
ATOM     25  C   UNL A   1      39.253  21.216  26.150  1.00  0.00     0.188 C 
BRANCH  25  26
ATOM     26  C   UNL A   1      40.788  21.380  26.081  1.00  0.00     0.188 C 
BRANCH  26  27
ATOM     27  O   UNL A   1      41.515  20.187  26.329  1.00  0.00    -0.376 OA
BRANCH  27  28
ATOM     28  C   UNL A   1      42.929  20.266  26.275  1.00  0.00     0.202 C 
BRANCH  28  29
ATOM     29  C   UNL A   1      43.517  21.472  25.532  1.00  0.00     0.261 C 
BRANCH  29  30
ATOM     30  O   UNL A   1      43.644  22.683  26.293  1.00  0.00    -0.460 OA
BRANCH  30  31
ATOM     31  C   UNL A   1      43.615  23.858  25.628  1.00  0.00     0.338 C 
ATOM     32  O   UNL A   1      43.823  24.048  24.443  1.00  0.00    -0.246 OA
BRANCH  31  33
ATOM     33  C   UNL A   1      43.093  24.869  26.571  1.00  0.00     0.060 A 
ATOM     34  C   UNL A   1      43.613  26.171  26.551  1.00  0.00     0.016 A 
ATOM     35  C   UNL A   1      42.048  24.535  27.434  1.00  0.00     0.016 A 
ATOM     36  C   UNL A   1      43.088  27.143  27.404  1.00  0.00     0.010 A 
ATOM     37  C   UNL A   1      41.543  25.501  28.305  1.00  0.00     0.010 A 
ATOM     38  C   UNL A   1      42.074  26.803  28.309  1.00  0.00    -0.014 A 
BRANCH  38  39
ATOM     39  C   UNL A   1      41.687  27.735  29.393  1.00  0.00     0.031 A 
ATOM     40  C   UNL A   1      42.444  27.667  30.688  1.00  0.00     0.074 A 
ATOM     41  C   UNL A   1      40.671  28.603  29.246  1.00  0.00     0.049 A 
ATOM     42  N   UNL A   1      42.226  28.288  31.817  1.00  0.00    -0.248 NA
ATOM     43  C   UNL A   1      43.609  26.766  30.707  1.00  0.00     0.031 C 
ATOM     44  C   UNL A   1      39.894  28.798  28.025  1.00  0.00     0.029 A 
ATOM     45  N   UNL A   1      40.111  29.474  30.148  1.00  0.00    -0.354 N 
ATOM     46  C   UNL A   1      43.219  27.848  32.683  1.00  0.00     0.074 A 
ATOM     47  C   UNL A   1      44.021  26.887  31.960  1.00  0.00     0.031 C 
ATOM     48  C   UNL A   1      38.944  29.720  28.258  1.00  0.00     0.029 A 
ATOM     49  C   UNL A   1      39.021  30.147  29.656  1.00  0.00     0.049 A 
ATOM     50  H   UNL A   1      40.457  29.603  31.060  1.00  0.00     0.167 HD
ATOM     51  C   UNL A   1      43.445  28.221  33.964  1.00  0.00     0.037 A 
ATOM     52  C   UNL A   1      38.167  30.987  30.276  1.00  0.00     0.037 A 
ATOM     53  C   UNL A   1      42.632  29.165  34.685  1.00  0.00     0.049 A 
ATOM     54  C   UNL A   1      38.374  31.302  31.738  1.00  0.00     0.074 A 
ATOM     55  C   UNL A   1      42.777  29.614  35.985  1.00  0.00     0.029 A 
ATOM     56  N   UNL A   1      41.511  29.796  34.166  1.00  0.00    -0.354 N 
ATOM     57  N   UNL A   1      39.324  30.902  32.549  1.00  0.00    -0.248 NA
ATOM     58  C   UNL A   1      37.382  32.184  32.372  1.00  0.00     0.031 C 
ATOM     59  C   UNL A   1      41.711  30.470  36.272  1.00  0.00     0.029 A 
ATOM     60  C   UNL A   1      40.936  30.606  35.131  1.00  0.00     0.049 A 
ATOM     61  H   UNL A   1      41.174  29.684  33.248  1.00  0.00     0.167 HD
ATOM     62  C   UNL A   1      39.065  31.507  33.773  1.00  0.00     0.074 A 
ATOM     63  C   UNL A   1      37.874  32.310  33.597  1.00  0.00     0.031 C 
ATOM     64  C   UNL A   1      39.754  31.408  34.937  1.00  0.00     0.037 A 
BRANCH  51  65
ATOM     65  C   UNL A   1      44.597  27.573  34.676  1.00  0.00     0.064 A 
ATOM     66  C   UNL A   1      45.894  28.106  34.617  1.00  0.00     0.173 A 
ATOM     67  C   UNL A   1      44.400  26.411  35.436  1.00  0.00     0.173 A 
ATOM     68  F   UNL A   1      46.141  29.207  33.890  1.00  0.00    -0.203 F 
ATOM     69  C   UNL A   1      46.956  27.479  35.265  1.00  0.00     0.198 A 
ATOM     70  C   UNL A   1      45.458  25.807  36.109  1.00  0.00     0.198 A 
ATOM     71  F   UNL A   1      43.180  25.861  35.528  1.00  0.00    -0.203 F 
ATOM     72  F   UNL A   1      48.197  27.974  35.146  1.00  0.00    -0.200 F 
ATOM     73  C   UNL A   1      46.735  26.335  36.015  1.00  0.00     0.200 A 
ATOM     74  F   UNL A   1      45.240  24.708  36.846  1.00  0.00    -0.200 F 
ATOM     75  F   UNL A   1      47.758  25.736  36.641  1.00  0.00    -0.200 F 
ENDBRANCH  51  65
BRANCH  52  76
ATOM     76  C   UNL A   1      37.027  31.582  29.529  1.00  0.00     0.064 A 
ATOM     77  C   UNL A   1      37.026  32.938  29.176  1.00  0.00     0.173 A 
ATOM     78  C   UNL A   1      35.904  30.817  29.177  1.00  0.00     0.173 A 
ATOM     79  F   UNL A   1      38.061  33.719  29.516  1.00  0.00    -0.203 F 
ATOM     80  C   UNL A   1      35.940  33.510  28.515  1.00  0.00     0.198 A 
ATOM     81  C   UNL A   1      34.833  31.383  28.490  1.00  0.00     0.198 A 
ATOM     82  F   UNL A   1      35.850  29.516  29.498  1.00  0.00    -0.203 F 
ATOM     83  F   UNL A   1      35.945  34.821  28.235  1.00  0.00    -0.200 F 
ATOM     84  C   UNL A   1      34.848  32.731  28.167  1.00  0.00     0.200 A 
ATOM     85  F   UNL A   1      33.783  30.624  28.147  1.00  0.00    -0.200 F 
ATOM     86  F   UNL A   1      33.804  33.281  27.530  1.00  0.00    -0.200 F 
ENDBRANCH  52  76
BRANCH  64  87
ATOM     87  C   UNL A   1      39.268  32.221  36.104  1.00  0.00     0.064 A 
ATOM     88  C   UNL A   1      39.712  33.533  36.328  1.00  0.00     0.173 A 
ATOM     89  C   UNL A   1      38.300  31.699  36.977  1.00  0.00     0.173 A 
ATOM     90  F   UNL A   1      40.647  34.074  35.532  1.00  0.00    -0.203 F 
ATOM     91  C   UNL A   1      39.220  34.283  37.393  1.00  0.00     0.198 A 
ATOM     92  C   UNL A   1      37.786  32.463  38.020  1.00  0.00     0.198 A 
ATOM     93  F   UNL A   1      37.835  30.453  36.803  1.00  0.00    -0.203 F 
ATOM     94  F   UNL A   1      39.691  35.518  37.614  1.00  0.00    -0.200 F 
ATOM     95  C   UNL A   1      38.252  33.752  38.232  1.00  0.00     0.200 A 
ATOM     96  F   UNL A   1      36.838  31.954  38.819  1.00  0.00    -0.200 F 
ATOM     97  F   UNL A   1      37.769  34.481  39.249  1.00  0.00    -0.200 F 
ENDBRANCH  64  87
ENDBRANCH  38  39
ENDBRANCH  31  33
ENDBRANCH  30  31
ENDBRANCH  29  30
ENDBRANCH  28  29
ENDBRANCH  27  28
ENDBRANCH  26  27
ENDBRANCH  25  26
ENDBRANCH  24  25
ENDBRANCH  23  24
ENDBRANCH   1  23
TORSDOF 26
ENDMDL
MODEL 3
REMARK VINA RESULT:      -8.9      4.504      7.055
REMARK SMILES C/C(C(=O)N[C@@H](C)CCCO)=C(\C)C(=O)OCCOCCOCCOCCOC(=O)c1ccc(-c2c3nc(c(-c4c(F)c(F)c(F)c(F)c4F)c4ccc([nH]4)c(-c4c(F)c(F)c(F)c(F)c4F)c4nc(c(-c5c(F)c(F)c(F)c(F)c5F)c5ccc2[nH]5)C=C4)C=C3)cc1
REMARK SMILES IDX 20 1 19 2 18 3 17 4 16 5 14 6 15 7 12 8 1 9 2 10 13 11 3 12
REMARK SMILES IDX 4 13 5 14 6 16 7 17 8 18 9 19 10 20 11 21 21 23 22 24 23 25
REMARK SMILES IDX 24 26 25 27 26 28 27 29 28 30 29 31 30 32 31 33 32 34 93 35
REMARK SMILES IDX 33 36 92 37 34 38 35 39 36 40 86 41 37 42 91 43 85 44 87 45
REMARK SMILES IDX 38 46 90 47 84 48 83 49 39 51 71 52 51 53 70 54 52 55 55 56
REMARK SMILES IDX 69 57 88 58 53 59 54 60 68 62 89 63 56 64 40 65 41 66 49 67
REMARK SMILES IDX 42 68 43 69 47 70 50 71 44 72 45 73 48 74 46 75 72 76 73 77
REMARK SMILES IDX 81 78 74 79 75 80 79 81 82 82 76 83 77 84 80 85 78 86 57 87
REMARK SMILES IDX 58 88 66 89 59 90 60 91 64 92 67 93 61 94 62 95 65 96 63 97
REMARK H PARENT 5 15 11 22 87 50 55 61
REMARK Flexibility Score: inf
ROOT
ATOM      1  C   UNL A   1      34.536  21.938  27.183  1.00  0.00     0.188 C 
ENDROOT
BRANCH   1   2
ATOM      2  O   UNL A   1      33.423  22.713  27.619  1.00  0.00    -0.376 OA
BRANCH   2   3
ATOM      3  C   UNL A   1      32.265  22.650  26.798  1.00  0.00     0.202 C 
BRANCH   3   4
ATOM      4  C   UNL A   1      31.385  23.898  26.872  1.00  0.00     0.261 C 
BRANCH   4   5
ATOM      5  O   UNL A   1      30.660  24.126  25.657  1.00  0.00    -0.460 OA
BRANCH   5   6
ATOM      6  C   UNL A   1      30.730  25.355  25.097  1.00  0.00     0.334 C 
ATOM      7  O   UNL A   1      30.066  26.330  25.401  1.00  0.00    -0.247 OA
BRANCH   6   8
ATOM      8  C   UNL A   1      31.652  25.266  23.917  1.00  0.00     0.042 C 
ATOM      9  C   UNL A   1      33.650  25.847  22.583  1.00  0.00     0.051 C 
ATOM     10  C   UNL A   1      32.922  25.759  23.888  1.00  0.00     0.024 C 
ATOM     11  C   UNL A   1      30.982  24.521  22.781  1.00  0.00     0.053 C 
BRANCH  10  12
ATOM     12  C   UNL A   1      33.622  26.145  25.174  1.00  0.00     0.247 C 
ATOM     13  O   UNL A   1      34.364  25.354  25.756  1.00  0.00    -0.270 OA
ATOM     14  N   UNL A   1      33.614  27.389  25.728  1.00  0.00    -0.350 N 
ATOM     15  H   UNL A   1      34.424  27.562  26.258  1.00  0.00     0.164 HD
BRANCH  14  16
ATOM     16  C   UNL A   1      32.704  28.532  25.731  1.00  0.00     0.079 C 
ATOM     17  C   UNL A   1      33.321  29.626  26.609  1.00  0.00     0.031 C 
BRANCH  16  18
ATOM     18  C   UNL A   1      32.456  29.094  24.319  1.00  0.00     0.027 C 
BRANCH  18  19
ATOM     19  C   UNL A   1      30.989  29.318  23.927  1.00  0.00     0.030 C 
BRANCH  19  20
ATOM     20  C   UNL A   1      30.705  29.418  22.435  1.00  0.00     0.156 C 
BRANCH  20  21
ATOM     21  O   UNL A   1      29.746  28.460  22.015  1.00  0.00    -0.396 OA
ATOM     22  H   UNL A   1      29.184  28.215  22.767  1.00  0.00     0.210 HD
ENDBRANCH  20  21
ENDBRANCH  19  20
ENDBRANCH  18  19
ENDBRANCH  16  18
ENDBRANCH  14  16
ENDBRANCH  10  12
ENDBRANCH   6   8
ENDBRANCH   5   6
ENDBRANCH   4   5
ENDBRANCH   3   4
ENDBRANCH   2   3
ENDBRANCH   1   2
BRANCH   1  23
ATOM     23  C   UNL A   1      34.247  20.965  26.018  1.00  0.00     0.188 C 
BRANCH  23  24
ATOM     24  O   UNL A   1      34.772  21.217  24.721  1.00  0.00    -0.377 OA
BRANCH  24  25
ATOM     25  C   UNL A   1      35.737  22.248  24.549  1.00  0.00     0.188 C 
BRANCH  25  26
ATOM     26  C   UNL A   1      37.206  21.884  24.240  1.00  0.00     0.188 C 
BRANCH  26  27
ATOM     27  O   UNL A   1      37.592  20.590  24.678  1.00  0.00    -0.376 OA
BRANCH  27  28
ATOM     28  C   UNL A   1      38.415  20.513  25.829  1.00  0.00     0.202 C 
BRANCH  28  29
ATOM     29  C   UNL A   1      39.597  19.538  25.759  1.00  0.00     0.261 C 
BRANCH  29  30
ATOM     30  O   UNL A   1      40.531  19.598  26.848  1.00  0.00    -0.460 OA
BRANCH  30  31
ATOM     31  C   UNL A   1      41.810  19.936  26.572  1.00  0.00     0.338 C 
ATOM     32  O   UNL A   1      42.678  19.230  26.089  1.00  0.00    -0.246 OA
BRANCH  31  33
ATOM     33  C   UNL A   1      41.923  21.392  26.789  1.00  0.00     0.060 A 
ATOM     34  C   UNL A   1      41.609  22.276  25.746  1.00  0.00     0.016 A 
ATOM     35  C   UNL A   1      42.287  21.879  28.046  1.00  0.00     0.016 A 
ATOM     36  C   UNL A   1      41.666  23.655  25.961  1.00  0.00     0.010 A 
ATOM     37  C   UNL A   1      42.370  23.256  28.250  1.00  0.00     0.010 A 
ATOM     38  C   UNL A   1      42.079  24.150  27.204  1.00  0.00    -0.014 A 
BRANCH  38  39
ATOM     39  C   UNL A   1      42.398  25.587  27.376  1.00  0.00     0.031 A 
ATOM     40  C   UNL A   1      43.704  26.090  26.833  1.00  0.00     0.074 A 
ATOM     41  C   UNL A   1      41.564  26.420  28.021  1.00  0.00     0.049 A 
ATOM     42  N   UNL A   1      44.262  27.266  26.954  1.00  0.00    -0.248 NA
ATOM     43  C   UNL A   1      44.490  25.126  26.045  1.00  0.00     0.031 C 
ATOM     44  C   UNL A   1      40.250  26.063  28.549  1.00  0.00     0.029 A 
ATOM     45  N   UNL A   1      41.716  27.743  28.356  1.00  0.00    -0.354 N 
ATOM     46  C   UNL A   1      45.465  27.182  26.267  1.00  0.00     0.074 A 
ATOM     47  C   UNL A   1      45.572  25.833  25.757  1.00  0.00     0.031 C 
ATOM     48  C   UNL A   1      39.720  27.139  29.157  1.00  0.00     0.029 A 
ATOM     49  C   UNL A   1      40.676  28.245  29.097  1.00  0.00     0.049 A 
ATOM     50  H   UNL A   1      42.496  28.281  28.089  1.00  0.00     0.167 HD
ATOM     51  C   UNL A   1      46.393  28.148  26.072  1.00  0.00     0.037 A 
ATOM     52  C   UNL A   1      40.531  29.450  29.685  1.00  0.00     0.037 A 
ATOM     53  C   UNL A   1      46.290  29.483  26.598  1.00  0.00     0.049 A 
ATOM     54  C   UNL A   1      41.631  30.474  29.548  1.00  0.00     0.074 A 
ATOM     55  C   UNL A   1      47.174  30.538  26.456  1.00  0.00     0.029 A 
ATOM     56  N   UNL A   1      45.241  29.943  27.381  1.00  0.00    -0.354 N 
ATOM     57  N   UNL A   1      42.758  30.401  28.881  1.00  0.00    -0.248 NA
ATOM     58  C   UNL A   1      41.439  31.751  30.252  1.00  0.00     0.031 C 
ATOM     59  C   UNL A   1      46.689  31.616  27.201  1.00  0.00     0.029 A 
ATOM     60  C   UNL A   1      45.471  31.256  27.756  1.00  0.00     0.049 A 
ATOM     61  H   UNL A   1      44.449  29.413  27.632  1.00  0.00     0.167 HD
ATOM     62  C   UNL A   1      43.390  31.626  29.057  1.00  0.00     0.074 A 
ATOM     63  C   UNL A   1      42.518  32.429  29.885  1.00  0.00     0.031 C 
ATOM     64  C   UNL A   1      44.586  32.047  28.573  1.00  0.00     0.037 A 
BRANCH  51  65
ATOM     65  C   UNL A   1      47.618  27.776  25.288  1.00  0.00     0.064 A 
ATOM     66  C   UNL A   1      47.636  27.817  23.885  1.00  0.00     0.173 A 
ATOM     67  C   UNL A   1      48.792  27.385  25.948  1.00  0.00     0.173 A 
ATOM     68  F   UNL A   1      46.534  28.169  23.205  1.00  0.00    -0.203 F 
ATOM     69  C   UNL A   1      48.774  27.447  23.172  1.00  0.00     0.198 A 
ATOM     70  C   UNL A   1      49.938  27.048  25.232  1.00  0.00     0.198 A 
ATOM     71  F   UNL A   1      48.830  27.330  27.287  1.00  0.00    -0.203 F 
ATOM     72  F   UNL A   1      48.750  27.438  21.832  1.00  0.00    -0.200 F 
ATOM     73  C   UNL A   1      49.926  27.070  23.847  1.00  0.00     0.200 A 
ATOM     74  F   UNL A   1      51.054  26.696  25.886  1.00  0.00    -0.200 F 
ATOM     75  F   UNL A   1      51.021  26.718  23.160  1.00  0.00    -0.200 F 
ENDBRANCH  51  65
BRANCH  52  76
ATOM     76  C   UNL A   1      39.307  29.757  30.472  1.00  0.00     0.064 A 
ATOM     77  C   UNL A   1      38.148  30.234  29.845  1.00  0.00     0.173 A 
ATOM     78  C   UNL A   1      39.278  29.607  31.867  1.00  0.00     0.173 A 
ATOM     79  F   UNL A   1      38.135  30.423  28.517  1.00  0.00    -0.203 F 
ATOM     80  C   UNL A   1      37.013  30.565  30.583  1.00  0.00     0.198 A 
ATOM     81  C   UNL A   1      38.133  29.910  32.600  1.00  0.00     0.198 A 
ATOM     82  F   UNL A   1      40.362  29.163  32.518  1.00  0.00    -0.203 F 
ATOM     83  F   UNL A   1      35.936  31.066  29.962  1.00  0.00    -0.200 F 
ATOM     84  C   UNL A   1      37.004  30.396  31.959  1.00  0.00     0.200 A 
ATOM     85  F   UNL A   1      38.125  29.737  33.929  1.00  0.00    -0.200 F 
ATOM     86  F   UNL A   1      35.912  30.714  32.668  1.00  0.00    -0.200 F 
ENDBRANCH  52  76
BRANCH  64  87
ATOM     87  C   UNL A   1      45.005  33.456  28.886  1.00  0.00     0.064 A 
ATOM     88  C   UNL A   1      45.819  33.758  29.988  1.00  0.00     0.173 A 
ATOM     89  C   UNL A   1      44.636  34.511  28.036  1.00  0.00     0.173 A 
ATOM     90  F   UNL A   1      46.189  32.789  30.839  1.00  0.00    -0.203 F 
ATOM     91  C   UNL A   1      46.229  35.065  30.238  1.00  0.00     0.198 A 
ATOM     92  C   UNL A   1      45.074  35.811  28.270  1.00  0.00     0.198 A 
ATOM     93  F   UNL A   1      43.865  34.276  26.963  1.00  0.00    -0.203 F 
ATOM     94  F   UNL A   1      46.969  35.337  31.322  1.00  0.00    -0.200 F 
ATOM     95  C   UNL A   1      45.865  36.088  29.375  1.00  0.00     0.200 A 
ATOM     96  F   UNL A   1      44.736  36.794  27.426  1.00  0.00    -0.200 F 
ATOM     97  F   UNL A   1      46.272  37.344  29.611  1.00  0.00    -0.200 F 
ENDBRANCH  64  87
ENDBRANCH  38  39
ENDBRANCH  31  33
ENDBRANCH  30  31
ENDBRANCH  29  30
ENDBRANCH  28  29
ENDBRANCH  27  28
ENDBRANCH  26  27
ENDBRANCH  25  26
ENDBRANCH  24  25
ENDBRANCH  23  24
ENDBRANCH   1  23
TORSDOF 26
ENDMDL
