MODEL 1
REMARK VINA RESULT:      -9.9      0.000      0.000
REMARK SMILES O=C(NCc1ccc(C(=O)OCCOCCOCCOCCOC(=O)c2ccc(-c3c4nc(c(-c5c(F)c(F)c(F)c(F)c5F)c5ccc([nH]5)c(-c5c(F)c(F)c(F)c(F)c5F)c5nc(c(-c6c(F)c(F)c(F)c(F)c6F)c6ccc3[nH]6)C=C5)C=C4)cc2)cc1)Nc1ccccc1Br
REMARK SMILES IDX 16 1 15 2 14 3 13 4 12 5 11 6 9 7 10 8 8 9 5 10 6 11 90 12
REMARK SMILES IDX 7 13 89 14 4 15 3 16 1 17 2 18 91 19 92 22 93 23 97 24 94 25
REMARK SMILES IDX 96 26 98 27 95 28 17 29 18 30 19 31 20 32 21 33 22 34 23 35
REMARK SMILES IDX 24 36 25 37 26 38 27 39 88 40 28 41 87 42 29 43 30 44 31 45
REMARK SMILES IDX 81 46 32 47 86 48 80 49 82 50 33 51 85 52 79 53 78 54 34 56
REMARK SMILES IDX 66 57 46 58 65 59 47 60 50 61 64 62 83 63 48 64 49 65 63 67
REMARK SMILES IDX 84 68 51 69 35 70 36 71 44 72 37 73 38 74 42 75 45 76 39 77
REMARK SMILES IDX 40 78 43 79 41 80 67 81 68 82 76 83 69 84 70 85 74 86 77 87
REMARK SMILES IDX 71 88 72 89 75 90 73 91 52 92 53 93 61 94 54 95 55 96 59 97
REMARK SMILES IDX 62 98 56 99 57 100 60 101 58 102
REMARK H PARENT 3 20 91 21 82 55 50 66
REMARK Flexibility Score: inf
ROOT
ATOM      1  C   UNL A   1      35.145  31.642  29.373  1.00  0.00     0.188 C 
ENDROOT
BRANCH   1   2
ATOM      2  C   UNL A   1      35.642  30.948  28.087  1.00  0.00     0.188 C 
BRANCH   2   3
ATOM      3  O   UNL A   1      34.595  30.542  27.222  1.00  0.00    -0.376 OA
BRANCH   3   4
ATOM      4  C   UNL A   1      33.260  30.867  27.553  1.00  0.00     0.202 C 
BRANCH   4   5
ATOM      5  C   UNL A   1      32.198  30.936  26.442  1.00  0.00     0.261 C 
BRANCH   5   6
ATOM      6  O   UNL A   1      31.425  29.752  26.227  1.00  0.00    -0.460 OA
BRANCH   6   7
ATOM      7  C   UNL A   1      30.868  29.604  25.006  1.00  0.00     0.338 C 
ATOM      8  O   UNL A   1      30.525  30.498  24.253  1.00  0.00    -0.246 OA
BRANCH   7   9
ATOM      9  C   UNL A   1      30.925  28.170  24.630  1.00  0.00     0.060 A 
ATOM     10  C   UNL A   1      30.966  25.484  23.818  1.00  0.00    -0.029 A 
ATOM     11  C   UNL A   1      30.914  26.512  22.865  1.00  0.00     0.006 A 
ATOM     12  C   UNL A   1      31.085  25.817  25.177  1.00  0.00     0.006 A 
ATOM     13  C   UNL A   1      30.879  27.846  23.270  1.00  0.00     0.016 A 
ATOM     14  C   UNL A   1      31.068  27.156  25.584  1.00  0.00     0.016 A 
BRANCH  10  15
ATOM     15  C   UNL A   1      30.801  24.049  23.391  1.00  0.00     0.153 C 
BRANCH  15  16
ATOM     16  N   UNL A   1      31.736  23.653  22.366  1.00  0.00    -0.334 N 
ATOM     17  O   UNL A   1      33.506  22.712  21.415  1.00  0.00    -0.248 OA
ATOM     18  C   UNL A   1      32.928  23.007  22.458  1.00  0.00     0.319 C 
ATOM     19  N   UNL A   1      33.354  22.691  23.718  1.00  0.00    -0.307 N 
ATOM     20  H   UNL A   1      31.465  23.890  21.449  1.00  0.00     0.165 HD
ATOM     21  H   UNL A   1      32.711  22.814  24.454  1.00  0.00     0.171 HD
BRANCH  19  22
ATOM     22  C   UNL A   1      34.639  22.204  24.056  1.00  0.00     0.057 A 
ATOM     23  C   UNL A   1      35.710  23.059  23.743  1.00  0.00     0.027 A 
ATOM     24  C   UNL A   1      34.924  20.961  24.644  1.00  0.00     0.041 A 
ATOM     25  C   UNL A   1      37.021  22.730  24.093  1.00  0.00     0.002 A 
ATOM     26  C   UNL A   1      36.242  20.640  25.001  1.00  0.00     0.018 A 
ATOM     27  Br  UNL A   1      33.666  19.536  24.789  1.00  0.00    -0.049 Br
ATOM     28  C   UNL A   1      37.285  21.529  24.741  1.00  0.00     0.001 A 
ENDBRANCH  19  22
ENDBRANCH  15  16
ENDBRANCH  10  15
ENDBRANCH   7   9
ENDBRANCH   6   7
ENDBRANCH   5   6
ENDBRANCH   4   5
ENDBRANCH   3   4
ENDBRANCH   2   3
ENDBRANCH   1   2
BRANCH   1  29
ATOM     29  O   UNL A   1      35.513  32.997  29.588  1.00  0.00    -0.377 OA
BRANCH  29  30
ATOM     30  C   UNL A   1      35.789  33.846  28.475  1.00  0.00     0.188 C 
BRANCH  30  31
ATOM     31  C   UNL A   1      34.698  34.711  27.795  1.00  0.00     0.188 C 
BRANCH  31  32
ATOM     32  O   UNL A   1      34.187  35.761  28.595  1.00  0.00    -0.376 OA
BRANCH  32  33
ATOM     33  C   UNL A   1      32.871  35.634  29.100  1.00  0.00     0.202 C 
BRANCH  33  34
ATOM     34  C   UNL A   1      32.533  36.428  30.368  1.00  0.00     0.261 C 
BRANCH  34  35
ATOM     35  O   UNL A   1      32.376  35.658  31.571  1.00  0.00    -0.460 OA
BRANCH  35  36
ATOM     36  C   UNL A   1      33.100  36.029  32.645  1.00  0.00     0.338 C 
ATOM     37  O   UNL A   1      32.808  36.866  33.486  1.00  0.00    -0.246 OA
BRANCH  36  38
ATOM     38  C   UNL A   1      34.251  35.110  32.742  1.00  0.00     0.060 A 
ATOM     39  C   UNL A   1      34.060  33.818  33.254  1.00  0.00     0.016 A 
ATOM     40  C   UNL A   1      35.514  35.521  32.310  1.00  0.00     0.016 A 
ATOM     41  C   UNL A   1      35.143  32.944  33.362  1.00  0.00     0.010 A 
ATOM     42  C   UNL A   1      36.600  34.652  32.439  1.00  0.00     0.010 A 
ATOM     43  C   UNL A   1      36.425  33.372  32.995  1.00  0.00    -0.014 A 
BRANCH  43  44
ATOM     44  C   UNL A   1      37.614  32.565  33.360  1.00  0.00     0.031 A 
ATOM     45  C   UNL A   1      38.315  32.874  34.653  1.00  0.00     0.074 A 
ATOM     46  C   UNL A   1      38.064  31.579  32.564  1.00  0.00     0.049 A 
ATOM     47  N   UNL A   1      39.416  32.370  35.147  1.00  0.00    -0.248 NA
ATOM     48  C   UNL A   1      37.687  33.898  35.503  1.00  0.00     0.031 C 
ATOM     49  C   UNL A   1      37.447  31.157  31.310  1.00  0.00     0.029 A 
ATOM     50  N   UNL A   1      39.163  30.765  32.693  1.00  0.00    -0.354 N 
ATOM     51  C   UNL A   1      39.618  33.022  36.357  1.00  0.00     0.074 A 
ATOM     52  C   UNL A   1      38.544  33.980  36.508  1.00  0.00     0.031 C 
ATOM     53  C   UNL A   1      38.186  30.170  30.772  1.00  0.00     0.029 A 
ATOM     54  C   UNL A   1      39.348  29.922  31.625  1.00  0.00     0.049 A 
ATOM     55  H   UNL A   1      39.760  30.784  33.475  1.00  0.00     0.167 HD
ATOM     56  C   UNL A   1      40.607  32.834  37.263  1.00  0.00     0.037 A 
ATOM     57  C   UNL A   1      40.359  29.071  31.357  1.00  0.00     0.037 A 
ATOM     58  C   UNL A   1      41.677  31.884  37.103  1.00  0.00     0.049 A 
ATOM     59  C   UNL A   1      41.496  28.940  32.341  1.00  0.00     0.074 A 
ATOM     60  C   UNL A   1      42.718  31.605  37.969  1.00  0.00     0.029 A 
ATOM     61  N   UNL A   1      41.848  31.068  35.994  1.00  0.00    -0.354 N 
ATOM     62  N   UNL A   1      41.669  29.539  33.495  1.00  0.00    -0.248 NA
ATOM     63  C   UNL A   1      42.578  28.011  31.985  1.00  0.00     0.031 C 
ATOM     64  C   UNL A   1      43.555  30.667  37.357  1.00  0.00     0.029 A 
ATOM     65  C   UNL A   1      42.996  30.306  36.141  1.00  0.00     0.049 A 
ATOM     66  H   UNL A   1      41.243  31.033  35.218  1.00  0.00     0.167 HD
ATOM     67  C   UNL A   1      42.855  29.036  34.016  1.00  0.00     0.074 A 
ATOM     68  C   UNL A   1      43.353  28.071  33.057  1.00  0.00     0.031 C 
ATOM     69  C   UNL A   1      43.475  29.341  35.183  1.00  0.00     0.037 A 
BRANCH  56  70
ATOM     70  C   UNL A   1      40.598  33.699  38.490  1.00  0.00     0.064 A 
ATOM     71  C   UNL A   1      41.403  34.843  38.598  1.00  0.00     0.173 A 
ATOM     72  C   UNL A   1      39.746  33.395  39.563  1.00  0.00     0.173 A 
ATOM     73  F   UNL A   1      42.246  35.172  37.608  1.00  0.00    -0.203 F 
ATOM     74  C   UNL A   1      41.378  35.632  39.745  1.00  0.00     0.198 A 
ATOM     75  C   UNL A   1      39.697  34.206  40.694  1.00  0.00     0.198 A 
ATOM     76  F   UNL A   1      38.951  32.314  39.512  1.00  0.00    -0.203 F 
ATOM     77  F   UNL A   1      42.195  36.690  39.847  1.00  0.00    -0.200 F 
ATOM     78  C   UNL A   1      40.518  35.318  40.788  1.00  0.00     0.200 A 
ATOM     79  F   UNL A   1      38.855  33.909  41.694  1.00  0.00    -0.200 F 
ATOM     80  F   UNL A   1      40.488  36.085  41.887  1.00  0.00    -0.200 F 
ENDBRANCH  56  70
BRANCH  57  81
ATOM     81  C   UNL A   1      40.358  28.286  30.093  1.00  0.00     0.064 A 
ATOM     82  C   UNL A   1      39.587  27.121  29.965  1.00  0.00     0.173 A 
ATOM     83  C   UNL A   1      41.149  28.666  28.998  1.00  0.00     0.173 A 
ATOM     84  F   UNL A   1      38.835  26.699  30.992  1.00  0.00    -0.203 F 
ATOM     85  C   UNL A   1      39.624  26.357  28.800  1.00  0.00     0.198 A 
ATOM     86  C   UNL A   1      41.160  27.918  27.822  1.00  0.00     0.198 A 
ATOM     87  F   UNL A   1      41.911  29.767  29.069  1.00  0.00    -0.203 F 
ATOM     88  F   UNL A   1      38.921  25.219  28.726  1.00  0.00    -0.200 F 
ATOM     89  C   UNL A   1      40.406  26.759  27.727  1.00  0.00     0.200 A 
ATOM     90  F   UNL A   1      41.907  28.318  26.784  1.00  0.00    -0.200 F 
ATOM     91  F   UNL A   1      40.440  26.025  26.608  1.00  0.00    -0.200 F 
ENDBRANCH  57  81
BRANCH  69  92
ATOM     92  C   UNL A   1      44.735  28.592  35.519  1.00  0.00     0.064 A 
ATOM     93  C   UNL A   1      46.005  29.082  35.175  1.00  0.00     0.173 A 
ATOM     94  C   UNL A   1      44.671  27.385  36.234  1.00  0.00     0.173 A 
ATOM     95  F   UNL A   1      46.123  30.224  34.482  1.00  0.00    -0.203 F 
ATOM     96  C   UNL A   1      47.159  28.377  35.508  1.00  0.00     0.198 A 
ATOM     97  C   UNL A   1      45.828  26.703  36.597  1.00  0.00     0.198 A 
ATOM     98  F   UNL A   1      43.484  26.876  36.596  1.00  0.00    -0.203 F 
ATOM     99  F   UNL A   1      48.357  28.837  35.122  1.00  0.00    -0.200 F 
ATOM    100  C   UNL A   1      47.071  27.194  36.227  1.00  0.00     0.200 A 
ATOM    101  F   UNL A   1      45.741  25.570  37.308  1.00  0.00    -0.200 F 
ATOM    102  F   UNL A   1      48.183  26.522  36.554  1.00  0.00    -0.200 F 
ENDBRANCH  69  92
ENDBRANCH  43  44
ENDBRANCH  36  38
ENDBRANCH  35  36
ENDBRANCH  34  35
ENDBRANCH  33  34
ENDBRANCH  32  33
ENDBRANCH  31  32
ENDBRANCH  30  31
ENDBRANCH  29  30
ENDBRANCH   1  29
TORSDOF 23
ENDMDL
MODEL 2
REMARK VINA RESULT:      -9.4      7.490     12.090
REMARK SMILES O=C(NCc1ccc(C(=O)OCCOCCOCCOCCOC(=O)c2ccc(-c3c4nc(c(-c5c(F)c(F)c(F)c(F)c5F)c5ccc([nH]5)c(-c5c(F)c(F)c(F)c(F)c5F)c5nc(c(-c6c(F)c(F)c(F)c(F)c6F)c6ccc3[nH]6)C=C5)C=C4)cc2)cc1)Nc1ccccc1Br
REMARK SMILES IDX 16 1 15 2 14 3 13 4 12 5 11 6 9 7 10 8 8 9 5 10 6 11 90 12
REMARK SMILES IDX 7 13 89 14 4 15 3 16 1 17 2 18 91 19 92 22 93 23 97 24 94 25
REMARK SMILES IDX 96 26 98 27 95 28 17 29 18 30 19 31 20 32 21 33 22 34 23 35
REMARK SMILES IDX 24 36 25 37 26 38 27 39 88 40 28 41 87 42 29 43 30 44 31 45
REMARK SMILES IDX 81 46 32 47 86 48 80 49 82 50 33 51 85 52 79 53 78 54 34 56
REMARK SMILES IDX 66 57 46 58 65 59 47 60 50 61 64 62 83 63 48 64 49 65 63 67
REMARK SMILES IDX 84 68 51 69 35 70 36 71 44 72 37 73 38 74 42 75 45 76 39 77
REMARK SMILES IDX 40 78 43 79 41 80 67 81 68 82 76 83 69 84 70 85 74 86 77 87
REMARK SMILES IDX 71 88 72 89 75 90 73 91 52 92 53 93 61 94 54 95 55 96 59 97
REMARK SMILES IDX 62 98 56 99 57 100 60 101 58 102
REMARK H PARENT 3 20 91 21 82 55 50 66
REMARK Flexibility Score: inf
ROOT
ATOM      1  C   UNL A   1      38.950  28.226  28.761  1.00  0.00     0.188 C 
ENDROOT
BRANCH   1   2
ATOM      2  C   UNL A   1      38.903  29.715  29.164  1.00  0.00     0.188 C 
BRANCH   2   3
ATOM      3  O   UNL A   1      37.869  30.443  28.524  1.00  0.00    -0.376 OA
BRANCH   3   4
ATOM      4  C   UNL A   1      36.896  29.746  27.772  1.00  0.00     0.202 C 
BRANCH   4   5
ATOM      5  C   UNL A   1      35.404  29.963  28.074  1.00  0.00     0.261 C 
BRANCH   5   6
ATOM      6  O   UNL A   1      34.486  29.102  27.395  1.00  0.00    -0.460 OA
BRANCH   6   7
ATOM      7  C   UNL A   1      33.409  29.687  26.828  1.00  0.00     0.338 C 
ATOM      8  O   UNL A   1      33.009  30.820  27.031  1.00  0.00    -0.246 OA
BRANCH   7   9
ATOM      9  C   UNL A   1      32.900  28.801  25.752  1.00  0.00     0.060 A 
ATOM     10  C   UNL A   1      31.827  27.121  23.777  1.00  0.00    -0.029 A 
ATOM     11  C   UNL A   1      31.000  28.014  24.472  1.00  0.00     0.006 A 
ATOM     12  C   UNL A   1      33.210  27.139  24.019  1.00  0.00     0.006 A 
ATOM     13  C   UNL A   1      31.531  28.839  25.463  1.00  0.00     0.016 A 
ATOM     14  C   UNL A   1      33.747  27.979  25.001  1.00  0.00     0.016 A 
BRANCH  10  15
ATOM     15  C   UNL A   1      31.224  26.095  22.854  1.00  0.00     0.153 C 
BRANCH  15  16
ATOM     16  N   UNL A   1      32.210  25.380  22.080  1.00  0.00    -0.334 N 
ATOM     17  O   UNL A   1      33.564  23.745  21.437  1.00  0.00    -0.248 OA
ATOM     18  C   UNL A   1      32.801  24.175  22.296  1.00  0.00     0.319 C 
ATOM     19  N   UNL A   1      32.443  23.518  23.441  1.00  0.00    -0.307 N 
ATOM     20  H   UNL A   1      32.504  25.842  21.262  1.00  0.00     0.165 HD
ATOM     21  H   UNL A   1      31.683  23.883  23.950  1.00  0.00     0.171 HD
BRANCH  19  22
ATOM     22  C   UNL A   1      33.072  22.362  23.959  1.00  0.00     0.057 A 
ATOM     23  C   UNL A   1      32.370  21.158  23.773  1.00  0.00     0.027 A 
ATOM     24  C   UNL A   1      34.298  22.323  24.644  1.00  0.00     0.041 A 
ATOM     25  C   UNL A   1      32.917  19.936  24.171  1.00  0.00     0.002 A 
ATOM     26  C   UNL A   1      34.845  21.091  25.033  1.00  0.00     0.018 A 
ATOM     27  Br  UNL A   1      35.193  23.866  25.315  1.00  0.00    -0.049 Br
ATOM     28  C   UNL A   1      34.164  19.901  24.783  1.00  0.00     0.001 A 
ENDBRANCH  19  22
ENDBRANCH  15  16
ENDBRANCH  10  15
ENDBRANCH   7   9
ENDBRANCH   6   7
ENDBRANCH   5   6
ENDBRANCH   4   5
ENDBRANCH   3   4
ENDBRANCH   2   3
ENDBRANCH   1   2
BRANCH   1  29
ATOM     29  O   UNL A   1      40.195  27.548  28.845  1.00  0.00    -0.377 OA
BRANCH  29  30
ATOM     30  C   UNL A   1      40.294  26.184  28.436  1.00  0.00     0.188 C 
BRANCH  30  31
ATOM     31  C   UNL A   1      39.677  25.662  27.114  1.00  0.00     0.188 C 
BRANCH  31  32
ATOM     32  O   UNL A   1      40.022  24.330  26.782  1.00  0.00    -0.376 OA
BRANCH  32  33
ATOM     33  C   UNL A   1      40.333  23.440  27.837  1.00  0.00     0.202 C 
BRANCH  33  34
ATOM     34  C   UNL A   1      41.217  22.235  27.492  1.00  0.00     0.261 C 
BRANCH  34  35
ATOM     35  O   UNL A   1      42.616  22.508  27.316  1.00  0.00    -0.460 OA
BRANCH  35  36
ATOM     36  C   UNL A   1      43.027  22.881  26.087  1.00  0.00     0.338 C 
ATOM     37  O   UNL A   1      42.803  22.319  25.026  1.00  0.00    -0.246 OA
BRANCH  36  38
ATOM     38  C   UNL A   1      43.657  24.210  26.216  1.00  0.00     0.060 A 
ATOM     39  C   UNL A   1      43.740  25.045  25.093  1.00  0.00     0.016 A 
ATOM     40  C   UNL A   1      44.149  24.635  27.453  1.00  0.00     0.016 A 
ATOM     41  C   UNL A   1      44.345  26.298  25.199  1.00  0.00     0.010 A 
ATOM     42  C   UNL A   1      44.772  25.880  27.552  1.00  0.00     0.010 A 
ATOM     43  C   UNL A   1      44.902  26.704  26.420  1.00  0.00    -0.014 A 
BRANCH  43  44
ATOM     44  C   UNL A   1      45.782  27.896  26.479  1.00  0.00     0.031 A 
ATOM     45  C   UNL A   1      47.259  27.700  26.285  1.00  0.00     0.074 A 
ATOM     46  C   UNL A   1      45.284  29.124  26.699  1.00  0.00     0.049 A 
ATOM     47  N   UNL A   1      48.235  28.566  26.376  1.00  0.00    -0.248 NA
ATOM     48  C   UNL A   1      47.695  26.335  25.946  1.00  0.00     0.031 C 
ATOM     49  C   UNL A   1      43.869  29.448  26.859  1.00  0.00     0.029 A 
ATOM     50  N   UNL A   1      45.925  30.331  26.843  1.00  0.00    -0.354 N 
ATOM     51  C   UNL A   1      49.397  27.851  26.117  1.00  0.00     0.074 A 
ATOM     52  C   UNL A   1      49.010  26.474  25.898  1.00  0.00     0.031 C 
ATOM     53  C   UNL A   1      43.748  30.766  27.097  1.00  0.00     0.029 A 
ATOM     54  C   UNL A   1      45.080  31.369  27.145  1.00  0.00     0.049 A 
ATOM     55  H   UNL A   1      46.898  30.440  26.739  1.00  0.00     0.167 HD
ATOM     56  C   UNL A   1      50.673  28.304  26.063  1.00  0.00     0.037 A 
ATOM     57  C   UNL A   1      45.357  32.651  27.455  1.00  0.00     0.037 A 
ATOM     58  C   UNL A   1      51.052  29.673  26.290  1.00  0.00     0.049 A 
ATOM     59  C   UNL A   1      46.793  33.114  27.472  1.00  0.00     0.074 A 
ATOM     60  C   UNL A   1      52.314  30.238  26.242  1.00  0.00     0.029 A 
ATOM     61  N   UNL A   1      50.170  30.692  26.623  1.00  0.00    -0.354 N 
ATOM     62  N   UNL A   1      47.886  32.442  27.201  1.00  0.00    -0.248 NA
ATOM     63  C   UNL A   1      47.033  34.518  27.835  1.00  0.00     0.031 C 
ATOM     64  C   UNL A   1      52.206  31.583  26.608  1.00  0.00     0.029 A 
ATOM     65  C   UNL A   1      50.866  31.876  26.813  1.00  0.00     0.049 A 
ATOM     66  H   UNL A   1      49.195  30.590  26.710  1.00  0.00     0.167 HD
ATOM     67  C   UNL A   1      48.935  33.344  27.328  1.00  0.00     0.074 A 
ATOM     68  C   UNL A   1      48.346  34.617  27.686  1.00  0.00     0.031 C 
ATOM     69  C   UNL A   1      50.265  33.139  27.160  1.00  0.00     0.037 A 
BRANCH  56  70
ATOM     70  C   UNL A   1      51.754  27.301  25.782  1.00  0.00     0.064 A 
ATOM     71  C   UNL A   1      52.112  26.943  24.473  1.00  0.00     0.173 A 
ATOM     72  C   UNL A   1      52.464  26.711  26.839  1.00  0.00     0.173 A 
ATOM     73  F   UNL A   1      51.456  27.466  23.426  1.00  0.00    -0.203 F 
ATOM     74  C   UNL A   1      53.119  26.011  24.234  1.00  0.00     0.198 A 
ATOM     75  C   UNL A   1      53.495  25.806  26.595  1.00  0.00     0.198 A 
ATOM     76  F   UNL A   1      52.166  27.019  28.110  1.00  0.00    -0.203 F 
ATOM     77  F   UNL A   1      53.408  25.647  22.977  1.00  0.00    -0.200 F 
ATOM     78  C   UNL A   1      53.815  25.451  25.295  1.00  0.00     0.200 A 
ATOM     79  F   UNL A   1      54.175  25.277  27.622  1.00  0.00    -0.200 F 
ATOM     80  F   UNL A   1      54.791  24.562  25.062  1.00  0.00    -0.200 F 
ENDBRANCH  56  70
BRANCH  57  81
ATOM     81  C   UNL A   1      44.255  33.592  27.794  1.00  0.00     0.064 A 
ATOM     82  C   UNL A   1      43.668  33.591  29.069  1.00  0.00     0.173 A 
ATOM     83  C   UNL A   1      43.745  34.490  26.845  1.00  0.00     0.173 A 
ATOM     84  F   UNL A   1      44.100  32.732  30.004  1.00  0.00    -0.203 F 
ATOM     85  C   UNL A   1      42.601  34.435  29.372  1.00  0.00     0.198 A 
ATOM     86  C   UNL A   1      42.700  35.357  27.160  1.00  0.00     0.198 A 
ATOM     87  F   UNL A   1      44.264  34.528  25.609  1.00  0.00    -0.203 F 
ATOM     88  F   UNL A   1      42.024  34.373  30.579  1.00  0.00    -0.200 F 
ATOM     89  C   UNL A   1      42.122  35.322  28.419  1.00  0.00     0.200 A 
ATOM     90  F   UNL A   1      42.249  36.220  26.239  1.00  0.00    -0.200 F 
ATOM     91  F   UNL A   1      41.099  36.134  28.712  1.00  0.00    -0.200 F 
ENDBRANCH  57  81
BRANCH  69  92
ATOM     92  C   UNL A   1      51.177  34.326  27.310  1.00  0.00     0.064 A 
ATOM     93  C   UNL A   1      51.829  34.613  28.519  1.00  0.00     0.173 A 
ATOM     94  C   UNL A   1      51.434  35.164  26.212  1.00  0.00     0.173 A 
ATOM     95  F   UNL A   1      51.610  33.853  29.601  1.00  0.00    -0.203 F 
ATOM     96  C   UNL A   1      52.680  35.711  28.630  1.00  0.00     0.198 A 
ATOM     97  C   UNL A   1      52.313  36.237  26.318  1.00  0.00     0.198 A 
ATOM     98  F   UNL A   1      50.845  34.929  25.030  1.00  0.00    -0.203 F 
ATOM     99  F   UNL A   1      53.248  35.998  29.809  1.00  0.00    -0.200 F 
ATOM    100  C   UNL A   1      52.928  36.517  27.529  1.00  0.00     0.200 A 
ATOM    101  F   UNL A   1      52.566  37.002  25.247  1.00  0.00    -0.200 F 
ATOM    102  F   UNL A   1      53.754  37.566  27.636  1.00  0.00    -0.200 F 
ENDBRANCH  69  92
ENDBRANCH  43  44
ENDBRANCH  36  38
ENDBRANCH  35  36
ENDBRANCH  34  35
ENDBRANCH  33  34
ENDBRANCH  32  33
ENDBRANCH  31  32
ENDBRANCH  30  31
ENDBRANCH  29  30
ENDBRANCH   1  29
TORSDOF 23
ENDMDL
MODEL 3
REMARK VINA RESULT:      -9.2      4.959      8.480
REMARK SMILES O=C(NCc1ccc(C(=O)OCCOCCOCCOCCOC(=O)c2ccc(-c3c4nc(c(-c5c(F)c(F)c(F)c(F)c5F)c5ccc([nH]5)c(-c5c(F)c(F)c(F)c(F)c5F)c5nc(c(-c6c(F)c(F)c(F)c(F)c6F)c6ccc3[nH]6)C=C5)C=C4)cc2)cc1)Nc1ccccc1Br
REMARK SMILES IDX 16 1 15 2 14 3 13 4 12 5 11 6 9 7 10 8 8 9 5 10 6 11 90 12
REMARK SMILES IDX 7 13 89 14 4 15 3 16 1 17 2 18 91 19 92 22 93 23 97 24 94 25
REMARK SMILES IDX 96 26 98 27 95 28 17 29 18 30 19 31 20 32 21 33 22 34 23 35
REMARK SMILES IDX 24 36 25 37 26 38 27 39 88 40 28 41 87 42 29 43 30 44 31 45
REMARK SMILES IDX 81 46 32 47 86 48 80 49 82 50 33 51 85 52 79 53 78 54 34 56
REMARK SMILES IDX 66 57 46 58 65 59 47 60 50 61 64 62 83 63 48 64 49 65 63 67
REMARK SMILES IDX 84 68 51 69 35 70 36 71 44 72 37 73 38 74 42 75 45 76 39 77
REMARK SMILES IDX 40 78 43 79 41 80 67 81 68 82 76 83 69 84 70 85 74 86 77 87
REMARK SMILES IDX 71 88 72 89 75 90 73 91 52 92 53 93 61 94 54 95 55 96 59 97
REMARK SMILES IDX 62 98 56 99 57 100 60 101 58 102
REMARK H PARENT 3 20 91 21 82 55 50 66
REMARK Flexibility Score: inf
ROOT
ATOM      1  C   UNL A   1      35.555  29.876  27.740  1.00  0.00     0.188 C 
ENDROOT
BRANCH   1   2
ATOM      2  C   UNL A   1      34.192  29.513  27.114  1.00  0.00     0.188 C 
BRANCH   2   3
ATOM      3  O   UNL A   1      34.264  28.455  26.174  1.00  0.00    -0.376 OA
BRANCH   3   4
ATOM      4  C   UNL A   1      33.122  28.133  25.404  1.00  0.00     0.202 C 
BRANCH   4   5
ATOM      5  C   UNL A   1      33.206  27.014  24.353  1.00  0.00     0.261 C 
BRANCH   5   6
ATOM      6  O   UNL A   1      33.883  25.818  24.750  1.00  0.00    -0.460 OA
BRANCH   6   7
ATOM      7  C   UNL A   1      34.171  24.931  23.774  1.00  0.00     0.338 C 
ATOM      8  O   UNL A   1      33.755  24.952  22.629  1.00  0.00    -0.246 OA
BRANCH   7   9
ATOM      9  C   UNL A   1      35.249  24.031  24.255  1.00  0.00     0.060 A 
ATOM     10  C   UNL A   1      37.314  22.413  25.251  1.00  0.00    -0.029 A 
ATOM     11  C   UNL A   1      36.620  23.282  26.105  1.00  0.00     0.006 A 
ATOM     12  C   UNL A   1      36.905  22.299  23.912  1.00  0.00     0.006 A 
ATOM     13  C   UNL A   1      35.603  24.096  25.607  1.00  0.00     0.016 A 
ATOM     14  C   UNL A   1      35.873  23.102  23.415  1.00  0.00     0.016 A 
BRANCH  10  15
ATOM     15  C   UNL A   1      38.538  21.687  25.743  1.00  0.00     0.153 C 
BRANCH  15  16
ATOM     16  N   UNL A   1      39.228  22.391  26.797  1.00  0.00    -0.334 N 
ATOM     17  O   UNL A   1      40.827  23.514  27.847  1.00  0.00    -0.248 OA
ATOM     18  C   UNL A   1      40.497  22.875  26.853  1.00  0.00     0.319 C 
ATOM     19  N   UNL A   1      41.283  22.650  25.757  1.00  0.00    -0.307 N 
ATOM     20  H   UNL A   1      38.692  22.546  27.608  1.00  0.00     0.165 HD
ATOM     21  H   UNL A   1      40.842  22.292  24.953  1.00  0.00     0.171 HD
BRANCH  19  22
ATOM     22  C   UNL A   1      42.676  22.886  25.679  1.00  0.00     0.057 A 
ATOM     23  C   UNL A   1      43.493  21.774  25.946  1.00  0.00     0.027 A 
ATOM     24  C   UNL A   1      43.292  24.115  25.387  1.00  0.00     0.041 A 
ATOM     25  C   UNL A   1      44.883  21.855  25.829  1.00  0.00     0.002 A 
ATOM     26  C   UNL A   1      44.688  24.187  25.263  1.00  0.00     0.018 A 
ATOM     27  Br  UNL A   1      42.380  25.788  25.374  1.00  0.00    -0.049 Br
ATOM     28  C   UNL A   1      45.478  23.057  25.468  1.00  0.00     0.001 A 
ENDBRANCH  19  22
ENDBRANCH  15  16
ENDBRANCH  10  15
ENDBRANCH   7   9
ENDBRANCH   6   7
ENDBRANCH   5   6
ENDBRANCH   4   5
ENDBRANCH   3   4
ENDBRANCH   2   3
ENDBRANCH   1   2
BRANCH   1  29
ATOM     29  O   UNL A   1      36.085  31.169  27.488  1.00  0.00    -0.377 OA
BRANCH  29  30
ATOM     30  C   UNL A   1      35.687  32.273  28.300  1.00  0.00     0.188 C 
BRANCH  30  31
ATOM     31  C   UNL A   1      34.655  32.136  29.447  1.00  0.00     0.188 C 
BRANCH  31  32
ATOM     32  O   UNL A   1      34.393  33.332  30.158  1.00  0.00    -0.376 OA
BRANCH  32  33
ATOM     33  C   UNL A   1      34.466  33.296  31.571  1.00  0.00     0.202 C 
BRANCH  33  34
ATOM     34  C   UNL A   1      35.868  33.307  32.194  1.00  0.00     0.261 C 
BRANCH  34  35
ATOM     35  O   UNL A   1      36.346  32.048  32.693  1.00  0.00    -0.460 OA
BRANCH  35  36
ATOM     36  C   UNL A   1      37.051  32.061  33.842  1.00  0.00     0.338 C 
ATOM     37  O   UNL A   1      36.663  32.409  34.947  1.00  0.00    -0.246 OA
BRANCH  36  38
ATOM     38  C   UNL A   1      38.345  31.403  33.576  1.00  0.00     0.060 A 
ATOM     39  C   UNL A   1      39.497  31.858  34.232  1.00  0.00     0.016 A 
ATOM     40  C   UNL A   1      38.413  30.325  32.690  1.00  0.00     0.016 A 
ATOM     41  C   UNL A   1      40.729  31.252  33.979  1.00  0.00     0.010 A 
ATOM     42  C   UNL A   1      39.649  29.734  32.422  1.00  0.00     0.010 A 
ATOM     43  C   UNL A   1      40.817  30.215  33.040  1.00  0.00    -0.014 A 
BRANCH  43  44
ATOM     44  C   UNL A   1      42.142  29.755  32.559  1.00  0.00     0.031 A 
ATOM     45  C   UNL A   1      42.787  30.502  31.427  1.00  0.00     0.074 A 
ATOM     46  C   UNL A   1      42.761  28.699  33.114  1.00  0.00     0.049 A 
ATOM     47  N   UNL A   1      43.894  30.244  30.779  1.00  0.00    -0.248 NA
ATOM     48  C   UNL A   1      42.081  31.706  30.957  1.00  0.00     0.031 C 
ATOM     49  C   UNL A   1      42.259  27.921  34.243  1.00  0.00     0.029 A 
ATOM     50  N   UNL A   1      43.947  28.089  32.783  1.00  0.00    -0.354 N 
ATOM     51  C   UNL A   1      44.010  31.243  29.820  1.00  0.00     0.074 A 
ATOM     52  C   UNL A   1      42.847  32.094  29.949  1.00  0.00     0.031 C 
ATOM     53  C   UNL A   1      43.123  26.924  34.503  1.00  0.00     0.029 A 
ATOM     54  C   UNL A   1      44.216  26.971  33.533  1.00  0.00     0.049 A 
ATOM     55  H   UNL A   1      44.546  28.422  32.076  1.00  0.00     0.167 HD
ATOM     56  C   UNL A   1      45.001  31.436  28.918  1.00  0.00     0.037 A 
ATOM     57  C   UNL A   1      45.216  26.073  33.423  1.00  0.00     0.037 A 
ATOM     58  C   UNL A   1      46.153  30.581  28.790  1.00  0.00     0.049 A 
ATOM     59  C   UNL A   1      46.264  26.261  32.354  1.00  0.00     0.074 A 
ATOM     60  C   UNL A   1      47.221  30.699  27.920  1.00  0.00     0.029 A 
ATOM     61  N   UNL A   1      46.377  29.440  29.548  1.00  0.00    -0.354 N 
ATOM     62  N   UNL A   1      46.385  27.221  31.468  1.00  0.00    -0.248 NA
ATOM     63  C   UNL A   1      47.319  25.240  32.272  1.00  0.00     0.031 C 
ATOM     64  C   UNL A   1      48.060  29.596  28.106  1.00  0.00     0.029 A 
ATOM     65  C   UNL A   1      47.553  28.828  29.143  1.00  0.00     0.049 A 
ATOM     66  H   UNL A   1      45.789  29.115  30.267  1.00  0.00     0.167 HD
ATOM     67  C   UNL A   1      47.541  26.939  30.750  1.00  0.00     0.074 A 
ATOM     68  C   UNL A   1      48.094  25.726  31.313  1.00  0.00     0.031 C 
ATOM     69  C   UNL A   1      48.097  27.624  29.720  1.00  0.00     0.037 A 
BRANCH  56  70
ATOM     70  C   UNL A   1      44.865  32.596  27.975  1.00  0.00     0.064 A 
ATOM     71  C   UNL A   1      44.224  32.471  26.732  1.00  0.00     0.173 A 
ATOM     72  C   UNL A   1      45.357  33.860  28.333  1.00  0.00     0.173 A 
ATOM     73  F   UNL A   1      43.748  31.282  26.335  1.00  0.00    -0.203 F 
ATOM     74  C   UNL A   1      44.107  33.561  25.873  1.00  0.00     0.198 A 
ATOM     75  C   UNL A   1      45.207  34.956  27.486  1.00  0.00     0.198 A 
ATOM     76  F   UNL A   1      45.976  34.038  29.511  1.00  0.00    -0.203 F 
ATOM     77  F   UNL A   1      43.537  33.405  24.670  1.00  0.00    -0.200 F 
ATOM     78  C   UNL A   1      44.590  34.804  26.255  1.00  0.00     0.200 A 
ATOM     79  F   UNL A   1      45.661  36.159  27.864  1.00  0.00    -0.200 F 
ATOM     80  F   UNL A   1      44.468  35.853  25.431  1.00  0.00    -0.200 F 
ENDBRANCH  56  70
BRANCH  57  81
ATOM     81  C   UNL A   1      45.270  24.901  34.338  1.00  0.00     0.064 A 
ATOM     82  C   UNL A   1      44.760  23.654  33.948  1.00  0.00     0.173 A 
ATOM     83  C   UNL A   1      45.805  25.010  35.630  1.00  0.00     0.173 A 
ATOM     84  F   UNL A   1      44.213  23.504  32.733  1.00  0.00    -0.203 F 
ATOM     85  C   UNL A   1      44.764  22.568  34.823  1.00  0.00     0.198 A 
ATOM     86  C   UNL A   1      45.838  23.915  36.492  1.00  0.00     0.198 A 
ATOM     87  F   UNL A   1      46.300  26.181  36.057  1.00  0.00    -0.203 F 
ATOM     88  F   UNL A   1      44.219  21.405  34.444  1.00  0.00    -0.200 F 
ATOM     89  C   UNL A   1      45.308  22.698  36.092  1.00  0.00     0.200 A 
ATOM     90  F   UNL A   1      46.376  24.042  37.713  1.00  0.00    -0.200 F 
ATOM     91  F   UNL A   1      45.312  21.654  36.931  1.00  0.00    -0.200 F 
ENDBRANCH  57  81
BRANCH  69  92
ATOM     92  C   UNL A   1      49.396  27.111  29.162  1.00  0.00     0.064 A 
ATOM     93  C   UNL A   1      50.634  27.461  29.722  1.00  0.00     0.173 A 
ATOM     94  C   UNL A   1      49.397  26.221  28.076  1.00  0.00     0.173 A 
ATOM     95  F   UNL A   1      50.691  28.317  30.753  1.00  0.00    -0.203 F 
ATOM     96  C   UNL A   1      51.825  26.963  29.197  1.00  0.00     0.198 A 
ATOM     97  C   UNL A   1      50.586  25.696  27.578  1.00  0.00     0.198 A 
ATOM     98  F   UNL A   1      48.241  25.845  27.509  1.00  0.00    -0.203 F 
ATOM     99  F   UNL A   1      52.998  27.354  29.713  1.00  0.00    -0.200 F 
ATOM    100  C   UNL A   1      51.800  26.074  28.132  1.00  0.00     0.200 A 
ATOM    101  F   UNL A   1      50.558  24.823  26.562  1.00  0.00    -0.200 F 
ATOM    102  F   UNL A   1      52.945  25.589  27.635  1.00  0.00    -0.200 F 
ENDBRANCH  69  92
ENDBRANCH  43  44
ENDBRANCH  36  38
ENDBRANCH  35  36
ENDBRANCH  34  35
ENDBRANCH  33  34
ENDBRANCH  32  33
ENDBRANCH  31  32
ENDBRANCH  30  31
ENDBRANCH  29  30
ENDBRANCH   1  29
TORSDOF 23
ENDMDL
