MODEL 1
REMARK VINA RESULT:      -9.6      0.000      0.000
REMARK SMILES O=C(C[C@@H]1C(=O)NCCN1C(=O)OCC1c2ccccc2-c2ccccc21)OCCOCCOCCOCCOC(=O)c1ccc(-c2c3nc(c(-c4c(F)c(F)c(F)c(F)c4F)c4ccc([nH]4)c(-c4c(F)c(F)c(F)c(F)c4F)c4nc(c(-c5c(F)c(F)c(F)c(F)c5F)c5ccc2[nH]5)C=C4)C=C3)cc1
REMARK SMILES IDX 32 1 31 2 30 3 29 4 28 5 2 6 1 7 3 8 4 9 5 10 10 11 6 12
REMARK SMILES IDX 7 13 9 14 8 15 11 17 12 18 13 19 14 20 15 21 16 22 27 23
REMARK SMILES IDX 17 24 21 25 22 26 26 27 18 28 20 29 23 30 25 31 19 32 24 33
REMARK SMILES IDX 33 34 34 35 35 36 36 37 37 38 38 39 39 40 40 41 41 42 42 43
REMARK SMILES IDX 43 44 44 45 105 46 45 47 104 48 46 49 47 50 48 51 98 52
REMARK SMILES IDX 49 53 103 54 97 55 99 56 50 57 102 58 96 59 95 60 51 62
REMARK SMILES IDX 83 63 63 64 82 65 64 66 67 67 81 68 100 69 65 70 66 71 80 73
REMARK SMILES IDX 101 74 68 75 52 76 53 77 61 78 54 79 55 80 59 81 62 82 56 83
REMARK SMILES IDX 57 84 60 85 58 86 84 87 85 88 93 89 86 90 87 91 91 92 94 93
REMARK SMILES IDX 88 94 89 95 92 96 90 97 69 98 70 99 78 100 71 101 72 102
REMARK SMILES IDX 76 103 79 104 73 105 74 106 77 107 75 108
REMARK H PARENT 7 16 99 61 67 72
REMARK Flexibility Score: inf
ROOT
ATOM      1  C   UNL A   1      41.138  22.519  27.573  1.00  0.00     0.188 C 
ENDROOT
BRANCH   1   2
ATOM      2  O   UNL A   1      40.053  22.546  26.659  1.00  0.00    -0.376 OA
BRANCH   2   3
ATOM      3  C   UNL A   1      39.396  21.421  26.133  1.00  0.00     0.202 C 
BRANCH   3   4
ATOM      4  C   UNL A   1      38.115  21.613  25.328  1.00  0.00     0.261 C 
BRANCH   4   5
ATOM      5  O   UNL A   1      37.088  22.421  25.920  1.00  0.00    -0.463 OA
BRANCH   5   6
ATOM      6  C   UNL A   1      35.792  22.438  25.556  1.00  0.00     0.308 C 
ATOM      7  O   UNL A   1      35.357  21.596  24.773  1.00  0.00    -0.252 OA
BRANCH   6   8
ATOM      8  C   UNL A   1      34.963  23.629  25.928  1.00  0.00     0.158 C 
BRANCH   8   9
ATOM      9  C   UNL A   1      33.456  23.628  25.814  1.00  0.00     0.189 C 
ATOM     10  C   UNL A   1      32.894  22.526  26.744  1.00  0.00     0.243 C 
ATOM     11  N   UNL A   1      32.998  23.587  24.389  1.00  0.00    -0.294 N 
ATOM     12  O   UNL A   1      33.008  22.579  27.967  1.00  0.00    -0.273 OA
ATOM     13  N   UNL A   1      32.326  21.433  26.162  1.00  0.00    -0.353 N 
ATOM     14  C   UNL A   1      31.880  22.694  24.114  1.00  0.00     0.145 C 
ATOM     15  C   UNL A   1      32.154  21.324  24.732  1.00  0.00     0.137 C 
ATOM     16  H   UNL A   1      32.024  20.691  26.735  1.00  0.00     0.163 HD
BRANCH  11  17
ATOM     17  C   UNL A   1      33.472  24.367  23.333  1.00  0.00     0.410 C 
ATOM     18  O   UNL A   1      34.026  23.897  22.347  1.00  0.00    -0.224 OA
BRANCH  17  19
ATOM     19  O   UNL A   1      33.316  25.704  23.521  1.00  0.00    -0.448 OA
BRANCH  19  20
ATOM     20  C   UNL A   1      32.044  26.300  23.152  1.00  0.00     0.248 C 
BRANCH  20  21
ATOM     21  C   UNL A   1      31.247  26.968  24.311  1.00  0.00     0.088 C 
ATOM     22  C   UNL A   1      32.086  27.797  25.273  1.00  0.00    -0.029 A 
ATOM     23  C   UNL A   1      30.266  28.019  23.798  1.00  0.00    -0.029 A 
ATOM     24  C   UNL A   1      33.012  27.366  26.206  1.00  0.00     0.005 A 
ATOM     25  C   UNL A   1      31.809  29.170  25.099  1.00  0.00    -0.014 A 
ATOM     26  C   UNL A   1      30.657  29.304  24.233  1.00  0.00    -0.014 A 
ATOM     27  C   UNL A   1      29.098  27.825  23.075  1.00  0.00     0.005 A 
ATOM     28  C   UNL A   1      33.769  28.332  26.874  1.00  0.00     0.000 A 
ATOM     29  C   UNL A   1      32.566  30.128  25.752  1.00  0.00     0.009 A 
ATOM     30  C   UNL A   1      29.902  30.416  23.904  1.00  0.00     0.009 A 
ATOM     31  C   UNL A   1      28.326  28.946  22.763  1.00  0.00     0.000 A 
ATOM     32  C   UNL A   1      33.570  29.700  26.625  1.00  0.00     0.001 A 
ATOM     33  C   UNL A   1      28.730  30.230  23.163  1.00  0.00     0.001 A 
ENDBRANCH  20  21
ENDBRANCH  19  20
ENDBRANCH  17  19
ENDBRANCH  11  17
ENDBRANCH   8   9
ENDBRANCH   6   8
ENDBRANCH   5   6
ENDBRANCH   4   5
ENDBRANCH   3   4
ENDBRANCH   2   3
ENDBRANCH   1   2
BRANCH   1  34
ATOM     34  C   UNL A   1      42.113  23.695  27.438  1.00  0.00     0.188 C 
BRANCH  34  35
ATOM     35  O   UNL A   1      43.300  23.411  26.699  1.00  0.00    -0.377 OA
BRANCH  35  36
ATOM     36  C   UNL A   1      43.085  23.239  25.300  1.00  0.00     0.188 C 
BRANCH  36  37
ATOM     37  C   UNL A   1      44.381  23.281  24.462  1.00  0.00     0.188 C 
BRANCH  37  38
ATOM     38  O   UNL A   1      45.320  24.242  24.930  1.00  0.00    -0.376 OA
BRANCH  38  39
ATOM     39  C   UNL A   1      46.671  24.057  24.533  1.00  0.00     0.202 C 
BRANCH  39  40
ATOM     40  C   UNL A   1      47.725  25.009  25.120  1.00  0.00     0.261 C 
BRANCH  40  41
ATOM     41  O   UNL A   1      47.255  26.008  26.047  1.00  0.00    -0.460 OA
BRANCH  41  42
ATOM     42  C   UNL A   1      48.114  26.558  26.932  1.00  0.00     0.338 C 
ATOM     43  O   UNL A   1      49.150  26.076  27.358  1.00  0.00    -0.246 OA
BRANCH  42  44
ATOM     44  C   UNL A   1      47.705  27.977  27.100  1.00  0.00     0.060 A 
ATOM     45  C   UNL A   1      46.878  28.571  26.132  1.00  0.00     0.016 A 
ATOM     46  C   UNL A   1      48.031  28.677  28.264  1.00  0.00     0.016 A 
ATOM     47  C   UNL A   1      46.375  29.861  26.331  1.00  0.00     0.010 A 
ATOM     48  C   UNL A   1      47.559  29.980  28.444  1.00  0.00     0.010 A 
ATOM     49  C   UNL A   1      46.742  30.585  27.474  1.00  0.00    -0.014 A 
BRANCH  49  50
ATOM     50  C   UNL A   1      46.464  32.040  27.565  1.00  0.00     0.031 A 
ATOM     51  C   UNL A   1      47.565  32.985  27.170  1.00  0.00     0.074 A 
ATOM     52  C   UNL A   1      45.292  32.519  28.019  1.00  0.00     0.049 A 
ATOM     53  N   UNL A   1      47.624  34.286  27.276  1.00  0.00    -0.248 NA
ATOM     54  C   UNL A   1      48.767  32.373  26.579  1.00  0.00     0.031 C 
ATOM     55  C   UNL A   1      44.133  31.714  28.397  1.00  0.00     0.029 A 
ATOM     56  N   UNL A   1      44.896  33.813  28.264  1.00  0.00    -0.354 N 
ATOM     57  C   UNL A   1      48.869  34.646  26.777  1.00  0.00     0.074 A 
ATOM     58  C   UNL A   1      49.540  33.429  26.378  1.00  0.00     0.031 C 
ATOM     59  C   UNL A   1      43.167  32.531  28.856  1.00  0.00     0.029 A 
ATOM     60  C   UNL A   1      43.653  33.910  28.842  1.00  0.00     0.049 A 
ATOM     61  H   UNL A   1      45.452  34.597  28.046  1.00  0.00     0.167 HD
ATOM     62  C   UNL A   1      49.406  35.882  26.666  1.00  0.00     0.037 A 
ATOM     63  C   UNL A   1      43.006  34.985  29.339  1.00  0.00     0.037 A 
ATOM     64  C   UNL A   1      48.744  37.092  27.064  1.00  0.00     0.049 A 
ATOM     65  C   UNL A   1      43.668  36.343  29.280  1.00  0.00     0.074 A 
ATOM     66  C   UNL A   1      49.192  38.396  26.948  1.00  0.00     0.029 A 
ATOM     67  N   UNL A   1      47.498  37.145  27.669  1.00  0.00    -0.354 N 
ATOM     68  N   UNL A   1      44.825  36.682  28.763  1.00  0.00    -0.248 NA
ATOM     69  C   UNL A   1      42.935  37.468  29.885  1.00  0.00     0.031 C 
ATOM     70  C   UNL A   1      48.243  39.236  27.538  1.00  0.00     0.029 A 
ATOM     71  C   UNL A   1      47.180  38.459  27.972  1.00  0.00     0.049 A 
ATOM     72  H   UNL A   1      46.927  36.367  27.857  1.00  0.00     0.167 HD
ATOM     73  C   UNL A   1      44.947  38.054  28.961  1.00  0.00     0.074 A 
ATOM     74  C   UNL A   1      43.738  38.490  29.626  1.00  0.00     0.031 C 
ATOM     75  C   UNL A   1      45.970  38.878  28.628  1.00  0.00     0.037 A 
BRANCH  62  76
ATOM     76  C   UNL A   1      50.795  35.990  26.117  1.00  0.00     0.064 A 
ATOM     77  C   UNL A   1      51.035  36.164  24.746  1.00  0.00     0.173 A 
ATOM     78  C   UNL A   1      51.898  35.986  26.985  1.00  0.00     0.173 A 
ATOM     79  F   UNL A   1      50.014  36.156  23.877  1.00  0.00    -0.203 F 
ATOM     80  C   UNL A   1      52.331  36.324  24.264  1.00  0.00     0.198 A 
ATOM     81  C   UNL A   1      53.189  36.170  26.501  1.00  0.00     0.198 A 
ATOM     82  F   UNL A   1      51.719  35.821  28.304  1.00  0.00    -0.203 F 
ATOM     83  F   UNL A   1      52.541  36.461  22.948  1.00  0.00    -0.200 F 
ATOM     84  C   UNL A   1      53.405  36.337  25.142  1.00  0.00     0.200 A 
ATOM     85  F   UNL A   1      54.224  36.194  27.352  1.00  0.00    -0.200 F 
ATOM     86  F   UNL A   1      54.650  36.510  24.677  1.00  0.00    -0.200 F 
ENDBRANCH  62  76
BRANCH  63  87
ATOM     87  C   UNL A   1      41.678  34.834  29.995  1.00  0.00     0.064 A 
ATOM     88  C   UNL A   1      41.570  34.496  31.351  1.00  0.00     0.173 A 
ATOM     89  C   UNL A   1      40.488  34.951  29.259  1.00  0.00     0.173 A 
ATOM     90  F   UNL A   1      42.678  34.334  32.090  1.00  0.00    -0.203 F 
ATOM     91  C   UNL A   1      40.329  34.252  31.938  1.00  0.00     0.198 A 
ATOM     92  C   UNL A   1      39.247  34.738  29.855  1.00  0.00     0.198 A 
ATOM     93  F   UNL A   1      40.533  35.258  27.954  1.00  0.00    -0.203 F 
ATOM     94  F   UNL A   1      40.262  33.861  33.219  1.00  0.00    -0.200 F 
ATOM     95  C   UNL A   1      39.168  34.378  31.191  1.00  0.00     0.200 A 
ATOM     96  F   UNL A   1      38.127  34.863  29.129  1.00  0.00    -0.200 F 
ATOM     97  F   UNL A   1      37.977  34.131  31.753  1.00  0.00    -0.200 F 
ENDBRANCH  63  87
BRANCH  75  98
ATOM     98  C   UNL A   1      45.826  40.336  28.956  1.00  0.00     0.064 A 
ATOM     99  C   UNL A   1      45.236  41.234  28.056  1.00  0.00     0.173 A 
ATOM    100  C   UNL A   1      46.225  40.828  30.208  1.00  0.00     0.173 A 
ATOM    101  F   UNL A   1      44.850  40.817  26.840  1.00  0.00    -0.203 F 
ATOM    102  C   UNL A   1      45.070  42.576  28.389  1.00  0.00     0.198 A 
ATOM    103  C   UNL A   1      46.028  42.163  30.550  1.00  0.00     0.198 A 
ATOM    104  F   UNL A   1      46.785  40.008  31.110  1.00  0.00    -0.203 F 
ATOM    105  F   UNL A   1      44.540  43.426  27.497  1.00  0.00    -0.200 F 
ATOM    106  C   UNL A   1      45.457  43.037  29.638  1.00  0.00     0.200 A 
ATOM    107  F   UNL A   1      46.387  42.602  31.764  1.00  0.00    -0.200 F 
ATOM    108  F   UNL A   1      45.283  44.326  29.962  1.00  0.00    -0.200 F 
ENDBRANCH  75  98
ENDBRANCH  49  50
ENDBRANCH  42  44
ENDBRANCH  41  42
ENDBRANCH  40  41
ENDBRANCH  39  40
ENDBRANCH  38  39
ENDBRANCH  37  38
ENDBRANCH  36  37
ENDBRANCH  35  36
ENDBRANCH  34  35
ENDBRANCH   1  34
TORSDOF 25
ENDMDL
MODEL 2
REMARK VINA RESULT:      -9.5      5.736     12.407
REMARK SMILES O=C(C[C@@H]1C(=O)NCCN1C(=O)OCC1c2ccccc2-c2ccccc21)OCCOCCOCCOCCOC(=O)c1ccc(-c2c3nc(c(-c4c(F)c(F)c(F)c(F)c4F)c4ccc([nH]4)c(-c4c(F)c(F)c(F)c(F)c4F)c4nc(c(-c5c(F)c(F)c(F)c(F)c5F)c5ccc2[nH]5)C=C4)C=C3)cc1
REMARK SMILES IDX 32 1 31 2 30 3 29 4 28 5 2 6 1 7 3 8 4 9 5 10 10 11 6 12
REMARK SMILES IDX 7 13 9 14 8 15 11 17 12 18 13 19 14 20 15 21 16 22 27 23
REMARK SMILES IDX 17 24 21 25 22 26 26 27 18 28 20 29 23 30 25 31 19 32 24 33
REMARK SMILES IDX 33 34 34 35 35 36 36 37 37 38 38 39 39 40 40 41 41 42 42 43
REMARK SMILES IDX 43 44 44 45 105 46 45 47 104 48 46 49 47 50 48 51 98 52
REMARK SMILES IDX 49 53 103 54 97 55 99 56 50 57 102 58 96 59 95 60 51 62
REMARK SMILES IDX 83 63 63 64 82 65 64 66 67 67 81 68 100 69 65 70 66 71 80 73
REMARK SMILES IDX 101 74 68 75 52 76 53 77 61 78 54 79 55 80 59 81 62 82 56 83
REMARK SMILES IDX 57 84 60 85 58 86 84 87 85 88 93 89 86 90 87 91 91 92 94 93
REMARK SMILES IDX 88 94 89 95 92 96 90 97 69 98 70 99 78 100 71 101 72 102
REMARK SMILES IDX 76 103 79 104 73 105 74 106 77 107 75 108
REMARK H PARENT 7 16 99 61 67 72
REMARK Flexibility Score: inf
ROOT
ATOM      1  C   UNL A   1      36.999  30.570  29.778  1.00  0.00     0.188 C 
ENDROOT
BRANCH   1   2
ATOM      2  O   UNL A   1      38.023  29.736  29.262  1.00  0.00    -0.376 OA
BRANCH   2   3
ATOM      3  C   UNL A   1      38.436  29.679  27.920  1.00  0.00     0.202 C 
BRANCH   3   4
ATOM      4  C   UNL A   1      39.504  28.669  27.510  1.00  0.00     0.261 C 
BRANCH   4   5
ATOM      5  O   UNL A   1      40.293  28.092  28.559  1.00  0.00    -0.463 OA
BRANCH   5   6
ATOM      6  C   UNL A   1      41.478  28.556  29.000  1.00  0.00     0.308 C 
ATOM      7  O   UNL A   1      41.628  28.844  30.186  1.00  0.00    -0.252 OA
BRANCH   6   8
ATOM      8  C   UNL A   1      42.515  28.939  27.988  1.00  0.00     0.158 C 
BRANCH   8   9
ATOM      9  C   UNL A   1      43.700  28.056  27.677  1.00  0.00     0.189 C 
ATOM     10  C   UNL A   1      44.916  28.560  28.492  1.00  0.00     0.243 C 
ATOM     11  N   UNL A   1      43.913  27.895  26.204  1.00  0.00    -0.294 N 
ATOM     12  O   UNL A   1      44.944  28.520  29.720  1.00  0.00    -0.273 OA
ATOM     13  N   UNL A   1      45.944  29.136  27.808  1.00  0.00    -0.353 N 
ATOM     14  C   UNL A   1      45.298  27.967  25.758  1.00  0.00     0.145 C 
ATOM     15  C   UNL A   1      45.969  29.198  26.365  1.00  0.00     0.137 C 
ATOM     16  H   UNL A   1      46.694  29.523  28.313  1.00  0.00     0.163 HD
BRANCH  11  17
ATOM     17  C   UNL A   1      42.943  27.604  25.243  1.00  0.00     0.410 C 
ATOM     18  O   UNL A   1      42.191  28.448  24.771  1.00  0.00    -0.224 OA
BRANCH  17  19
ATOM     19  O   UNL A   1      42.867  26.287  24.918  1.00  0.00    -0.448 OA
BRANCH  19  20
ATOM     20  C   UNL A   1      42.018  25.432  25.728  1.00  0.00     0.248 C 
BRANCH  20  21
ATOM     21  C   UNL A   1      42.715  24.196  26.367  1.00  0.00     0.088 C 
ATOM     22  C   UNL A   1      43.867  23.618  25.559  1.00  0.00    -0.029 A 
ATOM     23  C   UNL A   1      43.422  24.549  27.673  1.00  0.00    -0.029 A 
ATOM     24  C   UNL A   1      43.824  22.929  24.360  1.00  0.00     0.005 A 
ATOM     25  C   UNL A   1      45.094  23.885  26.204  1.00  0.00    -0.014 A 
ATOM     26  C   UNL A   1      44.819  24.410  27.524  1.00  0.00    -0.014 A 
ATOM     27  C   UNL A   1      42.856  24.891  28.893  1.00  0.00     0.005 A 
ATOM     28  C   UNL A   1      45.035  22.627  23.732  1.00  0.00     0.000 A 
ATOM     29  C   UNL A   1      46.294  23.596  25.577  1.00  0.00     0.009 A 
ATOM     30  C   UNL A   1      45.667  24.659  28.588  1.00  0.00     0.009 A 
ATOM     31  C   UNL A   1      43.712  25.121  29.972  1.00  0.00     0.000 A 
ATOM     32  C   UNL A   1      46.259  22.987  24.320  1.00  0.00     0.001 A 
ATOM     33  C   UNL A   1      45.105  25.018  29.818  1.00  0.00     0.001 A 
ENDBRANCH  20  21
ENDBRANCH  19  20
ENDBRANCH  17  19
ENDBRANCH  11  17
ENDBRANCH   8   9
ENDBRANCH   6   8
ENDBRANCH   5   6
ENDBRANCH   4   5
ENDBRANCH   3   4
ENDBRANCH   2   3
ENDBRANCH   1   2
BRANCH   1  34
ATOM     34  C   UNL A   1      37.014  32.005  29.236  1.00  0.00     0.188 C 
BRANCH  34  35
ATOM     35  O   UNL A   1      35.806  32.424  28.605  1.00  0.00    -0.377 OA
BRANCH  35  36
ATOM     36  C   UNL A   1      34.681  32.471  29.481  1.00  0.00     0.188 C 
BRANCH  36  37
ATOM     37  C   UNL A   1      34.176  33.902  29.767  1.00  0.00     0.188 C 
BRANCH  37  38
ATOM     38  O   UNL A   1      34.018  34.174  31.155  1.00  0.00    -0.376 OA
BRANCH  38  39
ATOM     39  C   UNL A   1      35.151  33.948  31.980  1.00  0.00     0.202 C 
BRANCH  39  40
ATOM     40  C   UNL A   1      35.415  34.943  33.120  1.00  0.00     0.261 C 
BRANCH  40  41
ATOM     41  O   UNL A   1      36.699  34.865  33.770  1.00  0.00    -0.460 OA
BRANCH  41  42
ATOM     42  C   UNL A   1      37.048  33.742  34.435  1.00  0.00     0.338 C 
ATOM     43  O   UNL A   1      36.360  33.092  35.203  1.00  0.00    -0.246 OA
BRANCH  42  44
ATOM     44  C   UNL A   1      38.341  33.289  33.860  1.00  0.00     0.060 A 
ATOM     45  C   UNL A   1      38.341  32.287  32.876  1.00  0.00     0.016 A 
ATOM     46  C   UNL A   1      39.533  33.935  34.199  1.00  0.00     0.016 A 
ATOM     47  C   UNL A   1      39.530  31.935  32.228  1.00  0.00     0.010 A 
ATOM     48  C   UNL A   1      40.726  33.556  33.579  1.00  0.00     0.010 A 
ATOM     49  C   UNL A   1      40.735  32.545  32.602  1.00  0.00    -0.014 A 
BRANCH  49  50
ATOM     50  C   UNL A   1      42.034  31.990  32.145  1.00  0.00     0.031 A 
ATOM     51  C   UNL A   1      42.580  30.800  32.883  1.00  0.00     0.074 A 
ATOM     52  C   UNL A   1      42.734  32.540  31.136  1.00  0.00     0.049 A 
ATOM     53  N   UNL A   1      43.739  30.207  32.768  1.00  0.00    -0.248 NA
ATOM     54  C   UNL A   1      41.694  30.198  33.895  1.00  0.00     0.031 C 
ATOM     55  C   UNL A   1      42.300  33.668  30.317  1.00  0.00     0.029 A 
ATOM     56  N   UNL A   1      43.981  32.229  30.648  1.00  0.00    -0.354 N 
ATOM     57  C   UNL A   1      43.726  29.175  33.697  1.00  0.00     0.074 A 
ATOM     58  C   UNL A   1      42.451  29.225  34.377  1.00  0.00     0.031 C 
ATOM     59  C   UNL A   1      43.280  33.976  29.447  1.00  0.00     0.029 A 
ATOM     60  C   UNL A   1      44.423  33.093  29.675  1.00  0.00     0.049 A 
ATOM     61  H   UNL A   1      44.507  31.460  30.965  1.00  0.00     0.167 HD
ATOM     62  C   UNL A   1      44.694  28.270  33.962  1.00  0.00     0.037 A 
ATOM     63  C   UNL A   1      45.627  33.183  29.073  1.00  0.00     0.037 A 
ATOM     64  C   UNL A   1      45.963  28.220  33.291  1.00  0.00     0.049 A 
ATOM     65  C   UNL A   1      46.722  32.210  29.453  1.00  0.00     0.074 A 
ATOM     66  C   UNL A   1      46.992  27.309  33.462  1.00  0.00     0.029 A 
ATOM     67  N   UNL A   1      46.383  29.128  32.333  1.00  0.00    -0.354 N 
ATOM     68  N   UNL A   1      46.686  31.207  30.297  1.00  0.00    -0.248 NA
ATOM     69  C   UNL A   1      48.029  32.391  28.800  1.00  0.00     0.031 C 
ATOM     70  C   UNL A   1      48.058  27.702  32.648  1.00  0.00     0.029 A 
ATOM     71  C   UNL A   1      47.674  28.824  31.932  1.00  0.00     0.049 A 
ATOM     72  H   UNL A   1      45.846  29.877  31.989  1.00  0.00     0.167 HD
ATOM     73  C   UNL A   1      47.950  30.629  30.260  1.00  0.00     0.074 A 
ATOM     74  C   UNL A   1      48.725  31.378  29.295  1.00  0.00     0.031 C 
ATOM     75  C   UNL A   1      48.430  29.576  30.967  1.00  0.00     0.037 A 
BRANCH  62  76
ATOM     76  C   UNL A   1      44.436  27.271  35.048  1.00  0.00     0.064 A 
ATOM     77  C   UNL A   1      43.881  26.012  34.775  1.00  0.00     0.173 A 
ATOM     78  C   UNL A   1      44.809  27.556  36.370  1.00  0.00     0.173 A 
ATOM     79  F   UNL A   1      43.493  25.703  33.529  1.00  0.00    -0.203 F 
ATOM     80  C   UNL A   1      43.705  25.076  35.789  1.00  0.00     0.198 A 
ATOM     81  C   UNL A   1      44.652  26.608  37.377  1.00  0.00     0.198 A 
ATOM     82  F   UNL A   1      45.340  28.747  36.681  1.00  0.00    -0.203 F 
ATOM     83  F   UNL A   1      43.148  23.888  35.512  1.00  0.00    -0.200 F 
ATOM     84  C   UNL A   1      44.099  25.370  37.086  1.00  0.00     0.200 A 
ATOM     85  F   UNL A   1      45.044  26.890  38.627  1.00  0.00    -0.200 F 
ATOM     86  F   UNL A   1      43.946  24.460  38.057  1.00  0.00    -0.200 F 
ENDBRANCH  62  76
BRANCH  63  87
ATOM     87  C   UNL A   1      45.904  34.264  28.087  1.00  0.00     0.064 A 
ATOM     88  C   UNL A   1      45.618  34.097  26.725  1.00  0.00     0.173 A 
ATOM     89  C   UNL A   1      46.531  35.458  28.478  1.00  0.00     0.173 A 
ATOM     90  F   UNL A   1      45.054  32.959  26.294  1.00  0.00    -0.203 F 
ATOM     91  C   UNL A   1      45.974  35.067  25.789  1.00  0.00     0.198 A 
ATOM     92  C   UNL A   1      46.857  36.440  27.544  1.00  0.00     0.198 A 
ATOM     93  F   UNL A   1      46.841  35.664  29.765  1.00  0.00    -0.203 F 
ATOM     94  F   UNL A   1      45.752  34.849  24.485  1.00  0.00    -0.200 F 
ATOM     95  C   UNL A   1      46.589  36.240  26.200  1.00  0.00     0.200 A 
ATOM     96  F   UNL A   1      47.450  37.573  27.946  1.00  0.00    -0.200 F 
ATOM     97  F   UNL A   1      46.942  37.165  25.297  1.00  0.00    -0.200 F 
ENDBRANCH  63  87
BRANCH  75  98
ATOM     98  C   UNL A   1      49.849  29.155  30.713  1.00  0.00     0.064 A 
ATOM     99  C   UNL A   1      50.172  28.241  29.700  1.00  0.00     0.173 A 
ATOM    100  C   UNL A   1      50.902  29.717  31.450  1.00  0.00     0.173 A 
ATOM    101  F   UNL A   1      49.200  27.664  28.976  1.00  0.00    -0.203 F 
ATOM    102  C   UNL A   1      51.495  27.891  29.448  1.00  0.00     0.198 A 
ATOM    103  C   UNL A   1      52.226  29.390  31.174  1.00  0.00     0.198 A 
ATOM    104  F   UNL A   1      50.647  30.605  32.424  1.00  0.00    -0.203 F 
ATOM    105  F   UNL A   1      51.779  26.985  28.501  1.00  0.00    -0.200 F 
ATOM    106  C   UNL A   1      52.521  28.472  30.177  1.00  0.00     0.200 A 
ATOM    107  F   UNL A   1      53.217  29.965  31.869  1.00  0.00    -0.200 F 
ATOM    108  F   UNL A   1      53.796  28.144  29.924  1.00  0.00    -0.200 F 
ENDBRANCH  75  98
ENDBRANCH  49  50
ENDBRANCH  42  44
ENDBRANCH  41  42
ENDBRANCH  40  41
ENDBRANCH  39  40
ENDBRANCH  38  39
ENDBRANCH  37  38
ENDBRANCH  36  37
ENDBRANCH  35  36
ENDBRANCH  34  35
ENDBRANCH   1  34
TORSDOF 25
ENDMDL
MODEL 3
REMARK VINA RESULT:      -9.1      5.623     12.354
REMARK SMILES O=C(C[C@@H]1C(=O)NCCN1C(=O)OCC1c2ccccc2-c2ccccc21)OCCOCCOCCOCCOC(=O)c1ccc(-c2c3nc(c(-c4c(F)c(F)c(F)c(F)c4F)c4ccc([nH]4)c(-c4c(F)c(F)c(F)c(F)c4F)c4nc(c(-c5c(F)c(F)c(F)c(F)c5F)c5ccc2[nH]5)C=C4)C=C3)cc1
REMARK SMILES IDX 32 1 31 2 30 3 29 4 28 5 2 6 1 7 3 8 4 9 5 10 10 11 6 12
REMARK SMILES IDX 7 13 9 14 8 15 11 17 12 18 13 19 14 20 15 21 16 22 27 23
REMARK SMILES IDX 17 24 21 25 22 26 26 27 18 28 20 29 23 30 25 31 19 32 24 33
REMARK SMILES IDX 33 34 34 35 35 36 36 37 37 38 38 39 39 40 40 41 41 42 42 43
REMARK SMILES IDX 43 44 44 45 105 46 45 47 104 48 46 49 47 50 48 51 98 52
REMARK SMILES IDX 49 53 103 54 97 55 99 56 50 57 102 58 96 59 95 60 51 62
REMARK SMILES IDX 83 63 63 64 82 65 64 66 67 67 81 68 100 69 65 70 66 71 80 73
REMARK SMILES IDX 101 74 68 75 52 76 53 77 61 78 54 79 55 80 59 81 62 82 56 83
REMARK SMILES IDX 57 84 60 85 58 86 84 87 85 88 93 89 86 90 87 91 91 92 94 93
REMARK SMILES IDX 88 94 89 95 92 96 90 97 69 98 70 99 78 100 71 101 72 102
REMARK SMILES IDX 76 103 79 104 73 105 74 106 77 107 75 108
REMARK H PARENT 7 16 99 61 67 72
REMARK Flexibility Score: inf
ROOT
ATOM      1  C   UNL A   1      37.013  30.335  29.706  1.00  0.00     0.188 C 
ENDROOT
BRANCH   1   2
ATOM      2  O   UNL A   1      38.049  29.550  29.140  1.00  0.00    -0.376 OA
BRANCH   2   3
ATOM      3  C   UNL A   1      38.539  29.662  27.827  1.00  0.00     0.202 C 
BRANCH   3   4
ATOM      4  C   UNL A   1      39.572  28.656  27.328  1.00  0.00     0.261 C 
BRANCH   4   5
ATOM      5  O   UNL A   1      40.171  27.795  28.306  1.00  0.00    -0.463 OA
BRANCH   5   6
ATOM      6  C   UNL A   1      41.295  28.056  29.001  1.00  0.00     0.308 C 
ATOM      7  O   UNL A   1      41.278  28.055  30.230  1.00  0.00    -0.252 OA
BRANCH   6   8
ATOM      8  C   UNL A   1      42.487  28.578  28.258  1.00  0.00     0.158 C 
BRANCH   8   9
ATOM      9  C   UNL A   1      43.595  27.670  27.776  1.00  0.00     0.189 C 
ATOM     10  C   UNL A   1      44.876  27.986  28.586  1.00  0.00     0.243 C 
ATOM     11  N   UNL A   1      43.734  27.692  26.285  1.00  0.00    -0.294 N 
ATOM     12  O   UNL A   1      44.954  27.782  29.795  1.00  0.00    -0.273 OA
ATOM     13  N   UNL A   1      45.911  28.582  27.929  1.00  0.00    -0.353 N 
ATOM     14  C   UNL A   1      45.100  27.735  25.782  1.00  0.00     0.145 C 
ATOM     15  C   UNL A   1      45.879  28.831  26.507  1.00  0.00     0.137 C 
ATOM     16  H   UNL A   1      46.707  28.851  28.442  1.00  0.00     0.163 HD
BRANCH  11  17
ATOM     17  C   UNL A   1      42.706  27.591  25.346  1.00  0.00     0.410 C 
ATOM     18  O   UNL A   1      42.276  28.549  24.715  1.00  0.00    -0.224 OA
BRANCH  17  19
ATOM     19  O   UNL A   1      42.183  26.342  25.232  1.00  0.00    -0.448 OA
BRANCH  19  20
ATOM     20  C   UNL A   1      43.074  25.261  24.851  1.00  0.00     0.248 C 
BRANCH  20  21
ATOM     21  C   UNL A   1      43.378  24.211  25.958  1.00  0.00     0.088 C 
ATOM     22  C   UNL A   1      42.174  23.408  26.429  1.00  0.00    -0.029 A 
ATOM     23  C   UNL A   1      44.293  23.097  25.454  1.00  0.00    -0.029 A 
ATOM     24  C   UNL A   1      41.091  23.831  27.179  1.00  0.00     0.005 A 
ATOM     25  C   UNL A   1      42.275  22.073  25.981  1.00  0.00    -0.014 A 
ATOM     26  C   UNL A   1      43.597  21.869  25.428  1.00  0.00    -0.014 A 
ATOM     27  C   UNL A   1      45.638  23.172  25.124  1.00  0.00     0.005 A 
ATOM     28  C   UNL A   1      40.030  22.940  27.360  1.00  0.00     0.000 A 
ATOM     29  C   UNL A   1      41.220  21.193  26.151  1.00  0.00     0.009 A 
ATOM     30  C   UNL A   1      44.234  20.709  25.022  1.00  0.00     0.009 A 
ATOM     31  C   UNL A   1      46.285  21.998  24.736  1.00  0.00     0.000 A 
ATOM     32  C   UNL A   1      40.080  21.643  26.823  1.00  0.00     0.001 A 
ATOM     33  C   UNL A   1      45.587  20.780  24.674  1.00  0.00     0.001 A 
ENDBRANCH  20  21
ENDBRANCH  19  20
ENDBRANCH  17  19
ENDBRANCH  11  17
ENDBRANCH   8   9
ENDBRANCH   6   8
ENDBRANCH   5   6
ENDBRANCH   4   5
ENDBRANCH   3   4
ENDBRANCH   2   3
ENDBRANCH   1   2
BRANCH   1  34
ATOM     34  C   UNL A   1      37.094  31.830  29.375  1.00  0.00     0.188 C 
BRANCH  34  35
ATOM     35  O   UNL A   1      35.909  32.388  28.810  1.00  0.00    -0.377 OA
BRANCH  35  36
ATOM     36  C   UNL A   1      34.805  32.439  29.711  1.00  0.00     0.188 C 
BRANCH  36  37
ATOM     37  C   UNL A   1      34.370  33.874  30.080  1.00  0.00     0.188 C 
BRANCH  37  38
ATOM     38  O   UNL A   1      34.314  34.100  31.483  1.00  0.00    -0.376 OA
BRANCH  38  39
ATOM     39  C   UNL A   1      35.503  33.845  32.217  1.00  0.00     0.202 C 
BRANCH  39  40
ATOM     40  C   UNL A   1      35.898  34.850  33.309  1.00  0.00     0.261 C 
BRANCH  40  41
ATOM     41  O   UNL A   1      37.143  34.610  33.996  1.00  0.00    -0.460 OA
BRANCH  41  42
ATOM     42  C   UNL A   1      37.393  33.394  34.526  1.00  0.00     0.338 C 
ATOM     43  O   UNL A   1      36.643  32.712  35.202  1.00  0.00    -0.246 OA
BRANCH  42  44
ATOM     44  C   UNL A   1      38.660  32.915  33.915  1.00  0.00     0.060 A 
ATOM     45  C   UNL A   1      38.615  31.902  32.943  1.00  0.00     0.016 A 
ATOM     46  C   UNL A   1      39.872  33.546  34.210  1.00  0.00     0.016 A 
ATOM     47  C   UNL A   1      39.777  31.525  32.262  1.00  0.00     0.010 A 
ATOM     48  C   UNL A   1      41.039  33.142  33.557  1.00  0.00     0.010 A 
ATOM     49  C   UNL A   1      41.002  32.121  32.592  1.00  0.00    -0.014 A 
BRANCH  49  50
ATOM     50  C   UNL A   1      42.277  31.541  32.100  1.00  0.00     0.031 A 
ATOM     51  C   UNL A   1      42.811  30.330  32.814  1.00  0.00     0.074 A 
ATOM     52  C   UNL A   1      42.967  32.085  31.082  1.00  0.00     0.049 A 
ATOM     53  N   UNL A   1      43.954  29.712  32.667  1.00  0.00    -0.248 NA
ATOM     54  C   UNL A   1      41.934  29.738  33.838  1.00  0.00     0.031 C 
ATOM     55  C   UNL A   1      42.542  33.232  30.284  1.00  0.00     0.029 A 
ATOM     56  N   UNL A   1      44.196  31.751  30.563  1.00  0.00    -0.354 N 
ATOM     57  C   UNL A   1      43.937  28.671  33.585  1.00  0.00     0.074 A 
ATOM     58  C   UNL A   1      42.679  28.742  34.293  1.00  0.00     0.031 C 
ATOM     59  C   UNL A   1      43.510  33.527  29.396  1.00  0.00     0.029 A 
ATOM     60  C   UNL A   1      44.637  32.615  29.589  1.00  0.00     0.049 A 
ATOM     61  H   UNL A   1      44.711  30.966  30.860  1.00  0.00     0.167 HD
ATOM     62  C   UNL A   1      44.890  27.740  33.820  1.00  0.00     0.037 A 
ATOM     63  C   UNL A   1      45.830  32.684  28.963  1.00  0.00     0.037 A 
ATOM     64  C   UNL A   1      46.142  27.668  33.120  1.00  0.00     0.049 A 
ATOM     65  C   UNL A   1      46.909  31.682  29.308  1.00  0.00     0.074 A 
ATOM     66  C   UNL A   1      47.152  26.733  33.258  1.00  0.00     0.029 A 
ATOM     67  N   UNL A   1      46.562  28.577  32.162  1.00  0.00    -0.354 N 
ATOM     68  N   UNL A   1      46.868  30.671  30.141  1.00  0.00    -0.248 NA
ATOM     69  C   UNL A   1      48.206  31.840  28.628  1.00  0.00     0.031 C 
ATOM     70  C   UNL A   1      48.210  27.109  32.426  1.00  0.00     0.029 A 
ATOM     71  C   UNL A   1      47.836  28.248  31.730  1.00  0.00     0.049 A 
ATOM     72  H   UNL A   1      46.035  29.342  31.838  1.00  0.00     0.167 HD
ATOM     73  C   UNL A   1      48.118  30.064  30.071  1.00  0.00     0.074 A 
ATOM     74  C   UNL A   1      48.889  30.806  29.097  1.00  0.00     0.031 C 
ATOM     75  C   UNL A   1      48.588  28.993  30.756  1.00  0.00     0.037 A 
BRANCH  62  76
ATOM     76  C   UNL A   1      44.632  26.736  34.900  1.00  0.00     0.064 A 
ATOM     77  C   UNL A   1      44.029  25.499  34.628  1.00  0.00     0.173 A 
ATOM     78  C   UNL A   1      45.052  26.991  36.214  1.00  0.00     0.173 A 
ATOM     79  F   UNL A   1      43.595  25.218  33.390  1.00  0.00    -0.203 F 
ATOM     80  C   UNL A   1      43.854  24.555  35.636  1.00  0.00     0.198 A 
ATOM     81  C   UNL A   1      44.896  26.036  37.213  1.00  0.00     0.198 A 
ATOM     82  F   UNL A   1      45.630  28.161  36.523  1.00  0.00    -0.203 F 
ATOM     83  F   UNL A   1      43.252  23.390  35.361  1.00  0.00    -0.200 F 
ATOM     84  C   UNL A   1      44.295  24.820  36.924  1.00  0.00     0.200 A 
ATOM     85  F   UNL A   1      45.333  26.288  38.454  1.00  0.00    -0.200 F 
ATOM     86  F   UNL A   1      44.142  23.902  37.888  1.00  0.00    -0.200 F 
ENDBRANCH  62  76
BRANCH  63  87
ATOM     87  C   UNL A   1      46.110  33.769  27.982  1.00  0.00     0.064 A 
ATOM     88  C   UNL A   1      46.730  34.963  28.375  1.00  0.00     0.173 A 
ATOM     89  C   UNL A   1      45.694  33.663  26.645  1.00  0.00     0.173 A 
ATOM     90  F   UNL A   1      47.113  35.129  29.650  1.00  0.00    -0.203 F 
ATOM     91  C   UNL A   1      46.897  36.019  27.480  1.00  0.00     0.198 A 
ATOM     92  C   UNL A   1      45.890  34.708  25.744  1.00  0.00     0.198 A 
ATOM     93  F   UNL A   1      45.081  32.550  26.218  1.00  0.00    -0.203 F 
ATOM     94  F   UNL A   1      47.429  37.174  27.902  1.00  0.00    -0.200 F 
ATOM     95  C   UNL A   1      46.481  35.889  26.164  1.00  0.00     0.200 A 
ATOM     96  F   UNL A   1      45.488  34.577  24.472  1.00  0.00    -0.200 F 
ATOM     97  F   UNL A   1      46.630  36.909  25.308  1.00  0.00    -0.200 F 
ENDBRANCH  63  87
BRANCH  75  98
ATOM     98  C   UNL A   1      49.991  28.542  30.467  1.00  0.00     0.064 A 
ATOM     99  C   UNL A   1      50.271  27.635  29.435  1.00  0.00     0.173 A 
ATOM    100  C   UNL A   1      51.072  29.069  31.189  1.00  0.00     0.173 A 
ATOM    101  F   UNL A   1      49.271  27.091  28.724  1.00  0.00    -0.203 F 
ATOM    102  C   UNL A   1      51.580  27.257  29.150  1.00  0.00     0.198 A 
ATOM    103  C   UNL A   1      52.382  28.714  30.880  1.00  0.00     0.198 A 
ATOM    104  F   UNL A   1      50.860  29.949  32.179  1.00  0.00    -0.203 F 
ATOM    105  F   UNL A   1      51.822  26.358  28.185  1.00  0.00    -0.200 F 
ATOM    106  C   UNL A   1      52.634  27.804  29.865  1.00  0.00     0.200 A 
ATOM    107  F   UNL A   1      53.401  29.257  31.561  1.00  0.00    -0.200 F 
ATOM    108  F   UNL A   1      53.895  27.449  29.580  1.00  0.00    -0.200 F 
ENDBRANCH  75  98
ENDBRANCH  49  50
ENDBRANCH  42  44
ENDBRANCH  41  42
ENDBRANCH  40  41
ENDBRANCH  39  40
ENDBRANCH  38  39
ENDBRANCH  37  38
ENDBRANCH  36  37
ENDBRANCH  35  36
ENDBRANCH  34  35
ENDBRANCH   1  34
TORSDOF 25
ENDMDL
