MODEL 1
REMARK VINA RESULT:      -8.4      0.000      0.000
REMARK SMILES C[C@H]1[C@H](C)CC[C@@]2(C(=O)OCCOCCOCCOCCOC(=O)c3ccc(-c4c5nc(c(-c6c(F)c(F)c(F)c(F)c6F)c6ccc([nH]6)c(-c6c(F)c(F)c(F)c(F)c6F)c6nc(c(-c7c(F)c(F)c(F)c(F)c7F)c7ccc4[nH]7)C=C6)C=C5)cc3)CC[C@@]3(C)C(=CC[C@@H]4[C@@]5(C)CC[C@H](O)C(C)(C)[C@@H]5CC[C@]43C)[C@H]12
REMARK SMILES IDX 17 1 16 2 15 3 14 4 13 5 12 6 11 7 10 8 8 9 9 10 7 11 1 12
REMARK SMILES IDX 2 13 3 14 110 15 4 16 5 17 92 18 6 19 88 20 90 21 93 22
REMARK SMILES IDX 89 23 91 24 108 25 94 26 95 27 107 28 109 29 96 30 106 31
REMARK SMILES IDX 97 32 98 33 105 34 99 35 102 36 100 37 103 38 104 39 101 40
REMARK SMILES IDX 18 42 19 43 20 44 21 45 22 46 23 47 24 48 25 49 26 50 87 51
REMARK SMILES IDX 27 52 86 53 28 54 29 55 30 56 80 57 31 58 85 59 79 60 81 61
REMARK SMILES IDX 32 62 84 63 78 64 77 65 33 67 65 68 45 69 64 70 46 71 49 72
REMARK SMILES IDX 63 73 82 74 47 75 48 76 62 78 83 79 50 80 34 81 35 82 43 83
REMARK SMILES IDX 36 84 37 85 41 86 44 87 38 88 39 89 42 90 40 91 66 92 67 93
REMARK SMILES IDX 75 94 68 95 69 96 73 97 76 98 70 99 71 100 74 101 72 102
REMARK SMILES IDX 51 103 52 104 60 105 53 106 54 107 58 108 61 109 55 110
REMARK SMILES IDX 56 111 59 112 57 113
REMARK H PARENT 101 41 81 66 49 77
REMARK Flexibility Score: inf
ROOT
ATOM      1  C   UNL A   1      34.258  34.001  28.223  1.00  0.00     0.188 C 
ENDROOT
BRANCH   1   2
ATOM      2  O   UNL A   1      34.996  33.812  29.409  1.00  0.00    -0.377 OA
BRANCH   2   3
ATOM      3  C   UNL A   1      36.282  33.242  29.332  1.00  0.00     0.188 C 
BRANCH   3   4
ATOM      4  C   UNL A   1      37.438  34.235  29.548  1.00  0.00     0.188 C 
BRANCH   4   5
ATOM      5  O   UNL A   1      38.744  33.694  29.431  1.00  0.00    -0.376 OA
BRANCH   5   6
ATOM      6  C   UNL A   1      39.787  34.350  30.111  1.00  0.00     0.202 C 
BRANCH   6   7
ATOM      7  C   UNL A   1      41.170  34.530  29.498  1.00  0.00     0.261 C 
BRANCH   7   8
ATOM      8  O   UNL A   1      42.249  33.540  29.606  1.00  0.00    -0.463 OA
BRANCH   8   9
ATOM      9  C   UNL A   1      43.375  32.967  29.138  1.00  0.00     0.312 C 
ATOM     10  O   UNL A   1      43.783  32.879  27.989  1.00  0.00    -0.252 OA
BRANCH   9  11
ATOM     11  C   UNL A   1      44.228  32.458  30.314  1.00  0.00     0.075 C 
ATOM     12  C   UNL A   1      47.618  31.210  28.674  1.00  0.00     0.008 C 
ATOM     13  C   UNL A   1      46.113  31.361  28.897  1.00  0.00    -0.003 C 
ATOM     14  C   UNL A   1      45.428  29.965  29.170  1.00  0.00    -0.011 C 
ATOM     15  C   UNL A   1      45.742  32.547  29.941  1.00  0.00     0.036 C 
ATOM     16  C   UNL A   1      45.473  28.999  27.966  1.00  0.00     0.008 C 
ATOM     17  C   UNL A   1      43.945  30.065  29.536  1.00  0.00     0.005 C 
ATOM     18  C   UNL A   1      45.943  34.111  29.613  1.00  0.00    -0.063 C 
ATOM     19  C   UNL A   1      43.722  31.048  30.654  1.00  0.00     0.020 C 
ATOM     20  C   UNL A   1      43.958  33.306  31.577  1.00  0.00     0.020 C 
ATOM     21  C   UNL A   1      45.557  35.165  30.734  1.00  0.00    -0.006 C 
ATOM     22  C   UNL A   1      46.168  34.555  28.359  1.00  0.00    -0.027 C 
ATOM     23  C   UNL A   1      44.191  34.792  31.371  1.00  0.00     0.013 C 
ATOM     24  C   UNL A   1      46.629  35.051  31.843  1.00  0.00     0.017 C 
ATOM     25  C   UNL A   1      45.472  36.730  30.175  1.00  0.00    -0.020 C 
ATOM     26  C   UNL A   1      45.758  35.924  27.855  1.00  0.00     0.032 C 
ATOM     27  C   UNL A   1      44.759  36.667  28.779  1.00  0.00     0.006 C 
ATOM     28  C   UNL A   1      44.690  37.699  31.100  1.00  0.00     0.008 C 
ATOM     29  C   UNL A   1      46.908  37.327  30.056  1.00  0.00     0.012 C 
ATOM     30  C   UNL A   1      44.089  38.004  28.156  1.00  0.00    -0.025 C 
ATOM     31  C   UNL A   1      44.437  39.082  30.465  1.00  0.00     0.005 C 
ATOM     32  C   UNL A   1      45.087  38.677  27.192  1.00  0.00     0.012 C 
ATOM     33  C   UNL A   1      42.833  37.623  27.302  1.00  0.00     0.010 C 
ATOM     34  C   UNL A   1      43.488  38.938  29.271  1.00  0.00     0.003 C 
ATOM     35  C   UNL A   1      42.015  38.797  26.748  1.00  0.00     0.033 C 
ATOM     36  C   UNL A   1      42.790  40.266  28.752  1.00  0.00    -0.006 C 
ATOM     37  C   UNL A   1      41.628  39.839  27.800  1.00  0.00     0.120 C 
ATOM     38  C   UNL A   1      43.737  41.283  28.075  1.00  0.00     0.014 C 
ATOM     39  C   UNL A   1      42.146  41.045  29.931  1.00  0.00     0.014 C 
BRANCH  37  40
ATOM     40  O   UNL A   1      41.037  40.968  27.152  1.00  0.00    -0.393 OA
ATOM     41  H   UNL A   1      40.120  41.070  27.453  1.00  0.00     0.210 HD
ENDBRANCH  37  40
ENDBRANCH   9  11
ENDBRANCH   8   9
ENDBRANCH   7   8
ENDBRANCH   6   7
ENDBRANCH   5   6
ENDBRANCH   4   5
ENDBRANCH   3   4
ENDBRANCH   2   3
ENDBRANCH   1   2
BRANCH   1  42
ATOM     42  C   UNL A   1      32.727  33.825  28.160  1.00  0.00     0.188 C 
BRANCH  42  43
ATOM     43  O   UNL A   1      32.221  33.366  26.920  1.00  0.00    -0.376 OA
BRANCH  43  44
ATOM     44  C   UNL A   1      31.407  32.210  26.879  1.00  0.00     0.202 C 
BRANCH  44  45
ATOM     45  C   UNL A   1      32.085  30.835  26.749  1.00  0.00     0.261 C 
BRANCH  45  46
ATOM     46  O   UNL A   1      33.488  30.768  27.054  1.00  0.00    -0.460 OA
BRANCH  46  47
ATOM     47  C   UNL A   1      34.164  29.635  26.768  1.00  0.00     0.338 C 
ATOM     48  O   UNL A   1      33.967  28.881  25.829  1.00  0.00    -0.246 OA
BRANCH  47  49
ATOM     49  C   UNL A   1      35.383  29.621  27.621  1.00  0.00     0.060 A 
ATOM     50  C   UNL A   1      36.590  30.078  27.062  1.00  0.00     0.016 A 
ATOM     51  C   UNL A   1      35.311  29.342  28.993  1.00  0.00     0.016 A 
ATOM     52  C   UNL A   1      37.726  30.226  27.858  1.00  0.00     0.010 A 
ATOM     53  C   UNL A   1      36.467  29.422  29.779  1.00  0.00     0.010 A 
ATOM     54  C   UNL A   1      37.688  29.810  29.197  1.00  0.00    -0.014 A 
BRANCH  54  55
ATOM     55  C   UNL A   1      38.959  29.342  29.797  1.00  0.00     0.031 A 
ATOM     56  C   UNL A   1      39.377  30.048  31.064  1.00  0.00     0.074 A 
ATOM     57  C   UNL A   1      39.689  28.329  29.303  1.00  0.00     0.049 A 
ATOM     58  N   UNL A   1      40.422  29.860  31.826  1.00  0.00    -0.248 NA
ATOM     59  C   UNL A   1      38.474  31.112  31.545  1.00  0.00     0.031 C 
ATOM     60  C   UNL A   1      39.363  27.533  28.122  1.00  0.00     0.029 A 
ATOM     61  N   UNL A   1      40.874  27.797  29.750  1.00  0.00    -0.354 N 
ATOM     62  C   UNL A   1      40.285  30.766  32.871  1.00  0.00     0.074 A 
ATOM     63  C   UNL A   1      39.080  31.522  32.642  1.00  0.00     0.031 C 
ATOM     64  C   UNL A   1      40.337  26.623  27.928  1.00  0.00     0.029 A 
ATOM     65  C   UNL A   1      41.365  26.790  28.956  1.00  0.00     0.049 A 
ATOM     66  H   UNL A   1      41.331  28.110  30.565  1.00  0.00     0.167 HD
ATOM     67  C   UNL A   1      41.092  30.956  33.936  1.00  0.00     0.037 A 
ATOM     68  C   UNL A   1      42.523  26.106  29.050  1.00  0.00     0.037 A 
ATOM     69  C   UNL A   1      42.312  30.238  34.146  1.00  0.00     0.049 A 
ATOM     70  C   UNL A   1      43.466  26.412  30.192  1.00  0.00     0.074 A 
ATOM     71  C   UNL A   1      43.225  30.367  35.175  1.00  0.00     0.029 A 
ATOM     72  N   UNL A   1      42.799  29.263  33.288  1.00  0.00    -0.354 N 
ATOM     73  N   UNL A   1      43.321  27.254  31.188  1.00  0.00    -0.248 NA
ATOM     74  C   UNL A   1      44.736  25.670  30.222  1.00  0.00     0.031 C 
ATOM     75  C   UNL A   1      44.292  29.503  34.913  1.00  0.00     0.029 A 
ATOM     76  C   UNL A   1      44.014  28.796  33.753  1.00  0.00     0.049 A 
ATOM     77  H   UNL A   1      42.347  28.949  32.472  1.00  0.00     0.167 HD
ATOM     78  C   UNL A   1      44.460  27.120  31.975  1.00  0.00     0.074 A 
ATOM     79  C   UNL A   1      45.281  26.106  31.349  1.00  0.00     0.031 C 
ATOM     80  C   UNL A   1      44.801  27.773  33.114  1.00  0.00     0.037 A 
BRANCH  67  81
ATOM     81  C   UNL A   1      40.689  32.014  34.917  1.00  0.00     0.064 A 
ATOM     82  C   UNL A   1      41.121  33.343  34.785  1.00  0.00     0.173 A 
ATOM     83  C   UNL A   1      39.873  31.691  36.010  1.00  0.00     0.173 A 
ATOM     84  F   UNL A   1      41.936  33.691  33.777  1.00  0.00    -0.203 F 
ATOM     85  C   UNL A   1      40.765  34.307  35.725  1.00  0.00     0.198 A 
ATOM     86  C   UNL A   1      39.495  32.664  36.931  1.00  0.00     0.198 A 
ATOM     87  F   UNL A   1      39.448  30.432  36.189  1.00  0.00    -0.203 F 
ATOM     88  F   UNL A   1      41.231  35.557  35.609  1.00  0.00    -0.200 F 
ATOM     89  C   UNL A   1      39.945  33.969  36.791  1.00  0.00     0.200 A 
ATOM     90  F   UNL A   1      38.701  32.337  37.960  1.00  0.00    -0.200 F 
ATOM     91  F   UNL A   1      39.598  34.898  37.692  1.00  0.00    -0.200 F 
ENDBRANCH  67  81
BRANCH  68  92
ATOM     92  C   UNL A   1      42.883  25.081  28.032  1.00  0.00     0.064 A 
ATOM     93  C   UNL A   1      43.448  25.444  26.800  1.00  0.00     0.173 A 
ATOM     94  C   UNL A   1      42.616  23.720  28.245  1.00  0.00     0.173 A 
ATOM     95  F   UNL A   1      43.693  26.735  26.531  1.00  0.00    -0.203 F 
ATOM     96  C   UNL A   1      43.708  24.492  25.815  1.00  0.00     0.198 A 
ATOM     97  C   UNL A   1      42.903  22.765  27.271  1.00  0.00     0.198 A 
ATOM     98  F   UNL A   1      42.067  23.316  29.399  1.00  0.00    -0.203 F 
ATOM     99  F   UNL A   1      44.195  24.876  24.626  1.00  0.00    -0.200 F 
ATOM    100  C   UNL A   1      43.440  23.152  26.052  1.00  0.00     0.200 A 
ATOM    101  F   UNL A   1      42.649  21.472  27.508  1.00  0.00    -0.200 F 
ATOM    102  F   UNL A   1      43.687  22.239  25.105  1.00  0.00    -0.200 F 
ENDBRANCH  68  92
BRANCH  80 103
ATOM    103  C   UNL A   1      46.088  27.387  33.780  1.00  0.00     0.064 A 
ATOM    104  C   UNL A   1      46.149  26.350  34.721  1.00  0.00     0.173 A 
ATOM    105  C   UNL A   1      47.288  28.020  33.420  1.00  0.00     0.173 A 
ATOM    106  F   UNL A   1      45.029  25.719  35.106  1.00  0.00    -0.203 F 
ATOM    107  C   UNL A   1      47.360  25.978  35.297  1.00  0.00     0.198 A 
ATOM    108  C   UNL A   1      48.501  27.625  33.972  1.00  0.00     0.198 A 
ATOM    109  F   UNL A   1      47.284  29.009  32.511  1.00  0.00    -0.203 F 
ATOM    110  F   UNL A   1      47.390  25.016  36.228  1.00  0.00    -0.200 F 
ATOM    111  C   UNL A   1      48.535  26.609  34.915  1.00  0.00     0.200 A 
ATOM    112  F   UNL A   1      49.638  28.221  33.588  1.00  0.00    -0.200 F 
ATOM    113  F   UNL A   1      49.703  26.242  35.462  1.00  0.00    -0.200 F 
ENDBRANCH  80 103
ENDBRANCH  54  55
ENDBRANCH  47  49
ENDBRANCH  46  47
ENDBRANCH  45  46
ENDBRANCH  44  45
ENDBRANCH  43  44
ENDBRANCH  42  43
ENDBRANCH   1  42
TORSDOF 21
ENDMDL
MODEL 2
REMARK VINA RESULT:      -8.3      5.766     10.376
REMARK SMILES C[C@H]1[C@H](C)CC[C@@]2(C(=O)OCCOCCOCCOCCOC(=O)c3ccc(-c4c5nc(c(-c6c(F)c(F)c(F)c(F)c6F)c6ccc([nH]6)c(-c6c(F)c(F)c(F)c(F)c6F)c6nc(c(-c7c(F)c(F)c(F)c(F)c7F)c7ccc4[nH]7)C=C6)C=C5)cc3)CC[C@@]3(C)C(=CC[C@@H]4[C@@]5(C)CC[C@H](O)C(C)(C)[C@@H]5CC[C@]43C)[C@H]12
REMARK SMILES IDX 17 1 16 2 15 3 14 4 13 5 12 6 11 7 10 8 8 9 9 10 7 11 1 12
REMARK SMILES IDX 2 13 3 14 110 15 4 16 5 17 92 18 6 19 88 20 90 21 93 22
REMARK SMILES IDX 89 23 91 24 108 25 94 26 95 27 107 28 109 29 96 30 106 31
REMARK SMILES IDX 97 32 98 33 105 34 99 35 102 36 100 37 103 38 104 39 101 40
REMARK SMILES IDX 18 42 19 43 20 44 21 45 22 46 23 47 24 48 25 49 26 50 87 51
REMARK SMILES IDX 27 52 86 53 28 54 29 55 30 56 80 57 31 58 85 59 79 60 81 61
REMARK SMILES IDX 32 62 84 63 78 64 77 65 33 67 65 68 45 69 64 70 46 71 49 72
REMARK SMILES IDX 63 73 82 74 47 75 48 76 62 78 83 79 50 80 34 81 35 82 43 83
REMARK SMILES IDX 36 84 37 85 41 86 44 87 38 88 39 89 42 90 40 91 66 92 67 93
REMARK SMILES IDX 75 94 68 95 69 96 73 97 76 98 70 99 71 100 74 101 72 102
REMARK SMILES IDX 51 103 52 104 60 105 53 106 54 107 58 108 61 109 55 110
REMARK SMILES IDX 56 111 59 112 57 113
REMARK H PARENT 101 41 81 66 49 77
REMARK Flexibility Score: inf
ROOT
ATOM      1  C   UNL A   1      41.618  24.376  28.351  1.00  0.00     0.188 C 
ENDROOT
BRANCH   1   2
ATOM      2  O   UNL A   1      42.497  25.243  27.669  1.00  0.00    -0.377 OA
BRANCH   2   3
ATOM      3  C   UNL A   1      42.108  26.580  27.452  1.00  0.00     0.188 C 
BRANCH   3   4
ATOM      4  C   UNL A   1      40.673  26.753  26.923  1.00  0.00     0.188 C 
BRANCH   4   5
ATOM      5  O   UNL A   1      39.727  27.239  27.861  1.00  0.00    -0.376 OA
BRANCH   5   6
ATOM      6  C   UNL A   1      39.380  28.601  27.794  1.00  0.00     0.202 C 
BRANCH   6   7
ATOM      7  C   UNL A   1      39.956  29.635  28.753  1.00  0.00     0.261 C 
BRANCH   7   8
ATOM      8  O   UNL A   1      41.110  29.389  29.626  1.00  0.00    -0.463 OA
BRANCH   8   9
ATOM      9  C   UNL A   1      42.336  29.716  30.081  1.00  0.00     0.312 C 
ATOM     10  O   UNL A   1      43.046  30.667  29.788  1.00  0.00    -0.252 OA
BRANCH   9  11
ATOM     11  C   UNL A   1      42.765  28.725  31.179  1.00  0.00     0.075 C 
ATOM     12  C   UNL A   1      45.839  30.456  32.993  1.00  0.00     0.008 C 
ATOM     13  C   UNL A   1      44.973  29.924  31.851  1.00  0.00    -0.003 C 
ATOM     14  C   UNL A   1      45.750  28.853  30.989  1.00  0.00    -0.011 C 
ATOM     15  C   UNL A   1      43.483  29.499  32.331  1.00  0.00     0.036 C 
ATOM     16  C   UNL A   1      46.964  29.425  30.224  1.00  0.00     0.008 C 
ATOM     17  C   UNL A   1      44.891  28.183  29.914  1.00  0.00     0.005 C 
ATOM     18  C   UNL A   1      42.367  30.560  32.804  1.00  0.00    -0.063 C 
ATOM     19  C   UNL A   1      43.612  27.641  30.494  1.00  0.00     0.020 C 
ATOM     20  C   UNL A   1      41.532  27.987  31.743  1.00  0.00     0.020 C 
ATOM     21  C   UNL A   1      40.955  30.005  33.267  1.00  0.00    -0.006 C 
ATOM     22  C   UNL A   1      42.497  31.883  32.572  1.00  0.00    -0.027 C 
ATOM     23  C   UNL A   1      40.458  28.918  32.276  1.00  0.00     0.013 C 
ATOM     24  C   UNL A   1      41.172  29.316  34.634  1.00  0.00     0.017 C 
ATOM     25  C   UNL A   1      39.787  31.182  33.395  1.00  0.00    -0.020 C 
ATOM     26  C   UNL A   1      41.329  32.832  32.392  1.00  0.00     0.032 C 
ATOM     27  C   UNL A   1      39.969  32.128  32.158  1.00  0.00     0.006 C 
ATOM     28  C   UNL A   1      38.333  30.642  33.411  1.00  0.00     0.008 C 
ATOM     29  C   UNL A   1      39.963  31.957  34.737  1.00  0.00     0.012 C 
ATOM     30  C   UNL A   1      38.751  33.091  31.693  1.00  0.00    -0.025 C 
ATOM     31  C   UNL A   1      37.265  31.751  33.311  1.00  0.00     0.005 C 
ATOM     32  C   UNL A   1      38.939  34.491  32.313  1.00  0.00     0.012 C 
ATOM     33  C   UNL A   1      38.786  33.284  30.140  1.00  0.00     0.010 C 
ATOM     34  C   UNL A   1      37.346  32.425  31.937  1.00  0.00     0.003 C 
ATOM     35  C   UNL A   1      37.616  34.072  29.535  1.00  0.00     0.033 C 
ATOM     36  C   UNL A   1      36.090  33.289  31.493  1.00  0.00    -0.006 C 
ATOM     37  C   UNL A   1      36.235  33.569  29.963  1.00  0.00     0.120 C 
ATOM     38  C   UNL A   1      35.876  34.594  32.293  1.00  0.00     0.014 C 
ATOM     39  C   UNL A   1      34.776  32.485  31.682  1.00  0.00     0.014 C 
BRANCH  37  40
ATOM     40  O   UNL A   1      35.235  34.477  29.496  1.00  0.00    -0.393 OA
ATOM     41  H   UNL A   1      35.369  35.344  29.909  1.00  0.00     0.210 HD
ENDBRANCH  37  40
ENDBRANCH   9  11
ENDBRANCH   8   9
ENDBRANCH   7   8
ENDBRANCH   6   7
ENDBRANCH   5   6
ENDBRANCH   4   5
ENDBRANCH   3   4
ENDBRANCH   2   3
ENDBRANCH   1   2
BRANCH   1  42
ATOM     42  C   UNL A   1      42.018  22.944  28.762  1.00  0.00     0.188 C 
BRANCH  42  43
ATOM     43  O   UNL A   1      41.420  21.908  28.004  1.00  0.00    -0.376 OA
BRANCH  43  44
ATOM     44  C   UNL A   1      41.822  21.696  26.665  1.00  0.00     0.202 C 
BRANCH  44  45
ATOM     45  C   UNL A   1      43.325  21.576  26.357  1.00  0.00     0.261 C 
BRANCH  45  46
ATOM     46  O   UNL A   1      44.050  22.801  26.160  1.00  0.00    -0.460 OA
BRANCH  46  47
ATOM     47  C   UNL A   1      45.396  22.753  26.061  1.00  0.00     0.338 C 
ATOM     48  O   UNL A   1      46.072  21.800  25.713  1.00  0.00    -0.246 OA
BRANCH  47  49
ATOM     49  C   UNL A   1      45.895  24.152  26.160  1.00  0.00     0.060 A 
ATOM     50  C   UNL A   1      45.900  24.940  24.995  1.00  0.00     0.016 A 
ATOM     51  C   UNL A   1      46.180  24.740  27.401  1.00  0.00     0.016 A 
ATOM     52  C   UNL A   1      46.215  26.296  25.061  1.00  0.00     0.010 A 
ATOM     53  C   UNL A   1      46.565  26.084  27.459  1.00  0.00     0.010 A 
ATOM     54  C   UNL A   1      46.638  26.847  26.279  1.00  0.00    -0.014 A 
BRANCH  54  55
ATOM     55  C   UNL A   1      47.568  27.999  26.216  1.00  0.00     0.031 A 
ATOM     56  C   UNL A   1      46.941  29.353  26.439  1.00  0.00     0.074 A 
ATOM     57  C   UNL A   1      48.892  27.879  26.025  1.00  0.00     0.049 A 
ATOM     58  N   UNL A   1      47.486  30.541  26.458  1.00  0.00    -0.248 NA
ATOM     59  C   UNL A   1      45.486  29.363  26.689  1.00  0.00     0.031 C 
ATOM     60  C   UNL A   1      49.624  26.626  25.856  1.00  0.00     0.029 A 
ATOM     61  N   UNL A   1      49.862  28.848  25.944  1.00  0.00    -0.354 N 
ATOM     62  C   UNL A   1      46.447  31.420  26.736  1.00  0.00     0.074 A 
ATOM     63  C   UNL A   1      45.237  30.647  26.853  1.00  0.00     0.031 C 
ATOM     64  C   UNL A   1      50.929  26.906  25.671  1.00  0.00     0.029 A 
ATOM     65  C   UNL A   1      51.118  28.357  25.687  1.00  0.00     0.049 A 
ATOM     66  H   UNL A   1      49.673  29.809  26.058  1.00  0.00     0.167 HD
ATOM     67  C   UNL A   1      46.492  32.761  26.885  1.00  0.00     0.037 A 
ATOM     68  C   UNL A   1      52.274  29.017  25.469  1.00  0.00     0.037 A 
ATOM     69  C   UNL A   1      47.683  33.538  26.726  1.00  0.00     0.049 A 
ATOM     70  C   UNL A   1      52.279  30.528  25.532  1.00  0.00     0.074 A 
ATOM     71  C   UNL A   1      47.842  34.907  26.825  1.00  0.00     0.029 A 
ATOM     72  N   UNL A   1      48.925  33.005  26.414  1.00  0.00    -0.354 N 
ATOM     73  N   UNL A   1      51.299  31.353  25.817  1.00  0.00    -0.248 NA
ATOM     74  C   UNL A   1      53.555  31.200  25.242  1.00  0.00     0.031 C 
ATOM     75  C   UNL A   1      49.173  35.207  26.522  1.00  0.00     0.029 A 
ATOM     76  C   UNL A   1      49.854  34.021  26.292  1.00  0.00     0.049 A 
ATOM     77  H   UNL A   1      49.117  32.046  26.296  1.00  0.00     0.167 HD
ATOM     78  C   UNL A   1      51.845  32.631  25.772  1.00  0.00     0.074 A 
ATOM     79  C   UNL A   1      53.246  32.473  25.446  1.00  0.00     0.031 C 
ATOM     80  C   UNL A   1      51.246  33.830  25.981  1.00  0.00     0.037 A 
BRANCH  67  81
ATOM     81  C   UNL A   1      45.201  33.457  27.187  1.00  0.00     0.064 A 
ATOM     82  C   UNL A   1      44.476  34.131  26.192  1.00  0.00     0.173 A 
ATOM     83  C   UNL A   1      44.690  33.462  28.493  1.00  0.00     0.173 A 
ATOM     84  F   UNL A   1      44.946  34.186  24.936  1.00  0.00    -0.203 F 
ATOM     85  C   UNL A   1      43.295  34.801  26.498  1.00  0.00     0.198 A 
ATOM     86  C   UNL A   1      43.493  34.109  28.789  1.00  0.00     0.198 A 
ATOM     87  F   UNL A   1      45.354  32.847  29.482  1.00  0.00    -0.203 F 
ATOM     88  F   UNL A   1      42.647  35.482  25.544  1.00  0.00    -0.200 F 
ATOM     89  C   UNL A   1      42.800  34.782  27.794  1.00  0.00     0.200 A 
ATOM     90  F   UNL A   1      43.015  34.088  30.041  1.00  0.00    -0.200 F 
ATOM     91  F   UNL A   1      41.660  35.423  28.087  1.00  0.00    -0.200 F 
ENDBRANCH  67  81
BRANCH  68  92
ATOM     92  C   UNL A   1      53.523  28.273  25.148  1.00  0.00     0.064 A 
ATOM     93  C   UNL A   1      53.882  27.990  23.821  1.00  0.00     0.173 A 
ATOM     94  C   UNL A   1      54.355  27.779  26.163  1.00  0.00     0.173 A 
ATOM     95  F   UNL A   1      53.103  28.411  22.814  1.00  0.00    -0.203 F 
ATOM     96  C   UNL A   1      55.008  27.222  23.526  1.00  0.00     0.198 A 
ATOM     97  C   UNL A   1      55.497  27.036  25.866  1.00  0.00     0.198 A 
ATOM     98  F   UNL A   1      54.056  28.010  27.450  1.00  0.00    -0.203 F 
ATOM     99  F   UNL A   1      55.294  26.920  22.251  1.00  0.00    -0.200 F 
ATOM    100  C   UNL A   1      55.818  26.750  24.547  1.00  0.00     0.200 A 
ATOM    101  F   UNL A   1      56.279  26.588  26.856  1.00  0.00    -0.200 F 
ATOM    102  F   UNL A   1      56.897  26.010  24.262  1.00  0.00    -0.200 F 
ENDBRANCH  68  92
BRANCH  80 103
ATOM    103  C   UNL A   1      52.104  35.058  25.909  1.00  0.00     0.064 A 
ATOM    104  C   UNL A   1      52.271  35.772  24.714  1.00  0.00     0.173 A 
ATOM    105  C   UNL A   1      52.712  35.564  27.069  1.00  0.00     0.173 A 
ATOM    106  F   UNL A   1      51.717  35.324  23.577  1.00  0.00    -0.203 F 
ATOM    107  C   UNL A   1      53.038  36.933  24.677  1.00  0.00     0.198 A 
ATOM    108  C   UNL A   1      53.450  36.743  27.035  1.00  0.00     0.198 A 
ATOM    109  F   UNL A   1      52.569  34.926  28.241  1.00  0.00    -0.203 F 
ATOM    110  F   UNL A   1      53.222  37.575  23.516  1.00  0.00    -0.200 F 
ATOM    111  C   UNL A   1      53.618  37.422  25.838  1.00  0.00     0.200 A 
ATOM    112  F   UNL A   1      53.993  37.225  28.161  1.00  0.00    -0.200 F 
ATOM    113  F   UNL A   1      54.346  38.547  25.803  1.00  0.00    -0.200 F 
ENDBRANCH  80 103
ENDBRANCH  54  55
ENDBRANCH  47  49
ENDBRANCH  46  47
ENDBRANCH  45  46
ENDBRANCH  44  45
ENDBRANCH  43  44
ENDBRANCH  42  43
ENDBRANCH   1  42
TORSDOF 21
ENDMDL
MODEL 3
REMARK VINA RESULT:      -8.3      3.796     10.456
REMARK SMILES C[C@H]1[C@H](C)CC[C@@]2(C(=O)OCCOCCOCCOCCOC(=O)c3ccc(-c4c5nc(c(-c6c(F)c(F)c(F)c(F)c6F)c6ccc([nH]6)c(-c6c(F)c(F)c(F)c(F)c6F)c6nc(c(-c7c(F)c(F)c(F)c(F)c7F)c7ccc4[nH]7)C=C6)C=C5)cc3)CC[C@@]3(C)C(=CC[C@@H]4[C@@]5(C)CC[C@H](O)C(C)(C)[C@@H]5CC[C@]43C)[C@H]12
REMARK SMILES IDX 17 1 16 2 15 3 14 4 13 5 12 6 11 7 10 8 8 9 9 10 7 11 1 12
REMARK SMILES IDX 2 13 3 14 110 15 4 16 5 17 92 18 6 19 88 20 90 21 93 22
REMARK SMILES IDX 89 23 91 24 108 25 94 26 95 27 107 28 109 29 96 30 106 31
REMARK SMILES IDX 97 32 98 33 105 34 99 35 102 36 100 37 103 38 104 39 101 40
REMARK SMILES IDX 18 42 19 43 20 44 21 45 22 46 23 47 24 48 25 49 26 50 87 51
REMARK SMILES IDX 27 52 86 53 28 54 29 55 30 56 80 57 31 58 85 59 79 60 81 61
REMARK SMILES IDX 32 62 84 63 78 64 77 65 33 67 65 68 45 69 64 70 46 71 49 72
REMARK SMILES IDX 63 73 82 74 47 75 48 76 62 78 83 79 50 80 34 81 35 82 43 83
REMARK SMILES IDX 36 84 37 85 41 86 44 87 38 88 39 89 42 90 40 91 66 92 67 93
REMARK SMILES IDX 75 94 68 95 69 96 73 97 76 98 70 99 71 100 74 101 72 102
REMARK SMILES IDX 51 103 52 104 60 105 53 106 54 107 58 108 61 109 55 110
REMARK SMILES IDX 56 111 59 112 57 113
REMARK H PARENT 101 41 81 66 49 77
REMARK Flexibility Score: inf
ROOT
ATOM      1  C   UNL A   1      46.195  23.771  26.589  1.00  0.00     0.188 C 
ENDROOT
BRANCH   1   2
ATOM      2  O   UNL A   1      45.352  23.285  27.609  1.00  0.00    -0.377 OA
BRANCH   2   3
ATOM      3  C   UNL A   1      45.207  24.034  28.793  1.00  0.00     0.188 C 
BRANCH   3   4
ATOM      4  C   UNL A   1      44.407  23.330  29.904  1.00  0.00     0.188 C 
BRANCH   4   5
ATOM      5  O   UNL A   1      44.672  23.769  31.226  1.00  0.00    -0.376 OA
BRANCH   5   6
ATOM      6  C   UNL A   1      43.838  23.291  32.254  1.00  0.00     0.202 C 
BRANCH   6   7
ATOM      7  C   UNL A   1      43.986  23.748  33.700  1.00  0.00     0.261 C 
BRANCH   7   8
ATOM      8  O   UNL A   1      45.256  24.179  34.297  1.00  0.00    -0.463 OA
BRANCH   8   9
ATOM      9  C   UNL A   1      46.523  24.625  34.180  1.00  0.00     0.312 C 
ATOM     10  O   UNL A   1      47.059  25.208  33.250  1.00  0.00    -0.252 OA
BRANCH   9  11
ATOM     11  C   UNL A   1      47.283  24.383  35.497  1.00  0.00     0.075 C 
ATOM     12  C   UNL A   1      50.933  25.802  34.864  1.00  0.00     0.008 C 
ATOM     13  C   UNL A   1      49.652  25.003  34.621  1.00  0.00    -0.003 C 
ATOM     14  C   UNL A   1      49.952  23.456  34.504  1.00  0.00    -0.011 C 
ATOM     15  C   UNL A   1      48.448  25.415  35.627  1.00  0.00     0.036 C 
ATOM     16  C   UNL A   1      50.799  23.074  33.271  1.00  0.00     0.008 C 
ATOM     17  C   UNL A   1      48.694  22.589  34.398  1.00  0.00     0.005 C 
ATOM     18  C   UNL A   1      47.684  26.831  35.562  1.00  0.00    -0.063 C 
ATOM     19  C   UNL A   1      47.716  22.908  35.496  1.00  0.00     0.020 C 
ATOM     20  C   UNL A   1      46.327  24.529  36.701  1.00  0.00     0.020 C 
ATOM     21  C   UNL A   1      46.537  27.112  36.620  1.00  0.00    -0.006 C 
ATOM     22  C   UNL A   1      47.800  27.657  34.500  1.00  0.00    -0.027 C 
ATOM     23  C   UNL A   1      45.616  25.869  36.752  1.00  0.00     0.013 C 
ATOM     24  C   UNL A   1      47.230  27.319  37.987  1.00  0.00     0.017 C 
ATOM     25  C   UNL A   1      45.596  28.434  36.247  1.00  0.00    -0.020 C 
ATOM     26  C   UNL A   1      46.724  28.626  34.056  1.00  0.00     0.032 C 
ATOM     27  C   UNL A   1      45.337  28.375  34.701  1.00  0.00     0.006 C 
ATOM     28  C   UNL A   1      44.234  28.479  36.988  1.00  0.00     0.008 C 
ATOM     29  C   UNL A   1      46.340  29.742  36.652  1.00  0.00     0.012 C 
ATOM     30  C   UNL A   1      44.103  29.205  34.059  1.00  0.00    -0.025 C 
ATOM     31  C   UNL A   1      43.291  29.585  36.470  1.00  0.00     0.005 C 
ATOM     32  C   UNL A   1      44.615  30.564  33.539  1.00  0.00     0.012 C 
ATOM     33  C   UNL A   1      43.534  28.439  32.817  1.00  0.00     0.010 C 
ATOM     34  C   UNL A   1      42.867  29.272  35.031  1.00  0.00     0.003 C 
ATOM     35  C   UNL A   1      42.276  29.041  32.176  1.00  0.00     0.033 C 
ATOM     36  C   UNL A   1      41.599  30.051  34.477  1.00  0.00    -0.006 C 
ATOM     37  C   UNL A   1      41.147  29.331  33.167  1.00  0.00     0.120 C 
ATOM     38  C   UNL A   1      41.807  31.566  34.252  1.00  0.00     0.014 C 
ATOM     39  C   UNL A   1      40.416  29.955  35.478  1.00  0.00     0.014 C 
BRANCH  37  40
ATOM     40  O   UNL A   1      40.107  30.052  32.502  1.00  0.00    -0.393 OA
ATOM     41  H   UNL A   1      40.496  30.770  31.978  1.00  0.00     0.210 HD
ENDBRANCH  37  40
ENDBRANCH   9  11
ENDBRANCH   8   9
ENDBRANCH   7   8
ENDBRANCH   6   7
ENDBRANCH   5   6
ENDBRANCH   4   5
ENDBRANCH   3   4
ENDBRANCH   2   3
ENDBRANCH   1   2
BRANCH   1  42
ATOM     42  C   UNL A   1      46.344  23.061  25.227  1.00  0.00     0.188 C 
BRANCH  42  43
ATOM     43  O   UNL A   1      45.417  23.460  24.233  1.00  0.00    -0.376 OA
BRANCH  43  44
ATOM     44  C   UNL A   1      44.131  22.872  24.198  1.00  0.00     0.202 C 
BRANCH  44  45
ATOM     45  C   UNL A   1      43.025  23.465  25.088  1.00  0.00     0.261 C 
BRANCH  45  46
ATOM     46  O   UNL A   1      42.292  22.548  25.916  1.00  0.00    -0.460 OA
BRANCH  46  47
ATOM     47  C   UNL A   1      40.969  22.747  26.097  1.00  0.00     0.338 C 
ATOM     48  O   UNL A   1      40.082  21.916  25.993  1.00  0.00    -0.246 OA
BRANCH  47  49
ATOM     49  C   UNL A   1      40.806  24.081  26.736  1.00  0.00     0.060 A 
ATOM     50  C   UNL A   1      40.726  25.211  25.904  1.00  0.00     0.016 A 
ATOM     51  C   UNL A   1      40.554  24.206  28.110  1.00  0.00     0.016 A 
ATOM     52  C   UNL A   1      40.426  26.463  26.439  1.00  0.00     0.010 A 
ATOM     53  C   UNL A   1      40.323  25.473  28.659  1.00  0.00     0.010 A 
ATOM     54  C   UNL A   1      40.316  26.609  27.829  1.00  0.00    -0.014 A 
BRANCH  54  55
ATOM     55  C   UNL A   1      40.672  27.929  28.403  1.00  0.00     0.031 A 
ATOM     56  C   UNL A   1      42.149  28.178  28.589  1.00  0.00     0.074 A 
ATOM     57  C   UNL A   1      39.772  28.881  28.700  1.00  0.00     0.049 A 
ATOM     58  N   UNL A   1      42.773  29.229  29.051  1.00  0.00    -0.248 NA
ATOM     59  C   UNL A   1      43.050  27.082  28.182  1.00  0.00     0.031 C 
ATOM     60  C   UNL A   1      38.327  28.783  28.512  1.00  0.00     0.029 A 
ATOM     61  N   UNL A   1      39.959  30.133  29.231  1.00  0.00    -0.354 N 
ATOM     62  C   UNL A   1      44.126  28.920  28.970  1.00  0.00     0.074 A 
ATOM     63  C   UNL A   1      44.241  27.584  28.445  1.00  0.00     0.031 C 
ATOM     64  C   UNL A   1      37.754  29.924  28.941  1.00  0.00     0.029 A 
ATOM     65  C   UNL A   1      38.791  30.821  29.453  1.00  0.00     0.049 A 
ATOM     66  H   UNL A   1      40.848  30.504  29.436  1.00  0.00     0.167 HD
ATOM     67  C   UNL A   1      45.188  29.684  29.304  1.00  0.00     0.037 A 
ATOM     68  C   UNL A   1      38.597  32.027  30.026  1.00  0.00     0.037 A 
ATOM     69  C   UNL A   1      45.077  30.995  29.867  1.00  0.00     0.049 A 
ATOM     70  C   UNL A   1      39.797  32.819  30.494  1.00  0.00     0.074 A 
ATOM     71  C   UNL A   1      46.085  31.850  30.270  1.00  0.00     0.029 A 
ATOM     72  N   UNL A   1      43.873  31.634  30.124  1.00  0.00    -0.354 N 
ATOM     73  N   UNL A   1      41.074  32.532  30.396  1.00  0.00    -0.248 NA
ATOM     74  C   UNL A   1      39.527  34.106  31.153  1.00  0.00     0.031 C 
ATOM     75  C   UNL A   1      45.488  32.988  30.819  1.00  0.00     0.029 A 
ATOM     76  C   UNL A   1      44.112  32.865  30.704  1.00  0.00     0.049 A 
ATOM     77  H   UNL A   1      42.983  31.265  29.924  1.00  0.00     0.167 HD
ATOM     78  C   UNL A   1      41.755  33.611  30.948  1.00  0.00     0.074 A 
ATOM     79  C   UNL A   1      40.752  34.565  31.368  1.00  0.00     0.031 C 
ATOM     80  C   UNL A   1      43.090  33.801  31.097  1.00  0.00     0.037 A 
BRANCH  67  81
ATOM     81  C   UNL A   1      46.546  29.085  29.106  1.00  0.00     0.064 A 
ATOM     82  C   UNL A   1      47.107  28.204  30.044  1.00  0.00     0.173 A 
ATOM     83  C   UNL A   1      47.303  29.410  27.971  1.00  0.00     0.173 A 
ATOM     84  F   UNL A   1      46.436  27.895  31.164  1.00  0.00    -0.203 F 
ATOM     85  C   UNL A   1      48.385  27.683  29.860  1.00  0.00     0.198 A 
ATOM     86  C   UNL A   1      48.569  28.864  27.777  1.00  0.00     0.198 A 
ATOM     87  F   UNL A   1      46.819  30.261  27.055  1.00  0.00    -0.203 F 
ATOM     88  F   UNL A   1      48.921  26.886  30.793  1.00  0.00    -0.200 F 
ATOM     89  C   UNL A   1      49.111  28.007  28.724  1.00  0.00     0.200 A 
ATOM     90  F   UNL A   1      49.269  29.176  26.678  1.00  0.00    -0.200 F 
ATOM     91  F   UNL A   1      50.339  27.501  28.545  1.00  0.00    -0.200 F 
ENDBRANCH  67  81
BRANCH  68  92
ATOM     92  C   UNL A   1      37.221  32.561  30.220  1.00  0.00     0.064 A 
ATOM     93  C   UNL A   1      36.627  33.407  29.272  1.00  0.00     0.173 A 
ATOM     94  C   UNL A   1      36.492  32.284  31.387  1.00  0.00     0.173 A 
ATOM     95  F   UNL A   1      37.294  33.731  28.154  1.00  0.00    -0.203 F 
ATOM     96  C   UNL A   1      35.372  33.973  29.493  1.00  0.00     0.198 A 
ATOM     97  C   UNL A   1      35.225  32.827  31.594  1.00  0.00     0.198 A 
ATOM     98  F   UNL A   1      37.014  31.490  32.333  1.00  0.00    -0.203 F 
ATOM     99  F   UNL A   1      34.854  34.823  28.595  1.00  0.00    -0.200 F 
ATOM    100  C   UNL A   1      34.669  33.678  30.652  1.00  0.00     0.200 A 
ATOM    101  F   UNL A   1      34.547  32.533  32.712  1.00  0.00    -0.200 F 
ATOM    102  F   UNL A   1      33.465  34.225  30.865  1.00  0.00    -0.200 F 
ENDBRANCH  68  92
BRANCH  80 103
ATOM    103  C   UNL A   1      43.547  35.098  31.696  1.00  0.00     0.064 A 
ATOM    104  C   UNL A   1      43.746  36.243  30.911  1.00  0.00     0.173 A 
ATOM    105  C   UNL A   1      43.722  35.212  33.084  1.00  0.00     0.173 A 
ATOM    106  F   UNL A   1      43.600  36.183  29.579  1.00  0.00    -0.203 F 
ATOM    107  C   UNL A   1      44.130  37.448  31.492  1.00  0.00     0.198 A 
ATOM    108  C   UNL A   1      44.072  36.426  33.665  1.00  0.00     0.198 A 
ATOM    109  F   UNL A   1      43.527  34.148  33.880  1.00  0.00    -0.203 F 
ATOM    110  F   UNL A   1      44.359  38.518  30.720  1.00  0.00    -0.200 F 
ATOM    111  C   UNL A   1      44.283  37.541  32.868  1.00  0.00     0.200 A 
ATOM    112  F   UNL A   1      44.201  36.519  34.995  1.00  0.00    -0.200 F 
ATOM    113  F   UNL A   1      44.641  38.705  33.427  1.00  0.00    -0.200 F 
ENDBRANCH  80 103
ENDBRANCH  54  55
ENDBRANCH  47  49
ENDBRANCH  46  47
ENDBRANCH  45  46
ENDBRANCH  44  45
ENDBRANCH  43  44
ENDBRANCH  42  43
ENDBRANCH   1  42
TORSDOF 21
ENDMDL
