MODEL 1
REMARK VINA RESULT:     -11.2      0.000      0.000
REMARK SMILES Cc1nn(Cc2ccc(Cl)cc2Cl)c(C)c1NC(=O)c1c(C(=O)OCCOCCOCCOCCOC(=O)c2ccc(-c3c4nc(c(-c5c(F)c(F)c(F)c(F)c5F)c5ccc([nH]5)c(-c5c(F)c(F)c(F)c(F)c5F)c5nc(c(-c6c(F)c(F)c(F)c(F)c6F)c6ccc3[nH]6)C=C5)C=C4)cc2)cnn1C
REMARK SMILES IDX 29 1 28 2 27 3 26 4 25 5 24 6 22 7 23 8 21 9 20 10 104 11
REMARK SMILES IDX 102 12 103 13 105 14 18 15 17 16 19 18 16 19 1 20 2 21 3 22
REMARK SMILES IDX 4 23 14 24 15 25 5 26 6 27 7 28 12 29 8 30 11 31 13 32 9 33
REMARK SMILES IDX 10 34 30 35 31 36 32 37 33 38 34 39 35 40 36 41 37 42 38 43
REMARK SMILES IDX 39 44 40 45 101 46 41 47 100 48 42 49 43 50 44 51 94 52
REMARK SMILES IDX 45 53 99 54 93 55 95 56 46 57 98 58 92 59 91 60 47 62 79 63
REMARK SMILES IDX 59 64 78 65 60 66 63 67 77 68 96 69 61 70 62 71 76 73 97 74
REMARK SMILES IDX 64 75 48 76 49 77 57 78 50 79 51 80 55 81 58 82 52 83 53 84
REMARK SMILES IDX 56 85 54 86 80 87 81 88 89 89 82 90 83 91 87 92 90 93 84 94
REMARK SMILES IDX 85 95 88 96 86 97 65 98 66 99 74 100 67 101 68 102 72 103
REMARK SMILES IDX 75 104 69 105 70 106 73 107 71 108
REMARK H PARENT 17 17 95 61 63 72
REMARK Flexibility Score: inf
ROOT
ATOM      1  C   UNL A   1      32.286  30.711  26.864  1.00  0.00     0.188 C 
ENDROOT
BRANCH   1   2
ATOM      2  C   UNL A   1      32.202  29.551  25.866  1.00  0.00     0.188 C 
BRANCH   2   3
ATOM      3  O   UNL A   1      33.220  29.402  24.879  1.00  0.00    -0.376 OA
BRANCH   3   4
ATOM      4  C   UNL A   1      32.864  29.225  23.517  1.00  0.00     0.202 C 
BRANCH   4   5
ATOM      5  C   UNL A   1      31.368  29.163  23.194  1.00  0.00     0.261 C 
BRANCH   5   6
ATOM      6  O   UNL A   1      30.871  27.883  22.767  1.00  0.00    -0.460 OA
BRANCH   6   7
ATOM      7  C   UNL A   1      31.021  26.856  23.663  1.00  0.00     0.342 C 
ATOM      8  O   UNL A   1      30.349  26.705  24.661  1.00  0.00    -0.246 OA
BRANCH   7   9
ATOM      9  C   UNL A   1      32.100  25.955  23.293  1.00  0.00     0.111 A 
ATOM     10  C   UNL A   1      33.078  25.416  24.123  1.00  0.00     0.140 A 
ATOM     11  N   UNL A   1      34.036  24.927  23.274  1.00  0.00    -0.262 N 
ATOM     12  C   UNL A   1      32.443  25.481  22.009  1.00  0.00     0.151 A 
ATOM     13  N   UNL A   1      33.616  24.842  21.994  1.00  0.00    -0.180 NA
ATOM     14  C   UNL A   1      35.356  24.452  23.624  1.00  0.00     0.174 C 
BRANCH  10  15
ATOM     15  C   UNL A   1      33.235  25.470  25.546  1.00  0.00     0.274 C 
ATOM     16  N   UNL A   1      32.894  24.390  26.324  1.00  0.00    -0.317 N 
ATOM     17  H   UNL A   1      32.940  24.574  27.290  1.00  0.00     0.170 HD
ATOM     18  O   UNL A   1      33.662  26.475  26.113  1.00  0.00    -0.267 OA
BRANCH  16  19
ATOM     19  C   UNL A   1      32.499  23.094  26.030  1.00  0.00     0.085 A 
ATOM     20  C   UNL A   1      29.987  23.354  26.725  1.00  0.00     0.071 C 
ATOM     21  C   UNL A   1      31.167  22.608  26.205  1.00  0.00     0.083 A 
ATOM     22  N   UNL A   1      31.029  21.353  25.750  1.00  0.00    -0.175 NA
ATOM     23  N   UNL A   1      32.237  21.075  25.215  1.00  0.00    -0.263 N 
ATOM     24  C   UNL A   1      33.197  21.971  25.631  1.00  0.00     0.060 A 
ATOM     25  C   UNL A   1      34.612  21.555  25.632  1.00  0.00     0.069 C 
BRANCH  23  26
ATOM     26  C   UNL A   1      32.355  20.213  24.032  1.00  0.00     0.181 C 
BRANCH  26  27
ATOM     27  C   UNL A   1      32.667  18.767  24.317  1.00  0.00    -0.008 A 
ATOM     28  C   UNL A   1      32.782  18.370  25.660  1.00  0.00     0.009 A 
ATOM     29  C   UNL A   1      32.736  17.771  23.329  1.00  0.00     0.047 A 
ATOM     30  C   UNL A   1      32.908  17.028  26.014  1.00  0.00     0.021 A 
ATOM     31  C   UNL A   1      32.902  16.426  23.680  1.00  0.00     0.041 A 
ATOM     32  Cl  UNL A   1      32.557  18.119  21.647  1.00  0.00    -0.084 Cl
ATOM     33  C   UNL A   1      32.966  16.060  25.019  1.00  0.00     0.042 A 
ATOM     34  Cl  UNL A   1      33.076  14.401  25.454  1.00  0.00    -0.084 Cl
ENDBRANCH  26  27
ENDBRANCH  23  26
ENDBRANCH  16  19
ENDBRANCH  10  15
ENDBRANCH   7   9
ENDBRANCH   6   7
ENDBRANCH   5   6
ENDBRANCH   4   5
ENDBRANCH   3   4
ENDBRANCH   2   3
ENDBRANCH   1   2
BRANCH   1  35
ATOM     35  O   UNL A   1      33.475  30.737  27.629  1.00  0.00    -0.377 OA
BRANCH  35  36
ATOM     36  C   UNL A   1      34.044  32.008  27.908  1.00  0.00     0.188 C 
BRANCH  36  37
ATOM     37  C   UNL A   1      33.189  33.249  27.632  1.00  0.00     0.188 C 
BRANCH  37  38
ATOM     38  O   UNL A   1      33.826  34.435  28.112  1.00  0.00    -0.376 OA
BRANCH  38  39
ATOM     39  C   UNL A   1      32.994  35.285  28.901  1.00  0.00     0.202 C 
BRANCH  39  40
ATOM     40  C   UNL A   1      33.655  35.674  30.209  1.00  0.00     0.261 C 
BRANCH  40  41
ATOM     41  O   UNL A   1      33.150  34.947  31.320  1.00  0.00    -0.460 OA
BRANCH  41  42
ATOM     42  C   UNL A   1      33.469  35.393  32.553  1.00  0.00     0.338 C 
ATOM     43  O   UNL A   1      33.170  36.461  33.052  1.00  0.00    -0.246 OA
BRANCH  42  44
ATOM     44  C   UNL A   1      34.489  34.453  33.061  1.00  0.00     0.060 A 
ATOM     45  C   UNL A   1      35.698  34.998  33.477  1.00  0.00     0.016 A 
ATOM     46  C   UNL A   1      34.368  33.083  32.772  1.00  0.00     0.016 A 
ATOM     47  C   UNL A   1      36.832  34.229  33.316  1.00  0.00     0.010 A 
ATOM     48  C   UNL A   1      35.500  32.326  32.585  1.00  0.00     0.010 A 
ATOM     49  C   UNL A   1      36.724  32.946  32.753  1.00  0.00    -0.014 A 
BRANCH  49  50
ATOM     50  C   UNL A   1      37.936  32.197  32.518  1.00  0.00     0.031 A 
ATOM     51  C   UNL A   1      38.726  32.065  33.746  1.00  0.00     0.074 A 
ATOM     52  C   UNL A   1      38.336  31.662  31.352  1.00  0.00     0.049 A 
ATOM     53  N   UNL A   1      39.683  32.850  34.099  1.00  0.00    -0.248 NA
ATOM     54  C   UNL A   1      38.272  31.135  34.783  1.00  0.00     0.031 C 
ATOM     55  C   UNL A   1      37.594  31.450  30.114  1.00  0.00     0.029 A 
ATOM     56  N   UNL A   1      39.564  31.142  31.073  1.00  0.00    -0.354 N 
ATOM     57  C   UNL A   1      40.105  32.380  35.328  1.00  0.00     0.074 A 
ATOM     58  C   UNL A   1      39.073  31.487  35.792  1.00  0.00     0.031 C 
ATOM     59  C   UNL A   1      38.332  30.669  29.284  1.00  0.00     0.029 A 
ATOM     60  C   UNL A   1      39.647  30.454  29.872  1.00  0.00     0.049 A 
ATOM     61  H   UNL A   1      40.333  31.247  31.678  1.00  0.00     0.167 HD
ATOM     62  C   UNL A   1      41.400  32.550  35.700  1.00  0.00     0.037 A 
ATOM     63  C   UNL A   1      40.718  29.739  29.444  1.00  0.00     0.037 A 
ATOM     64  C   UNL A   1      42.047  33.562  34.888  1.00  0.00     0.049 A 
ATOM     65  C   UNL A   1      41.916  30.266  30.153  1.00  0.00     0.074 A 
ATOM     66  C   UNL A   1      41.774  34.887  34.593  1.00  0.00     0.029 A 
ATOM     67  N   UNL A   1      42.916  33.146  33.906  1.00  0.00    -0.354 N 
ATOM     68  N   UNL A   1      42.437  31.438  29.919  1.00  0.00    -0.248 NA
ATOM     69  C   UNL A   1      42.273  29.674  31.434  1.00  0.00     0.031 C 
ATOM     70  C   UNL A   1      42.092  35.041  33.209  1.00  0.00     0.029 A 
ATOM     71  C   UNL A   1      42.604  33.827  32.755  1.00  0.00     0.049 A 
ATOM     72  H   UNL A   1      43.633  32.481  34.010  1.00  0.00     0.167 HD
ATOM     73  C   UNL A   1      42.775  31.924  31.172  1.00  0.00     0.074 A 
ATOM     74  C   UNL A   1      42.754  30.758  32.051  1.00  0.00     0.031 C 
ATOM     75  C   UNL A   1      42.754  33.264  31.433  1.00  0.00     0.037 A 
BRANCH  62  76
ATOM     76  C   UNL A   1      42.169  31.519  36.482  1.00  0.00     0.064 A 
ATOM     77  C   UNL A   1      42.955  31.950  37.566  1.00  0.00     0.173 A 
ATOM     78  C   UNL A   1      42.412  30.199  36.039  1.00  0.00     0.173 A 
ATOM     79  F   UNL A   1      42.819  33.191  38.056  1.00  0.00    -0.203 F 
ATOM     80  C   UNL A   1      43.970  31.153  38.099  1.00  0.00     0.198 A 
ATOM     81  C   UNL A   1      43.384  29.387  36.613  1.00  0.00     0.198 A 
ATOM     82  F   UNL A   1      41.814  29.675  34.964  1.00  0.00    -0.203 F 
ATOM     83  F   UNL A   1      44.786  31.659  39.032  1.00  0.00    -0.200 F 
ATOM     84  C   UNL A   1      44.188  29.875  37.617  1.00  0.00     0.200 A 
ATOM     85  F   UNL A   1      43.589  28.159  36.116  1.00  0.00    -0.200 F 
ATOM     86  F   UNL A   1      45.204  29.137  38.079  1.00  0.00    -0.200 F 
ENDBRANCH  62  76
BRANCH  63  87
ATOM     87  C   UNL A   1      40.760  28.459  28.692  1.00  0.00     0.064 A 
ATOM     88  C   UNL A   1      40.000  27.354  29.117  1.00  0.00     0.173 A 
ATOM     89  C   UNL A   1      41.284  28.390  27.388  1.00  0.00     0.173 A 
ATOM     90  F   UNL A   1      39.438  27.344  30.335  1.00  0.00    -0.203 F 
ATOM     91  C   UNL A   1      39.730  26.276  28.267  1.00  0.00     0.198 A 
ATOM     92  C   UNL A   1      41.020  27.310  26.544  1.00  0.00     0.198 A 
ATOM     93  F   UNL A   1      41.978  29.411  26.869  1.00  0.00    -0.203 F 
ATOM     94  F   UNL A   1      38.932  25.282  28.681  1.00  0.00    -0.200 F 
ATOM     95  C   UNL A   1      40.226  26.264  26.975  1.00  0.00     0.200 A 
ATOM     96  F   UNL A   1      41.481  27.325  25.285  1.00  0.00    -0.200 F 
ATOM     97  F   UNL A   1      39.906  25.271  26.135  1.00  0.00    -0.200 F 
ENDBRANCH  63  87
BRANCH  75  98
ATOM     98  C   UNL A   1      42.670  34.199  30.257  1.00  0.00     0.064 A 
ATOM     99  C   UNL A   1      43.782  34.744  29.589  1.00  0.00     0.173 A 
ATOM    100  C   UNL A   1      41.403  34.499  29.739  1.00  0.00     0.173 A 
ATOM    101  F   UNL A   1      45.033  34.419  29.945  1.00  0.00    -0.203 F 
ATOM    102  C   UNL A   1      43.624  35.608  28.505  1.00  0.00     0.198 A 
ATOM    103  C   UNL A   1      41.249  35.327  28.630  1.00  0.00     0.198 A 
ATOM    104  F   UNL A   1      40.305  33.966  30.297  1.00  0.00    -0.203 F 
ATOM    105  F   UNL A   1      44.700  36.146  27.912  1.00  0.00    -0.200 F 
ATOM    106  C   UNL A   1      42.358  35.897  28.026  1.00  0.00     0.200 A 
ATOM    107  F   UNL A   1      40.024  35.562  28.139  1.00  0.00    -0.200 F 
ATOM    108  F   UNL A   1      42.205  36.706  26.968  1.00  0.00    -0.200 F 
ENDBRANCH  75  98
ENDBRANCH  49  50
ENDBRANCH  42  44
ENDBRANCH  41  42
ENDBRANCH  40  41
ENDBRANCH  39  40
ENDBRANCH  38  39
ENDBRANCH  37  38
ENDBRANCH  36  37
ENDBRANCH  35  36
ENDBRANCH   1  35
TORSDOF 24
ENDMDL
MODEL 2
REMARK VINA RESULT:      -9.5      2.424      4.722
REMARK SMILES Cc1nn(Cc2ccc(Cl)cc2Cl)c(C)c1NC(=O)c1c(C(=O)OCCOCCOCCOCCOC(=O)c2ccc(-c3c4nc(c(-c5c(F)c(F)c(F)c(F)c5F)c5ccc([nH]5)c(-c5c(F)c(F)c(F)c(F)c5F)c5nc(c(-c6c(F)c(F)c(F)c(F)c6F)c6ccc3[nH]6)C=C5)C=C4)cc2)cnn1C
REMARK SMILES IDX 29 1 28 2 27 3 26 4 25 5 24 6 22 7 23 8 21 9 20 10 104 11
REMARK SMILES IDX 102 12 103 13 105 14 18 15 17 16 19 18 16 19 1 20 2 21 3 22
REMARK SMILES IDX 4 23 14 24 15 25 5 26 6 27 7 28 12 29 8 30 11 31 13 32 9 33
REMARK SMILES IDX 10 34 30 35 31 36 32 37 33 38 34 39 35 40 36 41 37 42 38 43
REMARK SMILES IDX 39 44 40 45 101 46 41 47 100 48 42 49 43 50 44 51 94 52
REMARK SMILES IDX 45 53 99 54 93 55 95 56 46 57 98 58 92 59 91 60 47 62 79 63
REMARK SMILES IDX 59 64 78 65 60 66 63 67 77 68 96 69 61 70 62 71 76 73 97 74
REMARK SMILES IDX 64 75 48 76 49 77 57 78 50 79 51 80 55 81 58 82 52 83 53 84
REMARK SMILES IDX 56 85 54 86 80 87 81 88 89 89 82 90 83 91 87 92 90 93 84 94
REMARK SMILES IDX 85 95 88 96 86 97 65 98 66 99 74 100 67 101 68 102 72 103
REMARK SMILES IDX 75 104 69 105 70 106 73 107 71 108
REMARK H PARENT 17 17 95 61 63 72
REMARK Flexibility Score: inf
ROOT
ATOM      1  C   UNL A   1      32.190  30.620  26.423  1.00  0.00     0.188 C 
ENDROOT
BRANCH   1   2
ATOM      2  C   UNL A   1      31.946  29.553  25.350  1.00  0.00     0.188 C 
BRANCH   2   3
ATOM      3  O   UNL A   1      32.909  29.367  24.315  1.00  0.00    -0.376 OA
BRANCH   3   4
ATOM      4  C   UNL A   1      32.480  29.076  22.995  1.00  0.00     0.202 C 
BRANCH   4   5
ATOM      5  C   UNL A   1      30.987  28.800  22.795  1.00  0.00     0.261 C 
BRANCH   5   6
ATOM      6  O   UNL A   1      30.643  27.462  22.396  1.00  0.00    -0.460 OA
BRANCH   6   7
ATOM      7  C   UNL A   1      30.810  26.493  23.351  1.00  0.00     0.342 C 
ATOM      8  O   UNL A   1      30.133  26.385  24.352  1.00  0.00    -0.246 OA
BRANCH   7   9
ATOM      9  C   UNL A   1      31.912  25.597  23.042  1.00  0.00     0.111 A 
ATOM     10  C   UNL A   1      32.922  25.167  23.896  1.00  0.00     0.140 A 
ATOM     11  N   UNL A   1      33.880  24.635  23.076  1.00  0.00    -0.262 N 
ATOM     12  C   UNL A   1      32.247  25.019  21.799  1.00  0.00     0.151 A 
ATOM     13  N   UNL A   1      33.441  24.419  21.818  1.00  0.00    -0.180 NA
ATOM     14  C   UNL A   1      35.222  24.236  23.439  1.00  0.00     0.174 C 
BRANCH  10  15
ATOM     15  C   UNL A   1      33.103  25.357  25.305  1.00  0.00     0.274 C 
ATOM     16  N   UNL A   1      33.011  24.290  26.166  1.00  0.00    -0.317 N 
ATOM     17  H   UNL A   1      33.044  24.549  27.116  1.00  0.00     0.170 HD
ATOM     18  O   UNL A   1      33.330  26.466  25.786  1.00  0.00    -0.267 OA
BRANCH  16  19
ATOM     19  C   UNL A   1      32.880  22.923  25.975  1.00  0.00     0.085 A 
ATOM     20  C   UNL A   1      30.267  22.822  26.107  1.00  0.00     0.071 C 
ATOM     21  C   UNL A   1      31.626  22.239  25.941  1.00  0.00     0.083 A 
ATOM     22  N   UNL A   1      31.775  20.939  25.641  1.00  0.00    -0.175 NA
ATOM     23  N   UNL A   1      33.098  20.817  25.403  1.00  0.00    -0.263 N 
ATOM     24  C   UNL A   1      33.804  21.900  25.880  1.00  0.00     0.060 A 
ATOM     25  C   UNL A   1      35.228  21.731  26.222  1.00  0.00     0.069 C 
BRANCH  23  26
ATOM     26  C   UNL A   1      33.597  19.873  24.395  1.00  0.00     0.181 C 
BRANCH  26  27
ATOM     27  C   UNL A   1      33.568  18.422  24.801  1.00  0.00    -0.008 A 
ATOM     28  C   UNL A   1      32.316  17.799  24.932  1.00  0.00     0.009 A 
ATOM     29  C   UNL A   1      34.716  17.626  24.945  1.00  0.00     0.047 A 
ATOM     30  C   UNL A   1      32.204  16.426  25.146  1.00  0.00     0.021 A 
ATOM     31  C   UNL A   1      34.609  16.253  25.198  1.00  0.00     0.041 A 
ATOM     32  Cl  UNL A   1      36.313  18.258  24.755  1.00  0.00    -0.084 Cl
ATOM     33  C   UNL A   1      33.354  15.658  25.277  1.00  0.00     0.042 A 
ATOM     34  Cl  UNL A   1      33.220  13.959  25.495  1.00  0.00    -0.084 Cl
ENDBRANCH  26  27
ENDBRANCH  23  26
ENDBRANCH  16  19
ENDBRANCH  10  15
ENDBRANCH   7   9
ENDBRANCH   6   7
ENDBRANCH   5   6
ENDBRANCH   4   5
ENDBRANCH   3   4
ENDBRANCH   2   3
ENDBRANCH   1   2
BRANCH   1  35
ATOM     35  O   UNL A   1      33.397  30.457  27.143  1.00  0.00    -0.377 OA
BRANCH  35  36
ATOM     36  C   UNL A   1      33.956  31.613  27.750  1.00  0.00     0.188 C 
BRANCH  36  37
ATOM     37  C   UNL A   1      33.089  32.874  27.818  1.00  0.00     0.188 C 
BRANCH  37  38
ATOM     38  O   UNL A   1      33.883  34.036  28.066  1.00  0.00    -0.376 OA
BRANCH  38  39
ATOM     39  C   UNL A   1      33.656  34.657  29.331  1.00  0.00     0.202 C 
BRANCH  39  40
ATOM     40  C   UNL A   1      34.645  34.188  30.381  1.00  0.00     0.261 C 
BRANCH  40  41
ATOM     41  O   UNL A   1      34.140  33.125  31.178  1.00  0.00    -0.460 OA
BRANCH  41  42
ATOM     42  C   UNL A   1      34.544  33.064  32.464  1.00  0.00     0.338 C 
ATOM     43  O   UNL A   1      34.192  33.778  33.383  1.00  0.00    -0.246 OA
BRANCH  42  44
ATOM     44  C   UNL A   1      35.708  32.154  32.469  1.00  0.00     0.060 A 
ATOM     45  C   UNL A   1      36.544  32.205  33.578  1.00  0.00     0.016 A 
ATOM     46  C   UNL A   1      36.131  31.571  31.262  1.00  0.00     0.016 A 
ATOM     47  C   UNL A   1      37.883  31.940  33.378  1.00  0.00     0.010 A 
ATOM     48  C   UNL A   1      37.469  31.334  31.056  1.00  0.00     0.010 A 
ATOM     49  C   UNL A   1      38.342  31.629  32.086  1.00  0.00    -0.014 A 
BRANCH  49  50
ATOM     50  C   UNL A   1      39.760  31.440  31.890  1.00  0.00     0.031 A 
ATOM     51  C   UNL A   1      40.190  30.118  32.358  1.00  0.00     0.074 A 
ATOM     52  C   UNL A   1      40.620  32.319  31.350  1.00  0.00     0.049 A 
ATOM     53  N   UNL A   1      40.662  29.864  33.528  1.00  0.00    -0.248 NA
ATOM     54  C   UNL A   1      39.852  28.939  31.557  1.00  0.00     0.031 C 
ATOM     55  C   UNL A   1      40.363  33.542  30.596  1.00  0.00     0.029 A 
ATOM     56  N   UNL A   1      41.980  32.236  31.353  1.00  0.00    -0.354 N 
ATOM     57  C   UNL A   1      40.887  28.502  33.542  1.00  0.00     0.074 A 
ATOM     58  C   UNL A   1      40.172  27.966  32.412  1.00  0.00     0.031 C 
ATOM     59  C   UNL A   1      41.526  33.978  30.050  1.00  0.00     0.029 A 
ATOM     60  C   UNL A   1      42.623  33.153  30.537  1.00  0.00     0.049 A 
ATOM     61  H   UNL A   1      42.468  31.575  31.894  1.00  0.00     0.167 HD
ATOM     62  C   UNL A   1      41.882  27.997  34.316  1.00  0.00     0.037 A 
ATOM     63  C   UNL A   1      43.954  33.178  30.271  1.00  0.00     0.037 A 
ATOM     64  C   UNL A   1      42.303  28.957  35.318  1.00  0.00     0.049 A 
ATOM     65  C   UNL A   1      44.642  32.475  31.388  1.00  0.00     0.074 A 
ATOM     66  C   UNL A   1      41.650  29.666  36.312  1.00  0.00     0.029 A 
ATOM     67  N   UNL A   1      43.489  29.624  35.118  1.00  0.00    -0.354 N 
ATOM     68  N   UNL A   1      44.739  32.957  32.595  1.00  0.00    -0.248 NA
ATOM     69  C   UNL A   1      44.841  31.037  31.278  1.00  0.00     0.031 C 
ATOM     70  C   UNL A   1      42.242  30.966  36.301  1.00  0.00     0.029 A 
ATOM     71  C   UNL A   1      43.264  30.957  35.353  1.00  0.00     0.049 A 
ATOM     72  H   UNL A   1      44.346  29.217  34.856  1.00  0.00     0.167 HD
ATOM     73  C   UNL A   1      44.532  31.865  33.423  1.00  0.00     0.074 A 
ATOM     74  C   UNL A   1      44.709  30.698  32.564  1.00  0.00     0.031 C 
ATOM     75  C   UNL A   1      43.953  32.015  34.650  1.00  0.00     0.037 A 
BRANCH  62  76
ATOM     76  C   UNL A   1      42.741  26.835  33.891  1.00  0.00     0.064 A 
ATOM     77  C   UNL A   1      42.928  25.774  34.795  1.00  0.00     0.173 A 
ATOM     78  C   UNL A   1      43.619  26.856  32.784  1.00  0.00     0.173 A 
ATOM     79  F   UNL A   1      42.160  25.667  35.890  1.00  0.00    -0.203 F 
ATOM     80  C   UNL A   1      43.976  24.863  34.650  1.00  0.00     0.198 A 
ATOM     81  C   UNL A   1      44.625  25.910  32.612  1.00  0.00     0.198 A 
ATOM     82  F   UNL A   1      43.630  27.847  31.886  1.00  0.00    -0.203 F 
ATOM     83  F   UNL A   1      44.203  23.959  35.612  1.00  0.00    -0.200 F 
ATOM     84  C   UNL A   1      44.827  24.936  33.563  1.00  0.00     0.200 A 
ATOM     85  F   UNL A   1      45.449  26.013  31.560  1.00  0.00    -0.200 F 
ATOM     86  F   UNL A   1      45.873  24.108  33.460  1.00  0.00    -0.200 F 
ENDBRANCH  62  76
BRANCH  63  87
ATOM     87  C   UNL A   1      44.659  33.505  29.006  1.00  0.00     0.064 A 
ATOM     88  C   UNL A   1      44.282  32.892  27.797  1.00  0.00     0.173 A 
ATOM     89  C   UNL A   1      45.487  34.637  28.898  1.00  0.00     0.173 A 
ATOM     90  F   UNL A   1      43.471  31.824  27.801  1.00  0.00    -0.203 F 
ATOM     91  C   UNL A   1      44.659  33.418  26.557  1.00  0.00     0.198 A 
ATOM     92  C   UNL A   1      45.869  35.156  27.659  1.00  0.00     0.198 A 
ATOM     93  F   UNL A   1      45.861  35.324  29.985  1.00  0.00    -0.203 F 
ATOM     94  F   UNL A   1      44.209  32.853  25.427  1.00  0.00    -0.200 F 
ATOM     95  C   UNL A   1      45.437  34.560  26.489  1.00  0.00     0.200 A 
ATOM     96  F   UNL A   1      46.598  36.280  27.607  1.00  0.00    -0.200 F 
ATOM     97  F   UNL A   1      45.736  35.109  25.304  1.00  0.00    -0.200 F 
ENDBRANCH  63  87
BRANCH  75  98
ATOM     98  C   UNL A   1      43.844  33.411  35.201  1.00  0.00     0.064 A 
ATOM     99  C   UNL A   1      44.810  34.023  36.021  1.00  0.00     0.173 A 
ATOM    100  C   UNL A   1      42.744  34.190  34.818  1.00  0.00     0.173 A 
ATOM    101  F   UNL A   1      45.948  33.393  36.341  1.00  0.00    -0.203 F 
ATOM    102  C   UNL A   1      44.638  35.324  36.496  1.00  0.00     0.198 A 
ATOM    103  C   UNL A   1      42.595  35.503  35.258  1.00  0.00     0.198 A 
ATOM    104  F   UNL A   1      41.816  33.683  33.992  1.00  0.00    -0.203 F 
ATOM    105  F   UNL A   1      45.554  35.869  37.309  1.00  0.00    -0.200 F 
ATOM    106  C   UNL A   1      43.532  36.062  36.112  1.00  0.00     0.200 A 
ATOM    107  F   UNL A   1      41.549  36.230  34.842  1.00  0.00    -0.200 F 
ATOM    108  F   UNL A   1      43.378  37.322  36.546  1.00  0.00    -0.200 F 
ENDBRANCH  75  98
ENDBRANCH  49  50
ENDBRANCH  42  44
ENDBRANCH  41  42
ENDBRANCH  40  41
ENDBRANCH  39  40
ENDBRANCH  38  39
ENDBRANCH  37  38
ENDBRANCH  36  37
ENDBRANCH  35  36
ENDBRANCH   1  35
TORSDOF 24
ENDMDL
MODEL 3
REMARK VINA RESULT:      -9.4      2.943      5.012
REMARK SMILES Cc1nn(Cc2ccc(Cl)cc2Cl)c(C)c1NC(=O)c1c(C(=O)OCCOCCOCCOCCOC(=O)c2ccc(-c3c4nc(c(-c5c(F)c(F)c(F)c(F)c5F)c5ccc([nH]5)c(-c5c(F)c(F)c(F)c(F)c5F)c5nc(c(-c6c(F)c(F)c(F)c(F)c6F)c6ccc3[nH]6)C=C5)C=C4)cc2)cnn1C
REMARK SMILES IDX 29 1 28 2 27 3 26 4 25 5 24 6 22 7 23 8 21 9 20 10 104 11
REMARK SMILES IDX 102 12 103 13 105 14 18 15 17 16 19 18 16 19 1 20 2 21 3 22
REMARK SMILES IDX 4 23 14 24 15 25 5 26 6 27 7 28 12 29 8 30 11 31 13 32 9 33
REMARK SMILES IDX 10 34 30 35 31 36 32 37 33 38 34 39 35 40 36 41 37 42 38 43
REMARK SMILES IDX 39 44 40 45 101 46 41 47 100 48 42 49 43 50 44 51 94 52
REMARK SMILES IDX 45 53 99 54 93 55 95 56 46 57 98 58 92 59 91 60 47 62 79 63
REMARK SMILES IDX 59 64 78 65 60 66 63 67 77 68 96 69 61 70 62 71 76 73 97 74
REMARK SMILES IDX 64 75 48 76 49 77 57 78 50 79 51 80 55 81 58 82 52 83 53 84
REMARK SMILES IDX 56 85 54 86 80 87 81 88 89 89 82 90 83 91 87 92 90 93 84 94
REMARK SMILES IDX 85 95 88 96 86 97 65 98 66 99 74 100 67 101 68 102 72 103
REMARK SMILES IDX 75 104 69 105 70 106 73 107 71 108
REMARK H PARENT 17 17 95 61 63 72
REMARK Flexibility Score: inf
ROOT
ATOM      1  C   UNL A   1      32.635  30.318  26.856  1.00  0.00     0.188 C 
ENDROOT
BRANCH   1   2
ATOM      2  C   UNL A   1      32.330  29.870  25.423  1.00  0.00     0.188 C 
BRANCH   2   3
ATOM      3  O   UNL A   1      33.331  29.182  24.676  1.00  0.00    -0.376 OA
BRANCH   3   4
ATOM      4  C   UNL A   1      33.158  28.980  23.282  1.00  0.00     0.202 C 
BRANCH   4   5
ATOM      5  C   UNL A   1      31.721  28.834  22.775  1.00  0.00     0.261 C 
BRANCH   5   6
ATOM      6  O   UNL A   1      31.196  27.495  22.751  1.00  0.00    -0.460 OA
BRANCH   6   7
ATOM      7  C   UNL A   1      30.183  27.235  23.636  1.00  0.00     0.342 C 
ATOM      8  O   UNL A   1      29.077  27.731  23.586  1.00  0.00    -0.246 OA
BRANCH   7   9
ATOM      9  C   UNL A   1      30.582  26.296  24.672  1.00  0.00     0.111 A 
ATOM     10  C   UNL A   1      30.718  24.916  24.560  1.00  0.00     0.140 A 
ATOM     11  N   UNL A   1      30.773  24.458  25.849  1.00  0.00    -0.262 N 
ATOM     12  C   UNL A   1      30.852  26.556  26.031  1.00  0.00     0.151 A 
ATOM     13  N   UNL A   1      30.982  25.439  26.752  1.00  0.00    -0.180 NA
ATOM     14  C   UNL A   1      30.704  23.083  26.294  1.00  0.00     0.174 C 
BRANCH  10  15
ATOM     15  C   UNL A   1      30.643  24.056  23.416  1.00  0.00     0.274 C 
ATOM     16  N   UNL A   1      31.770  23.424  22.947  1.00  0.00    -0.317 N 
ATOM     17  H   UNL A   1      31.626  22.946  22.099  1.00  0.00     0.170 HD
ATOM     18  O   UNL A   1      29.586  23.866  22.816  1.00  0.00    -0.267 OA
BRANCH  16  19
ATOM     19  C   UNL A   1      33.068  23.320  23.423  1.00  0.00     0.085 A 
ATOM     20  C   UNL A   1      33.970  25.556  22.399  1.00  0.00     0.071 C 
ATOM     21  C   UNL A   1      34.085  24.294  23.181  1.00  0.00     0.083 A 
ATOM     22  N   UNL A   1      35.221  24.004  23.837  1.00  0.00    -0.175 NA
ATOM     23  N   UNL A   1      34.901  22.905  24.553  1.00  0.00    -0.263 N 
ATOM     24  C   UNL A   1      33.740  22.320  24.099  1.00  0.00     0.060 A 
ATOM     25  C   UNL A   1      33.520  20.881  24.341  1.00  0.00     0.069 C 
BRANCH  23  26
ATOM     26  C   UNL A   1      35.490  22.674  25.878  1.00  0.00     0.181 C 
BRANCH  26  27
ATOM     27  C   UNL A   1      36.995  22.615  25.913  1.00  0.00    -0.008 A 
ATOM     28  C   UNL A   1      37.687  23.727  26.421  1.00  0.00     0.009 A 
ATOM     29  C   UNL A   1      37.743  21.475  25.574  1.00  0.00     0.047 A 
ATOM     30  C   UNL A   1      39.063  23.692  26.637  1.00  0.00     0.021 A 
ATOM     31  C   UNL A   1      39.131  21.450  25.753  1.00  0.00     0.041 A 
ATOM     32  Cl  UNL A   1      37.009  20.025  24.989  1.00  0.00    -0.084 Cl
ATOM     33  C   UNL A   1      39.780  22.550  26.302  1.00  0.00     0.042 A 
ATOM     34  Cl  UNL A   1      41.470  22.488  26.609  1.00  0.00    -0.084 Cl
ENDBRANCH  26  27
ENDBRANCH  23  26
ENDBRANCH  16  19
ENDBRANCH  10  15
ENDBRANCH   7   9
ENDBRANCH   6   7
ENDBRANCH   5   6
ENDBRANCH   4   5
ENDBRANCH   3   4
ENDBRANCH   2   3
ENDBRANCH   1   2
BRANCH   1  35
ATOM     35  O   UNL A   1      33.990  30.654  27.086  1.00  0.00    -0.377 OA
BRANCH  35  36
ATOM     36  C   UNL A   1      34.253  31.769  27.926  1.00  0.00     0.188 C 
BRANCH  36  37
ATOM     37  C   UNL A   1      33.422  33.037  27.709  1.00  0.00     0.188 C 
BRANCH  37  38
ATOM     38  O   UNL A   1      34.169  34.210  28.043  1.00  0.00    -0.376 OA
BRANCH  38  39
ATOM     39  C   UNL A   1      33.441  35.193  28.777  1.00  0.00     0.202 C 
BRANCH  39  40
ATOM     40  C   UNL A   1      33.654  35.059  30.273  1.00  0.00     0.261 C 
BRANCH  40  41
ATOM     41  O   UNL A   1      34.912  34.484  30.602  1.00  0.00    -0.460 OA
BRANCH  41  42
ATOM     42  C   UNL A   1      34.905  33.328  31.297  1.00  0.00     0.338 C 
ATOM     43  O   UNL A   1      34.027  32.487  31.323  1.00  0.00    -0.246 OA
BRANCH  42  44
ATOM     44  C   UNL A   1      36.040  33.426  32.238  1.00  0.00     0.060 A 
ATOM     45  C   UNL A   1      37.276  33.768  31.703  1.00  0.00     0.016 A 
ATOM     46  C   UNL A   1      35.933  32.834  33.508  1.00  0.00     0.016 A 
ATOM     47  C   UNL A   1      38.399  33.250  32.314  1.00  0.00     0.010 A 
ATOM     48  C   UNL A   1      37.049  32.294  34.101  1.00  0.00     0.010 A 
ATOM     49  C   UNL A   1      38.255  32.415  33.435  1.00  0.00    -0.014 A 
BRANCH  49  50
ATOM     50  C   UNL A   1      39.440  31.818  34.002  1.00  0.00     0.031 A 
ATOM     51  C   UNL A   1      39.943  32.604  35.133  1.00  0.00     0.074 A 
ATOM     52  C   UNL A   1      40.045  30.689  33.594  1.00  0.00     0.049 A 
ATOM     53  N   UNL A   1      40.850  33.515  35.057  1.00  0.00    -0.248 NA
ATOM     54  C   UNL A   1      39.224  32.551  36.408  1.00  0.00     0.031 C 
ATOM     55  C   UNL A   1      39.571  29.643  32.694  1.00  0.00     0.029 A 
ATOM     56  N   UNL A   1      41.270  30.236  33.981  1.00  0.00    -0.354 N 
ATOM     57  C   UNL A   1      40.972  34.015  36.339  1.00  0.00     0.074 A 
ATOM     58  C   UNL A   1      39.813  33.555  37.061  1.00  0.00     0.031 C 
ATOM     59  C   UNL A   1      40.418  28.586  32.759  1.00  0.00     0.029 A 
ATOM     60  C   UNL A   1      41.563  28.939  33.587  1.00  0.00     0.049 A 
ATOM     61  H   UNL A   1      41.898  30.786  34.501  1.00  0.00     0.167 HD
ATOM     62  C   UNL A   1      42.167  34.511  36.751  1.00  0.00     0.037 A 
ATOM     63  C   UNL A   1      42.655  28.226  33.965  1.00  0.00     0.037 A 
ATOM     64  C   UNL A   1      43.032  34.793  35.623  1.00  0.00     0.049 A 
ATOM     65  C   UNL A   1      43.705  29.202  34.365  1.00  0.00     0.074 A 
ATOM     66  C   UNL A   1      42.909  35.562  34.477  1.00  0.00     0.029 A 
ATOM     67  N   UNL A   1      44.062  33.919  35.362  1.00  0.00    -0.354 N 
ATOM     68  N   UNL A   1      44.335  29.972  33.522  1.00  0.00    -0.248 NA
ATOM     69  C   UNL A   1      43.747  29.639  35.753  1.00  0.00     0.031 C 
ATOM     70  C   UNL A   1      43.522  34.795  33.439  1.00  0.00     0.029 A 
ATOM     71  C   UNL A   1      44.043  33.639  34.018  1.00  0.00     0.049 A 
ATOM     72  H   UNL A   1      44.699  33.561  36.020  1.00  0.00     0.167 HD
ATOM     73  C   UNL A   1      44.429  31.194  34.171  1.00  0.00     0.074 A 
ATOM     74  C   UNL A   1      44.151  30.901  35.574  1.00  0.00     0.031 C 
ATOM     75  C   UNL A   1      44.436  32.363  33.467  1.00  0.00     0.037 A 
BRANCH  62  76
ATOM     76  C   UNL A   1      42.689  34.332  38.152  1.00  0.00     0.064 A 
ATOM     77  C   UNL A   1      42.714  33.036  38.697  1.00  0.00     0.173 A 
ATOM     78  C   UNL A   1      42.871  35.386  39.076  1.00  0.00     0.173 A 
ATOM     79  F   UNL A   1      42.535  31.963  37.912  1.00  0.00    -0.203 F 
ATOM     80  C   UNL A   1      42.817  32.819  40.072  1.00  0.00     0.198 A 
ATOM     81  C   UNL A   1      43.033  35.162  40.440  1.00  0.00     0.198 A 
ATOM     82  F   UNL A   1      42.781  36.675  38.732  1.00  0.00    -0.203 F 
ATOM     83  F   UNL A   1      42.691  31.577  40.557  1.00  0.00    -0.200 F 
ATOM     84  C   UNL A   1      42.969  33.883  40.943  1.00  0.00     0.200 A 
ATOM     85  F   UNL A   1      43.160  36.211  41.265  1.00  0.00    -0.200 F 
ATOM     86  F   UNL A   1      42.997  33.682  42.265  1.00  0.00    -0.200 F 
ENDBRANCH  62  76
BRANCH  63  87
ATOM     87  C   UNL A   1      42.777  26.781  34.279  1.00  0.00     0.064 A 
ATOM     88  C   UNL A   1      43.780  25.999  33.678  1.00  0.00     0.173 A 
ATOM     89  C   UNL A   1      42.132  26.215  35.395  1.00  0.00     0.173 A 
ATOM     90  F   UNL A   1      44.468  26.468  32.627  1.00  0.00    -0.203 F 
ATOM     91  C   UNL A   1      44.156  24.756  34.199  1.00  0.00     0.198 A 
ATOM     92  C   UNL A   1      42.503  24.970  35.908  1.00  0.00     0.198 A 
ATOM     93  F   UNL A   1      41.198  26.897  36.071  1.00  0.00    -0.203 F 
ATOM     94  F   UNL A   1      45.174  24.080  33.647  1.00  0.00    -0.200 F 
ATOM     95  C   UNL A   1      43.529  24.252  35.324  1.00  0.00     0.200 A 
ATOM     96  F   UNL A   1      41.908  24.507  37.017  1.00  0.00    -0.200 F 
ATOM     97  F   UNL A   1      43.938  23.098  35.870  1.00  0.00    -0.200 F 
ENDBRANCH  63  87
BRANCH  75  98
ATOM     98  C   UNL A   1      44.659  32.278  31.981  1.00  0.00     0.064 A 
ATOM     99  C   UNL A   1      43.655  31.990  31.038  1.00  0.00     0.173 A 
ATOM    100  C   UNL A   1      45.936  32.574  31.485  1.00  0.00     0.173 A 
ATOM    101  F   UNL A   1      42.382  31.808  31.414  1.00  0.00    -0.203 F 
ATOM    102  C   UNL A   1      43.940  31.926  29.674  1.00  0.00     0.198 A 
ATOM    103  C   UNL A   1      46.208  32.552  30.120  1.00  0.00     0.198 A 
ATOM    104  F   UNL A   1      46.924  32.911  32.330  1.00  0.00    -0.203 F 
ATOM    105  F   UNL A   1      42.974  31.609  28.800  1.00  0.00    -0.200 F 
ATOM    106  C   UNL A   1      45.216  32.209  29.217  1.00  0.00     0.200 A 
ATOM    107  F   UNL A   1      47.432  32.877  29.679  1.00  0.00    -0.200 F 
ATOM    108  F   UNL A   1      45.485  32.173  27.904  1.00  0.00    -0.200 F 
ENDBRANCH  75  98
ENDBRANCH  49  50
ENDBRANCH  42  44
ENDBRANCH  41  42
ENDBRANCH  40  41
ENDBRANCH  39  40
ENDBRANCH  38  39
ENDBRANCH  37  38
ENDBRANCH  36  37
ENDBRANCH  35  36
ENDBRANCH   1  35
TORSDOF 24
ENDMDL
