MODEL 1
REMARK VINA RESULT:     -14.0      0.000      0.000
REMARK SMILES Cc1ccc(N[C@](C)(C(=O)OCCOCCOCCOCCOC(=O)c2ccc(-c3c4nc(c(-c5c(F)c(F)c(F)c(F)c5F)c5ccc([nH]5)c(-c5c(F)c(F)c(F)c(F)c5F)c5nc(c(-c6c(F)c(F)c(F)c(F)c6F)c6ccc3[nH]6)C=C5)C=C4)cc2)c2cc(F)cc(F)c2)cc1
REMARK SMILES IDX 17 1 16 2 15 3 14 4 13 5 12 6 11 7 9 8 10 9 7 10 8 11 6 12
REMARK SMILES IDX 5 14 1 15 2 16 3 17 98 18 4 19 97 20 89 21 90 22 96 23 91 24
REMARK SMILES IDX 94 25 92 26 93 27 95 28 18 29 19 30 20 31 21 32 22 33 23 34
REMARK SMILES IDX 24 35 25 36 26 37 27 38 88 39 28 40 87 41 29 42 30 43 31 44
REMARK SMILES IDX 81 45 32 46 86 47 80 48 82 49 33 50 85 51 79 52 78 53 34 55
REMARK SMILES IDX 66 56 46 57 65 58 47 59 50 60 64 61 83 62 48 63 49 64 63 66
REMARK SMILES IDX 84 67 51 68 35 69 36 70 44 71 37 72 38 73 42 74 45 75 39 76
REMARK SMILES IDX 40 77 43 78 41 79 67 80 68 81 76 82 69 83 70 84 74 85 77 86
REMARK SMILES IDX 71 87 72 88 75 89 73 90 52 91 53 92 61 93 54 94 55 95 59 96
REMARK SMILES IDX 62 97 56 98 57 99 60 100 58 101
REMARK H PARENT 6 13 82 54 50 65
REMARK Flexibility Score: inf
ROOT
ATOM      1  O   UNL A   1      41.554  21.299  26.636  1.00  0.00    -0.377 OA
ENDROOT
BRANCH   1   2
ATOM      2  C   UNL A   1      40.176  21.117  26.276  1.00  0.00     0.188 C 
BRANCH   2   3
ATOM      3  C   UNL A   1      38.828  22.136  26.085  1.00  0.00     0.188 C 
BRANCH   3   4
ATOM      4  O   UNL A   1      36.987  21.978  26.026  1.00  0.00    -0.376 OA
BRANCH   4   5
ATOM      5  C   UNL A   1      35.783  21.857  24.692  1.00  0.00     0.202 C 
BRANCH   5   6
ATOM      6  C   UNL A   1      35.708  22.933  23.122  1.00  0.00     0.261 C 
BRANCH   6   7
ATOM      7  O   UNL A   1      34.982  24.593  22.866  1.00  0.00    -0.461 OA
BRANCH   7   8
ATOM      8  C   UNL A   1      33.691  25.322  22.662  1.00  0.00     0.336 C 
ATOM      9  O   UNL A   1      33.175  25.551  21.552  1.00  0.00    -0.249 OA
BRANCH   8  10
ATOM     10  C   UNL A   1      32.524  25.711  23.960  1.00  0.00     0.159 C 
ATOM     11  C   UNL A   1      32.613  27.065  24.669  1.00  0.00     0.053 C 
BRANCH  10  12
ATOM     12  N   UNL A   1      31.194  25.579  23.247  1.00  0.00    -0.366 N 
ATOM     13  H   UNL A   1      30.968  24.710  22.844  1.00  0.00     0.162 HD
BRANCH  12  14
ATOM     14  C   UNL A   1      30.271  26.618  23.130  1.00  0.00     0.035 A 
ATOM     15  C   UNL A   1      27.703  30.061  23.088  1.00  0.00     0.044 C 
ATOM     16  C   UNL A   1      28.561  28.848  22.964  1.00  0.00    -0.051 A 
ATOM     17  C   UNL A   1      28.156  27.686  23.615  1.00  0.00     0.005 A 
ATOM     18  C   UNL A   1      29.802  28.876  22.333  1.00  0.00     0.005 A 
ATOM     19  C   UNL A   1      29.014  26.599  23.713  1.00  0.00     0.026 A 
ATOM     20  C   UNL A   1      30.632  27.755  22.383  1.00  0.00     0.026 A 
ENDBRANCH  12  14
ENDBRANCH  10  12
BRANCH  10  21
ATOM     21  C   UNL A   1      32.326  24.586  25.210  1.00  0.00    -0.006 A 
ATOM     22  C   UNL A   1      33.395  24.278  26.105  1.00  0.00     0.046 A 
ATOM     23  C   UNL A   1      31.113  23.940  25.542  1.00  0.00     0.046 A 
ATOM     24  C   UNL A   1      33.317  23.294  27.100  1.00  0.00     0.126 A 
ATOM     25  C   UNL A   1      31.028  23.022  26.614  1.00  0.00     0.126 A 
ATOM     26  F   UNL A   1      34.422  22.964  27.785  1.00  0.00    -0.207 F 
ATOM     27  C   UNL A   1      32.130  22.661  27.373  1.00  0.00     0.078 A 
ATOM     28  F   UNL A   1      29.839  22.487  26.926  1.00  0.00    -0.207 F 
ENDBRANCH  10  21
ENDBRANCH   8  10
ENDBRANCH   7   8
ENDBRANCH   6   7
ENDBRANCH   5   6
ENDBRANCH   4   5
ENDBRANCH   3   4
ENDBRANCH   2   3
ENDBRANCH   1   2
BRANCH   1  29
ATOM     29  C   UNL A   1      42.585  21.909  25.882  1.00  0.00     0.188 C 
BRANCH  29  30
ATOM     30  C   UNL A   1      43.711  22.542  26.627  1.00  0.00     0.188 C 
BRANCH  30  31
ATOM     31  O   UNL A   1      43.115  23.419  27.559  1.00  0.00    -0.376 OA
BRANCH  31  32
ATOM     32  C   UNL A   1      42.589  24.591  26.985  1.00  0.00     0.202 C 
BRANCH  32  33
ATOM     33  C   UNL A   1      42.210  25.580  28.084  1.00  0.00     0.261 C 
BRANCH  33  34
ATOM     34  O   UNL A   1      40.778  25.829  28.046  1.00  0.00    -0.460 OA
BRANCH  34  35
ATOM     35  C   UNL A   1      40.341  26.911  27.332  1.00  0.00     0.338 C 
ATOM     36  O   UNL A   1      40.835  27.290  26.259  1.00  0.00    -0.246 OA
BRANCH  35  37
ATOM     37  C   UNL A   1      39.407  27.734  28.151  1.00  0.00     0.060 A 
ATOM     38  C   UNL A   1      38.983  29.028  27.811  1.00  0.00     0.016 A 
ATOM     39  C   UNL A   1      39.271  27.385  29.453  1.00  0.00     0.016 A 
ATOM     40  C   UNL A   1      38.918  30.079  28.794  1.00  0.00     0.010 A 
ATOM     41  C   UNL A   1      39.228  28.436  30.356  1.00  0.00     0.010 A 
ATOM     42  C   UNL A   1      39.356  29.883  30.100  1.00  0.00    -0.014 A 
BRANCH  42  43
ATOM     43  C   UNL A   1      40.034  31.212  31.219  1.00  0.00     0.031 A 
ATOM     44  C   UNL A   1      41.638  30.960  32.425  1.00  0.00     0.074 A 
ATOM     45  C   UNL A   1      39.119  32.279  31.183  1.00  0.00     0.049 A 
ATOM     46  N   UNL A   1      41.626  31.005  33.799  1.00  0.00    -0.248 NA
ATOM     47  C   UNL A   1      42.970  29.947  32.355  1.00  0.00     0.031 C 
ATOM     48  C   UNL A   1      39.323  33.625  31.613  1.00  0.00     0.029 A 
ATOM     49  N   UNL A   1      37.742  32.410  30.898  1.00  0.00    -0.354 N 
ATOM     50  C   UNL A   1      42.526  30.257  34.530  1.00  0.00     0.074 A 
ATOM     51  C   UNL A   1      43.233  29.504  33.579  1.00  0.00     0.031 C 
ATOM     52  C   UNL A   1      38.268  34.251  32.114  1.00  0.00     0.029 A 
ATOM     53  C   UNL A   1      37.216  33.365  31.806  1.00  0.00     0.049 A 
ATOM     54  H   UNL A   1      37.240  31.930  30.200  1.00  0.00     0.167 HD
ATOM     55  C   UNL A   1      42.621  30.303  35.896  1.00  0.00     0.037 A 
ATOM     56  C   UNL A   1      36.022  33.449  32.405  1.00  0.00     0.037 A 
ATOM     57  C   UNL A   1      41.753  31.361  36.431  1.00  0.00     0.049 A 
ATOM     58  C   UNL A   1      36.317  33.466  33.913  1.00  0.00     0.074 A 
ATOM     59  C   UNL A   1      42.022  32.714  36.435  1.00  0.00     0.029 A 
ATOM     60  N   UNL A   1      40.372  31.260  36.649  1.00  0.00    -0.354 N 
ATOM     61  N   UNL A   1      37.367  32.898  34.492  1.00  0.00    -0.248 NA
ATOM     62  C   UNL A   1      35.598  34.335  34.842  1.00  0.00     0.031 C 
ATOM     63  C   UNL A   1      40.801  33.426  36.411  1.00  0.00     0.029 A 
ATOM     64  C   UNL A   1      39.748  32.524  36.517  1.00  0.00     0.049 A 
ATOM     65  H   UNL A   1      39.900  30.422  36.865  1.00  0.00     0.167 HD
ATOM     66  C   UNL A   1      37.438  33.249  35.826  1.00  0.00     0.074 A 
ATOM     67  C   UNL A   1      36.322  34.186  35.967  1.00  0.00     0.031 C 
ATOM     68  C   UNL A   1      38.325  32.804  36.795  1.00  0.00     0.037 A 
BRANCH  55  69
ATOM     69  C   UNL A   1      43.943  29.797  36.520  1.00  0.00     0.064 A 
ATOM     70  C   UNL A   1      44.039  28.488  37.019  1.00  0.00     0.173 A 
ATOM     71  C   UNL A   1      45.054  30.611  36.843  1.00  0.00     0.173 A 
ATOM     72  F   UNL A   1      43.190  27.536  36.608  1.00  0.00    -0.203 F 
ATOM     73  C   UNL A   1      45.015  28.108  37.957  1.00  0.00     0.198 A 
ATOM     74  C   UNL A   1      45.989  30.263  37.832  1.00  0.00     0.198 A 
ATOM     75  F   UNL A   1      45.275  31.762  36.190  1.00  0.00    -0.203 F 
ATOM     76  F   UNL A   1      45.031  26.856  38.436  1.00  0.00    -0.200 F 
ATOM     77  C   UNL A   1      45.944  29.018  38.419  1.00  0.00     0.200 A 
ATOM     78  F   UNL A   1      46.920  31.148  38.222  1.00  0.00    -0.200 F 
ATOM     79  F   UNL A   1      46.814  28.680  39.382  1.00  0.00    -0.200 F 
ENDBRANCH  55  69
BRANCH  56  80
ATOM     80  C   UNL A   1      35.014  32.955  31.419  1.00  0.00     0.064 A 
ATOM     81  C   UNL A   1      34.512  33.999  30.570  1.00  0.00     0.173 A 
ATOM     82  C   UNL A   1      35.162  31.696  30.829  1.00  0.00     0.173 A 
ATOM     83  F   UNL A   1      34.376  35.245  31.061  1.00  0.00    -0.203 F 
ATOM     84  C   UNL A   1      34.466  33.856  29.180  1.00  0.00     0.198 A 
ATOM     85  C   UNL A   1      35.034  31.543  29.437  1.00  0.00     0.198 A 
ATOM     86  F   UNL A   1      35.671  30.685  31.544  1.00  0.00    -0.203 F 
ATOM     87  F   UNL A   1      34.319  34.935  28.394  1.00  0.00    -0.200 F 
ATOM     88  C   UNL A   1      34.767  32.635  28.614  1.00  0.00     0.200 A 
ATOM     89  F   UNL A   1      35.371  30.376  28.870  1.00  0.00    -0.200 F 
ATOM     90  F   UNL A   1      34.920  32.535  27.284  1.00  0.00    -0.200 F 
ENDBRANCH  56  80
BRANCH  68  91
ATOM     91  C   UNL A   1      37.931  32.805  38.261  1.00  0.00     0.064 A 
ATOM     92  C   UNL A   1      37.354  31.681  38.876  1.00  0.00     0.173 A 
ATOM     93  C   UNL A   1      38.288  33.862  39.133  1.00  0.00     0.173 A 
ATOM     94  F   UNL A   1      37.110  30.557  38.188  1.00  0.00    -0.203 F 
ATOM     95  C   UNL A   1      37.057  31.657  40.236  1.00  0.00     0.198 A 
ATOM     96  C   UNL A   1      38.061  33.801  40.505  1.00  0.00     0.198 A 
ATOM     97  F   UNL A   1      38.896  34.974  38.701  1.00  0.00    -0.203 F 
ATOM     98  F   UNL A   1      36.439  30.588  40.755  1.00  0.00    -0.200 F 
ATOM     99  C   UNL A   1      37.422  32.710  41.052  1.00  0.00     0.200 A 
ATOM    100  F   UNL A   1      38.488  34.797  41.292  1.00  0.00    -0.200 F 
ATOM    101  F   UNL A   1      37.180  32.660  42.367  1.00  0.00    -0.200 F 
ENDBRANCH  68  91
ENDBRANCH  42  43
ENDBRANCH  35  37
ENDBRANCH  34  35
ENDBRANCH  33  34
ENDBRANCH  32  33
ENDBRANCH  31  32
ENDBRANCH  30  31
ENDBRANCH  29  30
ENDBRANCH   1  29
TORSDOF 23
ENDMDL
MODEL 2
REMARK VINA RESULT:     -13.7      4.314      9.067
REMARK SMILES Cc1ccc(N[C@](C)(C(=O)OCCOCCOCCOCCOC(=O)c2ccc(-c3c4nc(c(-c5c(F)c(F)c(F)c(F)c5F)c5ccc([nH]5)c(-c5c(F)c(F)c(F)c(F)c5F)c5nc(c(-c6c(F)c(F)c(F)c(F)c6F)c6ccc3[nH]6)C=C5)C=C4)cc2)c2cc(F)cc(F)c2)cc1
REMARK SMILES IDX 17 1 16 2 15 3 14 4 13 5 12 6 11 7 9 8 10 9 7 10 8 11 6 12
REMARK SMILES IDX 5 14 1 15 2 16 3 17 98 18 4 19 97 20 89 21 90 22 96 23 91 24
REMARK SMILES IDX 94 25 92 26 93 27 95 28 18 29 19 30 20 31 21 32 22 33 23 34
REMARK SMILES IDX 24 35 25 36 26 37 27 38 88 39 28 40 87 41 29 42 30 43 31 44
REMARK SMILES IDX 81 45 32 46 86 47 80 48 82 49 33 50 85 51 79 52 78 53 34 55
REMARK SMILES IDX 66 56 46 57 65 58 47 59 50 60 64 61 83 62 48 63 49 64 63 66
REMARK SMILES IDX 84 67 51 68 35 69 36 70 44 71 37 72 38 73 42 74 45 75 39 76
REMARK SMILES IDX 40 77 43 78 41 79 67 80 68 81 76 82 69 83 70 84 74 85 77 86
REMARK SMILES IDX 71 87 72 88 75 89 73 90 52 91 53 92 61 93 54 94 55 95 59 96
REMARK SMILES IDX 62 97 56 98 57 99 60 100 58 101
REMARK H PARENT 6 13 82 54 50 65
REMARK Flexibility Score: inf
ROOT
ATOM      1  O   UNL A   1      40.846  20.272  25.918  1.00  0.00    -0.377 OA
ENDROOT
BRANCH   1   2
ATOM      2  C   UNL A   1      39.459  19.914  26.023  1.00  0.00     0.188 C 
BRANCH   2   3
ATOM      3  C   UNL A   1      38.109  19.976  24.991  1.00  0.00     0.188 C 
BRANCH   3   4
ATOM      4  O   UNL A   1      36.975  21.258  24.291  1.00  0.00    -0.376 OA
BRANCH   4   5
ATOM      5  C   UNL A   1      36.885  23.052  24.417  1.00  0.00     0.202 C 
BRANCH   5   6
ATOM      6  C   UNL A   1      35.723  24.060  25.541  1.00  0.00     0.261 C 
BRANCH   6   7
ATOM      7  O   UNL A   1      34.504  23.496  26.783  1.00  0.00    -0.461 OA
BRANCH   7   8
ATOM      8  C   UNL A   1      33.286  22.647  26.973  1.00  0.00     0.336 C 
ATOM      9  O   UNL A   1      32.765  22.392  28.076  1.00  0.00    -0.249 OA
BRANCH   8  10
ATOM     10  C   UNL A   1      32.197  22.119  25.657  1.00  0.00     0.159 C 
ATOM     11  C   UNL A   1      30.683  22.289  25.821  1.00  0.00     0.053 C 
BRANCH  10  12
ATOM     12  N   UNL A   1      32.691  22.935  24.481  1.00  0.00    -0.366 N 
ATOM     13  H   UNL A   1      33.511  22.639  24.024  1.00  0.00     0.162 HD
BRANCH  12  14
ATOM     14  C   UNL A   1      32.051  24.081  24.010  1.00  0.00     0.035 A 
ATOM     15  C   UNL A   1      30.516  27.820  22.554  1.00  0.00     0.044 C 
ATOM     16  C   UNL A   1      30.946  26.457  22.983  1.00  0.00    -0.051 A 
ATOM     17  C   UNL A   1      30.725  26.082  24.304  1.00  0.00     0.005 A 
ATOM     18  C   UNL A   1      31.668  25.609  22.146  1.00  0.00     0.005 A 
ATOM     19  C   UNL A   1      31.292  24.920  24.810  1.00  0.00     0.026 A 
ATOM     20  C   UNL A   1      32.181  24.412  22.649  1.00  0.00     0.026 A 
ENDBRANCH  12  14
ENDBRANCH  10  12
BRANCH  10  21
ATOM     21  C   UNL A   1      32.386  20.548  25.054  1.00  0.00    -0.006 A 
ATOM     22  C   UNL A   1      32.382  20.288  23.650  1.00  0.00     0.046 A 
ATOM     23  C   UNL A   1      32.652  19.400  25.835  1.00  0.00     0.046 A 
ATOM     24  C   UNL A   1      32.445  19.003  23.096  1.00  0.00     0.126 A 
ATOM     25  C   UNL A   1      32.812  18.122  25.250  1.00  0.00     0.126 A 
ATOM     26  F   UNL A   1      32.273  18.846  21.775  1.00  0.00    -0.207 F 
ATOM     27  C   UNL A   1      32.671  17.904  23.889  1.00  0.00     0.078 A 
ATOM     28  F   UNL A   1      33.127  17.080  26.031  1.00  0.00    -0.207 F 
ENDBRANCH  10  21
ENDBRANCH   8  10
ENDBRANCH   7   8
ENDBRANCH   6   7
ENDBRANCH   5   6
ENDBRANCH   4   5
ENDBRANCH   3   4
ENDBRANCH   2   3
ENDBRANCH   1   2
BRANCH   1  29
ATOM     29  C   UNL A   1      41.434  21.553  26.039  1.00  0.00     0.188 C 
BRANCH  29  30
ATOM     30  C   UNL A   1      42.920  21.646  25.966  1.00  0.00     0.188 C 
BRANCH  30  31
ATOM     31  O   UNL A   1      43.215  22.163  24.686  1.00  0.00    -0.376 OA
BRANCH  31  32
ATOM     32  C   UNL A   1      43.826  23.431  24.710  1.00  0.00     0.202 C 
BRANCH  32  33
ATOM     33  C   UNL A   1      44.028  23.879  26.155  1.00  0.00     0.261 C 
BRANCH  33  34
ATOM     34  O   UNL A   1      43.750  25.302  26.268  1.00  0.00    -0.460 OA
BRANCH  34  35
ATOM     35  C   UNL A   1      42.537  25.748  25.819  1.00  0.00     0.338 C 
ATOM     36  O   UNL A   1      42.354  26.303  24.725  1.00  0.00    -0.246 OA
BRANCH  35  37
ATOM     37  C   UNL A   1      41.539  25.750  26.927  1.00  0.00     0.060 A 
ATOM     38  C   UNL A   1      40.354  26.503  26.926  1.00  0.00     0.016 A 
ATOM     39  C   UNL A   1      41.972  25.323  28.137  1.00  0.00     0.016 A 
ATOM     40  C   UNL A   1      39.921  27.222  28.096  1.00  0.00     0.010 A 
ATOM     41  C   UNL A   1      41.536  26.060  29.227  1.00  0.00     0.010 A 
ATOM     42  C   UNL A   1      40.699  27.274  29.249  1.00  0.00    -0.014 A 
BRANCH  42  43
ATOM     43  C   UNL A   1      40.695  28.669  30.487  1.00  0.00     0.031 A 
ATOM     44  C   UNL A   1      39.068  29.789  30.916  1.00  0.00     0.074 A 
ATOM     45  C   UNL A   1      42.031  28.875  30.871  1.00  0.00     0.049 A 
ATOM     46  N   UNL A   1      38.934  31.137  30.681  1.00  0.00    -0.248 NA
ATOM     47  C   UNL A   1      37.422  29.495  30.822  1.00  0.00     0.031 C 
ATOM     48  C   UNL A   1      42.519  29.600  32.000  1.00  0.00     0.029 A 
ATOM     49  N   UNL A   1      43.293  28.622  30.288  1.00  0.00    -0.354 N 
ATOM     50  C   UNL A   1      37.695  31.681  30.415  1.00  0.00     0.074 A 
ATOM     51  C   UNL A   1      36.818  30.586  30.366  1.00  0.00     0.031 C 
ATOM     52  C   UNL A   1      43.675  30.228  31.844  1.00  0.00     0.029 A 
ATOM     53  C   UNL A   1      44.129  29.723  30.609  1.00  0.00     0.049 A 
ATOM     54  H   UNL A   1      43.546  27.832  29.758  1.00  0.00     0.167 HD
ATOM     55  C   UNL A   1      37.474  33.022  30.240  1.00  0.00     0.037 A 
ATOM     56  C   UNL A   1      45.105  30.322  29.915  1.00  0.00     0.037 A 
ATOM     57  C   UNL A   1      38.697  33.782  30.533  1.00  0.00     0.049 A 
ATOM     58  C   UNL A   1      44.683  31.795  29.797  1.00  0.00     0.074 A 
ATOM     59  C   UNL A   1      39.185  34.095  31.784  1.00  0.00     0.029 A 
ATOM     60  N   UNL A   1      39.778  33.967  29.659  1.00  0.00    -0.354 N 
ATOM     61  N   UNL A   1      43.430  32.232  29.790  1.00  0.00    -0.248 NA
ATOM     62  C   UNL A   1      45.633  32.895  29.939  1.00  0.00     0.031 C 
ATOM     63  C   UNL A   1      40.590  34.231  31.709  1.00  0.00     0.029 A 
ATOM     64  C   UNL A   1      40.986  34.125  30.381  1.00  0.00     0.049 A 
ATOM     65  H   UNL A   1      39.707  33.985  28.677  1.00  0.00     0.167 HD
ATOM     66  C   UNL A   1      43.394  33.611  29.857  1.00  0.00     0.074 A 
ATOM     67  C   UNL A   1      44.810  33.959  29.991  1.00  0.00     0.031 C 
ATOM     68  C   UNL A   1      42.296  34.455  29.786  1.00  0.00     0.037 A 
BRANCH  55  69
ATOM     69  C   UNL A   1      36.020  33.518  30.422  1.00  0.00     0.064 A 
ATOM     70  C   UNL A   1      35.267  33.938  29.313  1.00  0.00     0.173 A 
ATOM     71  C   UNL A   1      35.406  33.801  31.665  1.00  0.00     0.173 A 
ATOM     72  F   UNL A   1      35.595  33.541  28.076  1.00  0.00    -0.203 F 
ATOM     73  C   UNL A   1      34.148  34.779  29.435  1.00  0.00     0.198 A 
ATOM     74  C   UNL A   1      34.332  34.698  31.795  1.00  0.00     0.198 A 
ATOM     75  F   UNL A   1      35.819  33.196  32.789  1.00  0.00    -0.203 F 
ATOM     76  F   UNL A   1      33.495  35.188  28.339  1.00  0.00    -0.200 F 
ATOM     77  C   UNL A   1      33.726  35.219  30.675  1.00  0.00     0.200 A 
ATOM     78  F   UNL A   1      33.903  35.064  33.013  1.00  0.00    -0.200 F 
ATOM     79  F   UNL A   1      32.717  36.095  30.783  1.00  0.00    -0.200 F 
ENDBRANCH  55  69
BRANCH  56  80
ATOM     80  C   UNL A   1      45.811  29.246  29.156  1.00  0.00     0.064 A 
ATOM     81  C   UNL A   1      45.845  29.496  27.742  1.00  0.00     0.173 A 
ATOM     82  C   UNL A   1      46.936  28.619  29.701  1.00  0.00     0.173 A 
ATOM     83  F   UNL A   1      44.811  30.127  27.156  1.00  0.00    -0.203 F 
ATOM     84  C   UNL A   1      47.033  29.409  27.011  1.00  0.00     0.198 A 
ATOM     85  C   UNL A   1      48.103  28.460  28.933  1.00  0.00     0.198 A 
ATOM     86  F   UNL A   1      46.997  28.397  31.020  1.00  0.00    -0.203 F 
ATOM     87  F   UNL A   1      47.118  29.962  25.790  1.00  0.00    -0.200 F 
ATOM     88  C   UNL A   1      48.172  28.926  27.622  1.00  0.00     0.200 A 
ATOM     89  F   UNL A   1      49.229  28.039  29.527  1.00  0.00    -0.200 F 
ATOM     90  F   UNL A   1      49.356  29.022  26.997  1.00  0.00    -0.200 F 
ENDBRANCH  56  80
BRANCH  68  91
ATOM     91  C   UNL A   1      42.450  35.882  29.290  1.00  0.00     0.064 A 
ATOM     92  C   UNL A   1      43.148  36.853  30.028  1.00  0.00     0.173 A 
ATOM     93  C   UNL A   1      42.066  36.269  27.983  1.00  0.00     0.173 A 
ATOM     94  F   UNL A   1      43.698  36.565  31.216  1.00  0.00    -0.203 F 
ATOM     95  C   UNL A   1      43.351  38.142  29.543  1.00  0.00     0.198 A 
ATOM     96  C   UNL A   1      42.342  37.534  27.473  1.00  0.00     0.198 A 
ATOM     97  F   UNL A   1      41.444  35.434  27.142  1.00  0.00    -0.203 F 
ATOM     98  F   UNL A   1      43.958  39.049  30.320  1.00  0.00    -0.200 F 
ATOM     99  C   UNL A   1      42.960  38.478  28.262  1.00  0.00     0.200 A 
ATOM    100  F   UNL A   1      42.023  37.820  26.203  1.00  0.00    -0.200 F 
ATOM    101  F   UNL A   1      43.203  39.703  27.782  1.00  0.00    -0.200 F 
ENDBRANCH  68  91
ENDBRANCH  42  43
ENDBRANCH  35  37
ENDBRANCH  34  35
ENDBRANCH  33  34
ENDBRANCH  32  33
ENDBRANCH  31  32
ENDBRANCH  30  31
ENDBRANCH  29  30
ENDBRANCH   1  29
TORSDOF 23
ENDMDL
MODEL 3
REMARK VINA RESULT:     -13.4      6.788     11.142
REMARK SMILES Cc1ccc(N[C@](C)(C(=O)OCCOCCOCCOCCOC(=O)c2ccc(-c3c4nc(c(-c5c(F)c(F)c(F)c(F)c5F)c5ccc([nH]5)c(-c5c(F)c(F)c(F)c(F)c5F)c5nc(c(-c6c(F)c(F)c(F)c(F)c6F)c6ccc3[nH]6)C=C5)C=C4)cc2)c2cc(F)cc(F)c2)cc1
REMARK SMILES IDX 17 1 16 2 15 3 14 4 13 5 12 6 11 7 9 8 10 9 7 10 8 11 6 12
REMARK SMILES IDX 5 14 1 15 2 16 3 17 98 18 4 19 97 20 89 21 90 22 96 23 91 24
REMARK SMILES IDX 94 25 92 26 93 27 95 28 18 29 19 30 20 31 21 32 22 33 23 34
REMARK SMILES IDX 24 35 25 36 26 37 27 38 88 39 28 40 87 41 29 42 30 43 31 44
REMARK SMILES IDX 81 45 32 46 86 47 80 48 82 49 33 50 85 51 79 52 78 53 34 55
REMARK SMILES IDX 66 56 46 57 65 58 47 59 50 60 64 61 83 62 48 63 49 64 63 66
REMARK SMILES IDX 84 67 51 68 35 69 36 70 44 71 37 72 38 73 42 74 45 75 39 76
REMARK SMILES IDX 40 77 43 78 41 79 67 80 68 81 76 82 69 83 70 84 74 85 77 86
REMARK SMILES IDX 71 87 72 88 75 89 73 90 52 91 53 92 61 93 54 94 55 95 59 96
REMARK SMILES IDX 62 97 56 98 57 99 60 100 58 101
REMARK H PARENT 6 13 82 54 50 65
REMARK Flexibility Score: inf
ROOT
ATOM      1  O   UNL A   1      43.280  21.628  26.925  1.00  0.00    -0.377 OA
ENDROOT
BRANCH   1   2
ATOM      2  C   UNL A   1      42.036  21.016  26.548  1.00  0.00     0.188 C 
BRANCH   2   3
ATOM      3  C   UNL A   1      40.399  21.474  26.586  1.00  0.00     0.188 C 
BRANCH   3   4
ATOM      4  O   UNL A   1      38.853  21.117  25.638  1.00  0.00    -0.376 OA
BRANCH   4   5
ATOM      5  C   UNL A   1      37.396  22.085  25.209  1.00  0.00     0.202 C 
BRANCH   5   6
ATOM      6  C   UNL A   1      36.837  22.592  23.460  1.00  0.00     0.261 C 
BRANCH   6   7
ATOM      7  O   UNL A   1      35.330  23.475  22.915  1.00  0.00    -0.461 OA
BRANCH   7   8
ATOM      8  C   UNL A   1      33.889  23.286  22.557  1.00  0.00     0.336 C 
ATOM      9  O   UNL A   1      33.385  23.595  21.460  1.00  0.00    -0.249 OA
BRANCH   8  10
ATOM     10  C   UNL A   1      32.723  22.314  23.501  1.00  0.00     0.159 C 
ATOM     11  C   UNL A   1      31.806  21.326  22.773  1.00  0.00     0.053 C 
BRANCH  10  12
ATOM     12  N   UNL A   1      33.625  21.576  24.469  1.00  0.00    -0.366 N 
ATOM     13  H   UNL A   1      34.255  22.105  25.010  1.00  0.00     0.162 HD
BRANCH  12  14
ATOM     14  C   UNL A   1      33.615  20.192  24.635  1.00  0.00     0.035 A 
ATOM     15  C   UNL A   1      33.614  15.896  24.665  1.00  0.00     0.044 C 
ATOM     16  C   UNL A   1      33.685  17.381  24.779  1.00  0.00    -0.051 A 
ATOM     17  C   UNL A   1      32.509  18.079  25.038  1.00  0.00     0.005 A 
ATOM     18  C   UNL A   1      34.853  18.092  24.512  1.00  0.00     0.005 A 
ATOM     19  C   UNL A   1      32.476  19.464  24.943  1.00  0.00     0.026 A 
ATOM     20  C   UNL A   1      34.823  19.488  24.479  1.00  0.00     0.026 A 
ENDBRANCH  12  14
ENDBRANCH  10  12
BRANCH  10  21
ATOM     21  C   UNL A   1      31.701  23.127  24.579  1.00  0.00    -0.006 A 
ATOM     22  C   UNL A   1      31.288  24.473  24.336  1.00  0.00     0.046 A 
ATOM     23  C   UNL A   1      31.104  22.557  25.726  1.00  0.00     0.046 A 
ATOM     24  C   UNL A   1      30.519  25.225  25.233  1.00  0.00     0.126 A 
ATOM     25  C   UNL A   1      30.248  23.303  26.569  1.00  0.00     0.126 A 
ATOM     26  F   UNL A   1      30.314  26.528  24.992  1.00  0.00    -0.207 F 
ATOM     27  C   UNL A   1      29.981  24.646  26.356  1.00  0.00     0.078 A 
ATOM     28  F   UNL A   1      29.657  22.694  27.607  1.00  0.00    -0.207 F 
ENDBRANCH  10  21
ENDBRANCH   8  10
ENDBRANCH   7   8
ENDBRANCH   6   7
ENDBRANCH   5   6
ENDBRANCH   4   5
ENDBRANCH   3   4
ENDBRANCH   2   3
ENDBRANCH   1   2
BRANCH   1  29
ATOM     29  C   UNL A   1      44.198  22.330  26.107  1.00  0.00     0.188 C 
BRANCH  29  30
ATOM     30  C   UNL A   1      45.194  23.212  26.779  1.00  0.00     0.188 C 
BRANCH  30  31
ATOM     31  O   UNL A   1      45.126  24.454  26.112  1.00  0.00    -0.376 OA
BRANCH  31  32
ATOM     32  C   UNL A   1      44.232  24.470  25.025  1.00  0.00     0.202 C 
BRANCH  32  33
ATOM     33  C   UNL A   1      43.376  25.733  25.079  1.00  0.00     0.261 C 
BRANCH  33  34
ATOM     34  O   UNL A   1      42.780  25.863  26.399  1.00  0.00    -0.460 OA
BRANCH  34  35
ATOM     35  C   UNL A   1      41.434  26.103  26.466  1.00  0.00     0.338 C 
ATOM     36  O   UNL A   1      40.559  25.306  26.096  1.00  0.00    -0.246 OA
BRANCH  35  37
ATOM     37  C   UNL A   1      41.175  27.542  26.758  1.00  0.00     0.060 A 
ATOM     38  C   UNL A   1      41.776  28.611  26.075  1.00  0.00     0.016 A 
ATOM     39  C   UNL A   1      40.650  27.831  27.972  1.00  0.00     0.016 A 
ATOM     40  C   UNL A   1      42.281  29.762  26.778  1.00  0.00     0.010 A 
ATOM     41  C   UNL A   1      41.183  28.941  28.610  1.00  0.00     0.010 A 
ATOM     42  C   UNL A   1      42.276  29.826  28.168  1.00  0.00    -0.014 A 
BRANCH  42  43
ATOM     43  C   UNL A   1      43.489  30.792  29.205  1.00  0.00     0.031 A 
ATOM     44  C   UNL A   1      43.206  32.711  29.774  1.00  0.00     0.074 A 
ATOM     45  C   UNL A   1      44.647  30.002  29.317  1.00  0.00     0.049 A 
ATOM     46  N   UNL A   1      43.981  33.784  29.402  1.00  0.00    -0.248 NA
ATOM     47  C   UNL A   1      41.833  33.641  30.012  1.00  0.00     0.031 C 
ATOM     48  C   UNL A   1      45.724  30.150  30.242  1.00  0.00     0.029 A 
ATOM     49  N   UNL A   1      45.233  28.968  28.554  1.00  0.00    -0.354 N 
ATOM     50  C   UNL A   1      43.428  35.043  29.295  1.00  0.00     0.074 A 
ATOM     51  C   UNL A   1      42.057  34.860  29.539  1.00  0.00     0.031 C 
ATOM     52  C   UNL A   1      46.927  29.808  29.806  1.00  0.00     0.029 A 
ATOM     53  C   UNL A   1      46.637  29.172  28.582  1.00  0.00     0.049 A 
ATOM     54  H   UNL A   1      44.758  28.241  28.090  1.00  0.00     0.167 HD
ATOM     55  C   UNL A   1      44.149  36.168  28.997  1.00  0.00     0.037 A 
ATOM     56  C   UNL A   1      47.579  28.953  27.657  1.00  0.00     0.037 A 
ATOM     57  C   UNL A   1      45.586  35.861  28.971  1.00  0.00     0.049 A 
ATOM     58  C   UNL A   1      48.263  30.311  27.434  1.00  0.00     0.074 A 
ATOM     59  C   UNL A   1      46.408  35.706  30.067  1.00  0.00     0.029 A 
ATOM     60  N   UNL A   1      46.281  35.276  27.903  1.00  0.00    -0.354 N 
ATOM     61  N   UNL A   1      47.682  31.493  27.596  1.00  0.00    -0.248 NA
ATOM     62  C   UNL A   1      49.708  30.443  27.267  1.00  0.00     0.031 C 
ATOM     63  C   UNL A   1      47.468  34.834  29.728  1.00  0.00     0.029 A 
ATOM     64  C   UNL A   1      47.389  34.530  28.374  1.00  0.00     0.049 A 
ATOM     65  H   UNL A   1      46.033  35.372  26.954  1.00  0.00     0.167 HD
ATOM     66  C   UNL A   1      48.612  32.511  27.497  1.00  0.00     0.074 A 
ATOM     67  C   UNL A   1      49.868  31.777  27.333  1.00  0.00     0.031 C 
ATOM     68  C   UNL A   1      48.403  33.882  27.518  1.00  0.00     0.037 A 
BRANCH  55  69
ATOM     69  C   UNL A   1      43.509  37.526  29.372  1.00  0.00     0.064 A 
ATOM     70  C   UNL A   1      42.733  38.229  28.436  1.00  0.00     0.173 A 
ATOM     71  C   UNL A   1      43.800  38.269  30.540  1.00  0.00     0.173 A 
ATOM     72  F   UNL A   1      42.181  37.596  27.393  1.00  0.00    -0.203 F 
ATOM     73  C   UNL A   1      42.494  39.611  28.540  1.00  0.00     0.198 A 
ATOM     74  C   UNL A   1      43.628  39.661  30.619  1.00  0.00     0.198 A 
ATOM     75  F   UNL A   1      44.242  37.657  31.650  1.00  0.00    -0.203 F 
ATOM     76  F   UNL A   1      41.786  40.241  27.592  1.00  0.00    -0.200 F 
ATOM     77  C   UNL A   1      43.006  40.339  29.595  1.00  0.00     0.200 A 
ATOM     78  F   UNL A   1      44.083  40.338  31.684  1.00  0.00    -0.200 F 
ATOM     79  F   UNL A   1      42.856  41.671  29.645  1.00  0.00    -0.200 F 
ENDBRANCH  55  69
BRANCH  56  80
ATOM     80  C   UNL A   1      47.177  27.715  26.924  1.00  0.00     0.064 A 
ATOM     81  C   UNL A   1      46.649  27.992  25.617  1.00  0.00     0.173 A 
ATOM     82  C   UNL A   1      47.929  26.543  27.052  1.00  0.00     0.173 A 
ATOM     83  F   UNL A   1      45.945  29.119  25.413  1.00  0.00    -0.203 F 
ATOM     84  C   UNL A   1      47.106  27.313  24.483  1.00  0.00     0.198 A 
ATOM     85  C   UNL A   1      48.317  25.819  25.911  1.00  0.00     0.198 A 
ATOM     86  F   UNL A   1      48.495  26.244  28.228  1.00  0.00    -0.203 F 
ATOM     87  F   UNL A   1      46.859  27.804  23.257  1.00  0.00    -0.200 F 
ATOM     88  C   UNL A   1      47.972  26.250  24.632  1.00  0.00     0.200 A 
ATOM     89  F   UNL A   1      49.198  24.815  26.036  1.00  0.00    -0.200 F 
ATOM     90  F   UNL A   1      48.570  25.721  23.553  1.00  0.00    -0.200 F 
ENDBRANCH  56  80
BRANCH  68  91
ATOM     91  C   UNL A   1      49.377  34.821  26.830  1.00  0.00     0.064 A 
ATOM     92  C   UNL A   1      49.146  35.312  25.534  1.00  0.00     0.173 A 
ATOM     93  C   UNL A   1      50.473  35.401  27.516  1.00  0.00     0.173 A 
ATOM     94  F   UNL A   1      48.057  34.957  24.837  1.00  0.00    -0.203 F 
ATOM     95  C   UNL A   1      50.002  36.227  24.929  1.00  0.00     0.198 A 
ATOM     96  C   UNL A   1      51.279  36.375  26.935  1.00  0.00     0.198 A 
ATOM     97  F   UNL A   1      50.782  35.075  28.776  1.00  0.00    -0.203 F 
ATOM     98  F   UNL A   1      49.776  36.604  23.664  1.00  0.00    -0.200 F 
ATOM     99  C   UNL A   1      51.060  36.768  25.633  1.00  0.00     0.200 A 
ATOM    100  F   UNL A   1      52.254  36.944  27.657  1.00  0.00    -0.200 F 
ATOM    101  F   UNL A   1      51.850  37.687  25.065  1.00  0.00    -0.200 F 
ENDBRANCH  68  91
ENDBRANCH  42  43
ENDBRANCH  35  37
ENDBRANCH  34  35
ENDBRANCH  33  34
ENDBRANCH  32  33
ENDBRANCH  31  32
ENDBRANCH  30  31
ENDBRANCH  29  30
ENDBRANCH   1  29
TORSDOF 23
ENDMDL
