MODEL 1
REMARK VINA RESULT:      -9.9      0.000      0.000
REMARK SMILES Nc1c(CC(=O)OCCOCCOCCOCCOC(=O)c2ccc(-c3c4nc(c(-c5c(F)c(F)c(F)c(F)c5F)c5ccc([nH]5)c(-c5c(F)c(F)c(F)c(F)c5F)c5nc(c(-c6c(F)c(F)c(F)c(F)c6F)c6ccc3[nH]6)C=C5)C=C4)cc2)cccc1C(=O)c1ccc(Br)cc1
REMARK SMILES IDX 12 1 11 2 10 3 9 4 8 5 7 6 5 7 6 8 4 9 3 10 2 11 88 12 85 13
REMARK SMILES IDX 87 14 86 15 1 16 89 19 90 20 91 21 92 22 97 23 93 24 96 25
REMARK SMILES IDX 94 26 95 27 13 28 14 29 15 30 16 31 17 32 18 33 19 34 20 35
REMARK SMILES IDX 21 36 22 37 23 38 84 39 24 40 83 41 25 42 26 43 27 44 77 45
REMARK SMILES IDX 28 46 82 47 76 48 78 49 29 50 81 51 75 52 74 53 30 55 62 56
REMARK SMILES IDX 42 57 61 58 43 59 46 60 60 61 79 62 44 63 45 64 59 66 80 67
REMARK SMILES IDX 47 68 31 69 32 70 40 71 33 72 34 73 38 74 41 75 35 76 36 77
REMARK SMILES IDX 39 78 37 79 63 80 64 81 72 82 65 83 66 84 70 85 73 86 67 87
REMARK SMILES IDX 68 88 71 89 69 90 48 91 49 92 57 93 50 94 51 95 55 96 58 97
REMARK SMILES IDX 52 98 53 99 56 100 54 101
REMARK H PARENT 1 17 1 18 78 54 46 65
REMARK Flexibility Score: inf
ROOT
ATOM      1  C   UNL A   1      40.467  22.023  26.936  1.00  0.00     0.188 C 
ENDROOT
BRANCH   1   2
ATOM      2  C   UNL A   1      39.052  22.456  26.485  1.00  0.00     0.188 C 
BRANCH   2   3
ATOM      3  O   UNL A   1      38.377  21.808  25.407  1.00  0.00    -0.376 OA
BRANCH   3   4
ATOM      4  C   UNL A   1      36.998  22.055  25.199  1.00  0.00     0.202 C 
BRANCH   4   5
ATOM      5  C   UNL A   1      36.085  20.828  25.010  1.00  0.00     0.261 C 
BRANCH   5   6
ATOM      6  O   UNL A   1      34.726  20.994  25.472  1.00  0.00    -0.463 OA
BRANCH   6   7
ATOM      7  C   UNL A   1      33.752  20.368  24.773  1.00  0.00     0.310 C 
ATOM      8  O   UNL A   1      33.717  19.152  24.601  1.00  0.00    -0.252 OA
BRANCH   7   9
ATOM      9  C   UNL A   1      32.627  21.253  24.258  1.00  0.00     0.160 C 
BRANCH   9  10
ATOM     10  C   UNL A   1      32.237  22.563  24.934  1.00  0.00    -0.013 A 
ATOM     11  C   UNL A   1      32.932  23.774  24.711  1.00  0.00     0.047 A 
ATOM     12  C   UNL A   1      32.391  24.976  25.253  1.00  0.00     0.046 A 
ATOM     13  C   UNL A   1      31.086  22.577  25.758  1.00  0.00     0.006 A 
ATOM     14  C   UNL A   1      31.289  24.942  26.123  1.00  0.00     0.014 A 
ATOM     15  C   UNL A   1      30.644  23.743  26.383  1.00  0.00     0.001 A 
BRANCH  11  16
ATOM     16  N   UNL A   1      34.073  23.764  23.916  1.00  0.00    -0.398 N 
ATOM     17  H   UNL A   1      34.322  24.565  23.401  1.00  0.00     0.156 HD
ATOM     18  H   UNL A   1      34.632  22.955  23.867  1.00  0.00     0.156 HD
ENDBRANCH  11  16
BRANCH  12  19
ATOM     19  C   UNL A   1      32.889  26.349  24.922  1.00  0.00     0.195 C 
ATOM     20  O   UNL A   1      34.027  26.694  25.234  1.00  0.00    -0.289 OA
BRANCH  19  21
ATOM     21  C   UNL A   1      32.021  27.323  24.223  1.00  0.00     0.023 A 
ATOM     22  C   UNL A   1      31.482  26.957  22.987  1.00  0.00     0.013 A 
ATOM     23  C   UNL A   1      31.650  28.530  24.831  1.00  0.00     0.013 A 
ATOM     24  C   UNL A   1      30.491  27.749  22.405  1.00  0.00     0.016 A 
ATOM     25  C   UNL A   1      30.656  29.317  24.248  1.00  0.00     0.016 A 
ATOM     26  C   UNL A   1      30.066  28.910  23.051  1.00  0.00     0.018 A 
ATOM     27  Br  UNL A   1      28.646  29.921  22.320  1.00  0.00    -0.051 Br
ENDBRANCH  19  21
ENDBRANCH  12  19
ENDBRANCH   9  10
ENDBRANCH   7   9
ENDBRANCH   6   7
ENDBRANCH   5   6
ENDBRANCH   4   5
ENDBRANCH   3   4
ENDBRANCH   2   3
ENDBRANCH   1   2
BRANCH   1  28
ATOM     28  O   UNL A   1      40.551  20.702  27.446  1.00  0.00    -0.377 OA
BRANCH  28  29
ATOM     29  C   UNL A   1      41.802  20.075  27.245  1.00  0.00     0.188 C 
BRANCH  29  30
ATOM     30  C   UNL A   1      42.423  20.357  25.870  1.00  0.00     0.188 C 
BRANCH  30  31
ATOM     31  O   UNL A   1      43.843  20.394  25.918  1.00  0.00    -0.376 OA
BRANCH  31  32
ATOM     32  C   UNL A   1      44.579  20.793  24.777  1.00  0.00     0.202 C 
BRANCH  32  33
ATOM     33  C   UNL A   1      45.294  22.157  24.787  1.00  0.00     0.261 C 
BRANCH  33  34
ATOM     34  O   UNL A   1      44.963  23.061  25.848  1.00  0.00    -0.460 OA
BRANCH  34  35
ATOM     35  C   UNL A   1      43.958  23.931  25.632  1.00  0.00     0.338 C 
ATOM     36  O   UNL A   1      43.196  23.944  24.677  1.00  0.00    -0.246 OA
BRANCH  35  37
ATOM     37  C   UNL A   1      43.775  24.745  26.855  1.00  0.00     0.060 A 
ATOM     38  C   UNL A   1      43.081  24.173  27.929  1.00  0.00     0.016 A 
ATOM     39  C   UNL A   1      44.286  26.043  26.957  1.00  0.00     0.016 A 
ATOM     40  C   UNL A   1      42.844  24.915  29.084  1.00  0.00     0.010 A 
ATOM     41  C   UNL A   1      44.020  26.799  28.105  1.00  0.00     0.010 A 
ATOM     42  C   UNL A   1      43.254  26.252  29.151  1.00  0.00    -0.014 A 
BRANCH  42  43
ATOM     43  C   UNL A   1      42.641  27.117  30.188  1.00  0.00     0.031 A 
ATOM     44  C   UNL A   1      43.334  27.214  31.522  1.00  0.00     0.074 A 
ATOM     45  C   UNL A   1      41.564  27.878  29.927  1.00  0.00     0.049 A 
ATOM     46  N   UNL A   1      43.039  27.943  32.568  1.00  0.00    -0.248 NA
ATOM     47  C   UNL A   1      44.532  26.376  31.694  1.00  0.00     0.031 C 
ATOM     48  C   UNL A   1      40.840  27.914  28.660  1.00  0.00     0.029 A 
ATOM     49  N   UNL A   1      40.901  28.781  30.722  1.00  0.00    -0.354 N 
ATOM     50  C   UNL A   1      44.011  27.650  33.516  1.00  0.00     0.074 A 
ATOM     51  C   UNL A   1      44.881  26.649  32.940  1.00  0.00     0.031 C 
ATOM     52  C   UNL A   1      39.830  28.795  28.760  1.00  0.00     0.029 A 
ATOM     53  C   UNL A   1      39.821  29.364  30.108  1.00  0.00     0.049 A 
ATOM     54  H   UNL A   1      41.174  28.991  31.643  1.00  0.00     0.167 HD
ATOM     55  C   UNL A   1      44.173  28.179  34.751  1.00  0.00     0.037 A 
ATOM     56  C   UNL A   1      38.923  30.247  30.589  1.00  0.00     0.037 A 
ATOM     57  C   UNL A   1      43.304  29.173  35.323  1.00  0.00     0.049 A 
ATOM     58  C   UNL A   1      39.079  30.760  32.000  1.00  0.00     0.074 A 
ATOM     59  C   UNL A   1      43.384  29.780  36.562  1.00  0.00     0.029 A 
ATOM     60  N   UNL A   1      42.185  29.698  34.691  1.00  0.00    -0.354 N 
ATOM     61  N   UNL A   1      40.014  30.500  32.881  1.00  0.00    -0.248 NA
ATOM     62  C   UNL A   1      38.056  31.702  32.476  1.00  0.00     0.031 C 
ATOM     63  C   UNL A   1      42.277  30.623  36.708  1.00  0.00     0.029 A 
ATOM     64  C   UNL A   1      41.547  30.597  35.530  1.00  0.00     0.049 A 
ATOM     65  H   UNL A   1      41.888  29.463  33.782  1.00  0.00     0.167 HD
ATOM     66  C   UNL A   1      39.710  31.265  34.002  1.00  0.00     0.074 A 
ATOM     67  C   UNL A   1      38.516  32.017  33.677  1.00  0.00     0.031 C 
ATOM     68  C   UNL A   1      40.358  31.339  35.192  1.00  0.00     0.037 A 
BRANCH  55  69
ATOM     69  C   UNL A   1      45.315  27.662  35.581  1.00  0.00     0.064 A 
ATOM     70  C   UNL A   1      45.182  26.534  36.405  1.00  0.00     0.173 A 
ATOM     71  C   UNL A   1      46.565  28.298  35.537  1.00  0.00     0.173 A 
ATOM     72  F   UNL A   1      44.003  25.900  36.501  1.00  0.00    -0.203 F 
ATOM     73  C   UNL A   1      46.250  26.080  37.175  1.00  0.00     0.198 A 
ATOM     74  C   UNL A   1      47.640  27.819  36.281  1.00  0.00     0.198 A 
ATOM     75  F   UNL A   1      46.747  29.380  34.766  1.00  0.00    -0.203 F 
ATOM     76  F   UNL A   1      46.084  25.034  37.998  1.00  0.00    -0.200 F 
ATOM     77  C   UNL A   1      47.480  26.717  37.106  1.00  0.00     0.200 A 
ATOM     78  F   UNL A   1      48.830  28.429  36.202  1.00  0.00    -0.200 F 
ATOM     79  F   UNL A   1      48.508  26.274  37.843  1.00  0.00    -0.200 F 
ENDBRANCH  55  69
BRANCH  56  80
ATOM     80  C   UNL A   1      37.785  30.694  29.740  1.00  0.00     0.064 A 
ATOM     81  C   UNL A   1      36.723  29.832  29.429  1.00  0.00     0.173 A 
ATOM     82  C   UNL A   1      37.755  31.985  29.191  1.00  0.00     0.173 A 
ATOM     83  F   UNL A   1      36.717  28.578  29.905  1.00  0.00    -0.203 F 
ATOM     84  C   UNL A   1      35.691  30.235  28.584  1.00  0.00     0.198 A 
ATOM     85  C   UNL A   1      36.704  32.398  28.374  1.00  0.00     0.198 A 
ATOM     86  F   UNL A   1      38.747  32.849  29.451  1.00  0.00    -0.203 F 
ATOM     87  F   UNL A   1      34.719  29.372  28.258  1.00  0.00    -0.200 F 
ATOM     88  C   UNL A   1      35.678  31.520  28.063  1.00  0.00     0.200 A 
ATOM     89  F   UNL A   1      36.691  33.645  27.883  1.00  0.00    -0.200 F 
ATOM     90  F   UNL A   1      34.684  31.908  27.251  1.00  0.00    -0.200 F 
ENDBRANCH  56  80
BRANCH  68  91
ATOM     91  C   UNL A   1      39.812  32.294  36.216  1.00  0.00     0.064 A 
ATOM     92  C   UNL A   1      40.390  33.554  36.437  1.00  0.00     0.173 A 
ATOM     93  C   UNL A   1      38.680  31.953  36.972  1.00  0.00     0.173 A 
ATOM     94  F   UNL A   1      41.478  33.929  35.749  1.00  0.00    -0.203 F 
ATOM     95  C   UNL A   1      39.881  34.416  37.407  1.00  0.00     0.198 A 
ATOM     96  C   UNL A   1      38.150  32.833  37.913  1.00  0.00     0.198 A 
ATOM     97  F   UNL A   1      38.078  30.766  36.794  1.00  0.00    -0.203 F 
ATOM     98  F   UNL A   1      40.492  35.585  37.648  1.00  0.00    -0.200 F 
ATOM     99  C   UNL A   1      38.760  34.058  38.139  1.00  0.00     0.200 A 
ATOM    100  F   UNL A   1      37.054  32.492  38.603  1.00  0.00    -0.200 F 
ATOM    101  F   UNL A   1      38.271  34.888  39.070  1.00  0.00    -0.200 F 
ENDBRANCH  68  91
ENDBRANCH  42  43
ENDBRANCH  35  37
ENDBRANCH  34  35
ENDBRANCH  33  34
ENDBRANCH  32  33
ENDBRANCH  31  32
ENDBRANCH  30  31
ENDBRANCH  29  30
ENDBRANCH  28  29
ENDBRANCH   1  28
TORSDOF 24
ENDMDL
MODEL 2
REMARK VINA RESULT:      -9.9      1.127      2.097
REMARK SMILES Nc1c(CC(=O)OCCOCCOCCOCCOC(=O)c2ccc(-c3c4nc(c(-c5c(F)c(F)c(F)c(F)c5F)c5ccc([nH]5)c(-c5c(F)c(F)c(F)c(F)c5F)c5nc(c(-c6c(F)c(F)c(F)c(F)c6F)c6ccc3[nH]6)C=C5)C=C4)cc2)cccc1C(=O)c1ccc(Br)cc1
REMARK SMILES IDX 12 1 11 2 10 3 9 4 8 5 7 6 5 7 6 8 4 9 3 10 2 11 88 12 85 13
REMARK SMILES IDX 87 14 86 15 1 16 89 19 90 20 91 21 92 22 97 23 93 24 96 25
REMARK SMILES IDX 94 26 95 27 13 28 14 29 15 30 16 31 17 32 18 33 19 34 20 35
REMARK SMILES IDX 21 36 22 37 23 38 84 39 24 40 83 41 25 42 26 43 27 44 77 45
REMARK SMILES IDX 28 46 82 47 76 48 78 49 29 50 81 51 75 52 74 53 30 55 62 56
REMARK SMILES IDX 42 57 61 58 43 59 46 60 60 61 79 62 44 63 45 64 59 66 80 67
REMARK SMILES IDX 47 68 31 69 32 70 40 71 33 72 34 73 38 74 41 75 35 76 36 77
REMARK SMILES IDX 39 78 37 79 63 80 64 81 72 82 65 83 66 84 70 85 73 86 67 87
REMARK SMILES IDX 68 88 71 89 69 90 48 91 49 92 57 93 50 94 51 95 55 96 58 97
REMARK SMILES IDX 52 98 53 99 56 100 54 101
REMARK H PARENT 1 17 1 18 78 54 46 65
REMARK Flexibility Score: inf
ROOT
ATOM      1  C   UNL A   1      40.412  21.790  27.035  1.00  0.00     0.188 C 
ENDROOT
BRANCH   1   2
ATOM      2  C   UNL A   1      39.235  22.189  26.114  1.00  0.00     0.188 C 
BRANCH   2   3
ATOM      3  O   UNL A   1      38.315  21.220  25.610  1.00  0.00    -0.376 OA
BRANCH   3   4
ATOM      4  C   UNL A   1      37.178  21.651  24.884  1.00  0.00     0.202 C 
BRANCH   4   5
ATOM      5  C   UNL A   1      35.818  21.578  25.604  1.00  0.00     0.261 C 
BRANCH   5   6
ATOM      6  O   UNL A   1      34.701  22.129  24.870  1.00  0.00    -0.463 OA
BRANCH   6   7
ATOM      7  C   UNL A   1      33.585  21.372  24.777  1.00  0.00     0.310 C 
ATOM      8  O   UNL A   1      33.226  20.585  25.650  1.00  0.00    -0.252 OA
BRANCH   7   9
ATOM      9  C   UNL A   1      32.724  21.601  23.544  1.00  0.00     0.160 C 
BRANCH   9  10
ATOM     10  C   UNL A   1      32.374  22.995  23.033  1.00  0.00    -0.013 A 
ATOM     11  C   UNL A   1      31.330  23.771  23.587  1.00  0.00     0.047 A 
ATOM     12  C   UNL A   1      31.190  25.124  23.159  1.00  0.00     0.046 A 
ATOM     13  C   UNL A   1      33.179  23.558  22.015  1.00  0.00     0.006 A 
ATOM     14  C   UNL A   1      31.960  25.626  22.098  1.00  0.00     0.014 A 
ATOM     15  C   UNL A   1      32.947  24.841  21.520  1.00  0.00     0.001 A 
BRANCH  11  16
ATOM     16  N   UNL A   1      30.525  23.217  24.577  1.00  0.00    -0.398 N 
ATOM     17  H   UNL A   1      30.872  22.494  25.147  1.00  0.00     0.156 HD
ATOM     18  H   UNL A   1      29.606  23.547  24.706  1.00  0.00     0.156 HD
ENDBRANCH  11  16
BRANCH  12  19
ATOM     19  C   UNL A   1      30.283  26.122  23.807  1.00  0.00     0.195 C 
ATOM     20  O   UNL A   1      29.070  25.924  23.859  1.00  0.00    -0.289 OA
BRANCH  19  21
ATOM     21  C   UNL A   1      30.821  27.374  24.386  1.00  0.00     0.023 A 
ATOM     22  C   UNL A   1      30.558  28.574  23.719  1.00  0.00     0.013 A 
ATOM     23  C   UNL A   1      31.472  27.378  25.626  1.00  0.00     0.013 A 
ATOM     24  C   UNL A   1      30.854  29.787  24.341  1.00  0.00     0.016 A 
ATOM     25  C   UNL A   1      31.763  28.593  26.247  1.00  0.00     0.016 A 
ATOM     26  C   UNL A   1      31.431  29.790  25.612  1.00  0.00     0.018 A 
ATOM     27  Br  UNL A   1      31.727  31.432  26.501  1.00  0.00    -0.051 Br
ENDBRANCH  19  21
ENDBRANCH  12  19
ENDBRANCH   9  10
ENDBRANCH   7   9
ENDBRANCH   6   7
ENDBRANCH   5   6
ENDBRANCH   4   5
ENDBRANCH   3   4
ENDBRANCH   2   3
ENDBRANCH   1   2
BRANCH   1  28
ATOM     28  O   UNL A   1      40.663  20.397  27.111  1.00  0.00    -0.377 OA
BRANCH  28  29
ATOM     29  C   UNL A   1      41.749  19.953  26.322  1.00  0.00     0.188 C 
BRANCH  29  30
ATOM     30  C   UNL A   1      42.732  21.068  25.938  1.00  0.00     0.188 C 
BRANCH  30  31
ATOM     31  O   UNL A   1      44.053  20.579  25.747  1.00  0.00    -0.376 OA
BRANCH  31  32
ATOM     32  C   UNL A   1      44.814  21.012  24.635  1.00  0.00     0.202 C 
BRANCH  32  33
ATOM     33  C   UNL A   1      45.578  22.346  24.726  1.00  0.00     0.261 C 
BRANCH  33  34
ATOM     34  O   UNL A   1      45.233  23.225  25.803  1.00  0.00    -0.460 OA
BRANCH  34  35
ATOM     35  C   UNL A   1      44.284  24.152  25.569  1.00  0.00     0.338 C 
ATOM     36  O   UNL A   1      43.608  24.266  24.558  1.00  0.00    -0.246 OA
BRANCH  35  37
ATOM     37  C   UNL A   1      44.028  24.886  26.829  1.00  0.00     0.060 A 
ATOM     38  C   UNL A   1      43.112  24.338  27.736  1.00  0.00     0.016 A 
ATOM     39  C   UNL A   1      44.682  26.086  27.127  1.00  0.00     0.016 A 
ATOM     40  C   UNL A   1      42.803  25.013  28.914  1.00  0.00     0.010 A 
ATOM     41  C   UNL A   1      44.348  26.780  28.296  1.00  0.00     0.010 A 
ATOM     42  C   UNL A   1      43.370  26.268  29.167  1.00  0.00    -0.014 A 
BRANCH  42  43
ATOM     43  C   UNL A   1      42.726  27.128  30.190  1.00  0.00     0.031 A 
ATOM     44  C   UNL A   1      43.378  27.216  31.545  1.00  0.00     0.074 A 
ATOM     45  C   UNL A   1      41.660  27.894  29.901  1.00  0.00     0.049 A 
ATOM     46  N   UNL A   1      43.052  27.939  32.586  1.00  0.00    -0.248 NA
ATOM     47  C   UNL A   1      44.569  26.375  31.750  1.00  0.00     0.031 C 
ATOM     48  C   UNL A   1      40.976  27.938  28.611  1.00  0.00     0.029 A 
ATOM     49  N   UNL A   1      40.974  28.793  30.679  1.00  0.00    -0.354 N 
ATOM     50  C   UNL A   1      43.994  27.639  33.562  1.00  0.00     0.074 A 
ATOM     51  C   UNL A   1      44.879  26.640  33.008  1.00  0.00     0.031 C 
ATOM     52  C   UNL A   1      39.964  28.820  28.686  1.00  0.00     0.029 A 
ATOM     53  C   UNL A   1      39.914  29.382  30.036  1.00  0.00     0.049 A 
ATOM     54  H   UNL A   1      41.219  28.997  31.610  1.00  0.00     0.167 HD
ATOM     55  C   UNL A   1      44.118  28.161  34.805  1.00  0.00     0.037 A 
ATOM     56  C   UNL A   1      39.004  30.263  30.494  1.00  0.00     0.037 A 
ATOM     57  C   UNL A   1      43.234  29.153  35.355  1.00  0.00     0.049 A 
ATOM     58  C   UNL A   1      39.117  30.768  31.912  1.00  0.00     0.074 A 
ATOM     59  C   UNL A   1      43.276  29.752  36.600  1.00  0.00     0.029 A 
ATOM     60  N   UNL A   1      42.136  29.683  34.692  1.00  0.00    -0.354 N 
ATOM     61  N   UNL A   1      40.024  30.501  32.821  1.00  0.00    -0.248 NA
ATOM     62  C   UNL A   1      38.081  31.709  32.362  1.00  0.00     0.031 C 
ATOM     63  C   UNL A   1      42.167  30.596  36.716  1.00  0.00     0.029 A 
ATOM     64  C   UNL A   1      41.474  30.579  35.516  1.00  0.00     0.049 A 
ATOM     65  H   UNL A   1      41.866  29.455  33.773  1.00  0.00     0.167 HD
ATOM     66  C   UNL A   1      39.687  31.259  33.936  1.00  0.00     0.074 A 
ATOM     67  C   UNL A   1      38.505  32.016  33.579  1.00  0.00     0.031 C 
ATOM     68  C   UNL A   1      40.298  31.326  35.146  1.00  0.00     0.037 A 
BRANCH  55  69
ATOM     69  C   UNL A   1      45.232  27.636  35.667  1.00  0.00     0.064 A 
ATOM     70  C   UNL A   1      45.094  26.464  36.427  1.00  0.00     0.173 A 
ATOM     71  C   UNL A   1      46.462  28.310  35.719  1.00  0.00     0.173 A 
ATOM     72  F   UNL A   1      43.933  25.792  36.430  1.00  0.00    -0.203 F 
ATOM     73  C   UNL A   1      46.137  26.004  37.228  1.00  0.00     0.198 A 
ATOM     74  C   UNL A   1      47.513  27.826  36.493  1.00  0.00     0.198 A 
ATOM     75  F   UNL A   1      46.648  29.434  35.012  1.00  0.00    -0.203 F 
ATOM     76  F   UNL A   1      45.963  24.914  37.990  1.00  0.00    -0.200 F 
ATOM     77  C   UNL A   1      47.347  26.679  37.255  1.00  0.00     0.200 A 
ATOM     78  F   UNL A   1      48.686  28.474  36.506  1.00  0.00    -0.200 F 
ATOM     79  F   UNL A   1      48.351  26.230  38.021  1.00  0.00    -0.200 F 
ENDBRANCH  55  69
BRANCH  56  80
ATOM     80  C   UNL A   1      37.894  30.718  29.613  1.00  0.00     0.064 A 
ATOM     81  C   UNL A   1      37.834  32.036  29.136  1.00  0.00     0.173 A 
ATOM     82  C   UNL A   1      36.848  29.852  29.258  1.00  0.00     0.173 A 
ATOM     83  F   UNL A   1      38.794  32.912  29.467  1.00  0.00    -0.203 F 
ATOM     84  C   UNL A   1      36.762  32.474  28.361  1.00  0.00     0.198 A 
ATOM     85  C   UNL A   1      35.795  30.282  28.455  1.00  0.00     0.198 A 
ATOM     86  F   UNL A   1      36.852  28.583  29.690  1.00  0.00    -0.203 F 
ATOM     87  F   UNL A   1      36.703  33.754  27.967  1.00  0.00    -0.200 F 
ATOM     88  C   UNL A   1      35.746  31.596  28.015  1.00  0.00     0.200 A 
ATOM     89  F   UNL A   1      34.822  29.426  28.114  1.00  0.00    -0.200 F 
ATOM     90  F   UNL A   1      34.716  32.018  27.269  1.00  0.00    -0.200 F 
ENDBRANCH  56  80
BRANCH  68  91
ATOM     91  C   UNL A   1      39.721  32.276  36.158  1.00  0.00     0.064 A 
ATOM     92  C   UNL A   1      38.632  31.924  36.970  1.00  0.00     0.173 A 
ATOM     93  C   UNL A   1      40.281  33.552  36.333  1.00  0.00     0.173 A 
ATOM     94  F   UNL A   1      38.053  30.721  36.839  1.00  0.00    -0.203 F 
ATOM     95  C   UNL A   1      38.099  32.827  37.887  1.00  0.00     0.198 A 
ATOM     96  C   UNL A   1      39.770  34.438  37.278  1.00  0.00     0.198 A 
ATOM     97  F   UNL A   1      41.332  33.938  35.593  1.00  0.00    -0.203 F 
ATOM     98  F   UNL A   1      37.016  32.492  38.603  1.00  0.00    -0.200 F 
ATOM     99  C   UNL A   1      38.672  34.080  38.044  1.00  0.00     0.200 A 
ATOM    100  F   UNL A   1      40.339  35.640  37.443  1.00  0.00    -0.200 F 
ATOM    101  F   UNL A   1      38.159  34.948  38.928  1.00  0.00    -0.200 F 
ENDBRANCH  68  91
ENDBRANCH  42  43
ENDBRANCH  35  37
ENDBRANCH  34  35
ENDBRANCH  33  34
ENDBRANCH  32  33
ENDBRANCH  31  32
ENDBRANCH  30  31
ENDBRANCH  29  30
ENDBRANCH  28  29
ENDBRANCH   1  28
TORSDOF 24
ENDMDL
MODEL 3
REMARK VINA RESULT:      -9.7      5.951      9.667
REMARK SMILES Nc1c(CC(=O)OCCOCCOCCOCCOC(=O)c2ccc(-c3c4nc(c(-c5c(F)c(F)c(F)c(F)c5F)c5ccc([nH]5)c(-c5c(F)c(F)c(F)c(F)c5F)c5nc(c(-c6c(F)c(F)c(F)c(F)c6F)c6ccc3[nH]6)C=C5)C=C4)cc2)cccc1C(=O)c1ccc(Br)cc1
REMARK SMILES IDX 12 1 11 2 10 3 9 4 8 5 7 6 5 7 6 8 4 9 3 10 2 11 88 12 85 13
REMARK SMILES IDX 87 14 86 15 1 16 89 19 90 20 91 21 92 22 97 23 93 24 96 25
REMARK SMILES IDX 94 26 95 27 13 28 14 29 15 30 16 31 17 32 18 33 19 34 20 35
REMARK SMILES IDX 21 36 22 37 23 38 84 39 24 40 83 41 25 42 26 43 27 44 77 45
REMARK SMILES IDX 28 46 82 47 76 48 78 49 29 50 81 51 75 52 74 53 30 55 62 56
REMARK SMILES IDX 42 57 61 58 43 59 46 60 60 61 79 62 44 63 45 64 59 66 80 67
REMARK SMILES IDX 47 68 31 69 32 70 40 71 33 72 34 73 38 74 41 75 35 76 36 77
REMARK SMILES IDX 39 78 37 79 63 80 64 81 72 82 65 83 66 84 70 85 73 86 67 87
REMARK SMILES IDX 68 88 71 89 69 90 48 91 49 92 57 93 50 94 51 95 55 96 58 97
REMARK SMILES IDX 52 98 53 99 56 100 54 101
REMARK H PARENT 1 17 1 18 78 54 46 65
REMARK Flexibility Score: inf
ROOT
ATOM      1  C   UNL A   1      45.688  26.062  25.112  1.00  0.00     0.188 C 
ENDROOT
BRANCH   1   2
ATOM      2  C   UNL A   1      44.490  27.014  25.343  1.00  0.00     0.188 C 
BRANCH   2   3
ATOM      3  O   UNL A   1      44.659  28.305  25.928  1.00  0.00    -0.376 OA
BRANCH   3   4
ATOM      4  C   UNL A   1      45.951  28.884  25.975  1.00  0.00     0.202 C 
BRANCH   4   5
ATOM      5  C   UNL A   1      46.068  30.287  26.602  1.00  0.00     0.261 C 
BRANCH   5   6
ATOM      6  O   UNL A   1      45.713  31.384  25.730  1.00  0.00    -0.463 OA
BRANCH   6   7
ATOM      7  C   UNL A   1      44.754  32.234  26.160  1.00  0.00     0.310 C 
ATOM      8  O   UNL A   1      44.057  32.023  27.149  1.00  0.00    -0.252 OA
BRANCH   7   9
ATOM      9  C   UNL A   1      44.625  33.540  25.389  1.00  0.00     0.160 C 
BRANCH   9  10
ATOM     10  C   UNL A   1      44.262  34.859  26.062  1.00  0.00    -0.013 A 
ATOM     11  C   UNL A   1      45.237  35.765  26.540  1.00  0.00     0.047 A 
ATOM     12  C   UNL A   1      44.806  37.044  26.999  1.00  0.00     0.046 A 
ATOM     13  C   UNL A   1      42.896  35.219  26.140  1.00  0.00     0.006 A 
ATOM     14  C   UNL A   1      43.440  37.341  27.128  1.00  0.00     0.014 A 
ATOM     15  C   UNL A   1      42.486  36.425  26.708  1.00  0.00     0.001 A 
BRANCH  11  16
ATOM     16  N   UNL A   1      46.580  35.409  26.482  1.00  0.00    -0.398 N 
ATOM     17  H   UNL A   1      47.153  35.764  25.765  1.00  0.00     0.156 HD
ATOM     18  H   UNL A   1      46.958  34.801  27.158  1.00  0.00     0.156 HD
ENDBRANCH  11  16
BRANCH  12  19
ATOM     19  C   UNL A   1      45.729  38.177  27.325  1.00  0.00     0.195 C 
ATOM     20  O   UNL A   1      46.705  37.998  28.053  1.00  0.00    -0.289 OA
BRANCH  19  21
ATOM     21  C   UNL A   1      45.482  39.536  26.793  1.00  0.00     0.023 A 
ATOM     22  C   UNL A   1      46.094  39.891  25.587  1.00  0.00     0.013 A 
ATOM     23  C   UNL A   1      44.571  40.402  27.410  1.00  0.00     0.013 A 
ATOM     24  C   UNL A   1      45.715  41.071  24.944  1.00  0.00     0.016 A 
ATOM     25  C   UNL A   1      44.191  41.578  26.762  1.00  0.00     0.016 A 
ATOM     26  C   UNL A   1      44.748  41.893  25.522  1.00  0.00     0.018 A 
ATOM     27  Br  UNL A   1      44.154  43.430  24.596  1.00  0.00    -0.051 Br
ENDBRANCH  19  21
ENDBRANCH  12  19
ENDBRANCH   9  10
ENDBRANCH   7   9
ENDBRANCH   6   7
ENDBRANCH   5   6
ENDBRANCH   4   5
ENDBRANCH   3   4
ENDBRANCH   2   3
ENDBRANCH   1   2
BRANCH   1  28
ATOM     28  O   UNL A   1      45.341  24.777  24.625  1.00  0.00    -0.377 OA
BRANCH  28  29
ATOM     29  C   UNL A   1      46.306  23.775  24.874  1.00  0.00     0.188 C 
BRANCH  29  30
ATOM     30  C   UNL A   1      45.834  22.688  25.850  1.00  0.00     0.188 C 
BRANCH  30  31
ATOM     31  O   UNL A   1      46.394  21.416  25.551  1.00  0.00    -0.376 OA
BRANCH  31  32
ATOM     32  C   UNL A   1      45.763  20.571  24.606  1.00  0.00     0.202 C 
BRANCH  32  33
ATOM     33  C   UNL A   1      44.496  19.801  25.020  1.00  0.00     0.261 C 
BRANCH  33  34
ATOM     34  O   UNL A   1      43.257  20.520  24.994  1.00  0.00    -0.460 OA
BRANCH  34  35
ATOM     35  C   UNL A   1      42.421  20.353  26.037  1.00  0.00     0.338 C 
ATOM     36  O   UNL A   1      42.018  19.292  26.489  1.00  0.00    -0.246 OA
BRANCH  35  37
ATOM     37  C   UNL A   1      42.236  21.664  26.700  1.00  0.00     0.060 A 
ATOM     38  C   UNL A   1      42.236  22.813  25.900  1.00  0.00     0.016 A 
ATOM     39  C   UNL A   1      42.051  21.768  28.083  1.00  0.00     0.016 A 
ATOM     40  C   UNL A   1      42.111  24.072  26.481  1.00  0.00     0.010 A 
ATOM     41  C   UNL A   1      41.957  23.036  28.671  1.00  0.00     0.010 A 
ATOM     42  C   UNL A   1      42.038  24.193  27.875  1.00  0.00    -0.014 A 
BRANCH  42  43
ATOM     43  C   UNL A   1      42.319  25.520  28.474  1.00  0.00     0.031 A 
ATOM     44  C   UNL A   1      43.753  25.860  28.787  1.00  0.00     0.074 A 
ATOM     45  C   UNL A   1      41.353  26.440  28.638  1.00  0.00     0.049 A 
ATOM     46  N   UNL A   1      44.267  26.969  29.254  1.00  0.00    -0.248 NA
ATOM     47  C   UNL A   1      44.744  24.802  28.529  1.00  0.00     0.031 C 
ATOM     48  C   UNL A   1      39.941  26.249  28.321  1.00  0.00     0.029 A 
ATOM     49  N   UNL A   1      41.424  27.729  29.105  1.00  0.00    -0.354 N 
ATOM     50  C   UNL A   1      45.634  26.739  29.344  1.00  0.00     0.074 A 
ATOM     51  C   UNL A   1      45.867  25.376  28.924  1.00  0.00     0.031 C 
ATOM     52  C   UNL A   1      39.275  27.382  28.603  1.00  0.00     0.029 A 
ATOM     53  C   UNL A   1      40.210  28.367  29.146  1.00  0.00     0.049 A 
ATOM     54  H   UNL A   1      42.266  28.155  29.384  1.00  0.00     0.167 HD
ATOM     55  C   UNL A   1      46.611  27.594  29.730  1.00  0.00     0.037 A 
ATOM     56  C   UNL A   1      39.894  29.602  29.584  1.00  0.00     0.037 A 
ATOM     57  C   UNL A   1      46.376  28.950  30.151  1.00  0.00     0.049 A 
ATOM     58  C   UNL A   1      40.992  30.508  30.086  1.00  0.00     0.074 A 
ATOM     59  C   UNL A   1      47.295  29.900  30.554  1.00  0.00     0.029 A 
ATOM     60  N   UNL A   1      45.123  29.543  30.233  1.00  0.00    -0.354 N 
ATOM     61  N   UNL A   1      42.285  30.295  30.144  1.00  0.00    -0.248 NA
ATOM     62  C   UNL A   1      40.584  31.833  30.573  1.00  0.00     0.031 C 
ATOM     63  C   UNL A   1      46.595  31.047  30.942  1.00  0.00     0.029 A 
ATOM     64  C   UNL A   1      45.245  30.837  30.712  1.00  0.00     0.049 A 
ATOM     65  H   UNL A   1      44.275  29.107  29.988  1.00  0.00     0.167 HD
ATOM     66  C   UNL A   1      42.846  31.465  30.645  1.00  0.00     0.074 A 
ATOM     67  C   UNL A   1      41.752  32.392  30.850  1.00  0.00     0.031 C 
ATOM     68  C   UNL A   1      44.146  31.749  30.911  1.00  0.00     0.037 A 
BRANCH  55  69
ATOM     69  C   UNL A   1      48.020  27.072  29.749  1.00  0.00     0.064 A 
ATOM     70  C   UNL A   1      48.511  26.299  30.813  1.00  0.00     0.173 A 
ATOM     71  C   UNL A   1      48.886  27.335  28.676  1.00  0.00     0.173 A 
ATOM     72  F   UNL A   1      47.732  26.034  31.873  1.00  0.00    -0.203 F 
ATOM     73  C   UNL A   1      49.824  25.835  30.814  1.00  0.00     0.198 A 
ATOM     74  C   UNL A   1      50.187  26.840  28.666  1.00  0.00     0.198 A 
ATOM     75  F   UNL A   1      48.468  28.068  27.634  1.00  0.00    -0.203 F 
ATOM     76  F   UNL A   1      50.289  25.148  31.868  1.00  0.00    -0.200 F 
ATOM     77  C   UNL A   1      50.658  26.098  29.739  1.00  0.00     0.200 A 
ATOM     78  F   UNL A   1      50.986  27.085  27.619  1.00  0.00    -0.200 F 
ATOM     79  F   UNL A   1      51.920  25.645  29.739  1.00  0.00    -0.200 F 
ENDBRANCH  55  69
BRANCH  56  80
ATOM     80  C   UNL A   1      38.477  30.056  29.584  1.00  0.00     0.064 A 
ATOM     81  C   UNL A   1      37.814  30.380  28.391  1.00  0.00     0.173 A 
ATOM     82  C   UNL A   1      37.765  30.210  30.784  1.00  0.00     0.173 A 
ATOM     83  F   UNL A   1      38.457  30.276  27.219  1.00  0.00    -0.203 F 
ATOM     84  C   UNL A   1      36.506  30.862  28.401  1.00  0.00     0.198 A 
ATOM     85  C   UNL A   1      36.447  30.660  30.790  1.00  0.00     0.198 A 
ATOM     86  F   UNL A   1      38.352  29.920  31.955  1.00  0.00    -0.203 F 
ATOM     87  F   UNL A   1      35.918  31.218  27.250  1.00  0.00    -0.200 F 
ATOM     88  C   UNL A   1      35.821  30.995  29.599  1.00  0.00     0.200 A 
ATOM     89  F   UNL A   1      35.785  30.775  31.950  1.00  0.00    -0.200 F 
ATOM     90  F   UNL A   1      34.564  31.458  29.608  1.00  0.00    -0.200 F 
ENDBRANCH  56  80
BRANCH  68  91
ATOM     91  C   UNL A   1      44.461  33.129  31.416  1.00  0.00     0.064 A 
ATOM     92  C   UNL A   1      44.666  33.390  32.780  1.00  0.00     0.173 A 
ATOM     93  C   UNL A   1      44.580  34.203  30.520  1.00  0.00     0.173 A 
ATOM     94  F   UNL A   1      44.555  32.403  33.682  1.00  0.00    -0.203 F 
ATOM     95  C   UNL A   1      44.935  34.681  33.231  1.00  0.00     0.198 A 
ATOM     96  C   UNL A   1      44.889  35.484  30.970  1.00  0.00     0.198 A 
ATOM     97  F   UNL A   1      44.408  34.009  29.203  1.00  0.00    -0.203 F 
ATOM     98  F   UNL A   1      45.059  34.918  34.544  1.00  0.00    -0.200 F 
ATOM     99  C   UNL A   1      45.052  35.724  32.326  1.00  0.00     0.200 A 
ATOM    100  F   UNL A   1      45.023  36.486  30.091  1.00  0.00    -0.200 F 
ATOM    101  F   UNL A   1      45.313  36.965  32.760  1.00  0.00    -0.200 F 
ENDBRANCH  68  91
ENDBRANCH  42  43
ENDBRANCH  35  37
ENDBRANCH  34  35
ENDBRANCH  33  34
ENDBRANCH  32  33
ENDBRANCH  31  32
ENDBRANCH  30  31
ENDBRANCH  29  30
ENDBRANCH  28  29
ENDBRANCH   1  28
TORSDOF 24
ENDMDL
