MODEL 1
REMARK VINA RESULT:      -9.5      0.000      0.000
REMARK SMILES C/C=C/C=C/C(=O)N[C@@H](C)CC(=O)OCCOCCOCCOCCOC(=O)c1ccc(-c2c3nc(c(-c4c(F)c(F)c(F)c(F)c4F)c4ccc([nH]4)c(-c4c(F)c(F)c(F)c(F)c4F)c4nc(c(-c5c(F)c(F)c(F)c(F)c5F)c5ccc2[nH]5)C=C4)C=C3)cc1
REMARK SMILES IDX 19 1 18 2 17 3 16 4 15 5 14 6 12 7 13 8 11 9 9 10 10 11 8 12
REMARK SMILES IDX 6 13 7 14 5 16 4 17 3 18 1 19 2 20 20 21 21 22 22 23 23 24
REMARK SMILES IDX 24 25 25 26 26 27 27 28 28 29 29 30 30 31 91 32 31 33 90 34
REMARK SMILES IDX 32 35 33 36 34 37 84 38 35 39 89 40 83 41 85 42 36 43 88 44
REMARK SMILES IDX 82 45 81 46 37 48 69 49 49 50 68 51 50 52 53 53 67 54 86 55
REMARK SMILES IDX 51 56 52 57 66 59 87 60 54 61 38 62 39 63 47 64 40 65 41 66
REMARK SMILES IDX 45 67 48 68 42 69 43 70 46 71 44 72 70 73 71 74 79 75 72 76
REMARK SMILES IDX 73 77 77 78 80 79 74 80 75 81 78 82 76 83 55 84 56 85 64 86
REMARK SMILES IDX 57 87 58 88 62 89 65 90 59 91 60 92 63 93 61 94
REMARK H PARENT 8 15 85 47 53 58
REMARK Flexibility Score: inf
ROOT
ATOM      1  C   UNL A   1      40.545  21.571  27.298  1.00  0.00     0.188 C 
ENDROOT
BRANCH   1   2
ATOM      2  C   UNL A   1      39.543  22.312  26.411  1.00  0.00     0.188 C 
BRANCH   2   3
ATOM      3  O   UNL A   1      38.733  21.537  25.547  1.00  0.00    -0.376 OA
BRANCH   3   4
ATOM      4  C   UNL A   1      37.333  21.457  25.807  1.00  0.00     0.202 C 
BRANCH   4   5
ATOM      5  C   UNL A   1      36.316  21.452  24.654  1.00  0.00     0.261 C 
BRANCH   5   6
ATOM      6  O   UNL A   1      35.043  20.817  24.928  1.00  0.00    -0.463 OA
BRANCH   6   7
ATOM      7  C   UNL A   1      33.949  21.442  24.429  1.00  0.00     0.307 C 
ATOM      8  O   UNL A   1      32.863  20.893  24.254  1.00  0.00    -0.252 OA
BRANCH   7   9
ATOM      9  C   UNL A   1      34.180  22.853  23.939  1.00  0.00     0.147 C 
BRANCH   9  10
ATOM     10  C   UNL A   1      33.606  24.056  24.700  1.00  0.00     0.090 C 
ATOM     11  C   UNL A   1      34.777  24.732  25.441  1.00  0.00     0.031 C 
BRANCH  10  12
ATOM     12  N   UNL A   1      32.604  23.695  25.697  1.00  0.00    -0.350 N 
ATOM     13  C   UNL A   1      31.479  24.332  26.119  1.00  0.00     0.244 C 
ATOM     14  O   UNL A   1      30.822  23.823  27.030  1.00  0.00    -0.270 OA
ATOM     15  H   UNL A   1      32.774  22.835  26.147  1.00  0.00     0.164 HD
BRANCH  13  16
ATOM     16  C   UNL A   1      30.932  25.557  25.475  1.00  0.00     0.071 C 
ATOM     17  C   UNL A   1      30.046  25.705  24.481  1.00  0.00     0.005 C 
BRANCH  17  18
ATOM     18  C   UNL A   1      29.508  27.000  24.120  1.00  0.00    -0.004 C 
ATOM     19  C   UNL A   1      29.473  28.979  22.575  1.00  0.00     0.035 C 
ATOM     20  C   UNL A   1      30.077  27.740  23.155  1.00  0.00    -0.030 C 
ENDBRANCH  17  18
ENDBRANCH  13  16
ENDBRANCH  10  12
ENDBRANCH   9  10
ENDBRANCH   7   9
ENDBRANCH   6   7
ENDBRANCH   5   6
ENDBRANCH   4   5
ENDBRANCH   3   4
ENDBRANCH   2   3
ENDBRANCH   1   2
BRANCH   1  21
ATOM     21  O   UNL A   1      40.830  20.238  26.915  1.00  0.00    -0.377 OA
BRANCH  21  22
ATOM     22  C   UNL A   1      41.959  19.950  26.089  1.00  0.00     0.188 C 
BRANCH  22  23
ATOM     23  C   UNL A   1      43.137  20.932  26.029  1.00  0.00     0.188 C 
BRANCH  23  24
ATOM     24  O   UNL A   1      44.172  20.715  25.067  1.00  0.00    -0.376 OA
BRANCH  24  25
ATOM     25  C   UNL A   1      44.519  21.776  24.184  1.00  0.00     0.202 C 
BRANCH  25  26
ATOM     26  C   UNL A   1      43.674  23.033  24.315  1.00  0.00     0.261 C 
BRANCH  26  27
ATOM     27  O   UNL A   1      44.520  24.188  24.337  1.00  0.00    -0.460 OA
BRANCH  27  28
ATOM     28  C   UNL A   1      45.049  24.455  25.546  1.00  0.00     0.338 C 
ATOM     29  O   UNL A   1      46.198  24.244  25.920  1.00  0.00    -0.246 OA
BRANCH  28  30
ATOM     30  C   UNL A   1      44.084  25.204  26.359  1.00  0.00     0.060 A 
ATOM     31  C   UNL A   1      44.334  26.570  26.524  1.00  0.00     0.016 A 
ATOM     32  C   UNL A   1      43.011  24.584  27.008  1.00  0.00     0.016 A 
ATOM     33  C   UNL A   1      43.565  27.307  27.406  1.00  0.00     0.010 A 
ATOM     34  C   UNL A   1      42.238  25.327  27.902  1.00  0.00     0.010 A 
ATOM     35  C   UNL A   1      42.554  26.674  28.141  1.00  0.00    -0.014 A 
BRANCH  35  36
ATOM     36  C   UNL A   1      41.988  27.407  29.291  1.00  0.00     0.031 A 
ATOM     37  C   UNL A   1      42.703  27.326  30.611  1.00  0.00     0.074 A 
ATOM     38  C   UNL A   1      40.932  28.219  29.114  1.00  0.00     0.049 A 
ATOM     39  N   UNL A   1      42.452  27.956  31.728  1.00  0.00    -0.248 NA
ATOM     40  C   UNL A   1      43.863  26.421  30.680  1.00  0.00     0.031 C 
ATOM     41  C   UNL A   1      40.204  28.389  27.856  1.00  0.00     0.029 A 
ATOM     42  N   UNL A   1      40.301  29.062  29.987  1.00  0.00    -0.354 N 
ATOM     43  C   UNL A   1      43.414  27.519  32.631  1.00  0.00     0.074 A 
ATOM     44  C   UNL A   1      44.242  26.556  31.943  1.00  0.00     0.031 C 
ATOM     45  C   UNL A   1      39.222  29.286  28.041  1.00  0.00     0.029 A 
ATOM     46  C   UNL A   1      39.236  29.727  29.433  1.00  0.00     0.049 A 
ATOM     47  H   UNL A   1      40.582  29.180  30.923  1.00  0.00     0.167 HD
ATOM     48  C   UNL A   1      43.587  27.899  33.917  1.00  0.00     0.037 A 
ATOM     49  C   UNL A   1      38.365  30.582  30.001  1.00  0.00     0.037 A 
ATOM     50  C   UNL A   1      42.762  28.874  34.578  1.00  0.00     0.049 A 
ATOM     51  C   UNL A   1      38.563  30.950  31.451  1.00  0.00     0.074 A 
ATOM     52  C   UNL A   1      42.871  29.365  35.867  1.00  0.00     0.029 A 
ATOM     53  N   UNL A   1      41.667  29.500  33.999  1.00  0.00    -0.354 N 
ATOM     54  N   UNL A   1      39.504  30.572  32.282  1.00  0.00    -0.248 NA
ATOM     55  C   UNL A   1      37.581  31.872  32.036  1.00  0.00     0.031 C 
ATOM     56  C   UNL A   1      41.802  30.238  36.090  1.00  0.00     0.029 A 
ATOM     57  C   UNL A   1      41.066  30.343  34.919  1.00  0.00     0.049 A 
ATOM     58  H   UNL A   1      41.363  29.365  33.073  1.00  0.00     0.167 HD
ATOM     59  C   UNL A   1      39.243  31.226  33.479  1.00  0.00     0.074 A 
ATOM     60  C   UNL A   1      38.073  32.048  33.255  1.00  0.00     0.031 C 
ATOM     61  C   UNL A   1      39.903  31.152  34.662  1.00  0.00     0.037 A 
BRANCH  48  62
ATOM     62  C   UNL A   1      44.678  27.243  34.710  1.00  0.00     0.064 A 
ATOM     63  C   UNL A   1      45.997  27.719  34.699  1.00  0.00     0.173 A 
ATOM     64  C   UNL A   1      44.377  26.162  35.555  1.00  0.00     0.173 A 
ATOM     65  F   UNL A   1      46.341  28.738  33.897  1.00  0.00    -0.203 F 
ATOM     66  C   UNL A   1      46.976  27.134  35.501  1.00  0.00     0.198 A 
ATOM     67  C   UNL A   1      45.351  25.598  36.374  1.00  0.00     0.198 A 
ATOM     68  F   UNL A   1      43.131  25.667  35.600  1.00  0.00    -0.203 F 
ATOM     69  F   UNL A   1      48.237  27.587  35.456  1.00  0.00    -0.200 F 
ATOM     70  C   UNL A   1      46.649  26.083  36.346  1.00  0.00     0.200 A 
ATOM     71  F   UNL A   1      45.029  24.591  37.197  1.00  0.00    -0.200 F 
ATOM     72  F   UNL A   1      47.587  25.536  37.132  1.00  0.00    -0.200 F 
ENDBRANCH  48  62
BRANCH  49  73
ATOM     73  C   UNL A   1      37.218  31.119  29.222  1.00  0.00     0.064 A 
ATOM     74  C   UNL A   1      37.169  32.459  28.817  1.00  0.00     0.173 A 
ATOM     75  C   UNL A   1      36.117  30.306  28.909  1.00  0.00     0.173 A 
ATOM     76  F   UNL A   1      38.186  33.286  29.107  1.00  0.00    -0.203 F 
ATOM     77  C   UNL A   1      36.050  32.975  28.165  1.00  0.00     0.198 A 
ATOM     78  C   UNL A   1      35.016  30.812  28.223  1.00  0.00     0.198 A 
ATOM     79  F   UNL A   1      36.111  29.014  29.270  1.00  0.00    -0.203 F 
ATOM     80  F   UNL A   1      36.000  34.277  27.851  1.00  0.00    -0.200 F 
ATOM     81  C   UNL A   1      34.976  32.150  27.865  1.00  0.00     0.200 A 
ATOM     82  F   UNL A   1      33.988  30.007  27.923  1.00  0.00    -0.200 F 
ATOM     83  F   UNL A   1      33.898  32.648  27.245  1.00  0.00    -0.200 F 
ENDBRANCH  49  73
BRANCH  61  84
ATOM     84  C   UNL A   1      39.385  32.004  35.785  1.00  0.00     0.064 A 
ATOM     85  C   UNL A   1      38.452  31.514  36.710  1.00  0.00     0.173 A 
ATOM     86  C   UNL A   1      39.849  33.317  35.950  1.00  0.00     0.173 A 
ATOM     87  F   UNL A   1      37.968  30.268  36.587  1.00  0.00    -0.203 F 
ATOM     88  C   UNL A   1      37.970  32.322  37.735  1.00  0.00     0.198 A 
ATOM     89  C   UNL A   1      39.394  34.109  37.000  1.00  0.00     0.198 A 
ATOM     90  F   UNL A   1      40.753  33.829  35.101  1.00  0.00    -0.203 F 
ATOM     91  F   UNL A   1      37.028  31.855  38.567  1.00  0.00    -0.200 F 
ATOM     92  C   UNL A   1      38.447  33.616  37.882  1.00  0.00     0.200 A 
ATOM     93  F   UNL A   1      39.870  35.353  37.153  1.00  0.00    -0.200 F 
ATOM     94  F   UNL A   1      37.984  34.392  38.872  1.00  0.00    -0.200 F 
ENDBRANCH  61  84
ENDBRANCH  35  36
ENDBRANCH  28  30
ENDBRANCH  27  28
ENDBRANCH  26  27
ENDBRANCH  25  26
ENDBRANCH  24  25
ENDBRANCH  23  24
ENDBRANCH  22  23
ENDBRANCH  21  22
ENDBRANCH   1  21
TORSDOF 24
ENDMDL
MODEL 2
REMARK VINA RESULT:      -9.3      1.101      2.101
REMARK SMILES C/C=C/C=C/C(=O)N[C@@H](C)CC(=O)OCCOCCOCCOCCOC(=O)c1ccc(-c2c3nc(c(-c4c(F)c(F)c(F)c(F)c4F)c4ccc([nH]4)c(-c4c(F)c(F)c(F)c(F)c4F)c4nc(c(-c5c(F)c(F)c(F)c(F)c5F)c5ccc2[nH]5)C=C4)C=C3)cc1
REMARK SMILES IDX 19 1 18 2 17 3 16 4 15 5 14 6 12 7 13 8 11 9 9 10 10 11 8 12
REMARK SMILES IDX 6 13 7 14 5 16 4 17 3 18 1 19 2 20 20 21 21 22 22 23 23 24
REMARK SMILES IDX 24 25 25 26 26 27 27 28 28 29 29 30 30 31 91 32 31 33 90 34
REMARK SMILES IDX 32 35 33 36 34 37 84 38 35 39 89 40 83 41 85 42 36 43 88 44
REMARK SMILES IDX 82 45 81 46 37 48 69 49 49 50 68 51 50 52 53 53 67 54 86 55
REMARK SMILES IDX 51 56 52 57 66 59 87 60 54 61 38 62 39 63 47 64 40 65 41 66
REMARK SMILES IDX 45 67 48 68 42 69 43 70 46 71 44 72 70 73 71 74 79 75 72 76
REMARK SMILES IDX 73 77 77 78 80 79 74 80 75 81 78 82 76 83 55 84 56 85 64 86
REMARK SMILES IDX 57 87 58 88 62 89 65 90 59 91 60 92 63 93 61 94
REMARK H PARENT 8 15 85 47 53 58
REMARK Flexibility Score: inf
ROOT
ATOM      1  C   UNL A   1      40.722  21.601  27.813  1.00  0.00     0.188 C 
ENDROOT
BRANCH   1   2
ATOM      2  C   UNL A   1      39.926  22.533  26.899  1.00  0.00     0.188 C 
BRANCH   2   3
ATOM      3  O   UNL A   1      39.436  21.999  25.684  1.00  0.00    -0.376 OA
BRANCH   3   4
ATOM      4  C   UNL A   1      38.040  21.737  25.564  1.00  0.00     0.202 C 
BRANCH   4   5
ATOM      5  C   UNL A   1      37.198  22.428  24.477  1.00  0.00     0.261 C 
BRANCH   5   6
ATOM      6  O   UNL A   1      35.846  21.938  24.309  1.00  0.00    -0.463 OA
BRANCH   6   7
ATOM      7  C   UNL A   1      34.885  22.884  24.172  1.00  0.00     0.307 C 
ATOM      8  O   UNL A   1      35.105  24.093  24.162  1.00  0.00    -0.252 OA
BRANCH   7   9
ATOM      9  C   UNL A   1      33.465  22.365  24.188  1.00  0.00     0.147 C 
BRANCH   9  10
ATOM     10  C   UNL A   1      32.459  22.788  23.109  1.00  0.00     0.090 C 
ATOM     11  C   UNL A   1      31.910  21.501  22.463  1.00  0.00     0.031 C 
BRANCH  10  12
ATOM     12  N   UNL A   1      33.046  23.598  22.046  1.00  0.00    -0.350 N 
ATOM     13  C   UNL A   1      32.686  24.801  21.523  1.00  0.00     0.244 C 
ATOM     14  O   UNL A   1      33.337  25.248  20.577  1.00  0.00    -0.270 OA
ATOM     15  H   UNL A   1      33.846  23.201  21.632  1.00  0.00     0.164 HD
BRANCH  13  16
ATOM     16  C   UNL A   1      31.616  25.663  22.094  1.00  0.00     0.071 C 
ATOM     17  C   UNL A   1      31.669  26.891  22.627  1.00  0.00     0.005 C 
BRANCH  17  18
ATOM     18  C   UNL A   1      30.472  27.633  22.964  1.00  0.00    -0.004 C 
ATOM     19  C   UNL A   1      29.319  29.829  23.353  1.00  0.00     0.035 C 
ATOM     20  C   UNL A   1      30.521  28.952  23.208  1.00  0.00    -0.030 C 
ENDBRANCH  17  18
ENDBRANCH  13  16
ENDBRANCH  10  12
ENDBRANCH   9  10
ENDBRANCH   7   9
ENDBRANCH   6   7
ENDBRANCH   5   6
ENDBRANCH   4   5
ENDBRANCH   3   4
ENDBRANCH   2   3
ENDBRANCH   1   2
BRANCH   1  21
ATOM     21  O   UNL A   1      40.956  20.300  27.304  1.00  0.00    -0.377 OA
BRANCH  21  22
ATOM     22  C   UNL A   1      42.038  20.061  26.405  1.00  0.00     0.188 C 
BRANCH  22  23
ATOM     23  C   UNL A   1      43.207  21.054  26.327  1.00  0.00     0.188 C 
BRANCH  23  24
ATOM     24  O   UNL A   1      44.204  20.872  25.319  1.00  0.00    -0.376 OA
BRANCH  24  25
ATOM     25  C   UNL A   1      44.462  21.938  24.411  1.00  0.00     0.202 C 
BRANCH  25  26
ATOM     26  C   UNL A   1      43.592  23.171  24.593  1.00  0.00     0.261 C 
BRANCH  26  27
ATOM     27  O   UNL A   1      44.367  24.353  24.361  1.00  0.00    -0.460 OA
BRANCH  27  28
ATOM     28  C   UNL A   1      44.968  24.838  25.464  1.00  0.00     0.338 C 
ATOM     29  O   UNL A   1      46.166  24.826  25.727  1.00  0.00    -0.246 OA
BRANCH  28  30
ATOM     30  C   UNL A   1      43.990  25.554  26.291  1.00  0.00     0.060 A 
ATOM     31  C   UNL A   1      44.214  26.922  26.478  1.00  0.00     0.016 A 
ATOM     32  C   UNL A   1      42.931  24.903  26.931  1.00  0.00     0.016 A 
ATOM     33  C   UNL A   1      43.433  27.630  27.373  1.00  0.00     0.010 A 
ATOM     34  C   UNL A   1      42.146  25.617  27.839  1.00  0.00     0.010 A 
ATOM     35  C   UNL A   1      42.436  26.966  28.099  1.00  0.00    -0.014 A 
BRANCH  35  36
ATOM     36  C   UNL A   1      41.858  27.669  29.262  1.00  0.00     0.031 A 
ATOM     37  C   UNL A   1      42.582  27.588  30.577  1.00  0.00     0.074 A 
ATOM     38  C   UNL A   1      40.781  28.456  29.101  1.00  0.00     0.049 A 
ATOM     39  N   UNL A   1      42.322  28.196  31.704  1.00  0.00    -0.248 NA
ATOM     40  C   UNL A   1      43.765  26.712  30.628  1.00  0.00     0.031 C 
ATOM     41  C   UNL A   1      40.042  28.624  27.850  1.00  0.00     0.029 A 
ATOM     42  N   UNL A   1      40.134  29.271  29.990  1.00  0.00    -0.354 N 
ATOM     43  C   UNL A   1      43.300  27.771  32.595  1.00  0.00     0.074 A 
ATOM     44  C   UNL A   1      44.148  26.839  31.890  1.00  0.00     0.031 C 
ATOM     45  C   UNL A   1      39.038  29.494  28.053  1.00  0.00     0.029 A 
ATOM     46  C   UNL A   1      39.050  29.917  29.450  1.00  0.00     0.049 A 
ATOM     47  H   UNL A   1      40.418  29.383  30.926  1.00  0.00     0.167 HD
ATOM     48  C   UNL A   1      43.470  28.138  33.885  1.00  0.00     0.037 A 
ATOM     49  C   UNL A   1      38.161  30.742  30.035  1.00  0.00     0.037 A 
ATOM     50  C   UNL A   1      42.625  29.083  34.564  1.00  0.00     0.049 A 
ATOM     51  C   UNL A   1      38.357  31.095  31.488  1.00  0.00     0.074 A 
ATOM     52  C   UNL A   1      42.729  29.559  35.859  1.00  0.00     0.029 A 
ATOM     53  N   UNL A   1      41.511  29.689  34.000  1.00  0.00    -0.354 N 
ATOM     54  N   UNL A   1      39.312  30.729  32.309  1.00  0.00    -0.248 NA
ATOM     55  C   UNL A   1      37.356  31.984  32.091  1.00  0.00     0.031 C 
ATOM     56  C   UNL A   1      41.640  30.402  36.099  1.00  0.00     0.029 A 
ATOM     57  C   UNL A   1      40.895  30.504  34.934  1.00  0.00     0.049 A 
ATOM     58  H   UNL A   1      41.205  29.559  33.074  1.00  0.00     0.167 HD
ATOM     59  C   UNL A   1      39.042  31.360  33.516  1.00  0.00     0.074 A 
ATOM     60  C   UNL A   1      37.850  32.156  33.309  1.00  0.00     0.031 C 
ATOM     61  C   UNL A   1      39.710  31.287  34.694  1.00  0.00     0.037 A 
BRANCH  48  62
ATOM     62  C   UNL A   1      44.582  27.499  34.664  1.00  0.00     0.064 A 
ATOM     63  C   UNL A   1      44.417  26.277  35.332  1.00  0.00     0.173 A 
ATOM     64  C   UNL A   1      45.857  28.087  34.676  1.00  0.00     0.173 A 
ATOM     65  F   UNL A   1      43.216  25.681  35.366  1.00  0.00    -0.203 F 
ATOM     66  C   UNL A   1      45.488  25.670  35.988  1.00  0.00     0.198 A 
ATOM     67  C   UNL A   1      46.929  27.466  35.308  1.00  0.00     0.198 A 
ATOM     68  F   UNL A   1      46.066  29.257  34.053  1.00  0.00    -0.203 F 
ATOM     69  F   UNL A   1      45.304  24.516  36.643  1.00  0.00    -0.200 F 
ATOM     70  C   UNL A   1      46.744  26.258  35.965  1.00  0.00     0.200 A 
ATOM     71  F   UNL A   1      48.144  28.030  35.274  1.00  0.00    -0.200 F 
ATOM     72  F   UNL A   1      47.776  25.662  36.577  1.00  0.00    -0.200 F 
ENDBRANCH  48  62
BRANCH  49  73
ATOM     73  C   UNL A   1      36.996  31.260  29.269  1.00  0.00     0.064 A 
ATOM     74  C   UNL A   1      36.912  32.603  28.880  1.00  0.00     0.173 A 
ATOM     75  C   UNL A   1      35.913  30.424  28.953  1.00  0.00     0.173 A 
ATOM     76  F   UNL A   1      37.911  33.450  29.173  1.00  0.00    -0.203 F 
ATOM     77  C   UNL A   1      35.777  33.100  28.241  1.00  0.00     0.198 A 
ATOM     78  C   UNL A   1      34.796  30.912  28.280  1.00  0.00     0.198 A 
ATOM     79  F   UNL A   1      35.940  29.129  29.299  1.00  0.00    -0.203 F 
ATOM     80  F   UNL A   1      35.694  34.404  27.943  1.00  0.00    -0.200 F 
ATOM     81  C   UNL A   1      34.721  32.253  27.938  1.00  0.00     0.200 A 
ATOM     82  F   UNL A   1      33.785  30.086  27.977  1.00  0.00    -0.200 F 
ATOM     83  F   UNL A   1      33.628  32.732  27.330  1.00  0.00    -0.200 F 
ENDBRANCH  49  73
BRANCH  61  84
ATOM     84  C   UNL A   1      39.178  32.110  35.832  1.00  0.00     0.064 A 
ATOM     85  C   UNL A   1      39.538  33.455  35.998  1.00  0.00     0.173 A 
ATOM     86  C   UNL A   1      38.277  31.551  36.751  1.00  0.00     0.173 A 
ATOM     87  F   UNL A   1      40.406  34.032  35.153  1.00  0.00    -0.203 F 
ATOM     88  C   UNL A   1      39.049  34.199  37.068  1.00  0.00     0.198 A 
ATOM     89  C   UNL A   1      37.760  32.309  37.796  1.00  0.00     0.198 A 
ATOM     90  F   UNL A   1      37.890  30.273  36.629  1.00  0.00    -0.203 F 
ATOM     91  F   UNL A   1      39.459  35.463  37.245  1.00  0.00    -0.200 F 
ATOM     92  C   UNL A   1      38.155  33.627  37.961  1.00  0.00     0.200 A 
ATOM     93  F   UNL A   1      36.881  31.762  38.648  1.00  0.00    -0.200 F 
ATOM     94  F   UNL A   1      37.683  34.346  38.988  1.00  0.00    -0.200 F 
ENDBRANCH  61  84
ENDBRANCH  35  36
ENDBRANCH  28  30
ENDBRANCH  27  28
ENDBRANCH  26  27
ENDBRANCH  25  26
ENDBRANCH  24  25
ENDBRANCH  23  24
ENDBRANCH  22  23
ENDBRANCH  21  22
ENDBRANCH   1  21
TORSDOF 24
ENDMDL
MODEL 3
REMARK VINA RESULT:      -8.8      1.640      2.459
REMARK SMILES C/C=C/C=C/C(=O)N[C@@H](C)CC(=O)OCCOCCOCCOCCOC(=O)c1ccc(-c2c3nc(c(-c4c(F)c(F)c(F)c(F)c4F)c4ccc([nH]4)c(-c4c(F)c(F)c(F)c(F)c4F)c4nc(c(-c5c(F)c(F)c(F)c(F)c5F)c5ccc2[nH]5)C=C4)C=C3)cc1
REMARK SMILES IDX 19 1 18 2 17 3 16 4 15 5 14 6 12 7 13 8 11 9 9 10 10 11 8 12
REMARK SMILES IDX 6 13 7 14 5 16 4 17 3 18 1 19 2 20 20 21 21 22 22 23 23 24
REMARK SMILES IDX 24 25 25 26 26 27 27 28 28 29 29 30 30 31 91 32 31 33 90 34
REMARK SMILES IDX 32 35 33 36 34 37 84 38 35 39 89 40 83 41 85 42 36 43 88 44
REMARK SMILES IDX 82 45 81 46 37 48 69 49 49 50 68 51 50 52 53 53 67 54 86 55
REMARK SMILES IDX 51 56 52 57 66 59 87 60 54 61 38 62 39 63 47 64 40 65 41 66
REMARK SMILES IDX 45 67 48 68 42 69 43 70 46 71 44 72 70 73 71 74 79 75 72 76
REMARK SMILES IDX 73 77 77 78 80 79 74 80 75 81 78 82 76 83 55 84 56 85 64 86
REMARK SMILES IDX 57 87 58 88 62 89 65 90 59 91 60 92 63 93 61 94
REMARK H PARENT 8 15 85 47 53 58
REMARK Flexibility Score: inf
ROOT
ATOM      1  C   UNL A   1      36.112  23.159  26.467  1.00  0.00     0.188 C 
ENDROOT
BRANCH   1   2
ATOM      2  C   UNL A   1      34.777  23.606  25.868  1.00  0.00     0.188 C 
BRANCH   2   3
ATOM      3  O   UNL A   1      33.664  23.693  26.737  1.00  0.00    -0.376 OA
BRANCH   3   4
ATOM      4  C   UNL A   1      33.194  22.504  27.370  1.00  0.00     0.202 C 
BRANCH   4   5
ATOM      5  C   UNL A   1      33.421  21.126  26.725  1.00  0.00     0.261 C 
BRANCH   5   6
ATOM      6  O   UNL A   1      32.550  20.788  25.619  1.00  0.00    -0.463 OA
BRANCH   6   7
ATOM      7  C   UNL A   1      33.100  20.873  24.383  1.00  0.00     0.307 C 
ATOM      8  O   UNL A   1      34.241  20.506  24.111  1.00  0.00    -0.252 OA
BRANCH   7   9
ATOM      9  C   UNL A   1      32.267  21.607  23.357  1.00  0.00     0.147 C 
BRANCH   9  10
ATOM     10  C   UNL A   1      32.179  23.139  23.362  1.00  0.00     0.090 C 
ATOM     11  C   UNL A   1      30.726  23.515  23.717  1.00  0.00     0.031 C 
BRANCH  10  12
ATOM     12  N   UNL A   1      32.488  23.747  22.072  1.00  0.00    -0.350 N 
ATOM     13  C   UNL A   1      33.030  24.952  21.749  1.00  0.00     0.244 C 
ATOM     14  O   UNL A   1      33.139  25.245  20.556  1.00  0.00    -0.270 OA
ATOM     15  H   UNL A   1      32.262  23.185  21.296  1.00  0.00     0.164 HD
BRANCH  13  16
ATOM     16  C   UNL A   1      33.599  25.898  22.747  1.00  0.00     0.071 C 
ATOM     17  C   UNL A   1      33.138  26.295  23.941  1.00  0.00     0.005 C 
BRANCH  17  18
ATOM     18  C   UNL A   1      33.940  27.093  24.845  1.00  0.00    -0.004 C 
ATOM     19  C   UNL A   1      34.229  29.166  26.231  1.00  0.00     0.035 C 
ATOM     20  C   UNL A   1      33.587  28.351  25.156  1.00  0.00    -0.030 C 
ENDBRANCH  17  18
ENDBRANCH  13  16
ENDBRANCH  10  12
ENDBRANCH   9  10
ENDBRANCH   7   9
ENDBRANCH   6   7
ENDBRANCH   5   6
ENDBRANCH   4   5
ENDBRANCH   3   4
ENDBRANCH   2   3
ENDBRANCH   1   2
BRANCH   1  21
ATOM     21  O   UNL A   1      37.269  23.625  25.797  1.00  0.00    -0.377 OA
BRANCH  21  22
ATOM     22  C   UNL A   1      38.549  23.069  26.096  1.00  0.00     0.188 C 
BRANCH  22  23
ATOM     23  C   UNL A   1      38.797  21.566  25.908  1.00  0.00     0.188 C 
BRANCH  23  24
ATOM     24  O   UNL A   1      40.129  21.062  26.036  1.00  0.00    -0.376 OA
BRANCH  24  25
ATOM     25  C   UNL A   1      41.124  21.896  26.620  1.00  0.00     0.202 C 
BRANCH  25  26
ATOM     26  C   UNL A   1      42.361  22.124  25.767  1.00  0.00     0.261 C 
BRANCH  26  27
ATOM     27  O   UNL A   1      42.261  23.381  25.089  1.00  0.00    -0.460 OA
BRANCH  27  28
ATOM     28  C   UNL A   1      43.149  24.301  25.510  1.00  0.00     0.338 C 
ATOM     29  O   UNL A   1      44.335  24.386  25.208  1.00  0.00    -0.246 OA
BRANCH  28  30
ATOM     30  C   UNL A   1      42.463  25.335  26.294  1.00  0.00     0.060 A 
ATOM     31  C   UNL A   1      43.199  26.486  26.589  1.00  0.00     0.016 A 
ATOM     32  C   UNL A   1      41.169  25.158  26.796  1.00  0.00     0.016 A 
ATOM     33  C   UNL A   1      42.682  27.430  27.458  1.00  0.00     0.010 A 
ATOM     34  C   UNL A   1      40.649  26.109  27.677  1.00  0.00     0.010 A 
ATOM     35  C   UNL A   1      41.430  27.214  28.049  1.00  0.00    -0.014 A 
BRANCH  35  36
ATOM     36  C   UNL A   1      41.067  28.063  29.201  1.00  0.00     0.031 A 
ATOM     37  C   UNL A   1      41.922  27.997  30.435  1.00  0.00     0.074 A 
ATOM     38  C   UNL A   1      40.069  28.956  29.087  1.00  0.00     0.049 A 
ATOM     39  N   UNL A   1      41.858  28.713  31.527  1.00  0.00    -0.248 NA
ATOM     40  C   UNL A   1      43.003  26.996  30.438  1.00  0.00     0.031 C 
ATOM     41  C   UNL A   1      39.215  29.115  27.909  1.00  0.00     0.029 A 
ATOM     42  N   UNL A   1      39.618  29.903  29.964  1.00  0.00    -0.354 N 
ATOM     43  C   UNL A   1      42.880  28.244  32.344  1.00  0.00     0.074 A 
ATOM     44  C   UNL A   1      43.538  27.170  31.638  1.00  0.00     0.031 C 
ATOM     45  C   UNL A   1      38.340  30.107  28.140  1.00  0.00     0.029 A 
ATOM     46  C   UNL A   1      38.555  30.629  29.487  1.00  0.00     0.049 A 
ATOM     47  H   UNL A   1      40.016  30.051  30.852  1.00  0.00     0.167 HD
ATOM     48  C   UNL A   1      43.234  28.684  33.573  1.00  0.00     0.037 A 
ATOM     49  C   UNL A   1      37.831  31.592  30.088  1.00  0.00     0.037 A 
ATOM     50  C   UNL A   1      42.577  29.768  34.253  1.00  0.00     0.049 A 
ATOM     51  C   UNL A   1      38.228  32.027  31.476  1.00  0.00     0.074 A 
ATOM     52  C   UNL A   1      42.878  30.323  35.483  1.00  0.00     0.029 A 
ATOM     53  N   UNL A   1      41.478  30.455  33.757  1.00  0.00    -0.354 N 
ATOM     54  N   UNL A   1      39.225  31.615  32.222  1.00  0.00    -0.248 NA
ATOM     55  C   UNL A   1      37.402  33.068  32.102  1.00  0.00     0.031 C 
ATOM     56  C   UNL A   1      41.919  31.302  35.762  1.00  0.00     0.029 A 
ATOM     57  C   UNL A   1      41.062  31.403  34.677  1.00  0.00     0.049 A 
ATOM     58  H   UNL A   1      41.056  30.293  32.883  1.00  0.00     0.167 HD
ATOM     59  C   UNL A   1      39.163  32.360  33.391  1.00  0.00     0.074 A 
ATOM     60  C   UNL A   1      38.047  33.272  33.242  1.00  0.00     0.031 C 
ATOM     61  C   UNL A   1      39.948  32.298  34.495  1.00  0.00     0.037 A 
BRANCH  48  62
ATOM     62  C   UNL A   1      44.352  27.980  34.283  1.00  0.00     0.064 A 
ATOM     63  C   UNL A   1      45.677  28.434  34.221  1.00  0.00     0.173 A 
ATOM     64  C   UNL A   1      44.075  26.873  35.102  1.00  0.00     0.173 A 
ATOM     65  F   UNL A   1      45.999  29.476  33.440  1.00  0.00    -0.203 F 
ATOM     66  C   UNL A   1      46.685  27.802  34.948  1.00  0.00     0.198 A 
ATOM     67  C   UNL A   1      45.078  26.262  35.848  1.00  0.00     0.198 A 
ATOM     68  F   UNL A   1      42.823  26.399  35.195  1.00  0.00    -0.203 F 
ATOM     69  F   UNL A   1      47.950  28.235  34.854  1.00  0.00    -0.200 F 
ATOM     70  C   UNL A   1      46.383  26.726  35.770  1.00  0.00     0.200 A 
ATOM     71  F   UNL A   1      44.781  25.230  36.649  1.00  0.00    -0.200 F 
ATOM     72  F   UNL A   1      47.349  26.134  36.485  1.00  0.00    -0.200 F 
ENDBRANCH  48  62
BRANCH  49  73
ATOM     73  C   UNL A   1      36.650  32.183  29.406  1.00  0.00     0.064 A 
ATOM     74  C   UNL A   1      36.620  33.531  29.024  1.00  0.00     0.173 A 
ATOM     75  C   UNL A   1      35.498  31.416  29.167  1.00  0.00     0.173 A 
ATOM     76  F   UNL A   1      37.686  34.315  29.247  1.00  0.00    -0.203 F 
ATOM     77  C   UNL A   1      35.475  34.098  28.466  1.00  0.00     0.198 A 
ATOM     78  C   UNL A   1      34.368  31.974  28.574  1.00  0.00     0.198 A 
ATOM     79  F   UNL A   1      35.470  30.120  29.510  1.00  0.00    -0.203 F 
ATOM     80  F   UNL A   1      35.451  35.406  28.175  1.00  0.00    -0.200 F 
ATOM     81  C   UNL A   1      34.351  33.319  28.238  1.00  0.00     0.200 A 
ATOM     82  F   UNL A   1      33.290  31.212  28.343  1.00  0.00    -0.200 F 
ATOM     83  F   UNL A   1      33.249  33.865  27.709  1.00  0.00    -0.200 F 
ENDBRANCH  49  73
BRANCH  61  84
ATOM     84  C   UNL A   1      39.640  33.259  35.607  1.00  0.00     0.064 A 
ATOM     85  C   UNL A   1      38.794  32.909  36.669  1.00  0.00     0.173 A 
ATOM     86  C   UNL A   1      40.217  34.538  35.620  1.00  0.00     0.173 A 
ATOM     87  F   UNL A   1      38.207  31.702  36.696  1.00  0.00    -0.203 F 
ATOM     88  C   UNL A   1      38.505  33.818  37.683  1.00  0.00     0.198 A 
ATOM     89  C   UNL A   1      39.957  35.430  36.655  1.00  0.00     0.198 A 
ATOM     90  F   UNL A   1      41.044  34.918  34.634  1.00  0.00    -0.203 F 
ATOM     91  F   UNL A   1      37.642  33.484  38.652  1.00  0.00    -0.200 F 
ATOM     92  C   UNL A   1      39.092  35.074  37.678  1.00  0.00     0.200 A 
ATOM     93  F   UNL A   1      40.540  36.637  36.660  1.00  0.00    -0.200 F 
ATOM     94  F   UNL A   1      38.815  35.947  38.656  1.00  0.00    -0.200 F 
ENDBRANCH  61  84
ENDBRANCH  35  36
ENDBRANCH  28  30
ENDBRANCH  27  28
ENDBRANCH  26  27
ENDBRANCH  25  26
ENDBRANCH  24  25
ENDBRANCH  23  24
ENDBRANCH  22  23
ENDBRANCH  21  22
ENDBRANCH   1  21
TORSDOF 24
ENDMDL
