MODEL 1
REMARK VINA RESULT:     -11.0      0.000      0.000
REMARK SMILES COc1cccc(-c2nn(-c3cc4c(cc3C(N)=O)OCO4)cc2C(=O)OCCOCCOCCOCCOC(=O)c2ccc(-c3c4nc(c(-c5c(F)c(F)c(F)c(F)c5F)c5ccc([nH]5)c(-c5c(F)c(F)c(F)c(F)c5F)c5nc(c(-c6c(F)c(F)c(F)c(F)c6F)c6ccc3[nH]6)C=C5)C=C4)cc2)c1
REMARK SMILES IDX 33 1 32 2 31 3 30 4 29 5 28 6 27 7 25 8 26 9 24 10 8 11 9 12
REMARK SMILES IDX 10 13 23 14 7 15 3 16 4 17 105 18 5 19 6 20 2 21 1 22 11 23
REMARK SMILES IDX 12 24 16 25 13 26 15 27 14 28 22 29 20 30 21 31 17 32 18 33
REMARK SMILES IDX 19 34 34 37 35 38 36 39 37 40 38 41 39 42 40 43 41 44 42 45
REMARK SMILES IDX 43 46 104 47 44 48 103 49 45 50 46 51 47 52 97 53 48 54
REMARK SMILES IDX 102 55 96 56 98 57 49 58 101 59 95 60 94 61 50 63 82 64
REMARK SMILES IDX 62 65 81 66 63 67 66 68 80 69 99 70 64 71 65 72 79 74 100 75
REMARK SMILES IDX 67 76 51 77 52 78 60 79 53 80 54 81 58 82 61 83 55 84 56 85
REMARK SMILES IDX 59 86 57 87 83 88 84 89 92 90 85 91 86 92 90 93 93 94 87 95
REMARK SMILES IDX 88 96 91 97 89 98 68 99 69 100 77 101 70 102 71 103 75 104
REMARK SMILES IDX 78 105 72 106 73 107 76 108 74 109
REMARK H PARENT 18 35 18 36 98 62 66 73
REMARK Flexibility Score: inf
ROOT
ATOM      1  O   UNL A   1      35.850  23.511  24.198  1.00  0.00    -0.377 OA
ENDROOT
BRANCH   1   2
ATOM      2  C   UNL A   1      34.864  23.814  23.216  1.00  0.00     0.188 C 
BRANCH   2   3
ATOM      3  C   UNL A   1      34.353  25.258  22.983  1.00  0.00     0.188 C 
BRANCH   3   4
ATOM      4  O   UNL A   1      33.760  25.440  21.716  1.00  0.00    -0.376 OA
BRANCH   4   5
ATOM      5  C   UNL A   1      32.732  26.382  21.538  1.00  0.00     0.202 C 
BRANCH   5   6
ATOM      6  C   UNL A   1      31.312  26.062  22.020  1.00  0.00     0.261 C 
BRANCH   6   7
ATOM      7  O   UNL A   1      30.721  26.976  22.944  1.00  0.00    -0.460 OA
BRANCH   7   8
ATOM      8  C   UNL A   1      30.051  26.446  24.012  1.00  0.00     0.342 C 
ATOM      9  O   UNL A   1      28.869  26.611  24.239  1.00  0.00    -0.246 OA
BRANCH   8  10
ATOM     10  C   UNL A   1      30.921  25.559  24.759  1.00  0.00     0.106 A 
ATOM     11  C   UNL A   1      32.067  25.829  25.560  1.00  0.00     0.107 A 
ATOM     12  N   UNL A   1      32.608  24.685  26.028  1.00  0.00    -0.167 NA
ATOM     13  N   UNL A   1      31.925  23.723  25.356  1.00  0.00    -0.239 N 
ATOM     14  C   UNL A   1      30.720  24.206  24.922  1.00  0.00     0.131 A 
BRANCH  11  15
ATOM     15  C   UNL A   1      32.572  27.137  25.957  1.00  0.00     0.007 A 
ATOM     16  C   UNL A   1      32.166  29.392  26.743  1.00  0.00     0.119 A 
ATOM     17  C   UNL A   1      33.545  29.575  26.900  1.00  0.00     0.046 A 
ATOM     18  C   UNL A   1      31.681  28.164  26.287  1.00  0.00     0.056 A 
ATOM     19  C   UNL A   1      34.439  28.560  26.566  1.00  0.00     0.005 A 
ATOM     20  C   UNL A   1      33.954  27.352  26.069  1.00  0.00     0.011 A 
BRANCH  16  21
ATOM     21  O   UNL A   1      31.414  30.490  27.055  1.00  0.00    -0.497 OA
ATOM     22  C   UNL A   1      32.067  31.752  27.015  1.00  0.00     0.278 C 
ENDBRANCH  16  21
ENDBRANCH  11  15
BRANCH  13  23
ATOM     23  C   UNL A   1      32.399  22.398  25.204  1.00  0.00     0.081 A 
ATOM     24  C   UNL A   1      31.962  21.663  24.086  1.00  0.00     0.079 A 
ATOM     25  C   UNL A   1      33.303  21.822  26.155  1.00  0.00     0.069 A 
ATOM     26  C   UNL A   1      32.495  20.405  23.908  1.00  0.00     0.167 A 
ATOM     27  C   UNL A   1      33.910  20.594  25.851  1.00  0.00     0.066 A 
ATOM     28  C   UNL A   1      33.465  19.908  24.745  1.00  0.00     0.166 A 
ATOM     29  O   UNL A   1      32.151  19.507  22.945  1.00  0.00    -0.454 OA
ATOM     30  O   UNL A   1      33.852  18.647  24.409  1.00  0.00    -0.454 OA
ATOM     31  C   UNL A   1      32.850  18.335  23.420  1.00  0.00     0.468 C 
BRANCH  25  32
ATOM     32  C   UNL A   1      33.409  22.335  27.572  1.00  0.00     0.251 C 
ATOM     33  N   UNL A   1      34.584  22.886  28.000  1.00  0.00    -0.366 N 
ATOM     34  O   UNL A   1      32.529  22.204  28.411  1.00  0.00    -0.269 OA
ATOM     35  H   UNL A   1      35.327  23.015  27.367  1.00  0.00     0.159 HD
ATOM     36  H   UNL A   1      34.687  23.155  28.942  1.00  0.00     0.159 HD
ENDBRANCH  25  32
ENDBRANCH  13  23
ENDBRANCH   8  10
ENDBRANCH   7   8
ENDBRANCH   6   7
ENDBRANCH   5   6
ENDBRANCH   4   5
ENDBRANCH   3   4
ENDBRANCH   2   3
ENDBRANCH   1   2
BRANCH   1  37
ATOM     37  C   UNL A   1      36.885  22.585  23.899  1.00  0.00     0.188 C 
BRANCH  37  38
ATOM     38  C   UNL A   1      36.921  21.204  24.606  1.00  0.00     0.188 C 
BRANCH  38  39
ATOM     39  O   UNL A   1      38.174  20.807  25.133  1.00  0.00    -0.376 OA
BRANCH  39  40
ATOM     40  C   UNL A   1      39.081  21.663  25.800  1.00  0.00     0.202 C 
BRANCH  40  41
ATOM     41  C   UNL A   1      40.496  21.211  26.143  1.00  0.00     0.261 C 
BRANCH  41  42
ATOM     42  O   UNL A   1      41.460  22.228  26.024  1.00  0.00    -0.460 OA
BRANCH  42  43
ATOM     43  C   UNL A   1      41.658  22.926  27.154  1.00  0.00     0.338 C 
ATOM     44  O   UNL A   1      41.514  22.547  28.301  1.00  0.00    -0.246 OA
BRANCH  43  45
ATOM     45  C   UNL A   1      41.984  24.300  26.765  1.00  0.00     0.060 A 
ATOM     46  C   UNL A   1      43.146  24.807  27.343  1.00  0.00     0.016 A 
ATOM     47  C   UNL A   1      40.914  25.104  26.349  1.00  0.00     0.016 A 
ATOM     48  C   UNL A   1      43.071  26.073  27.857  1.00  0.00     0.010 A 
ATOM     49  C   UNL A   1      40.824  26.348  26.899  1.00  0.00     0.010 A 
ATOM     50  C   UNL A   1      41.858  26.756  27.735  1.00  0.00    -0.014 A 
BRANCH  50  51
ATOM     51  C   UNL A   1      41.707  27.990  28.455  1.00  0.00     0.031 A 
ATOM     52  C   UNL A   1      42.819  28.912  28.176  1.00  0.00     0.074 A 
ATOM     53  C   UNL A   1      40.615  28.241  29.198  1.00  0.00     0.049 A 
ATOM     54  N   UNL A   1      43.735  29.294  28.998  1.00  0.00    -0.248 NA
ATOM     55  C   UNL A   1      43.077  29.267  26.769  1.00  0.00     0.031 C 
ATOM     56  C   UNL A   1      39.385  27.453  29.317  1.00  0.00     0.029 A 
ATOM     57  N   UNL A   1      40.345  29.345  29.940  1.00  0.00    -0.354 N 
ATOM     58  C   UNL A   1      44.567  30.117  28.252  1.00  0.00     0.074 A 
ATOM     59  C   UNL A   1      44.254  29.879  26.870  1.00  0.00     0.031 C 
ATOM     60  C   UNL A   1      38.426  28.215  29.894  1.00  0.00     0.029 A 
ATOM     61  C   UNL A   1      39.006  29.487  30.280  1.00  0.00     0.049 A 
ATOM     62  H   UNL A   1      41.038  29.988  30.212  1.00  0.00     0.167 HD
ATOM     63  C   UNL A   1      45.221  31.145  28.849  1.00  0.00     0.037 A 
ATOM     64  C   UNL A   1      38.444  30.634  30.740  1.00  0.00     0.037 A 
ATOM     65  C   UNL A   1      45.310  30.943  30.274  1.00  0.00     0.049 A 
ATOM     66  C   UNL A   1      39.553  31.489  31.255  1.00  0.00     0.074 A 
ATOM     67  C   UNL A   1      45.865  29.957  31.070  1.00  0.00     0.029 A 
ATOM     68  N   UNL A   1      44.423  31.618  31.079  1.00  0.00    -0.354 N 
ATOM     69  N   UNL A   1      40.245  31.197  32.324  1.00  0.00    -0.248 NA
ATOM     70  C   UNL A   1      40.219  32.375  30.307  1.00  0.00     0.031 C 
ATOM     71  C   UNL A   1      44.950  29.789  32.149  1.00  0.00     0.029 A 
ATOM     72  C   UNL A   1      43.927  30.725  31.997  1.00  0.00     0.049 A 
ATOM     73  H   UNL A   1      44.185  32.570  31.010  1.00  0.00     0.167 HD
ATOM     74  C   UNL A   1      41.559  31.491  31.986  1.00  0.00     0.074 A 
ATOM     75  C   UNL A   1      41.474  32.277  30.757  1.00  0.00     0.031 C 
ATOM     76  C   UNL A   1      42.600  30.814  32.557  1.00  0.00     0.037 A 
BRANCH  63  77
ATOM     77  C   UNL A   1      45.389  32.495  28.203  1.00  0.00     0.064 A 
ATOM     78  C   UNL A   1      46.687  33.018  28.067  1.00  0.00     0.173 A 
ATOM     79  C   UNL A   1      44.336  33.415  27.990  1.00  0.00     0.173 A 
ATOM     80  F   UNL A   1      47.760  32.237  28.261  1.00  0.00    -0.203 F 
ATOM     81  C   UNL A   1      46.911  34.375  27.831  1.00  0.00     0.198 A 
ATOM     82  C   UNL A   1      44.563  34.755  27.697  1.00  0.00     0.198 A 
ATOM     83  F   UNL A   1      43.049  33.096  28.168  1.00  0.00    -0.203 F 
ATOM     84  F   UNL A   1      48.162  34.852  27.847  1.00  0.00    -0.200 F 
ATOM     85  C   UNL A   1      45.850  35.244  27.654  1.00  0.00     0.200 A 
ATOM     86  F   UNL A   1      43.518  35.581  27.545  1.00  0.00    -0.200 F 
ATOM     87  F   UNL A   1      46.060  36.555  27.493  1.00  0.00    -0.200 F 
ENDBRANCH  63  77
BRANCH  64  88
ATOM     88  C   UNL A   1      37.089  31.164  30.452  1.00  0.00     0.064 A 
ATOM     89  C   UNL A   1      36.240  31.592  31.485  1.00  0.00     0.173 A 
ATOM     90  C   UNL A   1      36.694  31.507  29.143  1.00  0.00     0.173 A 
ATOM     91  F   UNL A   1      36.563  31.353  32.766  1.00  0.00    -0.203 F 
ATOM     92  C   UNL A   1      35.079  32.330  31.227  1.00  0.00     0.198 A 
ATOM     93  C   UNL A   1      35.532  32.236  28.885  1.00  0.00     0.198 A 
ATOM     94  F   UNL A   1      37.474  31.226  28.089  1.00  0.00    -0.203 F 
ATOM     95  F   UNL A   1      34.326  32.772  32.244  1.00  0.00    -0.200 F 
ATOM     96  C   UNL A   1      34.732  32.660  29.927  1.00  0.00     0.200 A 
ATOM     97  F   UNL A   1      35.231  32.578  27.624  1.00  0.00    -0.200 F 
ATOM     98  F   UNL A   1      33.652  33.415  29.681  1.00  0.00    -0.200 F 
ENDBRANCH  64  88
BRANCH  76  99
ATOM     99  C   UNL A   1      42.293  29.911  33.720  1.00  0.00     0.064 A 
ATOM    100  C   UNL A   1      41.877  28.574  33.587  1.00  0.00     0.173 A 
ATOM    101  C   UNL A   1      42.575  30.371  35.012  1.00  0.00     0.173 A 
ATOM    102  F   UNL A   1      41.695  28.026  32.379  1.00  0.00    -0.203 F 
ATOM    103  C   UNL A   1      41.700  27.756  34.702  1.00  0.00     0.198 A 
ATOM    104  C   UNL A   1      42.436  29.540  36.121  1.00  0.00     0.198 A 
ATOM    105  F   UNL A   1      43.035  31.617  35.195  1.00  0.00    -0.203 F 
ATOM    106  F   UNL A   1      41.287  26.489  34.548  1.00  0.00    -0.200 F 
ATOM    107  C   UNL A   1      41.987  28.238  35.967  1.00  0.00     0.200 A 
ATOM    108  F   UNL A   1      42.766  29.995  37.337  1.00  0.00    -0.200 F 
ATOM    109  F   UNL A   1      41.857  27.441  37.037  1.00  0.00    -0.200 F 
ENDBRANCH  76  99
ENDBRANCH  50  51
ENDBRANCH  43  45
ENDBRANCH  42  43
ENDBRANCH  41  42
ENDBRANCH  40  41
ENDBRANCH  39  40
ENDBRANCH  38  39
ENDBRANCH  37  38
ENDBRANCH   1  37
TORSDOF 24
ENDMDL
MODEL 2
REMARK VINA RESULT:     -10.9      2.077      6.634
REMARK SMILES COc1cccc(-c2nn(-c3cc4c(cc3C(N)=O)OCO4)cc2C(=O)OCCOCCOCCOCCOC(=O)c2ccc(-c3c4nc(c(-c5c(F)c(F)c(F)c(F)c5F)c5ccc([nH]5)c(-c5c(F)c(F)c(F)c(F)c5F)c5nc(c(-c6c(F)c(F)c(F)c(F)c6F)c6ccc3[nH]6)C=C5)C=C4)cc2)c1
REMARK SMILES IDX 33 1 32 2 31 3 30 4 29 5 28 6 27 7 25 8 26 9 24 10 8 11 9 12
REMARK SMILES IDX 10 13 23 14 7 15 3 16 4 17 105 18 5 19 6 20 2 21 1 22 11 23
REMARK SMILES IDX 12 24 16 25 13 26 15 27 14 28 22 29 20 30 21 31 17 32 18 33
REMARK SMILES IDX 19 34 34 37 35 38 36 39 37 40 38 41 39 42 40 43 41 44 42 45
REMARK SMILES IDX 43 46 104 47 44 48 103 49 45 50 46 51 47 52 97 53 48 54
REMARK SMILES IDX 102 55 96 56 98 57 49 58 101 59 95 60 94 61 50 63 82 64
REMARK SMILES IDX 62 65 81 66 63 67 66 68 80 69 99 70 64 71 65 72 79 74 100 75
REMARK SMILES IDX 67 76 51 77 52 78 60 79 53 80 54 81 58 82 61 83 55 84 56 85
REMARK SMILES IDX 59 86 57 87 83 88 84 89 92 90 85 91 86 92 90 93 93 94 87 95
REMARK SMILES IDX 88 96 91 97 89 98 68 99 69 100 77 101 70 102 71 103 75 104
REMARK SMILES IDX 78 105 72 106 73 107 76 108 74 109
REMARK H PARENT 18 35 18 36 98 62 66 73
REMARK Flexibility Score: inf
ROOT
ATOM      1  O   UNL A   1      36.350  22.637  24.923  1.00  0.00    -0.377 OA
ENDROOT
BRANCH   1   2
ATOM      2  C   UNL A   1      35.986  22.919  23.576  1.00  0.00     0.188 C 
BRANCH   2   3
ATOM      3  C   UNL A   1      34.877  23.941  23.222  1.00  0.00     0.188 C 
BRANCH   3   4
ATOM      4  O   UNL A   1      34.022  23.498  22.190  1.00  0.00    -0.376 OA
BRANCH   4   5
ATOM      5  C   UNL A   1      33.183  24.405  21.519  1.00  0.00     0.202 C 
BRANCH   5   6
ATOM      6  C   UNL A   1      32.716  25.681  22.230  1.00  0.00     0.261 C 
BRANCH   6   7
ATOM      7  O   UNL A   1      31.318  25.966  22.195  1.00  0.00    -0.460 OA
BRANCH   7   8
ATOM      8  C   UNL A   1      30.658  26.027  23.390  1.00  0.00     0.342 C 
ATOM      9  O   UNL A   1      29.683  26.717  23.609  1.00  0.00    -0.246 OA
BRANCH   8  10
ATOM     10  C   UNL A   1      31.209  25.057  24.317  1.00  0.00     0.106 A 
ATOM     11  C   UNL A   1      31.974  25.230  25.506  1.00  0.00     0.107 A 
ATOM     12  N   UNL A   1      32.328  24.037  26.028  1.00  0.00    -0.167 NA
ATOM     13  N   UNL A   1      31.960  23.156  25.063  1.00  0.00    -0.239 N 
ATOM     14  C   UNL A   1      30.989  23.698  24.264  1.00  0.00     0.131 A 
BRANCH  11  15
ATOM     15  C   UNL A   1      32.272  26.484  26.184  1.00  0.00     0.007 A 
ATOM     16  C   UNL A   1      33.781  28.330  26.611  1.00  0.00     0.119 A 
ATOM     17  C   UNL A   1      32.769  28.979  27.327  1.00  0.00     0.046 A 
ATOM     18  C   UNL A   1      33.524  27.088  26.025  1.00  0.00     0.056 A 
ATOM     19  C   UNL A   1      31.522  28.381  27.496  1.00  0.00     0.005 A 
ATOM     20  C   UNL A   1      31.284  27.122  26.948  1.00  0.00     0.011 A 
BRANCH  16  21
ATOM     21  O   UNL A   1      34.969  29.008  26.575  1.00  0.00    -0.497 OA
ATOM     22  C   UNL A   1      35.292  29.802  27.708  1.00  0.00     0.278 C 
ENDBRANCH  16  21
ENDBRANCH  11  15
BRANCH  13  23
ATOM     23  C   UNL A   1      32.482  21.844  24.970  1.00  0.00     0.081 A 
ATOM     24  C   UNL A   1      32.028  21.023  23.920  1.00  0.00     0.079 A 
ATOM     25  C   UNL A   1      33.452  21.365  25.910  1.00  0.00     0.069 A 
ATOM     26  C   UNL A   1      32.607  19.779  23.794  1.00  0.00     0.167 A 
ATOM     27  C   UNL A   1      34.097  20.146  25.653  1.00  0.00     0.066 A 
ATOM     28  C   UNL A   1      33.634  19.375  24.613  1.00  0.00     0.166 A 
ATOM     29  O   UNL A   1      32.260  18.809  22.905  1.00  0.00    -0.454 OA
ATOM     30  O   UNL A   1      34.058  18.112  24.336  1.00  0.00    -0.454 OA
ATOM     31  C   UNL A   1      33.028  17.699  23.417  1.00  0.00     0.468 C 
BRANCH  25  32
ATOM     32  C   UNL A   1      33.598  21.970  27.287  1.00  0.00     0.251 C 
ATOM     33  N   UNL A   1      32.531  21.961  28.141  1.00  0.00    -0.366 N 
ATOM     34  O   UNL A   1      34.598  22.563  27.667  1.00  0.00    -0.269 OA
ATOM     35  H   UNL A   1      31.701  21.498  27.887  1.00  0.00     0.159 HD
ATOM     36  H   UNL A   1      32.594  22.418  29.011  1.00  0.00     0.159 HD
ENDBRANCH  25  32
ENDBRANCH  13  23
ENDBRANCH   8  10
ENDBRANCH   7   8
ENDBRANCH   6   7
ENDBRANCH   5   6
ENDBRANCH   4   5
ENDBRANCH   3   4
ENDBRANCH   2   3
ENDBRANCH   1   2
BRANCH   1  37
ATOM     37  C   UNL A   1      37.718  22.663  25.307  1.00  0.00     0.188 C 
BRANCH  37  38
ATOM     38  C   UNL A   1      38.510  21.336  25.451  1.00  0.00     0.188 C 
BRANCH  38  39
ATOM     39  O   UNL A   1      39.735  21.417  26.158  1.00  0.00    -0.376 OA
BRANCH  39  40
ATOM     40  C   UNL A   1      40.103  22.472  27.025  1.00  0.00     0.202 C 
BRANCH  40  41
ATOM     41  C   UNL A   1      41.204  23.460  26.655  1.00  0.00     0.261 C 
BRANCH  41  42
ATOM     42  O   UNL A   1      41.109  24.691  27.328  1.00  0.00    -0.460 OA
BRANCH  42  43
ATOM     43  C   UNL A   1      40.881  25.738  26.520  1.00  0.00     0.338 C 
ATOM     44  O   UNL A   1      41.379  25.965  25.434  1.00  0.00    -0.246 OA
BRANCH  43  45
ATOM     45  C   UNL A   1      39.983  26.650  27.232  1.00  0.00     0.060 A 
ATOM     46  C   UNL A   1      40.094  27.987  26.855  1.00  0.00     0.016 A 
ATOM     47  C   UNL A   1      39.549  26.239  28.500  1.00  0.00     0.016 A 
ATOM     48  C   UNL A   1      40.143  28.906  27.867  1.00  0.00     0.010 A 
ATOM     49  C   UNL A   1      39.643  27.148  29.511  1.00  0.00     0.010 A 
ATOM     50  C   UNL A   1      40.050  28.436  29.180  1.00  0.00    -0.014 A 
BRANCH  50  51
ATOM     51  C   UNL A   1      40.315  29.362  30.245  1.00  0.00     0.031 A 
ATOM     52  C   UNL A   1      39.190  30.292  30.439  1.00  0.00     0.074 A 
ATOM     53  C   UNL A   1      41.429  29.275  30.993  1.00  0.00     0.049 A 
ATOM     54  N   UNL A   1      39.183  31.559  30.206  1.00  0.00    -0.248 NA
ATOM     55  C   UNL A   1      37.861  29.712  30.697  1.00  0.00     0.031 C 
ATOM     56  C   UNL A   1      42.458  28.231  30.987  1.00  0.00     0.029 A 
ATOM     57  N   UNL A   1      41.818  30.083  32.011  1.00  0.00    -0.354 N 
ATOM     58  C   UNL A   1      37.891  31.971  30.500  1.00  0.00     0.074 A 
ATOM     59  C   UNL A   1      37.084  30.785  30.568  1.00  0.00     0.031 C 
ATOM     60  C   UNL A   1      43.216  28.351  32.103  1.00  0.00     0.029 A 
ATOM     61  C   UNL A   1      42.798  29.535  32.829  1.00  0.00     0.049 A 
ATOM     62  H   UNL A   1      41.437  30.978  32.157  1.00  0.00     0.167 HD
ATOM     63  C   UNL A   1      37.665  33.225  30.966  1.00  0.00     0.037 A 
ATOM     64  C   UNL A   1      43.124  30.001  34.062  1.00  0.00     0.037 A 
ATOM     65  C   UNL A   1      38.766  34.101  30.647  1.00  0.00     0.049 A 
ATOM     66  C   UNL A   1      42.629  31.406  34.143  1.00  0.00     0.074 A 
ATOM     67  C   UNL A   1      39.356  34.507  29.464  1.00  0.00     0.029 A 
ATOM     68  N   UNL A   1      39.683  34.372  31.635  1.00  0.00    -0.354 N 
ATOM     69  N   UNL A   1      43.140  32.387  33.448  1.00  0.00    -0.248 NA
ATOM     70  C   UNL A   1      41.257  31.614  34.595  1.00  0.00     0.031 C 
ATOM     71  C   UNL A   1      40.753  34.554  29.741  1.00  0.00     0.029 A 
ATOM     72  C   UNL A   1      40.936  34.247  31.088  1.00  0.00     0.049 A 
ATOM     73  H   UNL A   1      39.479  34.612  32.567  1.00  0.00     0.167 HD
ATOM     74  C   UNL A   1      42.046  33.119  33.010  1.00  0.00     0.074 A 
ATOM     75  C   UNL A   1      40.917  32.636  33.802  1.00  0.00     0.031 C 
ATOM     76  C   UNL A   1      42.093  33.823  31.840  1.00  0.00     0.037 A 
BRANCH  63  77
ATOM     77  C   UNL A   1      36.668  33.528  32.054  1.00  0.00     0.064 A 
ATOM     78  C   UNL A   1      35.569  34.349  31.748  1.00  0.00     0.173 A 
ATOM     79  C   UNL A   1      36.898  33.304  33.432  1.00  0.00     0.173 A 
ATOM     80  F   UNL A   1      35.269  34.638  30.473  1.00  0.00    -0.203 F 
ATOM     81  C   UNL A   1      34.818  34.972  32.745  1.00  0.00     0.198 A 
ATOM     82  C   UNL A   1      36.111  33.881  34.423  1.00  0.00     0.198 A 
ATOM     83  F   UNL A   1      37.953  32.621  33.889  1.00  0.00    -0.203 F 
ATOM     84  F   UNL A   1      33.869  35.853  32.406  1.00  0.00    -0.200 F 
ATOM     85  C   UNL A   1      35.094  34.745  34.081  1.00  0.00     0.200 A 
ATOM     86  F   UNL A   1      36.407  33.658  35.710  1.00  0.00    -0.200 F 
ATOM     87  F   UNL A   1      34.418  35.391  35.038  1.00  0.00    -0.200 F 
ENDBRANCH  63  77
BRANCH  64  88
ATOM     88  C   UNL A   1      43.515  29.217  35.259  1.00  0.00     0.064 A 
ATOM     89  C   UNL A   1      42.619  28.324  35.868  1.00  0.00     0.173 A 
ATOM     90  C   UNL A   1      44.859  29.129  35.675  1.00  0.00     0.173 A 
ATOM     91  F   UNL A   1      41.330  28.304  35.496  1.00  0.00    -0.203 F 
ATOM     92  C   UNL A   1      43.044  27.391  36.822  1.00  0.00     0.198 A 
ATOM     93  C   UNL A   1      45.280  28.204  36.632  1.00  0.00     0.198 A 
ATOM     94  F   UNL A   1      45.812  29.872  35.097  1.00  0.00    -0.203 F 
ATOM     95  F   UNL A   1      42.169  26.516  37.338  1.00  0.00    -0.200 F 
ATOM     96  C   UNL A   1      44.376  27.327  37.196  1.00  0.00     0.200 A 
ATOM     97  F   UNL A   1      46.579  28.130  36.955  1.00  0.00    -0.200 F 
ATOM     98  F   UNL A   1      44.795  26.397  38.066  1.00  0.00    -0.200 F 
ENDBRANCH  64  88
BRANCH  76  99
ATOM     99  C   UNL A   1      43.430  33.967  31.165  1.00  0.00     0.064 A 
ATOM    100  C   UNL A   1      43.947  33.042  30.240  1.00  0.00     0.173 A 
ATOM    101  C   UNL A   1      44.143  35.158  31.349  1.00  0.00     0.173 A 
ATOM    102  F   UNL A   1      43.269  31.931  29.926  1.00  0.00    -0.203 F 
ATOM    103  C   UNL A   1      45.148  33.277  29.574  1.00  0.00     0.198 A 
ATOM    104  C   UNL A   1      45.323  35.409  30.652  1.00  0.00     0.198 A 
ATOM    105  F   UNL A   1      43.667  36.105  32.171  1.00  0.00    -0.203 F 
ATOM    106  F   UNL A   1      45.627  32.371  28.709  1.00  0.00    -0.200 F 
ATOM    107  C   UNL A   1      45.831  34.464  29.776  1.00  0.00     0.200 A 
ATOM    108  F   UNL A   1      45.951  36.582  30.811  1.00  0.00    -0.200 F 
ATOM    109  F   UNL A   1      46.966  34.711  29.106  1.00  0.00    -0.200 F 
ENDBRANCH  76  99
ENDBRANCH  50  51
ENDBRANCH  43  45
ENDBRANCH  42  43
ENDBRANCH  41  42
ENDBRANCH  40  41
ENDBRANCH  39  40
ENDBRANCH  38  39
ENDBRANCH  37  38
ENDBRANCH   1  37
TORSDOF 24
ENDMDL
MODEL 3
REMARK VINA RESULT:      -9.9      2.139      5.579
REMARK SMILES COc1cccc(-c2nn(-c3cc4c(cc3C(N)=O)OCO4)cc2C(=O)OCCOCCOCCOCCOC(=O)c2ccc(-c3c4nc(c(-c5c(F)c(F)c(F)c(F)c5F)c5ccc([nH]5)c(-c5c(F)c(F)c(F)c(F)c5F)c5nc(c(-c6c(F)c(F)c(F)c(F)c6F)c6ccc3[nH]6)C=C5)C=C4)cc2)c1
REMARK SMILES IDX 33 1 32 2 31 3 30 4 29 5 28 6 27 7 25 8 26 9 24 10 8 11 9 12
REMARK SMILES IDX 10 13 23 14 7 15 3 16 4 17 105 18 5 19 6 20 2 21 1 22 11 23
REMARK SMILES IDX 12 24 16 25 13 26 15 27 14 28 22 29 20 30 21 31 17 32 18 33
REMARK SMILES IDX 19 34 34 37 35 38 36 39 37 40 38 41 39 42 40 43 41 44 42 45
REMARK SMILES IDX 43 46 104 47 44 48 103 49 45 50 46 51 47 52 97 53 48 54
REMARK SMILES IDX 102 55 96 56 98 57 49 58 101 59 95 60 94 61 50 63 82 64
REMARK SMILES IDX 62 65 81 66 63 67 66 68 80 69 99 70 64 71 65 72 79 74 100 75
REMARK SMILES IDX 67 76 51 77 52 78 60 79 53 80 54 81 58 82 61 83 55 84 56 85
REMARK SMILES IDX 59 86 57 87 83 88 84 89 92 90 85 91 86 92 90 93 93 94 87 95
REMARK SMILES IDX 88 96 91 97 89 98 68 99 69 100 77 101 70 102 71 103 75 104
REMARK SMILES IDX 78 105 72 106 73 107 76 108 74 109
REMARK H PARENT 18 35 18 36 98 62 66 73
REMARK Flexibility Score: inf
ROOT
ATOM      1  O   UNL A   1      42.211  22.964  26.884  1.00  0.00    -0.377 OA
ENDROOT
BRANCH   1   2
ATOM      2  C   UNL A   1      40.876  22.503  27.066  1.00  0.00     0.188 C 
BRANCH   2   3
ATOM      3  C   UNL A   1      40.330  21.255  26.327  1.00  0.00     0.188 C 
BRANCH   3   4
ATOM      4  O   UNL A   1      38.926  21.134  26.405  1.00  0.00    -0.376 OA
BRANCH   4   5
ATOM      5  C   UNL A   1      38.202  20.543  25.356  1.00  0.00     0.202 C 
BRANCH   5   6
ATOM      6  C   UNL A   1      36.915  21.204  24.849  1.00  0.00     0.261 C 
BRANCH   6   7
ATOM      7  O   UNL A   1      36.901  22.630  24.787  1.00  0.00    -0.460 OA
BRANCH   7   8
ATOM      8  C   UNL A   1      36.195  23.209  23.769  1.00  0.00     0.342 C 
ATOM      9  O   UNL A   1      36.531  23.202  22.602  1.00  0.00    -0.246 OA
BRANCH   8  10
ATOM     10  C   UNL A   1      34.931  23.719  24.263  1.00  0.00     0.106 A 
ATOM     11  C   UNL A   1      33.626  23.150  24.253  1.00  0.00     0.107 A 
ATOM     12  N   UNL A   1      32.722  24.006  24.774  1.00  0.00    -0.167 NA
ATOM     13  N   UNL A   1      33.431  25.156  24.911  1.00  0.00    -0.239 N 
ATOM     14  C   UNL A   1      34.772  24.888  24.974  1.00  0.00     0.131 A 
BRANCH  11  15
ATOM     15  C   UNL A   1      33.261  21.795  23.859  1.00  0.00     0.007 A 
ATOM     16  C   UNL A   1      33.274  19.411  24.288  1.00  0.00     0.119 A 
ATOM     17  C   UNL A   1      32.401  19.223  23.211  1.00  0.00     0.046 A 
ATOM     18  C   UNL A   1      33.690  20.702  24.620  1.00  0.00     0.056 A 
ATOM     19  C   UNL A   1      31.975  20.304  22.443  1.00  0.00     0.005 A 
ATOM     20  C   UNL A   1      32.427  21.586  22.751  1.00  0.00     0.011 A 
BRANCH  16  21
ATOM     21  O   UNL A   1      33.653  18.255  24.914  1.00  0.00    -0.497 OA
ATOM     22  C   UNL A   1      32.653  17.564  25.650  1.00  0.00     0.278 C 
ENDBRANCH  16  21
ENDBRANCH  11  15
BRANCH  13  23
ATOM     23  C   UNL A   1      32.827  26.430  25.033  1.00  0.00     0.081 A 
ATOM     24  C   UNL A   1      33.246  27.263  26.088  1.00  0.00     0.079 A 
ATOM     25  C   UNL A   1      31.824  26.866  24.107  1.00  0.00     0.069 A 
ATOM     26  C   UNL A   1      32.708  28.530  26.146  1.00  0.00     0.167 A 
ATOM     27  C   UNL A   1      31.414  28.207  24.138  1.00  0.00     0.066 A 
ATOM     28  C   UNL A   1      31.850  28.994  25.178  1.00  0.00     0.166 A 
ATOM     29  O   UNL A   1      32.917  29.457  27.120  1.00  0.00    -0.454 OA
ATOM     30  O   UNL A   1      31.422  30.263  25.421  1.00  0.00    -0.454 OA
ATOM     31  C   UNL A   1      31.924  30.442  26.760  1.00  0.00     0.468 C 
BRANCH  25  32
ATOM     32  C   UNL A   1      30.999  25.889  23.303  1.00  0.00     0.251 C 
ATOM     33  N   UNL A   1      31.504  25.386  22.136  1.00  0.00    -0.366 N 
ATOM     34  O   UNL A   1      29.848  25.581  23.579  1.00  0.00    -0.269 OA
ATOM     35  H   UNL A   1      32.425  25.601  21.865  1.00  0.00     0.159 HD
ATOM     36  H   UNL A   1      30.945  24.808  21.567  1.00  0.00     0.159 HD
ENDBRANCH  25  32
ENDBRANCH  13  23
ENDBRANCH   8  10
ENDBRANCH   7   8
ENDBRANCH   6   7
ENDBRANCH   5   6
ENDBRANCH   4   5
ENDBRANCH   3   4
ENDBRANCH   2   3
ENDBRANCH   1   2
BRANCH   1  37
ATOM     37  C   UNL A   1      42.457  24.129  26.110  1.00  0.00     0.188 C 
BRANCH  37  38
ATOM     38  C   UNL A   1      43.452  24.076  24.920  1.00  0.00     0.188 C 
BRANCH  38  39
ATOM     39  O   UNL A   1      44.823  24.210  25.248  1.00  0.00    -0.376 OA
BRANCH  39  40
ATOM     40  C   UNL A   1      45.545  23.331  26.089  1.00  0.00     0.202 C 
BRANCH  40  41
ATOM     41  C   UNL A   1      46.354  23.848  27.274  1.00  0.00     0.261 C 
BRANCH  41  42
ATOM     42  O   UNL A   1      46.401  25.250  27.359  1.00  0.00    -0.460 OA
BRANCH  42  43
ATOM     43  C   UNL A   1      45.327  25.798  27.950  1.00  0.00     0.338 C 
ATOM     44  O   UNL A   1      44.521  25.256  28.682  1.00  0.00    -0.246 OA
BRANCH  43  45
ATOM     45  C   UNL A   1      45.219  27.175  27.466  1.00  0.00     0.060 A 
ATOM     46  C   UNL A   1      45.994  28.099  28.164  1.00  0.00     0.016 A 
ATOM     47  C   UNL A   1      44.037  27.513  26.794  1.00  0.00     0.016 A 
ATOM     48  C   UNL A   1      45.384  29.272  28.513  1.00  0.00     0.010 A 
ATOM     49  C   UNL A   1      43.412  28.662  27.177  1.00  0.00     0.010 A 
ATOM     50  C   UNL A   1      44.056  29.458  28.119  1.00  0.00    -0.014 A 
BRANCH  50  51
ATOM     51  C   UNL A   1      43.346  30.583  28.661  1.00  0.00     0.031 A 
ATOM     52  C   UNL A   1      43.950  31.854  28.231  1.00  0.00     0.074 A 
ATOM     53  C   UNL A   1      42.222  30.425  29.382  1.00  0.00     0.049 A 
ATOM     54  N   UNL A   1      44.568  32.709  28.973  1.00  0.00    -0.248 NA
ATOM     55  C   UNL A   1      44.089  32.092  26.784  1.00  0.00     0.031 C 
ATOM     56  C   UNL A   1      41.460  29.199  29.636  1.00  0.00     0.029 A 
ATOM     57  N   UNL A   1      41.463  31.385  29.966  1.00  0.00    -0.354 N 
ATOM     58  C   UNL A   1      44.986  33.705  28.102  1.00  0.00     0.074 A 
ATOM     59  C   UNL A   1      44.872  33.169  26.774  1.00  0.00     0.031 C 
ATOM     60  C   UNL A   1      40.239  29.530  30.119  1.00  0.00     0.029 A 
ATOM     61  C   UNL A   1      40.184  30.967  30.310  1.00  0.00     0.049 A 
ATOM     62  H   UNL A   1      41.790  32.299  30.131  1.00  0.00     0.167 HD
ATOM     63  C   UNL A   1      45.095  34.986  28.535  1.00  0.00     0.037 A 
ATOM     64  C   UNL A   1      39.155  31.799  30.615  1.00  0.00     0.037 A 
ATOM     65  C   UNL A   1      45.200  35.039  29.972  1.00  0.00     0.049 A 
ATOM     66  C   UNL A   1      39.751  33.116  30.982  1.00  0.00     0.074 A 
ATOM     67  C   UNL A   1      46.096  34.517  30.887  1.00  0.00     0.029 A 
ATOM     68  N   UNL A   1      44.072  35.355  30.691  1.00  0.00    -0.354 N 
ATOM     69  N   UNL A   1      40.453  33.307  32.067  1.00  0.00    -0.248 NA
ATOM     70  C   UNL A   1      40.001  34.068  29.905  1.00  0.00     0.031 C 
ATOM     71  C   UNL A   1      45.300  34.110  31.997  1.00  0.00     0.029 A 
ATOM     72  C   UNL A   1      43.979  34.469  31.735  1.00  0.00     0.049 A 
ATOM     73  H   UNL A   1      43.443  36.086  30.493  1.00  0.00     0.167 HD
ATOM     74  C   UNL A   1      41.517  34.102  31.665  1.00  0.00     0.074 A 
ATOM     75  C   UNL A   1      41.151  34.595  30.339  1.00  0.00     0.031 C 
ATOM     76  C   UNL A   1      42.723  34.038  32.304  1.00  0.00     0.037 A 
BRANCH  63  77
ATOM     77  C   UNL A   1      44.681  36.170  27.701  1.00  0.00     0.064 A 
ATOM     78  C   UNL A   1      45.605  37.213  27.511  1.00  0.00     0.173 A 
ATOM     79  C   UNL A   1      43.345  36.465  27.341  1.00  0.00     0.173 A 
ATOM     80  F   UNL A   1      46.896  37.046  27.832  1.00  0.00    -0.203 F 
ATOM     81  C   UNL A   1      45.204  38.480  27.082  1.00  0.00     0.198 A 
ATOM     82  C   UNL A   1      42.960  37.712  26.859  1.00  0.00     0.198 A 
ATOM     83  F   UNL A   1      42.335  35.613  27.544  1.00  0.00    -0.203 F 
ATOM     84  F   UNL A   1      46.095  39.478  27.047  1.00  0.00    -0.200 F 
ATOM     85  C   UNL A   1      43.882  38.730  26.765  1.00  0.00     0.200 A 
ATOM     86  F   UNL A   1      41.670  37.935  26.573  1.00  0.00    -0.200 F 
ATOM     87  F   UNL A   1      43.484  39.960  26.417  1.00  0.00    -0.200 F 
ENDBRANCH  63  77
BRANCH  64  88
ATOM     88  C   UNL A   1      37.719  31.632  30.282  1.00  0.00     0.064 A 
ATOM     89  C   UNL A   1      36.714  32.036  31.175  1.00  0.00     0.173 A 
ATOM     90  C   UNL A   1      37.297  31.315  28.975  1.00  0.00     0.173 A 
ATOM     91  F   UNL A   1      37.031  32.404  32.426  1.00  0.00    -0.203 F 
ATOM     92  C   UNL A   1      35.374  32.132  30.781  1.00  0.00     0.198 A 
ATOM     93  C   UNL A   1      35.960  31.403  28.585  1.00  0.00     0.198 A 
ATOM     94  F   UNL A   1      38.183  31.003  28.019  1.00  0.00    -0.203 F 
ATOM     95  F   UNL A   1      34.451  32.578  31.646  1.00  0.00    -0.200 F 
ATOM     96  C   UNL A   1      35.000  31.824  29.483  1.00  0.00     0.200 A 
ATOM     97  F   UNL A   1      35.621  31.137  27.315  1.00  0.00    -0.200 F 
ATOM     98  F   UNL A   1      33.728  31.970  29.088  1.00  0.00    -0.200 F 
ENDBRANCH  64  88
BRANCH  76  99
ATOM     99  C   UNL A   1      42.794  33.259  33.589  1.00  0.00     0.064 A 
ATOM    100  C   UNL A   1      43.065  31.881  33.657  1.00  0.00     0.173 A 
ATOM    101  C   UNL A   1      42.732  33.962  34.798  1.00  0.00     0.173 A 
ATOM    102  F   UNL A   1      43.250  31.159  32.545  1.00  0.00    -0.203 F 
ATOM    103  C   UNL A   1      43.213  31.231  34.881  1.00  0.00     0.198 A 
ATOM    104  C   UNL A   1      42.919  33.319  36.018  1.00  0.00     0.198 A 
ATOM    105  F   UNL A   1      42.538  35.290  34.793  1.00  0.00    -0.203 F 
ATOM    106  F   UNL A   1      43.456  29.912  34.919  1.00  0.00    -0.200 F 
ATOM    107  C   UNL A   1      43.147  31.953  36.061  1.00  0.00     0.200 A 
ATOM    108  F   UNL A   1      42.908  34.031  37.154  1.00  0.00    -0.200 F 
ATOM    109  F   UNL A   1      43.329  31.338  37.238  1.00  0.00    -0.200 F 
ENDBRANCH  76  99
ENDBRANCH  50  51
ENDBRANCH  43  45
ENDBRANCH  42  43
ENDBRANCH  41  42
ENDBRANCH  40  41
ENDBRANCH  39  40
ENDBRANCH  38  39
ENDBRANCH  37  38
ENDBRANCH   1  37
TORSDOF 24
ENDMDL
