MODEL 1
REMARK VINA RESULT:     -10.8      0.000      0.000
REMARK SMILES C[C@H](c1ccccc1)N1C(=O)c2ccc(C(=O)OCCOCCOCCOCCOC(=O)c3ccc(-c4c5nc(c(-c6c(F)c(F)c(F)c(F)c6F)c6ccc([nH]6)c(-c6c(F)c(F)c(F)c(F)c6F)c6nc(c(-c7c(F)c(F)c(F)c(F)c7F)c7ccc4[nH]7)C=C6)C=C5)cc3)cc2C1=O
REMARK SMILES IDX 24 1 23 2 22 3 21 4 20 5 19 6 18 7 16 8 17 9 15 10 9 11
REMARK SMILES IDX 10 12 98 13 11 14 12 15 97 16 99 17 13 18 96 19 14 20 2 21
REMARK SMILES IDX 1 22 3 23 4 24 8 25 5 26 7 27 6 28 25 29 26 30 27 31 28 32
REMARK SMILES IDX 29 33 30 34 31 35 32 36 33 37 34 38 95 39 35 40 94 41 36 42
REMARK SMILES IDX 37 43 38 44 88 45 39 46 93 47 87 48 89 49 40 50 92 51 86 52
REMARK SMILES IDX 85 53 41 55 73 56 53 57 72 58 54 59 57 60 71 61 90 62 55 63
REMARK SMILES IDX 56 64 70 66 91 67 58 68 42 69 43 70 51 71 44 72 45 73 49 74
REMARK SMILES IDX 52 75 46 76 47 77 50 78 48 79 74 80 75 81 83 82 76 83 77 84
REMARK SMILES IDX 81 85 84 86 78 87 79 88 82 89 80 90 59 91 60 92 68 93 61 94
REMARK SMILES IDX 62 95 66 96 69 97 63 98 64 99 67 100 65 101
REMARK H PARENT 89 54 57 65
REMARK Flexibility Score: inf
ROOT
ATOM      1  O   UNL A   1      38.636  22.997  26.630  1.00  0.00    -0.377 OA
ENDROOT
BRANCH   1   2
ATOM      2  C   UNL A   1      37.831  23.811  25.795  1.00  0.00     0.188 C 
BRANCH   2   3
ATOM      3  C   UNL A   1      36.514  23.237  25.242  1.00  0.00     0.188 C 
BRANCH   3   4
ATOM      4  O   UNL A   1      36.307  21.856  25.516  1.00  0.00    -0.376 OA
BRANCH   4   5
ATOM      5  C   UNL A   1      35.263  21.564  26.437  1.00  0.00     0.202 C 
BRANCH   5   6
ATOM      6  C   UNL A   1      33.955  21.156  25.754  1.00  0.00     0.261 C 
BRANCH   6   7
ATOM      7  O   UNL A   1      33.986  21.315  24.324  1.00  0.00    -0.460 OA
BRANCH   7   8
ATOM      8  C   UNL A   1      32.797  21.488  23.706  1.00  0.00     0.338 C 
ATOM      9  O   UNL A   1      32.156  20.671  23.075  1.00  0.00    -0.246 OA
BRANCH   8  10
ATOM     10  C   UNL A   1      32.309  22.820  24.102  1.00  0.00     0.060 A 
ATOM     11  N   UNL A   1      31.801  27.337  24.439  1.00  0.00    -0.267 N 
ATOM     12  C   UNL A   1      31.252  26.607  25.451  1.00  0.00     0.262 C 
ATOM     13  C   UNL A   1      32.688  26.564  23.732  1.00  0.00     0.262 C 
ATOM     14  O   UNL A   1      30.716  26.949  26.486  1.00  0.00    -0.269 OA
ATOM     15  C   UNL A   1      31.478  25.214  25.113  1.00  0.00     0.053 A 
ATOM     16  C   UNL A   1      32.451  25.176  24.133  1.00  0.00     0.054 A 
ATOM     17  O   UNL A   1      33.526  26.893  22.913  1.00  0.00    -0.269 OA
ATOM     18  C   UNL A   1      30.818  24.089  25.557  1.00  0.00     0.015 A 
ATOM     19  C   UNL A   1      32.943  23.980  23.643  1.00  0.00     0.030 A 
ATOM     20  C   UNL A   1      31.211  22.879  24.993  1.00  0.00     0.016 A 
BRANCH  11  21
ATOM     21  C   UNL A   1      31.622  28.772  24.217  1.00  0.00     0.121 C 
ATOM     22  C   UNL A   1      32.021  29.590  25.445  1.00  0.00     0.037 C 
BRANCH  21  23
ATOM     23  C   UNL A   1      30.243  29.204  23.691  1.00  0.00    -0.025 A 
ATOM     24  C   UNL A   1      29.294  28.336  23.127  1.00  0.00     0.006 A 
ATOM     25  C   UNL A   1      29.856  30.549  23.852  1.00  0.00     0.006 A 
ATOM     26  C   UNL A   1      28.016  28.772  22.765  1.00  0.00     0.000 A 
ATOM     27  C   UNL A   1      28.577  30.989  23.488  1.00  0.00     0.000 A 
ATOM     28  C   UNL A   1      27.654  30.098  22.953  1.00  0.00     0.000 A 
ENDBRANCH  21  23
ENDBRANCH  11  21
ENDBRANCH   8  10
ENDBRANCH   7   8
ENDBRANCH   6   7
ENDBRANCH   5   6
ENDBRANCH   4   5
ENDBRANCH   3   4
ENDBRANCH   2   3
ENDBRANCH   1   2
BRANCH   1  29
ATOM     29  C   UNL A   1      39.237  21.823  26.104  1.00  0.00     0.188 C 
BRANCH  29  30
ATOM     30  C   UNL A   1      40.587  21.318  26.648  1.00  0.00     0.188 C 
BRANCH  30  31
ATOM     31  O   UNL A   1      41.544  20.992  25.646  1.00  0.00    -0.376 OA
BRANCH  31  32
ATOM     32  C   UNL A   1      42.819  20.575  26.116  1.00  0.00     0.202 C 
BRANCH  32  33
ATOM     33  C   UNL A   1      43.977  21.245  25.372  1.00  0.00     0.261 C 
BRANCH  33  34
ATOM     34  O   UNL A   1      44.421  22.482  25.955  1.00  0.00    -0.460 OA
BRANCH  34  35
ATOM     35  C   UNL A   1      43.824  23.609  25.510  1.00  0.00     0.338 C 
ATOM     36  O   UNL A   1      43.444  23.852  24.380  1.00  0.00    -0.246 OA
BRANCH  35  37
ATOM     37  C   UNL A   1      43.541  24.462  26.679  1.00  0.00     0.060 A 
ATOM     38  C   UNL A   1      42.662  23.987  27.659  1.00  0.00     0.016 A 
ATOM     39  C   UNL A   1      44.141  25.717  26.805  1.00  0.00     0.016 A 
ATOM     40  C   UNL A   1      42.350  24.789  28.755  1.00  0.00     0.010 A 
ATOM     41  C   UNL A   1      43.814  26.526  27.896  1.00  0.00     0.010 A 
ATOM     42  C   UNL A   1      42.894  26.077  28.858  1.00  0.00    -0.014 A 
BRANCH  42  43
ATOM     43  C   UNL A   1      42.365  27.016  29.873  1.00  0.00     0.031 A 
ATOM     44  C   UNL A   1      43.047  27.086  31.211  1.00  0.00     0.074 A 
ATOM     45  C   UNL A   1      41.315  27.811  29.605  1.00  0.00     0.049 A 
ATOM     46  N   UNL A   1      42.769  27.830  32.250  1.00  0.00    -0.248 NA
ATOM     47  C   UNL A   1      44.203  26.194  31.402  1.00  0.00     0.031 C 
ATOM     48  C   UNL A   1      40.582  27.850  28.342  1.00  0.00     0.029 A 
ATOM     49  N   UNL A   1      40.680  28.740  30.393  1.00  0.00    -0.354 N 
ATOM     50  C   UNL A   1      43.718  27.506  33.210  1.00  0.00     0.074 A 
ATOM     51  C   UNL A   1      44.559  26.472  32.647  1.00  0.00     0.031 C 
ATOM     52  C   UNL A   1      39.587  28.750  28.444  1.00  0.00     0.029 A 
ATOM     53  C   UNL A   1      39.603  29.334  29.784  1.00  0.00     0.049 A 
ATOM     54  H   UNL A   1      40.969  28.958  31.308  1.00  0.00     0.167 HD
ATOM     55  C   UNL A   1      43.886  28.036  34.444  1.00  0.00     0.037 A 
ATOM     56  C   UNL A   1      38.727  30.237  30.264  1.00  0.00     0.037 A 
ATOM     57  C   UNL A   1      43.042  29.053  35.012  1.00  0.00     0.049 A 
ATOM     58  C   UNL A   1      38.896  30.761  31.669  1.00  0.00     0.074 A 
ATOM     59  C   UNL A   1      43.132  29.653  36.256  1.00  0.00     0.029 A 
ATOM     60  N   UNL A   1      41.948  29.616  34.373  1.00  0.00    -0.354 N 
ATOM     61  N   UNL A   1      39.820  30.477  32.554  1.00  0.00    -0.248 NA
ATOM     62  C   UNL A   1      37.900  31.738  32.135  1.00  0.00     0.031 C 
ATOM     63  C   UNL A   1      42.067  30.551  36.386  1.00  0.00     0.029 A 
ATOM     64  C   UNL A   1      41.342  30.543  35.205  1.00  0.00     0.049 A 
ATOM     65  H   UNL A   1      41.646  29.390  33.464  1.00  0.00     0.167 HD
ATOM     66  C   UNL A   1      39.534  31.257  33.668  1.00  0.00     0.074 A 
ATOM     67  C   UNL A   1      38.362  32.041  33.340  1.00  0.00     0.031 C 
ATOM     68  C   UNL A   1      40.179  31.319  34.859  1.00  0.00     0.037 A 
BRANCH  55  69
ATOM     69  C   UNL A   1      45.024  27.517  35.269  1.00  0.00     0.064 A 
ATOM     70  C   UNL A   1      44.870  26.401  36.104  1.00  0.00     0.173 A 
ATOM     71  C   UNL A   1      46.290  28.113  35.192  1.00  0.00     0.173 A 
ATOM     72  F   UNL A   1      43.673  25.807  36.225  1.00  0.00    -0.203 F 
ATOM     73  C   UNL A   1      45.942  25.907  36.843  1.00  0.00     0.198 A 
ATOM     74  C   UNL A   1      47.366  27.602  35.914  1.00  0.00     0.198 A 
ATOM     75  F   UNL A   1      46.488  29.184  34.407  1.00  0.00    -0.203 F 
ATOM     76  F   UNL A   1      45.765  24.861  37.660  1.00  0.00    -0.200 F 
ATOM     77  C   UNL A   1      47.190  26.503  36.741  1.00  0.00     0.200 A 
ATOM     78  F   UNL A   1      48.574  28.173  35.807  1.00  0.00    -0.200 F 
ATOM     79  F   UNL A   1      48.224  26.021  37.444  1.00  0.00    -0.200 F 
ENDBRANCH  55  69
BRANCH  56  80
ATOM     80  C   UNL A   1      37.594  30.705  29.421  1.00  0.00     0.064 A 
ATOM     81  C   UNL A   1      37.546  32.020  28.937  1.00  0.00     0.173 A 
ATOM     82  C   UNL A   1      36.513  29.861  29.127  1.00  0.00     0.173 A 
ATOM     83  F   UNL A   1      38.543  32.873  29.215  1.00  0.00    -0.203 F 
ATOM     84  C   UNL A   1      36.446  32.481  28.215  1.00  0.00     0.198 A 
ATOM     85  C   UNL A   1      35.428  30.314  28.382  1.00  0.00     0.198 A 
ATOM     86  F   UNL A   1      36.508  28.596  29.572  1.00  0.00    -0.203 F 
ATOM     87  F   UNL A   1      36.398  33.759  27.816  1.00  0.00    -0.200 F 
ATOM     88  C   UNL A   1      35.390  31.627  27.935  1.00  0.00     0.200 A 
ATOM     89  F   UNL A   1      34.412  29.485  28.107  1.00  0.00    -0.200 F 
ATOM     90  F   UNL A   1      34.329  32.073  27.249  1.00  0.00    -0.200 F 
ENDBRANCH  56  80
BRANCH  68  91
ATOM     91  C   UNL A   1      39.652  32.285  35.880  1.00  0.00     0.064 A 
ATOM     92  C   UNL A   1      40.172  33.581  36.002  1.00  0.00     0.173 A 
ATOM     93  C   UNL A   1      38.596  31.917  36.728  1.00  0.00     0.173 A 
ATOM     94  F   UNL A   1      41.191  33.976  35.224  1.00  0.00    -0.203 F 
ATOM     95  C   UNL A   1      39.675  34.465  36.956  1.00  0.00     0.198 A 
ATOM     96  C   UNL A   1      38.082  32.814  37.660  1.00  0.00     0.198 A 
ATOM     97  F   UNL A   1      38.057  30.692  36.645  1.00  0.00    -0.203 F 
ATOM     98  F   UNL A   1      40.222  35.681  37.091  1.00  0.00    -0.200 F 
ATOM     99  C   UNL A   1      38.627  34.082  37.780  1.00  0.00     0.200 A 
ATOM    100  F   UNL A   1      37.060  32.448  38.447  1.00  0.00    -0.200 F 
ATOM    101  F   UNL A   1      38.149  34.935  38.697  1.00  0.00    -0.200 F 
ENDBRANCH  68  91
ENDBRANCH  42  43
ENDBRANCH  35  37
ENDBRANCH  34  35
ENDBRANCH  33  34
ENDBRANCH  32  33
ENDBRANCH  31  32
ENDBRANCH  30  31
ENDBRANCH  29  30
ENDBRANCH   1  29
TORSDOF 22
ENDMDL
MODEL 2
REMARK VINA RESULT:     -10.2      5.366     11.177
REMARK SMILES C[C@H](c1ccccc1)N1C(=O)c2ccc(C(=O)OCCOCCOCCOCCOC(=O)c3ccc(-c4c5nc(c(-c6c(F)c(F)c(F)c(F)c6F)c6ccc([nH]6)c(-c6c(F)c(F)c(F)c(F)c6F)c6nc(c(-c7c(F)c(F)c(F)c(F)c7F)c7ccc4[nH]7)C=C6)C=C5)cc3)cc2C1=O
REMARK SMILES IDX 24 1 23 2 22 3 21 4 20 5 19 6 18 7 16 8 17 9 15 10 9 11
REMARK SMILES IDX 10 12 98 13 11 14 12 15 97 16 99 17 13 18 96 19 14 20 2 21
REMARK SMILES IDX 1 22 3 23 4 24 8 25 5 26 7 27 6 28 25 29 26 30 27 31 28 32
REMARK SMILES IDX 29 33 30 34 31 35 32 36 33 37 34 38 95 39 35 40 94 41 36 42
REMARK SMILES IDX 37 43 38 44 88 45 39 46 93 47 87 48 89 49 40 50 92 51 86 52
REMARK SMILES IDX 85 53 41 55 73 56 53 57 72 58 54 59 57 60 71 61 90 62 55 63
REMARK SMILES IDX 56 64 70 66 91 67 58 68 42 69 43 70 51 71 44 72 45 73 49 74
REMARK SMILES IDX 52 75 46 76 47 77 50 78 48 79 74 80 75 81 83 82 76 83 77 84
REMARK SMILES IDX 81 85 84 86 78 87 79 88 82 89 80 90 59 91 60 92 68 93 61 94
REMARK SMILES IDX 62 95 66 96 69 97 63 98 64 99 67 100 65 101
REMARK H PARENT 89 54 57 65
REMARK Flexibility Score: inf
ROOT
ATOM      1  O   UNL A   1      32.519  36.428  29.845  1.00  0.00    -0.377 OA
ENDROOT
BRANCH   1   2
ATOM      2  C   UNL A   1      33.504  36.694  28.862  1.00  0.00     0.188 C 
BRANCH   2   3
ATOM      3  C   UNL A   1      34.357  35.531  28.326  1.00  0.00     0.188 C 
BRANCH   3   4
ATOM      4  O   UNL A   1      33.619  34.362  27.985  1.00  0.00    -0.376 OA
BRANCH   4   5
ATOM      5  C   UNL A   1      34.245  33.127  28.311  1.00  0.00     0.202 C 
BRANCH   5   6
ATOM      6  C   UNL A   1      33.629  31.930  27.582  1.00  0.00     0.261 C 
BRANCH   6   7
ATOM      7  O   UNL A   1      34.001  30.663  28.153  1.00  0.00    -0.460 OA
BRANCH   7   8
ATOM      8  C   UNL A   1      34.781  29.860  27.397  1.00  0.00     0.338 C 
ATOM      9  O   UNL A   1      35.988  29.901  27.260  1.00  0.00    -0.246 OA
BRANCH   8  10
ATOM     10  C   UNL A   1      33.913  28.778  26.904  1.00  0.00     0.060 A 
ATOM     11  N   UNL A   1      32.192  25.403  24.368  1.00  0.00    -0.267 N 
ATOM     12  C   UNL A   1      31.323  25.979  25.246  1.00  0.00     0.262 C 
ATOM     13  C   UNL A   1      33.291  26.208  24.200  1.00  0.00     0.262 C 
ATOM     14  O   UNL A   1      30.133  25.813  25.422  1.00  0.00    -0.269 OA
ATOM     15  C   UNL A   1      32.088  26.972  25.979  1.00  0.00     0.053 A 
ATOM     16  C   UNL A   1      33.253  27.204  25.273  1.00  0.00     0.054 A 
ATOM     17  O   UNL A   1      34.168  26.161  23.357  1.00  0.00    -0.269 OA
ATOM     18  C   UNL A   1      31.828  27.546  27.204  1.00  0.00     0.015 A 
ATOM     19  C   UNL A   1      34.170  28.157  25.675  1.00  0.00     0.030 A 
ATOM     20  C   UNL A   1      32.792  28.422  27.693  1.00  0.00     0.016 A 
BRANCH  11  21
ATOM     21  C   UNL A   1      31.945  24.195  23.580  1.00  0.00     0.121 C 
ATOM     22  C   UNL A   1      30.467  24.047  23.217  1.00  0.00     0.037 C 
BRANCH  21  23
ATOM     23  C   UNL A   1      32.503  22.886  24.163  1.00  0.00    -0.025 A 
ATOM     24  C   UNL A   1      31.719  21.835  24.665  1.00  0.00     0.006 A 
ATOM     25  C   UNL A   1      33.896  22.678  24.128  1.00  0.00     0.006 A 
ATOM     26  C   UNL A   1      32.282  20.627  25.085  1.00  0.00     0.000 A 
ATOM     27  C   UNL A   1      34.464  21.469  24.549  1.00  0.00     0.000 A 
ATOM     28  C   UNL A   1      33.655  20.440  25.020  1.00  0.00     0.000 A 
ENDBRANCH  21  23
ENDBRANCH  11  21
ENDBRANCH   8  10
ENDBRANCH   7   8
ENDBRANCH   6   7
ENDBRANCH   5   6
ENDBRANCH   4   5
ENDBRANCH   3   4
ENDBRANCH   2   3
ENDBRANCH   1   2
BRANCH   1  29
ATOM     29  C   UNL A   1      32.740  36.821  31.192  1.00  0.00     0.188 C 
BRANCH  29  30
ATOM     30  C   UNL A   1      32.607  35.803  32.340  1.00  0.00     0.188 C 
BRANCH  30  31
ATOM     31  O   UNL A   1      33.505  34.701  32.261  1.00  0.00    -0.376 OA
BRANCH  31  32
ATOM     32  C   UNL A   1      34.598  34.723  33.169  1.00  0.00     0.202 C 
BRANCH  32  33
ATOM     33  C   UNL A   1      35.245  33.349  33.358  1.00  0.00     0.261 C 
BRANCH  33  34
ATOM     34  O   UNL A   1      36.069  32.926  32.259  1.00  0.00    -0.460 OA
BRANCH  34  35
ATOM     35  C   UNL A   1      36.247  31.595  32.112  1.00  0.00     0.338 C 
ATOM     36  O   UNL A   1      35.417  30.715  32.255  1.00  0.00    -0.246 OA
BRANCH  35  37
ATOM     37  C   UNL A   1      37.599  31.376  31.566  1.00  0.00     0.060 A 
ATOM     38  C   UNL A   1      37.818  31.610  30.204  1.00  0.00     0.016 A 
ATOM     39  C   UNL A   1      38.638  30.945  32.394  1.00  0.00     0.016 A 
ATOM     40  C   UNL A   1      39.078  31.376  29.656  1.00  0.00     0.010 A 
ATOM     41  C   UNL A   1      39.895  30.696  31.840  1.00  0.00     0.010 A 
ATOM     42  C   UNL A   1      40.111  30.881  30.464  1.00  0.00    -0.014 A 
BRANCH  42  43
ATOM     43  C   UNL A   1      41.360  30.390  29.837  1.00  0.00     0.031 A 
ATOM     44  C   UNL A   1      41.383  28.991  29.286  1.00  0.00     0.074 A 
ATOM     45  C   UNL A   1      42.444  31.177  29.735  1.00  0.00     0.049 A 
ATOM     46  N   UNL A   1      42.355  28.347  28.692  1.00  0.00    -0.248 NA
ATOM     47  C   UNL A   1      40.140  28.214  29.423  1.00  0.00     0.031 C 
ATOM     48  C   UNL A   1      42.538  32.554  30.213  1.00  0.00     0.029 A 
ATOM     49  N   UNL A   1      43.680  30.921  29.195  1.00  0.00    -0.354 N 
ATOM     50  C   UNL A   1      41.838  27.098  28.374  1.00  0.00     0.074 A 
ATOM     51  C   UNL A   1      40.481  27.058  28.873  1.00  0.00     0.031 C 
ATOM     52  C   UNL A   1      43.774  33.021  29.955  1.00  0.00     0.029 A 
ATOM     53  C   UNL A   1      44.560  31.969  29.313  1.00  0.00     0.049 A 
ATOM     54  H   UNL A   1      43.914  30.067  28.766  1.00  0.00     0.167 HD
ATOM     55  C   UNL A   1      42.436  26.081  27.711  1.00  0.00     0.037 A 
ATOM     56  C   UNL A   1      45.855  32.056  28.952  1.00  0.00     0.037 A 
ATOM     57  C   UNL A   1      43.790  26.113  27.227  1.00  0.00     0.049 A 
ATOM     58  C   UNL A   1      46.517  30.882  28.275  1.00  0.00     0.074 A 
ATOM     59  C   UNL A   1      44.485  25.130  26.543  1.00  0.00     0.029 A 
ATOM     60  N   UNL A   1      44.658  27.182  27.384  1.00  0.00    -0.354 N 
ATOM     61  N   UNL A   1      46.009  29.720  27.945  1.00  0.00    -0.248 NA
ATOM     62  C   UNL A   1      47.934  31.039  27.915  1.00  0.00     0.031 C 
ATOM     63  C   UNL A   1      45.787  25.591  26.321  1.00  0.00     0.029 A 
ATOM     64  C   UNL A   1      45.888  26.877  26.826  1.00  0.00     0.049 A 
ATOM     65  H   UNL A   1      44.432  28.033  27.826  1.00  0.00     0.167 HD
ATOM     66  C   UNL A   1      47.032  29.020  27.317  1.00  0.00     0.074 A 
ATOM     67  C   UNL A   1      48.184  29.896  27.294  1.00  0.00     0.031 C 
ATOM     68  C   UNL A   1      47.022  27.764  26.807  1.00  0.00     0.037 A 
BRANCH  55  69
ATOM     69  C   UNL A   1      41.628  24.842  27.476  1.00  0.00     0.064 A 
ATOM     70  C   UNL A   1      41.887  23.656  28.179  1.00  0.00     0.173 A 
ATOM     71  C   UNL A   1      40.557  24.849  26.571  1.00  0.00     0.173 A 
ATOM     72  F   UNL A   1      42.912  23.594  29.043  1.00  0.00    -0.203 F 
ATOM     73  C   UNL A   1      41.111  22.519  27.975  1.00  0.00     0.198 A 
ATOM     74  C   UNL A   1      39.767  23.717  26.388  1.00  0.00     0.198 A 
ATOM     75  F   UNL A   1      40.268  25.959  25.873  1.00  0.00    -0.203 F 
ATOM     76  F   UNL A   1      41.397  21.387  28.633  1.00  0.00    -0.200 F 
ATOM     77  C   UNL A   1      40.047  22.553  27.087  1.00  0.00     0.200 A 
ATOM     78  F   UNL A   1      38.734  23.754  25.535  1.00  0.00    -0.200 F 
ATOM     79  F   UNL A   1      39.293  21.461  26.899  1.00  0.00    -0.200 F 
ENDBRANCH  55  69
BRANCH  56  80
ATOM     80  C   UNL A   1      46.628  33.296  29.231  1.00  0.00     0.064 A 
ATOM     81  C   UNL A   1      46.733  34.315  28.273  1.00  0.00     0.173 A 
ATOM     82  C   UNL A   1      47.320  33.462  30.439  1.00  0.00     0.173 A 
ATOM     83  F   UNL A   1      46.113  34.189  27.090  1.00  0.00    -0.203 F 
ATOM     84  C   UNL A   1      47.524  35.439  28.503  1.00  0.00     0.198 A 
ATOM     85  C   UNL A   1      48.087  34.600  30.679  1.00  0.00     0.198 A 
ATOM     86  F   UNL A   1      47.257  32.514  31.385  1.00  0.00    -0.203 F 
ATOM     87  F   UNL A   1      47.656  36.369  27.546  1.00  0.00    -0.200 F 
ATOM     88  C   UNL A   1      48.198  35.582  29.706  1.00  0.00     0.200 A 
ATOM     89  F   UNL A   1      48.731  34.738  31.846  1.00  0.00    -0.200 F 
ATOM     90  F   UNL A   1      48.965  36.659  29.923  1.00  0.00    -0.200 F 
ENDBRANCH  56  80
BRANCH  68  91
ATOM     91  C   UNL A   1      48.283  27.275  26.155  1.00  0.00     0.064 A 
ATOM     92  C   UNL A   1      48.493  27.400  24.775  1.00  0.00     0.173 A 
ATOM     93  C   UNL A   1      49.304  26.698  26.926  1.00  0.00     0.173 A 
ATOM     94  F   UNL A   1      47.542  27.932  23.992  1.00  0.00    -0.203 F 
ATOM     95  C   UNL A   1      49.667  26.938  24.184  1.00  0.00     0.198 A 
ATOM     96  C   UNL A   1      50.489  26.264  26.337  1.00  0.00     0.198 A 
ATOM     97  F   UNL A   1      49.157  26.563  28.253  1.00  0.00    -0.203 F 
ATOM     98  F   UNL A   1      49.825  27.021  22.856  1.00  0.00    -0.200 F 
ATOM     99  C   UNL A   1      50.665  26.376  24.966  1.00  0.00     0.200 A 
ATOM    100  F   UNL A   1      51.458  25.734  27.095  1.00  0.00    -0.200 F 
ATOM    101  F   UNL A   1      51.795  25.934  24.396  1.00  0.00    -0.200 F 
ENDBRANCH  68  91
ENDBRANCH  42  43
ENDBRANCH  35  37
ENDBRANCH  34  35
ENDBRANCH  33  34
ENDBRANCH  32  33
ENDBRANCH  31  32
ENDBRANCH  30  31
ENDBRANCH  29  30
ENDBRANCH   1  29
TORSDOF 22
ENDMDL
MODEL 3
REMARK VINA RESULT:     -10.2      1.099      2.010
REMARK SMILES C[C@H](c1ccccc1)N1C(=O)c2ccc(C(=O)OCCOCCOCCOCCOC(=O)c3ccc(-c4c5nc(c(-c6c(F)c(F)c(F)c(F)c6F)c6ccc([nH]6)c(-c6c(F)c(F)c(F)c(F)c6F)c6nc(c(-c7c(F)c(F)c(F)c(F)c7F)c7ccc4[nH]7)C=C6)C=C5)cc3)cc2C1=O
REMARK SMILES IDX 24 1 23 2 22 3 21 4 20 5 19 6 18 7 16 8 17 9 15 10 9 11
REMARK SMILES IDX 10 12 98 13 11 14 12 15 97 16 99 17 13 18 96 19 14 20 2 21
REMARK SMILES IDX 1 22 3 23 4 24 8 25 5 26 7 27 6 28 25 29 26 30 27 31 28 32
REMARK SMILES IDX 29 33 30 34 31 35 32 36 33 37 34 38 95 39 35 40 94 41 36 42
REMARK SMILES IDX 37 43 38 44 88 45 39 46 93 47 87 48 89 49 40 50 92 51 86 52
REMARK SMILES IDX 85 53 41 55 73 56 53 57 72 58 54 59 57 60 71 61 90 62 55 63
REMARK SMILES IDX 56 64 70 66 91 67 58 68 42 69 43 70 51 71 44 72 45 73 49 74
REMARK SMILES IDX 52 75 46 76 47 77 50 78 48 79 74 80 75 81 83 82 76 83 77 84
REMARK SMILES IDX 81 85 84 86 78 87 79 88 82 89 80 90 59 91 60 92 68 93 61 94
REMARK SMILES IDX 62 95 66 96 69 97 63 98 64 99 67 100 65 101
REMARK H PARENT 89 54 57 65
REMARK Flexibility Score: inf
ROOT
ATOM      1  O   UNL A   1      38.781  23.320  26.520  1.00  0.00    -0.377 OA
ENDROOT
BRANCH   1   2
ATOM      2  C   UNL A   1      37.709  23.652  25.655  1.00  0.00     0.188 C 
BRANCH   2   3
ATOM      3  C   UNL A   1      36.266  23.377  26.115  1.00  0.00     0.188 C 
BRANCH   3   4
ATOM      4  O   UNL A   1      35.912  21.999  26.166  1.00  0.00    -0.376 OA
BRANCH   4   5
ATOM      5  C   UNL A   1      34.708  21.703  26.865  1.00  0.00     0.202 C 
BRANCH   5   6
ATOM      6  C   UNL A   1      33.503  21.525  25.937  1.00  0.00     0.261 C 
BRANCH   6   7
ATOM      7  O   UNL A   1      33.841  20.925  24.675  1.00  0.00    -0.460 OA
BRANCH   7   8
ATOM      8  C   UNL A   1      32.984  21.136  23.652  1.00  0.00     0.338 C 
ATOM      9  O   UNL A   1      32.291  20.322  23.075  1.00  0.00    -0.246 OA
BRANCH   8  10
ATOM     10  C   UNL A   1      32.890  22.596  23.481  1.00  0.00     0.060 A 
ATOM     11  N   UNL A   1      31.268  26.851  23.276  1.00  0.00    -0.267 N 
ATOM     12  C   UNL A   1      32.459  26.646  22.646  1.00  0.00     0.262 C 
ATOM     13  C   UNL A   1      30.657  25.647  23.526  1.00  0.00     0.262 C 
ATOM     14  O   UNL A   1      33.139  27.380  21.957  1.00  0.00    -0.269 OA
ATOM     15  C   UNL A   1      32.810  25.258  22.886  1.00  0.00     0.053 A 
ATOM     16  C   UNL A   1      31.669  24.609  23.317  1.00  0.00     0.054 A 
ATOM     17  O   UNL A   1      29.512  25.412  23.864  1.00  0.00    -0.269 OA
ATOM     18  C   UNL A   1      34.042  24.644  22.824  1.00  0.00     0.015 A 
ATOM     19  C   UNL A   1      31.655  23.249  23.566  1.00  0.00     0.030 A 
ATOM     20  C   UNL A   1      34.082  23.301  23.185  1.00  0.00     0.016 A 
BRANCH  11  21
ATOM     21  C   UNL A   1      30.630  28.146  23.511  1.00  0.00     0.121 C 
ATOM     22  C   UNL A   1      30.632  29.017  22.254  1.00  0.00     0.037 C 
BRANCH  21  23
ATOM     23  C   UNL A   1      31.141  28.935  24.728  1.00  0.00    -0.025 A 
ATOM     24  C   UNL A   1      31.063  30.331  24.868  1.00  0.00     0.006 A 
ATOM     25  C   UNL A   1      31.657  28.216  25.824  1.00  0.00     0.006 A 
ATOM     26  C   UNL A   1      31.450  30.979  26.044  1.00  0.00     0.000 A 
ATOM     27  C   UNL A   1      32.047  28.863  27.003  1.00  0.00     0.000 A 
ATOM     28  C   UNL A   1      31.935  30.244  27.116  1.00  0.00     0.000 A 
ENDBRANCH  21  23
ENDBRANCH  11  21
ENDBRANCH   8  10
ENDBRANCH   7   8
ENDBRANCH   6   7
ENDBRANCH   5   6
ENDBRANCH   4   5
ENDBRANCH   3   4
ENDBRANCH   2   3
ENDBRANCH   1   2
BRANCH   1  29
ATOM     29  C   UNL A   1      39.485  22.101  26.335  1.00  0.00     0.188 C 
BRANCH  29  30
ATOM     30  C   UNL A   1      40.981  21.995  26.688  1.00  0.00     0.188 C 
BRANCH  30  31
ATOM     31  O   UNL A   1      41.811  21.551  25.621  1.00  0.00    -0.376 OA
BRANCH  31  32
ATOM     32  C   UNL A   1      43.145  21.208  25.972  1.00  0.00     0.202 C 
BRANCH  32  33
ATOM     33  C   UNL A   1      44.184  22.152  25.360  1.00  0.00     0.261 C 
BRANCH  33  34
ATOM     34  O   UNL A   1      44.424  23.345  26.125  1.00  0.00    -0.460 OA
BRANCH  34  35
ATOM     35  C   UNL A   1      43.746  24.452  25.749  1.00  0.00     0.338 C 
ATOM     36  O   UNL A   1      43.316  24.719  24.642  1.00  0.00    -0.246 OA
BRANCH  35  37
ATOM     37  C   UNL A   1      43.448  25.233  26.963  1.00  0.00     0.060 A 
ATOM     38  C   UNL A   1      42.305  24.912  27.704  1.00  0.00     0.016 A 
ATOM     39  C   UNL A   1      44.291  26.272  27.365  1.00  0.00     0.016 A 
ATOM     40  C   UNL A   1      41.982  25.659  28.835  1.00  0.00     0.010 A 
ATOM     41  C   UNL A   1      43.957  27.029  28.489  1.00  0.00     0.010 A 
ATOM     42  C   UNL A   1      42.785  26.745  29.210  1.00  0.00    -0.014 A 
BRANCH  42  43
ATOM     43  C   UNL A   1      42.304  27.688  30.245  1.00  0.00     0.031 A 
ATOM     44  C   UNL A   1      43.001  27.709  31.577  1.00  0.00     0.074 A 
ATOM     45  C   UNL A   1      41.284  28.529  30.001  1.00  0.00     0.049 A 
ATOM     46  N   UNL A   1      42.763  28.446  32.630  1.00  0.00    -0.248 NA
ATOM     47  C   UNL A   1      44.122  26.768  31.742  1.00  0.00     0.031 C 
ATOM     48  C   UNL A   1      40.541  28.617  28.746  1.00  0.00     0.029 A 
ATOM     49  N   UNL A   1      40.694  29.469  30.810  1.00  0.00    -0.354 N 
ATOM     50  C   UNL A   1      43.708  28.070  33.575  1.00  0.00     0.074 A 
ATOM     51  C   UNL A   1      44.501  27.012  32.987  1.00  0.00     0.031 C 
ATOM     52  C   UNL A   1      39.584  29.555  28.872  1.00  0.00     0.029 A 
ATOM     53  C   UNL A   1      39.636  30.116  30.221  1.00  0.00     0.049 A 
ATOM     54  H   UNL A   1      41.001  29.660  31.725  1.00  0.00     0.167 HD
ATOM     55  C   UNL A   1      43.909  28.572  34.815  1.00  0.00     0.037 A 
ATOM     56  C   UNL A   1      38.802  31.046  30.725  1.00  0.00     0.037 A 
ATOM     57  C   UNL A   1      43.112  29.613  35.408  1.00  0.00     0.049 A 
ATOM     58  C   UNL A   1      39.006  31.539  32.136  1.00  0.00     0.074 A 
ATOM     59  C   UNL A   1      43.238  30.189  36.660  1.00  0.00     0.029 A 
ATOM     60  N   UNL A   1      42.035  30.229  34.790  1.00  0.00    -0.354 N 
ATOM     61  N   UNL A   1      39.926  31.205  33.007  1.00  0.00    -0.248 NA
ATOM     62  C   UNL A   1      38.055  32.547  32.628  1.00  0.00     0.031 C 
ATOM     63  C   UNL A   1      42.211  31.126  36.816  1.00  0.00     0.029 A 
ATOM     64  C   UNL A   1      41.475  31.166  35.642  1.00  0.00     0.049 A 
ATOM     65  H   UNL A   1      41.716  30.030  33.880  1.00  0.00     0.167 HD
ATOM     66  C   UNL A   1      39.682  31.977  34.136  1.00  0.00     0.074 A 
ATOM     67  C   UNL A   1      38.540  32.813  33.832  1.00  0.00     0.031 C 
ATOM     68  C   UNL A   1      40.341  31.993  35.321  1.00  0.00     0.037 A 
BRANCH  55  69
ATOM     69  C   UNL A   1      45.033  27.994  35.620  1.00  0.00     0.064 A 
ATOM     70  C   UNL A   1      44.853  26.847  36.407  1.00  0.00     0.173 A 
ATOM     71  C   UNL A   1      46.312  28.566  35.572  1.00  0.00     0.173 A 
ATOM     72  F   UNL A   1      43.644  26.274  36.499  1.00  0.00    -0.203 F 
ATOM     73  C   UNL A   1      45.912  26.300  37.127  1.00  0.00     0.198 A 
ATOM     74  C   UNL A   1      47.374  28.003  36.274  1.00  0.00     0.198 A 
ATOM     75  F   UNL A   1      46.534  29.665  34.834  1.00  0.00    -0.203 F 
ATOM     76  F   UNL A   1      45.710  25.224  37.898  1.00  0.00    -0.200 F 
ATOM     77  C   UNL A   1      47.172  26.874  37.053  1.00  0.00     0.200 A 
ATOM     78  F   UNL A   1      48.594  28.553  36.194  1.00  0.00    -0.200 F 
ATOM     79  F   UNL A   1      48.194  26.340  37.738  1.00  0.00    -0.200 F 
ENDBRANCH  55  69
BRANCH  56  80
ATOM     80  C   UNL A   1      37.681  31.572  29.901  1.00  0.00     0.064 A 
ATOM     81  C   UNL A   1      37.681  32.895  29.437  1.00  0.00     0.173 A 
ATOM     82  C   UNL A   1      36.564  30.777  29.606  1.00  0.00     0.173 A 
ATOM     83  F   UNL A   1      38.715  33.703  29.718  1.00  0.00    -0.203 F 
ATOM     84  C   UNL A   1      36.594  33.411  28.734  1.00  0.00     0.198 A 
ATOM     85  C   UNL A   1      35.490  31.286  28.879  1.00  0.00     0.198 A 
ATOM     86  F   UNL A   1      36.511  29.507  30.031  1.00  0.00    -0.203 F 
ATOM     87  F   UNL A   1      36.594  34.697  28.355  1.00  0.00    -0.200 F 
ATOM     88  C   UNL A   1      35.501  32.606  28.453  1.00  0.00     0.200 A 
ATOM     89  F   UNL A   1      34.439  30.503  28.603  1.00  0.00    -0.200 F 
ATOM     90  F   UNL A   1      34.453  33.105  27.785  1.00  0.00    -0.200 F 
ENDBRANCH  56  80
BRANCH  68  91
ATOM     91  C   UNL A   1      39.863  32.963  36.362  1.00  0.00     0.064 A 
ATOM     92  C   UNL A   1      38.866  32.617  37.285  1.00  0.00     0.173 A 
ATOM     93  C   UNL A   1      40.428  34.245  36.453  1.00  0.00     0.173 A 
ATOM     94  F   UNL A   1      38.285  31.409  37.231  1.00  0.00    -0.203 F 
ATOM     95  C   UNL A   1      38.430  33.530  38.243  1.00  0.00     0.198 A 
ATOM     96  C   UNL A   1      40.011  35.143  37.431  1.00  0.00     0.198 A 
ATOM     97  F   UNL A   1      41.391  34.622  35.599  1.00  0.00    -0.203 F 
ATOM     98  F   UNL A   1      37.440  33.196  39.082  1.00  0.00    -0.200 F 
ATOM     99  C   UNL A   1      39.007  34.789  38.318  1.00  0.00     0.200 A 
ATOM    100  F   UNL A   1      40.577  36.355  37.511  1.00  0.00    -0.200 F 
ATOM    101  F   UNL A   1      38.586  35.665  39.242  1.00  0.00    -0.200 F 
ENDBRANCH  68  91
ENDBRANCH  42  43
ENDBRANCH  35  37
ENDBRANCH  34  35
ENDBRANCH  33  34
ENDBRANCH  32  33
ENDBRANCH  31  32
ENDBRANCH  30  31
ENDBRANCH  29  30
ENDBRANCH   1  29
TORSDOF 22
ENDMDL
