MODEL 1
REMARK VINA RESULT:     -10.2      0.000      0.000
REMARK SMILES C[C@H](NC(=O)OCc1ccccc1)C(=O)NCC(=O)N1CCC[C@H]1C(=O)OCCOCCOCCOCCOC(=O)c1ccc(-c2c3nc(c(-c4c(F)c(F)c(F)c(F)c4F)c4ccc([nH]4)c(-c4c(F)c(F)c(F)c(F)c4F)c4nc(c(-c5c(F)c(F)c(F)c(F)c5F)c5ccc2[nH]5)C=C4)C=C3)cc1
REMARK SMILES IDX 30 1 29 2 28 3 27 4 25 5 26 6 24 7 20 8 21 9 22 10 23 11
REMARK SMILES IDX 18 12 19 13 17 14 16 15 14 16 15 17 2 19 1 20 3 21 4 22 5 24
REMARK SMILES IDX 6 25 7 26 8 27 9 28 13 29 10 30 12 31 11 32 31 33 32 34
REMARK SMILES IDX 33 35 34 36 35 37 36 38 37 39 38 40 39 41 40 42 41 43 42 44
REMARK SMILES IDX 43 45 104 46 44 47 103 48 45 49 46 50 47 51 97 52 48 53
REMARK SMILES IDX 102 54 96 55 98 56 49 57 101 58 95 59 94 60 50 62 82 63
REMARK SMILES IDX 62 64 81 65 63 66 66 67 80 68 99 69 64 70 65 71 79 73 100 74
REMARK SMILES IDX 67 75 51 76 52 77 60 78 53 79 54 80 58 81 61 82 55 83 56 84
REMARK SMILES IDX 59 85 57 86 83 87 84 88 92 89 85 90 86 91 90 92 93 93 87 94
REMARK SMILES IDX 88 95 91 96 89 97 68 98 69 99 77 100 70 101 71 102 75 103
REMARK SMILES IDX 78 104 72 105 73 106 76 107 74 108
REMARK H PARENT 16 18 3 23 98 61 66 72
REMARK Flexibility Score: inf
ROOT
ATOM      1  O   UNL A   1      33.579  28.527  25.582  1.00  0.00    -0.376 OA
ENDROOT
BRANCH   1   2
ATOM      2  C   UNL A   1      33.756  29.153  24.330  1.00  0.00     0.202 C 
BRANCH   2   3
ATOM      3  C   UNL A   1      33.981  28.244  23.114  1.00  0.00     0.261 C 
BRANCH   3   4
ATOM      4  O   UNL A   1      32.937  28.244  22.138  1.00  0.00    -0.462 OA
BRANCH   4   5
ATOM      5  C   UNL A   1      32.045  27.225  22.189  1.00  0.00     0.328 C 
ATOM      6  O   UNL A   1      32.375  26.044  22.184  1.00  0.00    -0.250 OA
BRANCH   5   7
ATOM      7  C   UNL A   1      30.626  27.743  22.517  1.00  0.00     0.195 C 
ATOM      8  N   UNL A   1      30.198  27.765  23.926  1.00  0.00    -0.327 N 
ATOM      9  C   UNL A   1      30.318  29.113  24.424  1.00  0.00     0.120 C 
ATOM     10  C   UNL A   1      30.070  30.006  23.221  1.00  0.00     0.024 C 
ATOM     11  C   UNL A   1      30.439  29.175  22.005  1.00  0.00     0.039 C 
BRANCH   8  12
ATOM     12  C   UNL A   1      29.813  26.623  24.600  1.00  0.00     0.242 C 
ATOM     13  O   UNL A   1      28.674  26.163  24.480  1.00  0.00    -0.273 OA
BRANCH  12  14
ATOM     14  C   UNL A   1      30.667  25.993  25.715  1.00  0.00     0.216 C 
BRANCH  14  15
ATOM     15  N   UNL A   1      30.144  24.938  26.546  1.00  0.00    -0.345 N 
ATOM     16  C   UNL A   1      30.424  23.609  26.578  1.00  0.00     0.242 C 
ATOM     17  O   UNL A   1      29.911  22.965  27.501  1.00  0.00    -0.273 OA
ATOM     18  H   UNL A   1      29.468  25.230  27.200  1.00  0.00     0.164 HD
BRANCH  16  19
ATOM     19  C   UNL A   1      31.408  22.915  25.603  1.00  0.00     0.171 C 
ATOM     20  C   UNL A   1      31.057  23.253  24.163  1.00  0.00     0.042 C 
BRANCH  19  21
ATOM     21  N   UNL A   1      31.673  21.510  25.916  1.00  0.00    -0.310 N 
ATOM     22  C   UNL A   1      32.495  20.585  25.358  1.00  0.00     0.408 C 
ATOM     23  H   UNL A   1      31.154  21.169  26.680  1.00  0.00     0.167 HD
ATOM     24  O   UNL A   1      32.363  19.394  25.638  1.00  0.00    -0.225 OA
BRANCH  22  25
ATOM     25  O   UNL A   1      33.393  21.093  24.492  1.00  0.00    -0.445 OA
BRANCH  25  26
ATOM     26  C   UNL A   1      34.740  20.622  24.635  1.00  0.00     0.270 C 
BRANCH  26  27
ATOM     27  C   UNL A   1      35.696  21.714  25.048  1.00  0.00    -0.011 A 
ATOM     28  C   UNL A   1      35.266  23.042  25.175  1.00  0.00     0.007 A 
ATOM     29  C   UNL A   1      37.039  21.407  25.308  1.00  0.00     0.007 A 
ATOM     30  C   UNL A   1      36.160  24.039  25.569  1.00  0.00     0.000 A 
ATOM     31  C   UNL A   1      37.931  22.404  25.701  1.00  0.00     0.000 A 
ATOM     32  C   UNL A   1      37.491  23.719  25.833  1.00  0.00     0.000 A 
ENDBRANCH  26  27
ENDBRANCH  25  26
ENDBRANCH  22  25
ENDBRANCH  19  21
ENDBRANCH  16  19
ENDBRANCH  14  15
ENDBRANCH  12  14
ENDBRANCH   8  12
ENDBRANCH   5   7
ENDBRANCH   4   5
ENDBRANCH   3   4
ENDBRANCH   2   3
ENDBRANCH   1   2
BRANCH   1  33
ATOM     33  C   UNL A   1      33.458  29.277  26.777  1.00  0.00     0.188 C 
BRANCH  33  34
ATOM     34  C   UNL A   1      34.806  29.623  27.461  1.00  0.00     0.188 C 
BRANCH  34  35
ATOM     35  O   UNL A   1      35.285  30.950  27.643  1.00  0.00    -0.377 OA
BRANCH  35  36
ATOM     36  C   UNL A   1      34.453  31.861  28.340  1.00  0.00     0.188 C 
BRANCH  36  37
ATOM     37  C   UNL A   1      35.126  33.238  28.505  1.00  0.00     0.188 C 
BRANCH  37  38
ATOM     38  O   UNL A   1      34.456  34.284  27.820  1.00  0.00    -0.376 OA
BRANCH  38  39
ATOM     39  C   UNL A   1      34.228  35.527  28.467  1.00  0.00     0.202 C 
BRANCH  39  40
ATOM     40  C   UNL A   1      32.954  35.924  29.252  1.00  0.00     0.261 C 
BRANCH  40  41
ATOM     41  O   UNL A   1      32.538  35.134  30.372  1.00  0.00    -0.460 OA
BRANCH  41  42
ATOM     42  C   UNL A   1      32.706  35.636  31.609  1.00  0.00     0.338 C 
ATOM     43  O   UNL A   1      31.966  36.391  32.208  1.00  0.00    -0.246 OA
BRANCH  42  44
ATOM     44  C   UNL A   1      33.872  34.939  32.204  1.00  0.00     0.060 A 
ATOM     45  C   UNL A   1      35.131  35.553  32.149  1.00  0.00     0.016 A 
ATOM     46  C   UNL A   1      33.720  33.699  32.829  1.00  0.00     0.016 A 
ATOM     47  C   UNL A   1      36.249  34.912  32.686  1.00  0.00     0.010 A 
ATOM     48  C   UNL A   1      34.845  33.042  33.338  1.00  0.00     0.010 A 
ATOM     49  C   UNL A   1      36.119  33.630  33.234  1.00  0.00    -0.014 A 
BRANCH  49  50
ATOM     50  C   UNL A   1      37.335  32.819  33.484  1.00  0.00     0.031 A 
ATOM     51  C   UNL A   1      38.102  33.074  34.754  1.00  0.00     0.074 A 
ATOM     52  C   UNL A   1      37.730  31.852  32.637  1.00  0.00     0.049 A 
ATOM     53  N   UNL A   1      39.223  32.546  35.174  1.00  0.00    -0.248 NA
ATOM     54  C   UNL A   1      37.521  34.064  35.678  1.00  0.00     0.031 C 
ATOM     55  C   UNL A   1      37.037  31.465  31.410  1.00  0.00     0.029 A 
ATOM     56  N   UNL A   1      38.822  31.021  32.685  1.00  0.00    -0.354 N 
ATOM     57  C   UNL A   1      39.476  33.133  36.406  1.00  0.00     0.074 A 
ATOM     58  C   UNL A   1      38.419  34.090  36.650  1.00  0.00     0.031 C 
ATOM     59  C   UNL A   1      37.729  30.477  30.814  1.00  0.00     0.029 A 
ATOM     60  C   UNL A   1      38.931  30.191  31.596  1.00  0.00     0.049 A 
ATOM     61  H   UNL A   1      39.466  31.019  33.430  1.00  0.00     0.167 HD
ATOM     62  C   UNL A   1      40.492  32.887  37.267  1.00  0.00     0.037 A 
ATOM     63  C   UNL A   1      39.908  29.323  31.263  1.00  0.00     0.037 A 
ATOM     64  C   UNL A   1      41.548  31.944  37.020  1.00  0.00     0.049 A 
ATOM     65  C   UNL A   1      41.092  29.157  32.186  1.00  0.00     0.074 A 
ATOM     66  C   UNL A   1      42.636  31.636  37.818  1.00  0.00     0.029 A 
ATOM     67  N   UNL A   1      41.650  31.156  35.882  1.00  0.00    -0.354 N 
ATOM     68  N   UNL A   1      41.324  29.710  33.353  1.00  0.00    -0.248 NA
ATOM     69  C   UNL A   1      42.153  28.239  31.743  1.00  0.00     0.031 C 
ATOM     70  C   UNL A   1      43.424  30.702  37.140  1.00  0.00     0.029 A 
ATOM     71  C   UNL A   1      42.794  30.377  35.950  1.00  0.00     0.049 A 
ATOM     72  H   UNL A   1      41.006  31.152  35.138  1.00  0.00     0.167 HD
ATOM     73  C   UNL A   1      42.527  29.174  33.799  1.00  0.00     0.074 A 
ATOM     74  C   UNL A   1      42.970  28.242  32.786  1.00  0.00     0.031 C 
ATOM     75  C   UNL A   1      43.205  29.430  34.946  1.00  0.00     0.037 A 
BRANCH  62  76
ATOM     76  C   UNL A   1      40.518  33.661  38.553  1.00  0.00     0.064 A 
ATOM     77  C   UNL A   1      39.738  33.279  39.656  1.00  0.00     0.173 A 
ATOM     78  C   UNL A   1      41.365  34.769  38.700  1.00  0.00     0.173 A 
ATOM     79  F   UNL A   1      38.899  32.237  39.562  1.00  0.00    -0.203 F 
ATOM     80  C   UNL A   1      39.795  33.989  40.852  1.00  0.00     0.198 A 
ATOM     81  C   UNL A   1      41.443  35.456  39.909  1.00  0.00     0.198 A 
ATOM     82  F   UNL A   1      42.133  35.175  37.678  1.00  0.00    -0.203 F 
ATOM     83  F   UNL A   1      39.011  33.631  41.879  1.00  0.00    -0.200 F 
ATOM     84  C   UNL A   1      40.654  35.069  40.982  1.00  0.00     0.200 A 
ATOM     85  F   UNL A   1      42.286  36.491  40.037  1.00  0.00    -0.200 F 
ATOM     86  F   UNL A   1      40.720  35.741  42.140  1.00  0.00    -0.200 F 
ENDBRANCH  62  76
BRANCH  63  87
ATOM     87  C   UNL A   1      39.840  28.553  29.989  1.00  0.00     0.064 A 
ATOM     88  C   UNL A   1      39.300  27.259  29.953  1.00  0.00     0.173 A 
ATOM     89  C   UNL A   1      40.383  29.062  28.800  1.00  0.00     0.173 A 
ATOM     90  F   UNL A   1      38.793  26.714  31.070  1.00  0.00    -0.203 F 
ATOM     91  C   UNL A   1      39.345  26.489  28.793  1.00  0.00     0.198 A 
ATOM     92  C   UNL A   1      40.392  28.306  27.629  1.00  0.00     0.198 A 
ATOM     93  F   UNL A   1      40.917  30.291  28.775  1.00  0.00    -0.203 F 
ATOM     94  F   UNL A   1      38.893  25.228  28.810  1.00  0.00    -0.200 F 
ATOM     95  C   UNL A   1      39.889  27.014  27.630  1.00  0.00     0.200 A 
ATOM     96  F   UNL A   1      40.907  28.822  26.505  1.00  0.00    -0.200 F 
ATOM     97  F   UNL A   1      39.941  26.270  26.517  1.00  0.00    -0.200 F 
ENDBRANCH  63  87
BRANCH  75  98
ATOM     98  C   UNL A   1      44.462  28.646  35.202  1.00  0.00     0.064 A 
ATOM     99  C   UNL A   1      45.725  29.116  34.811  1.00  0.00     0.173 A 
ATOM    100  C   UNL A   1      44.403  27.422  35.887  1.00  0.00     0.173 A 
ATOM    101  F   UNL A   1      45.837  30.274  34.143  1.00  0.00    -0.203 F 
ATOM    102  C   UNL A   1      46.876  28.374  35.066  1.00  0.00     0.198 A 
ATOM    103  C   UNL A   1      45.559  26.702  36.174  1.00  0.00     0.198 A 
ATOM    104  F   UNL A   1      43.222  26.930  36.293  1.00  0.00    -0.203 F 
ATOM    105  F   UNL A   1      48.065  28.815  34.632  1.00  0.00    -0.200 F 
ATOM    106  C   UNL A   1      46.793  27.172  35.755  1.00  0.00     0.200 A 
ATOM    107  F   UNL A   1      45.477  25.551  36.857  1.00  0.00    -0.200 F 
ATOM    108  F   UNL A   1      47.902  26.465  36.008  1.00  0.00    -0.200 F 
ENDBRANCH  75  98
ENDBRANCH  49  50
ENDBRANCH  42  44
ENDBRANCH  41  42
ENDBRANCH  40  41
ENDBRANCH  39  40
ENDBRANCH  38  39
ENDBRANCH  37  38
ENDBRANCH  36  37
ENDBRANCH  35  36
ENDBRANCH  34  35
ENDBRANCH  33  34
ENDBRANCH   1  33
TORSDOF 28
ENDMDL
MODEL 2
REMARK VINA RESULT:      -9.9      1.414      2.773
REMARK SMILES C[C@H](NC(=O)OCc1ccccc1)C(=O)NCC(=O)N1CCC[C@H]1C(=O)OCCOCCOCCOCCOC(=O)c1ccc(-c2c3nc(c(-c4c(F)c(F)c(F)c(F)c4F)c4ccc([nH]4)c(-c4c(F)c(F)c(F)c(F)c4F)c4nc(c(-c5c(F)c(F)c(F)c(F)c5F)c5ccc2[nH]5)C=C4)C=C3)cc1
REMARK SMILES IDX 30 1 29 2 28 3 27 4 25 5 26 6 24 7 20 8 21 9 22 10 23 11
REMARK SMILES IDX 18 12 19 13 17 14 16 15 14 16 15 17 2 19 1 20 3 21 4 22 5 24
REMARK SMILES IDX 6 25 7 26 8 27 9 28 13 29 10 30 12 31 11 32 31 33 32 34
REMARK SMILES IDX 33 35 34 36 35 37 36 38 37 39 38 40 39 41 40 42 41 43 42 44
REMARK SMILES IDX 43 45 104 46 44 47 103 48 45 49 46 50 47 51 97 52 48 53
REMARK SMILES IDX 102 54 96 55 98 56 49 57 101 58 95 59 94 60 50 62 82 63
REMARK SMILES IDX 62 64 81 65 63 66 66 67 80 68 99 69 64 70 65 71 79 73 100 74
REMARK SMILES IDX 67 75 51 76 52 77 60 78 53 79 54 80 58 81 61 82 55 83 56 84
REMARK SMILES IDX 59 85 57 86 83 87 84 88 92 89 85 90 86 91 90 92 93 93 87 94
REMARK SMILES IDX 88 95 91 96 89 97 68 98 69 99 77 100 70 101 71 102 75 103
REMARK SMILES IDX 78 104 72 105 73 106 76 107 74 108
REMARK H PARENT 16 18 3 23 98 61 66 72
REMARK Flexibility Score: inf
ROOT
ATOM      1  O   UNL A   1      33.656  28.435  24.761  1.00  0.00    -0.376 OA
ENDROOT
BRANCH   1   2
ATOM      2  C   UNL A   1      34.031  28.790  23.448  1.00  0.00     0.202 C 
BRANCH   2   3
ATOM      3  C   UNL A   1      33.393  28.002  22.296  1.00  0.00     0.261 C 
BRANCH   3   4
ATOM      4  O   UNL A   1      32.142  27.377  22.590  1.00  0.00    -0.462 OA
BRANCH   4   5
ATOM      5  C   UNL A   1      31.905  26.172  22.017  1.00  0.00     0.328 C 
ATOM      6  O   UNL A   1      32.018  25.967  20.814  1.00  0.00    -0.250 OA
BRANCH   5   7
ATOM      7  C   UNL A   1      31.742  25.069  23.088  1.00  0.00     0.195 C 
ATOM      8  N   UNL A   1      32.556  25.158  24.313  1.00  0.00    -0.327 N 
ATOM      9  C   UNL A   1      31.735  25.684  25.375  1.00  0.00     0.120 C 
ATOM     10  C   UNL A   1      30.327  25.209  25.064  1.00  0.00     0.024 C 
ATOM     11  C   UNL A   1      30.288  24.983  23.562  1.00  0.00     0.039 C 
BRANCH   8  12
ATOM     12  C   UNL A   1      33.895  24.826  24.337  1.00  0.00     0.242 C 
ATOM     13  O   UNL A   1      34.506  24.555  23.298  1.00  0.00    -0.273 OA
BRANCH  12  14
ATOM     14  C   UNL A   1      34.651  24.530  25.645  1.00  0.00     0.216 C 
BRANCH  14  15
ATOM     15  N   UNL A   1      36.021  24.082  25.627  1.00  0.00    -0.345 N 
ATOM     16  C   UNL A   1      36.550  22.836  25.735  1.00  0.00     0.242 C 
ATOM     17  O   UNL A   1      37.769  22.742  25.548  1.00  0.00    -0.273 OA
ATOM     18  H   UNL A   1      36.685  24.801  25.520  1.00  0.00     0.164 HD
BRANCH  16  19
ATOM     19  C   UNL A   1      35.703  21.560  25.972  1.00  0.00     0.171 C 
ATOM     20  C   UNL A   1      36.133  20.452  25.023  1.00  0.00     0.042 C 
BRANCH  19  21
ATOM     21  N   UNL A   1      34.267  21.809  26.106  1.00  0.00    -0.310 N 
ATOM     22  C   UNL A   1      33.209  21.528  25.303  1.00  0.00     0.408 C 
ATOM     23  H   UNL A   1      34.020  22.270  26.939  1.00  0.00     0.167 HD
ATOM     24  O   UNL A   1      32.118  22.060  25.513  1.00  0.00    -0.225 OA
BRANCH  22  25
ATOM     25  O   UNL A   1      33.487  20.680  24.295  1.00  0.00    -0.445 OA
BRANCH  25  26
ATOM     26  C   UNL A   1      32.469  19.719  23.984  1.00  0.00     0.270 C 
BRANCH  26  27
ATOM     27  C   UNL A   1      32.897  18.303  24.280  1.00  0.00    -0.011 A 
ATOM     28  C   UNL A   1      33.671  17.575  23.366  1.00  0.00     0.007 A 
ATOM     29  C   UNL A   1      32.516  17.694  25.484  1.00  0.00     0.007 A 
ATOM     30  C   UNL A   1      34.068  16.270  23.660  1.00  0.00     0.000 A 
ATOM     31  C   UNL A   1      32.913  16.390  25.776  1.00  0.00     0.000 A 
ATOM     32  C   UNL A   1      33.691  15.679  24.865  1.00  0.00     0.000 A 
ENDBRANCH  26  27
ENDBRANCH  25  26
ENDBRANCH  22  25
ENDBRANCH  19  21
ENDBRANCH  16  19
ENDBRANCH  14  15
ENDBRANCH  12  14
ENDBRANCH   8  12
ENDBRANCH   5   7
ENDBRANCH   4   5
ENDBRANCH   3   4
ENDBRANCH   2   3
ENDBRANCH   1   2
BRANCH   1  33
ATOM     33  C   UNL A   1      33.269  29.411  25.712  1.00  0.00     0.188 C 
BRANCH  33  34
ATOM     34  C   UNL A   1      34.229  29.550  26.921  1.00  0.00     0.188 C 
BRANCH  34  35
ATOM     35  O   UNL A   1      34.780  30.788  27.357  1.00  0.00    -0.377 OA
BRANCH  35  36
ATOM     36  C   UNL A   1      33.923  31.689  28.034  1.00  0.00     0.188 C 
BRANCH  36  37
ATOM     37  C   UNL A   1      34.673  32.954  28.496  1.00  0.00     0.188 C 
BRANCH  37  38
ATOM     38  O   UNL A   1      34.301  34.126  27.791  1.00  0.00    -0.376 OA
BRANCH  38  39
ATOM     39  C   UNL A   1      34.260  35.378  28.460  1.00  0.00     0.202 C 
BRANCH  39  40
ATOM     40  C   UNL A   1      33.074  35.928  29.289  1.00  0.00     0.261 C 
BRANCH  40  41
ATOM     41  O   UNL A   1      32.543  35.151  30.368  1.00  0.00    -0.460 OA
BRANCH  41  42
ATOM     42  C   UNL A   1      32.674  35.621  31.623  1.00  0.00     0.338 C 
ATOM     43  O   UNL A   1      31.905  36.343  32.227  1.00  0.00    -0.246 OA
BRANCH  42  44
ATOM     44  C   UNL A   1      33.843  34.933  32.222  1.00  0.00     0.060 A 
ATOM     45  C   UNL A   1      35.097  35.557  32.173  1.00  0.00     0.016 A 
ATOM     46  C   UNL A   1      33.698  33.692  32.846  1.00  0.00     0.016 A 
ATOM     47  C   UNL A   1      36.218  34.925  32.715  1.00  0.00     0.010 A 
ATOM     48  C   UNL A   1      34.826  33.044  33.359  1.00  0.00     0.010 A 
ATOM     49  C   UNL A   1      36.096  33.642  33.262  1.00  0.00    -0.014 A 
BRANCH  49  50
ATOM     50  C   UNL A   1      37.318  32.840  33.517  1.00  0.00     0.031 A 
ATOM     51  C   UNL A   1      38.071  33.094  34.795  1.00  0.00     0.074 A 
ATOM     52  C   UNL A   1      37.728  31.883  32.667  1.00  0.00     0.049 A 
ATOM     53  N   UNL A   1      39.193  32.573  35.221  1.00  0.00    -0.248 NA
ATOM     54  C   UNL A   1      37.473  34.073  35.720  1.00  0.00     0.031 C 
ATOM     55  C   UNL A   1      37.050  31.498  31.431  1.00  0.00     0.029 A 
ATOM     56  N   UNL A   1      38.828  31.062  32.719  1.00  0.00    -0.354 N 
ATOM     57  C   UNL A   1      39.430  33.155  36.460  1.00  0.00     0.074 A 
ATOM     58  C   UNL A   1      38.362  34.100  36.701  1.00  0.00     0.031 C 
ATOM     59  C   UNL A   1      37.756  30.521  30.834  1.00  0.00     0.029 A 
ATOM     60  C   UNL A   1      38.954  30.240  31.625  1.00  0.00     0.049 A 
ATOM     61  H   UNL A   1      39.465  31.061  33.469  1.00  0.00     0.167 HD
ATOM     62  C   UNL A   1      40.440  32.912  37.328  1.00  0.00     0.037 A 
ATOM     63  C   UNL A   1      39.942  29.384  31.294  1.00  0.00     0.037 A 
ATOM     64  C   UNL A   1      41.508  31.980  37.083  1.00  0.00     0.049 A 
ATOM     65  C   UNL A   1      41.120  29.222  32.227  1.00  0.00     0.074 A 
ATOM     66  C   UNL A   1      42.591  31.677  37.889  1.00  0.00     0.029 A 
ATOM     67  N   UNL A   1      41.627  31.202  35.941  1.00  0.00    -0.354 N 
ATOM     68  N   UNL A   1      41.336  29.769  33.400  1.00  0.00    -0.248 NA
ATOM     69  C   UNL A   1      42.193  28.318  31.787  1.00  0.00     0.031 C 
ATOM     70  C   UNL A   1      43.394  30.755  37.212  1.00  0.00     0.029 A 
ATOM     71  C   UNL A   1      42.777  30.433  36.014  1.00  0.00     0.049 A 
ATOM     72  H   UNL A   1      40.990  31.196  35.192  1.00  0.00     0.167 HD
ATOM     73  C   UNL A   1      42.540  29.242  33.853  1.00  0.00     0.074 A 
ATOM     74  C   UNL A   1      43.001  28.321  32.838  1.00  0.00     0.031 C 
ATOM     75  C   UNL A   1      43.206  29.497  35.007  1.00  0.00     0.037 A 
BRANCH  62  76
ATOM     76  C   UNL A   1      40.448  33.677  38.619  1.00  0.00     0.064 A 
ATOM     77  C   UNL A   1      41.259  34.809  38.797  1.00  0.00     0.173 A 
ATOM     78  C   UNL A   1      39.600  33.304  39.673  1.00  0.00     0.173 A 
ATOM     79  F   UNL A   1      42.098  35.198  37.826  1.00  0.00    -0.203 F 
ATOM     80  C   UNL A   1      41.232  35.528  39.989  1.00  0.00     0.198 A 
ATOM     81  C   UNL A   1      39.554  34.045  40.851  1.00  0.00     0.198 A 
ATOM     82  F   UNL A   1      38.803  32.232  39.555  1.00  0.00    -0.203 F 
ATOM     83  F   UNL A   1      42.045  36.581  40.152  1.00  0.00    -0.200 F 
ATOM     84  C   UNL A   1      40.373  35.152  41.010  1.00  0.00     0.200 A 
ATOM     85  F   UNL A   1      38.711  33.689  41.831  1.00  0.00    -0.200 F 
ATOM     86  F   UNL A   1      40.337  35.855  42.152  1.00  0.00    -0.200 F 
ENDBRANCH  62  76
BRANCH  63  87
ATOM     87  C   UNL A   1      39.893  28.622  30.015  1.00  0.00     0.064 A 
ATOM     88  C   UNL A   1      39.349  27.330  29.963  1.00  0.00     0.173 A 
ATOM     89  C   UNL A   1      40.456  29.137  28.838  1.00  0.00     0.173 A 
ATOM     90  F   UNL A   1      38.822  26.780  31.067  1.00  0.00    -0.203 F 
ATOM     91  C   UNL A   1      39.410  26.567  28.798  1.00  0.00     0.198 A 
ATOM     92  C   UNL A   1      40.482  28.388  27.663  1.00  0.00     0.198 A 
ATOM     93  F   UNL A   1      40.994  30.365  28.829  1.00  0.00    -0.203 F 
ATOM     94  F   UNL A   1      38.955  25.307  28.800  1.00  0.00    -0.200 F 
ATOM     95  C   UNL A   1      39.974  27.098  27.648  1.00  0.00     0.200 A 
ATOM     96  F   UNL A   1      41.016  28.910  26.550  1.00  0.00    -0.200 F 
ATOM     97  F   UNL A   1      40.043  26.361  26.531  1.00  0.00    -0.200 F 
ENDBRANCH  63  87
BRANCH  75  98
ATOM     98  C   UNL A   1      44.468  28.723  35.268  1.00  0.00     0.064 A 
ATOM     99  C   UNL A   1      45.728  29.200  34.881  1.00  0.00     0.173 A 
ATOM    100  C   UNL A   1      44.415  27.499  35.956  1.00  0.00     0.173 A 
ATOM    101  F   UNL A   1      45.834  30.358  34.210  1.00  0.00    -0.203 F 
ATOM    102  C   UNL A   1      46.884  28.468  35.141  1.00  0.00     0.198 A 
ATOM    103  C   UNL A   1      45.576  26.788  36.249  1.00  0.00     0.198 A 
ATOM    104  F   UNL A   1      43.238  27.000  36.360  1.00  0.00    -0.203 F 
ATOM    105  F   UNL A   1      48.071  28.917  34.710  1.00  0.00    -0.200 F 
ATOM    106  C   UNL A   1      46.808  27.267  35.832  1.00  0.00     0.200 A 
ATOM    107  F   UNL A   1      45.501  25.639  36.933  1.00  0.00    -0.200 F 
ATOM    108  F   UNL A   1      47.922  26.569  36.090  1.00  0.00    -0.200 F 
ENDBRANCH  75  98
ENDBRANCH  49  50
ENDBRANCH  42  44
ENDBRANCH  41  42
ENDBRANCH  40  41
ENDBRANCH  39  40
ENDBRANCH  38  39
ENDBRANCH  37  38
ENDBRANCH  36  37
ENDBRANCH  35  36
ENDBRANCH  34  35
ENDBRANCH  33  34
ENDBRANCH   1  33
TORSDOF 28
ENDMDL
MODEL 3
REMARK VINA RESULT:      -9.8      1.916      2.974
REMARK SMILES C[C@H](NC(=O)OCc1ccccc1)C(=O)NCC(=O)N1CCC[C@H]1C(=O)OCCOCCOCCOCCOC(=O)c1ccc(-c2c3nc(c(-c4c(F)c(F)c(F)c(F)c4F)c4ccc([nH]4)c(-c4c(F)c(F)c(F)c(F)c4F)c4nc(c(-c5c(F)c(F)c(F)c(F)c5F)c5ccc2[nH]5)C=C4)C=C3)cc1
REMARK SMILES IDX 30 1 29 2 28 3 27 4 25 5 26 6 24 7 20 8 21 9 22 10 23 11
REMARK SMILES IDX 18 12 19 13 17 14 16 15 14 16 15 17 2 19 1 20 3 21 4 22 5 24
REMARK SMILES IDX 6 25 7 26 8 27 9 28 13 29 10 30 12 31 11 32 31 33 32 34
REMARK SMILES IDX 33 35 34 36 35 37 36 38 37 39 38 40 39 41 40 42 41 43 42 44
REMARK SMILES IDX 43 45 104 46 44 47 103 48 45 49 46 50 47 51 97 52 48 53
REMARK SMILES IDX 102 54 96 55 98 56 49 57 101 58 95 59 94 60 50 62 82 63
REMARK SMILES IDX 62 64 81 65 63 66 66 67 80 68 99 69 64 70 65 71 79 73 100 74
REMARK SMILES IDX 67 75 51 76 52 77 60 78 53 79 54 80 58 81 61 82 55 83 56 84
REMARK SMILES IDX 59 85 57 86 83 87 84 88 92 89 85 90 86 91 90 92 93 93 87 94
REMARK SMILES IDX 88 95 91 96 89 97 68 98 69 99 77 100 70 101 71 102 75 103
REMARK SMILES IDX 78 104 72 105 73 106 76 107 74 108
REMARK H PARENT 16 18 3 23 98 61 66 72
REMARK Flexibility Score: inf
ROOT
ATOM      1  O   UNL A   1      33.772  26.698  23.122  1.00  0.00    -0.376 OA
ENDROOT
BRANCH   1   2
ATOM      2  C   UNL A   1      33.973  28.058  22.806  1.00  0.00     0.202 C 
BRANCH   2   3
ATOM      3  C   UNL A   1      32.768  28.998  22.939  1.00  0.00     0.261 C 
BRANCH   3   4
ATOM      4  O   UNL A   1      31.738  28.566  23.831  1.00  0.00    -0.462 OA
BRANCH   4   5
ATOM      5  C   UNL A   1      30.591  29.284  23.845  1.00  0.00     0.328 C 
ATOM      6  O   UNL A   1      30.440  30.294  24.524  1.00  0.00    -0.250 OA
BRANCH   5   7
ATOM      7  C   UNL A   1      29.632  28.825  22.723  1.00  0.00     0.195 C 
ATOM      8  N   UNL A   1      28.266  28.416  23.093  1.00  0.00    -0.327 N 
ATOM      9  C   UNL A   1      27.364  29.503  22.804  1.00  0.00     0.120 C 
ATOM     10  C   UNL A   1      27.975  30.222  21.614  1.00  0.00     0.024 C 
ATOM     11  C   UNL A   1      29.463  29.925  21.670  1.00  0.00     0.039 C 
BRANCH   8  12
ATOM     12  C   UNL A   1      27.992  27.193  23.672  1.00  0.00     0.242 C 
ATOM     13  O   UNL A   1      26.919  26.984  24.246  1.00  0.00    -0.273 OA
BRANCH  12  14
ATOM     14  C   UNL A   1      29.065  26.106  23.859  1.00  0.00     0.216 C 
BRANCH  14  15
ATOM     15  N   UNL A   1      29.890  26.071  25.040  1.00  0.00    -0.345 N 
ATOM     16  C   UNL A   1      30.581  25.052  25.613  1.00  0.00     0.242 C 
ATOM     17  O   UNL A   1      31.318  25.355  26.559  1.00  0.00    -0.273 OA
ATOM     18  H   UNL A   1      29.965  26.932  25.512  1.00  0.00     0.164 HD
BRANCH  16  19
ATOM     19  C   UNL A   1      30.563  23.596  25.082  1.00  0.00     0.171 C 
ATOM     20  C   UNL A   1      30.690  22.608  26.231  1.00  0.00     0.042 C 
BRANCH  19  21
ATOM     21  N   UNL A   1      31.410  23.374  23.909  1.00  0.00    -0.310 N 
ATOM     22  C   UNL A   1      32.702  22.982  23.772  1.00  0.00     0.408 C 
ATOM     23  H   UNL A   1      30.954  23.542  23.053  1.00  0.00     0.167 HD
ATOM     24  O   UNL A   1      33.273  23.107  22.688  1.00  0.00    -0.225 OA
BRANCH  22  25
ATOM     25  O   UNL A   1      33.259  22.503  24.901  1.00  0.00    -0.445 OA
BRANCH  25  26
ATOM     26  C   UNL A   1      34.242  21.474  24.729  1.00  0.00     0.270 C 
BRANCH  26  27
ATOM     27  C   UNL A   1      35.640  21.947  25.044  1.00  0.00    -0.011 A 
ATOM     28  C   UNL A   1      35.895  23.290  25.354  1.00  0.00     0.007 A 
ATOM     29  C   UNL A   1      36.708  21.039  25.025  1.00  0.00     0.007 A 
ATOM     30  C   UNL A   1      37.192  23.710  25.654  1.00  0.00     0.000 A 
ATOM     31  C   UNL A   1      38.002  21.460  25.324  1.00  0.00     0.000 A 
ATOM     32  C   UNL A   1      38.244  22.795  25.641  1.00  0.00     0.000 A 
ENDBRANCH  26  27
ENDBRANCH  25  26
ENDBRANCH  22  25
ENDBRANCH  19  21
ENDBRANCH  16  19
ENDBRANCH  14  15
ENDBRANCH  12  14
ENDBRANCH   8  12
ENDBRANCH   5   7
ENDBRANCH   4   5
ENDBRANCH   3   4
ENDBRANCH   2   3
ENDBRANCH   1   2
BRANCH   1  33
ATOM     33  C   UNL A   1      34.066  26.184  24.408  1.00  0.00     0.188 C 
BRANCH  33  34
ATOM     34  C   UNL A   1      34.483  27.253  25.451  1.00  0.00     0.188 C 
BRANCH  34  35
ATOM     35  O   UNL A   1      33.774  27.498  26.660  1.00  0.00    -0.377 OA
BRANCH  35  36
ATOM     36  C   UNL A   1      33.950  28.759  27.282  1.00  0.00     0.188 C 
BRANCH  36  37
ATOM     37  C   UNL A   1      33.122  29.859  26.589  1.00  0.00     0.188 C 
BRANCH  37  38
ATOM     38  O   UNL A   1      32.915  31.009  27.393  1.00  0.00    -0.376 OA
BRANCH  38  39
ATOM     39  C   UNL A   1      32.051  32.043  26.949  1.00  0.00     0.202 C 
BRANCH  39  40
ATOM     40  C   UNL A   1      32.117  33.530  27.375  1.00  0.00     0.261 C 
BRANCH  40  41
ATOM     41  O   UNL A   1      33.391  34.161  27.548  1.00  0.00    -0.460 OA
BRANCH  41  42
ATOM     42  C   UNL A   1      33.804  34.444  28.797  1.00  0.00     0.338 C 
ATOM     43  O   UNL A   1      33.263  35.170  29.608  1.00  0.00    -0.246 OA
BRANCH  42  44
ATOM     44  C   UNL A   1      34.947  33.546  29.089  1.00  0.00     0.060 A 
ATOM     45  C   UNL A   1      34.694  32.273  29.619  1.00  0.00     0.016 A 
ATOM     46  C   UNL A   1      36.258  33.950  28.822  1.00  0.00     0.016 A 
ATOM     47  C   UNL A   1      35.753  31.415  29.918  1.00  0.00     0.010 A 
ATOM     48  C   UNL A   1      37.320  33.103  29.153  1.00  0.00     0.010 A 
ATOM     49  C   UNL A   1      37.072  31.847  29.737  1.00  0.00    -0.014 A 
BRANCH  49  50
ATOM     50  C   UNL A   1      38.180  31.087  30.366  1.00  0.00     0.031 A 
ATOM     51  C   UNL A   1      38.501  31.377  31.808  1.00  0.00     0.074 A 
ATOM     52  C   UNL A   1      38.856  30.135  29.700  1.00  0.00     0.049 A 
ATOM     53  N   UNL A   1      39.454  30.896  32.565  1.00  0.00    -0.248 NA
ATOM     54  C   UNL A   1      37.624  32.345  32.489  1.00  0.00     0.031 C 
ATOM     55  C   UNL A   1      38.596  29.716  28.324  1.00  0.00     0.029 A 
ATOM     56  N   UNL A   1      39.909  29.350  30.099  1.00  0.00    -0.354 N 
ATOM     57  C   UNL A   1      39.287  31.497  33.806  1.00  0.00     0.074 A 
ATOM     58  C   UNL A   1      38.172  32.410  33.693  1.00  0.00     0.031 C 
ATOM     59  C   UNL A   1      39.477  28.756  27.988  1.00  0.00     0.029 A 
ATOM     60  C   UNL A   1      40.384  28.522  29.111  1.00  0.00     0.049 A 
ATOM     61  H   UNL A   1      40.288  29.376  31.007  1.00  0.00     0.167 HD
ATOM     62  C   UNL A   1      39.992  31.295  34.944  1.00  0.00     0.037 A 
ATOM     63  C   UNL A   1      41.449  27.694  29.112  1.00  0.00     0.037 A 
ATOM     64  C   UNL A   1      41.108  30.395  35.053  1.00  0.00     0.049 A 
ATOM     65  C   UNL A   1      42.291  27.579  30.361  1.00  0.00     0.074 A 
ATOM     66  C   UNL A   1      41.903  30.135  36.155  1.00  0.00     0.029 A 
ATOM     67  N   UNL A   1      41.590  29.610  34.016  1.00  0.00    -0.354 N 
ATOM     68  N   UNL A   1      42.125  28.144  31.534  1.00  0.00    -0.248 NA
ATOM     69  C   UNL A   1      43.472  26.705  30.286  1.00  0.00     0.031 C 
ATOM     70  C   UNL A   1      42.899  29.232  35.772  1.00  0.00     0.029 A 
ATOM     71  C   UNL A   1      42.684  28.879  34.449  1.00  0.00     0.049 A 
ATOM     72  H   UNL A   1      41.212  29.577  33.108  1.00  0.00     0.167 HD
ATOM     73  C   UNL A   1      43.148  27.660  32.341  1.00  0.00     0.074 A 
ATOM     74  C   UNL A   1      43.921  26.744  31.532  1.00  0.00     0.031 C 
ATOM     75  C   UNL A   1      43.425  27.947  33.639  1.00  0.00     0.037 A 
BRANCH  62  76
ATOM     76  C   UNL A   1      39.585  32.073  36.161  1.00  0.00     0.064 A 
ATOM     77  C   UNL A   1      38.477  31.698  36.937  1.00  0.00     0.173 A 
ATOM     78  C   UNL A   1      40.339  33.178  36.585  1.00  0.00     0.173 A 
ATOM     79  F   UNL A   1      37.714  30.658  36.566  1.00  0.00    -0.203 F 
ATOM     80  C   UNL A   1      38.130  32.411  38.081  1.00  0.00     0.198 A 
ATOM     81  C   UNL A   1      40.006  33.868  37.748  1.00  0.00     0.198 A 
ATOM     82  F   UNL A   1      41.408  33.579  35.881  1.00  0.00    -0.203 F 
ATOM     83  F   UNL A   1      37.043  32.059  38.783  1.00  0.00    -0.200 F 
ATOM     84  C   UNL A   1      38.900  33.488  38.491  1.00  0.00     0.200 A 
ATOM     85  F   UNL A   1      40.761  34.900  38.151  1.00  0.00    -0.200 F 
ATOM     86  F   UNL A   1      38.573  34.163  39.602  1.00  0.00    -0.200 F 
ENDBRANCH  62  76
BRANCH  63  87
ATOM     87  C   UNL A   1      41.812  26.919  27.893  1.00  0.00     0.064 A 
ATOM     88  C   UNL A   1      41.324  25.619  27.690  1.00  0.00     0.173 A 
ATOM     89  C   UNL A   1      42.713  27.428  26.946  1.00  0.00     0.173 A 
ATOM     90  F   UNL A   1      40.481  25.073  28.581  1.00  0.00    -0.203 F 
ATOM     91  C   UNL A   1      41.756  24.845  26.615  1.00  0.00     0.198 A 
ATOM     92  C   UNL A   1      43.114  26.667  25.849  1.00  0.00     0.198 A 
ATOM     93  F   UNL A   1      43.215  28.663  27.090  1.00  0.00    -0.203 F 
ATOM     94  F   UNL A   1      41.335  23.579  26.491  1.00  0.00    -0.200 F 
ATOM     95  C   UNL A   1      42.649  25.371  25.693  1.00  0.00     0.200 A 
ATOM     96  F   UNL A   1      43.967  27.185  24.954  1.00  0.00    -0.200 F 
ATOM     97  F   UNL A   1      43.072  24.623  24.665  1.00  0.00    -0.200 F 
ENDBRANCH  63  87
BRANCH  75  98
ATOM     98  C   UNL A   1      44.567  27.216  34.285  1.00  0.00     0.064 A 
ATOM     99  C   UNL A   1      45.866  27.745  34.319  1.00  0.00     0.173 A 
ATOM    100  C   UNL A   1      44.348  25.981  34.918  1.00  0.00     0.173 A 
ATOM    101  F   UNL A   1      46.134  28.915  33.720  1.00  0.00    -0.203 F 
ATOM    102  C   UNL A   1      46.907  27.051  34.932  1.00  0.00     0.198 A 
ATOM    103  C   UNL A   1      45.383  25.309  35.563  1.00  0.00     0.198 A 
ATOM    104  F   UNL A   1      43.123  25.433  34.926  1.00  0.00    -0.203 F 
ATOM    105  F   UNL A   1      48.151  27.550  34.901  1.00  0.00    -0.200 F 
ATOM    106  C   UNL A   1      46.663  25.839  35.560  1.00  0.00     0.200 A 
ATOM    107  F   UNL A   1      45.139  24.148  36.186  1.00  0.00    -0.200 F 
ATOM    108  F   UNL A   1      47.664  25.178  36.157  1.00  0.00    -0.200 F 
ENDBRANCH  75  98
ENDBRANCH  49  50
ENDBRANCH  42  44
ENDBRANCH  41  42
ENDBRANCH  40  41
ENDBRANCH  39  40
ENDBRANCH  38  39
ENDBRANCH  37  38
ENDBRANCH  36  37
ENDBRANCH  35  36
ENDBRANCH  34  35
ENDBRANCH  33  34
ENDBRANCH   1  33
TORSDOF 28
ENDMDL
