MODEL 1
REMARK VINA RESULT:      -9.8      0.000      0.000
REMARK SMILES O=C(OCCOCCOCCOCCOC(=O)c1ccc(-c2c3nc(c(-c4c(F)c(F)c(F)c(F)c4F)c4ccc([nH]4)c(-c4c(F)c(F)c(F)c(F)c4F)c4nc(c(-c5c(F)c(F)c(F)c(F)c5F)c5ccc2[nH]5)C=C4)C=C3)cc1)C1=NN(c2ccc(S(=O)(=O)[O-])cc2)C(=O)/C1=C\Nc1ccccc1
REMARK SMILES IDX 9 1 8 2 7 3 6 4 5 5 4 6 3 7 2 8 1 9 81 10 82 11 96 12 83 13
REMARK SMILES IDX 94 14 97 15 95 16 84 17 85 18 93 19 86 20 92 21 87 22 88 23
REMARK SMILES IDX 89 24 90 25 91 26 98 27 99 29 100 30 104 31 101 32 103 33
REMARK SMILES IDX 102 34 10 35 11 36 12 37 13 38 14 39 15 40 16 41 17 42 18 43
REMARK SMILES IDX 19 44 80 45 20 46 79 47 21 48 22 49 23 50 73 51 24 52 78 53
REMARK SMILES IDX 72 54 74 55 25 56 77 57 71 58 70 59 26 61 58 62 38 63 57 64
REMARK SMILES IDX 39 65 42 66 56 67 75 68 40 69 41 70 55 72 76 73 43 74 27 75
REMARK SMILES IDX 28 76 36 77 29 78 30 79 34 80 37 81 31 82 32 83 35 84 33 85
REMARK SMILES IDX 59 86 60 87 68 88 61 89 62 90 66 91 69 92 63 93 64 94 67 95
REMARK SMILES IDX 65 96 44 97 45 98 53 99 46 100 47 101 51 102 54 103 48 104
REMARK SMILES IDX 49 105 52 106 50 107
REMARK H PARENT 98 28 74 60 42 71
REMARK Flexibility Score: inf
ROOT
ATOM      1  O   UNL A   1      47.768  41.397  21.034  1.00  0.00    -0.377 OA
ENDROOT
BRANCH   1   2
ATOM      2  C   UNL A   1      47.979  42.530  20.196  1.00  0.00     0.188 C 
BRANCH   2   3
ATOM      3  C   UNL A   1      49.318  43.247  20.368  1.00  0.00     0.188 C 
BRANCH   3   4
ATOM      4  O   UNL A   1      49.259  44.265  21.371  1.00  0.00    -0.376 OA
BRANCH   4   5
ATOM      5  C   UNL A   1      50.513  44.553  22.001  1.00  0.00     0.202 C 
BRANCH   5   6
ATOM      6  C   UNL A   1      50.320  45.267  23.329  1.00  0.00     0.261 C 
BRANCH   6   7
ATOM      7  O   UNL A   1      49.283  44.560  24.022  1.00  0.00    -0.458 OA
BRANCH   7   8
ATOM      8  C   UNL A   1      48.417  45.385  24.634  1.00  0.00     0.359 C 
ATOM      9  O   UNL A   1      48.665  46.312  25.385  1.00  0.00    -0.244 OA
BRANCH   8  10
ATOM     10  C   UNL A   1      47.016  45.033  24.287  1.00  0.00     0.183 C 
ATOM     11  N   UNL A   1      46.322  44.306  25.118  1.00  0.00    -0.157 NA
ATOM     12  C   UNL A   1      46.297  45.311  23.031  1.00  0.00     0.093 C 
ATOM     13  N   UNL A   1      45.155  43.990  24.458  1.00  0.00    -0.196 N 
ATOM     14  C   UNL A   1      45.015  44.587  23.204  1.00  0.00     0.282 C 
ATOM     15  C   UNL A   1      46.573  45.963  21.892  1.00  0.00     0.099 C 
ATOM     16  O   UNL A   1      44.106  44.542  22.388  1.00  0.00    -0.267 OA
BRANCH  13  17
ATOM     17  C   UNL A   1      44.376  42.956  25.004  1.00  0.00     0.069 A 
ATOM     18  C   UNL A   1      43.216  42.530  24.336  1.00  0.00     0.030 A 
ATOM     19  C   UNL A   1      44.690  42.406  26.252  1.00  0.00     0.030 A 
ATOM     20  C   UNL A   1      42.395  41.556  24.894  1.00  0.00     0.021 A 
ATOM     21  C   UNL A   1      43.858  41.451  26.831  1.00  0.00     0.021 A 
ATOM     22  C   UNL A   1      42.727  41.021  26.139  1.00  0.00     0.054 A 
BRANCH  22  23
ATOM     23  S   UNL A   1      41.682  39.774  26.822  1.00  0.00     0.124 S 
ATOM     24  O   UNL A   1      41.509  40.061  28.227  1.00  0.00    -0.237 OA
ATOM     25  O   UNL A   1      40.561  39.613  25.921  1.00  0.00    -0.237 OA
ATOM     26  O   UNL A   1      42.519  38.399  26.704  1.00  0.00    -0.744 OA
ENDBRANCH  22  23
ENDBRANCH  13  17
BRANCH  15  27
ATOM     27  N   UNL A   1      45.733  46.064  20.798  1.00  0.00    -0.361 N 
ATOM     28  H   UNL A   1      45.272  45.235  20.536  1.00  0.00     0.166 HD
BRANCH  27  29
ATOM     29  C   UNL A   1      45.452  47.190  20.015  1.00  0.00     0.038 A 
ATOM     30  C   UNL A   1      46.066  48.425  20.233  1.00  0.00     0.026 A 
ATOM     31  C   UNL A   1      44.487  47.095  19.004  1.00  0.00     0.026 A 
ATOM     32  C   UNL A   1      45.726  49.537  19.453  1.00  0.00     0.002 A 
ATOM     33  C   UNL A   1      44.177  48.191  18.196  1.00  0.00     0.002 A 
ATOM     34  C   UNL A   1      44.795  49.415  18.423  1.00  0.00     0.000 A 
ENDBRANCH  27  29
ENDBRANCH  15  27
ENDBRANCH   8  10
ENDBRANCH   7   8
ENDBRANCH   6   7
ENDBRANCH   5   6
ENDBRANCH   4   5
ENDBRANCH   3   4
ENDBRANCH   2   3
ENDBRANCH   1   2
BRANCH   1  35
ATOM     35  C   UNL A   1      46.764  41.489  22.043  1.00  0.00     0.188 C 
BRANCH  35  36
ATOM     36  C   UNL A   1      47.130  41.150  23.504  1.00  0.00     0.188 C 
BRANCH  36  37
ATOM     37  O   UNL A   1      46.702  39.864  23.908  1.00  0.00    -0.376 OA
BRANCH  37  38
ATOM     38  C   UNL A   1      46.935  39.481  25.249  1.00  0.00     0.202 C 
BRANCH  38  39
ATOM     39  C   UNL A   1      47.091  37.995  25.608  1.00  0.00     0.261 C 
BRANCH  39  40
ATOM     40  O   UNL A   1      47.221  37.698  27.005  1.00  0.00    -0.460 OA
BRANCH  40  41
ATOM     41  C   UNL A   1      46.121  37.733  27.792  1.00  0.00     0.338 C 
ATOM     42  O   UNL A   1      45.504  38.708  28.172  1.00  0.00    -0.246 OA
BRANCH  41  43
ATOM     43  C   UNL A   1      45.696  36.323  27.970  1.00  0.00     0.060 A 
ATOM     44  C   UNL A   1      44.834  35.736  27.030  1.00  0.00     0.016 A 
ATOM     45  C   UNL A   1      46.258  35.549  28.987  1.00  0.00     0.016 A 
ATOM     46  C   UNL A   1      44.540  34.370  27.099  1.00  0.00     0.010 A 
ATOM     47  C   UNL A   1      45.941  34.193  29.072  1.00  0.00     0.010 A 
ATOM     48  C   UNL A   1      45.076  33.597  28.135  1.00  0.00    -0.014 A 
BRANCH  48  49
ATOM     49  C   UNL A   1      44.641  32.201  28.377  1.00  0.00     0.031 A 
ATOM     50  C   UNL A   1      45.418  31.104  27.709  1.00  0.00     0.074 A 
ATOM     51  C   UNL A   1      43.521  31.925  29.068  1.00  0.00     0.049 A 
ATOM     52  N   UNL A   1      45.091  29.856  27.509  1.00  0.00    -0.248 NA
ATOM     53  C   UNL A   1      46.736  31.480  27.171  1.00  0.00     0.031 C 
ATOM     54  C   UNL A   1      42.712  32.900  29.796  1.00  0.00     0.029 A 
ATOM     55  N   UNL A   1      42.839  30.740  29.222  1.00  0.00    -0.354 N 
ATOM     56  C   UNL A   1      46.142  29.308  26.785  1.00  0.00     0.074 A 
ATOM     57  C   UNL A   1      47.122  30.354  26.591  1.00  0.00     0.031 C 
ATOM     58  C   UNL A   1      41.615  32.286  30.275  1.00  0.00     0.029 A 
ATOM     59  C   UNL A   1      41.618  30.890  29.837  1.00  0.00     0.049 A 
ATOM     60  H   UNL A   1      43.190  29.871  28.922  1.00  0.00     0.167 HD
ATOM     61  C   UNL A   1      46.263  28.047  26.311  1.00  0.00     0.037 A 
ATOM     62  C   UNL A   1      40.597  30.019  29.967  1.00  0.00     0.037 A 
ATOM     63  C   UNL A   1      45.285  27.014  26.521  1.00  0.00     0.049 A 
ATOM     64  C   UNL A   1      40.733  28.634  29.376  1.00  0.00     0.074 A 
ATOM     65  C   UNL A   1      45.337  25.688  26.134  1.00  0.00     0.029 A 
ATOM     66  N   UNL A   1      44.072  27.202  27.164  1.00  0.00    -0.354 N 
ATOM     67  N   UNL A   1      41.741  28.107  28.723  1.00  0.00    -0.248 NA
ATOM     68  C   UNL A   1      39.583  27.729  29.527  1.00  0.00     0.031 C 
ATOM     69  C   UNL A   1      44.129  25.085  26.494  1.00  0.00     0.029 A 
ATOM     70  C   UNL A   1      43.348  26.022  27.151  1.00  0.00     0.049 A 
ATOM     71  H   UNL A   1      43.770  28.047  27.569  1.00  0.00     0.167 HD
ATOM     72  C   UNL A   1      41.355  26.810  28.404  1.00  0.00     0.074 A 
ATOM     73  C   UNL A   1      40.029  26.622  28.952  1.00  0.00     0.031 C 
ATOM     74  C   UNL A   1      42.032  25.859  27.713  1.00  0.00     0.037 A 
BRANCH  61  75
ATOM     75  C   UNL A   1      47.468  27.719  25.483  1.00  0.00     0.064 A 
ATOM     76  C   UNL A   1      48.675  27.303  26.063  1.00  0.00     0.173 A 
ATOM     77  C   UNL A   1      47.391  27.763  24.083  1.00  0.00     0.173 A 
ATOM     78  F   UNL A   1      48.805  27.263  27.397  1.00  0.00    -0.203 F 
ATOM     79  C   UNL A   1      49.764  26.951  25.269  1.00  0.00     0.198 A 
ATOM     80  C   UNL A   1      48.472  27.386  23.293  1.00  0.00     0.198 A 
ATOM     81  F   UNL A   1      46.258  28.156  23.480  1.00  0.00    -0.203 F 
ATOM     82  F   UNL A   1      50.919  26.584  25.843  1.00  0.00    -0.200 F 
ATOM     83  C   UNL A   1      49.659  26.982  23.887  1.00  0.00     0.200 A 
ATOM     84  F   UNL A   1      48.365  27.407  21.957  1.00  0.00    -0.200 F 
ATOM     85  F   UNL A   1      50.703  26.626  23.125  1.00  0.00    -0.200 F 
ENDBRANCH  61  75
BRANCH  62  86
ATOM     86  C   UNL A   1      39.323  30.435  30.616  1.00  0.00     0.064 A 
ATOM     87  C   UNL A   1      39.132  30.292  31.998  1.00  0.00     0.173 A 
ATOM     88  C   UNL A   1      38.251  30.938  29.862  1.00  0.00     0.173 A 
ATOM     89  F   UNL A   1      40.113  29.787  32.759  1.00  0.00    -0.203 F 
ATOM     90  C   UNL A   1      37.913  30.610  32.595  1.00  0.00     0.198 A 
ATOM     91  C   UNL A   1      37.043  31.287  30.466  1.00  0.00     0.198 A 
ATOM     92  F   UNL A   1      38.375  31.090  28.535  1.00  0.00    -0.203 F 
ATOM     93  F   UNL A   1      37.741  30.407  33.908  1.00  0.00    -0.200 F 
ATOM     94  C   UNL A   1      36.872  31.113  31.830  1.00  0.00     0.200 A 
ATOM     95  F   UNL A   1      36.045  31.783  29.723  1.00  0.00    -0.200 F 
ATOM     96  F   UNL A   1      35.700  31.418  32.404  1.00  0.00    -0.200 F 
ENDBRANCH  62  86
BRANCH  74  97
ATOM     97  C   UNL A   1      41.368  24.526  27.536  1.00  0.00     0.064 A 
ATOM     98  C   UNL A   1      40.288  24.356  26.658  1.00  0.00     0.173 A 
ATOM     99  C   UNL A   1      41.861  23.394  28.202  1.00  0.00     0.173 A 
ATOM    100  F   UNL A   1      39.772  25.411  26.010  1.00  0.00    -0.203 F 
ATOM    101  C   UNL A   1      39.715  23.102  26.466  1.00  0.00     0.198 A 
ATOM    102  C   UNL A   1      41.305  22.137  27.985  1.00  0.00     0.198 A 
ATOM    103  F   UNL A   1      42.897  23.503  29.046  1.00  0.00    -0.203 F 
ATOM    104  F   UNL A   1      38.659  22.967  25.651  1.00  0.00    -0.200 F 
ATOM    105  C   UNL A   1      40.230  21.993  27.121  1.00  0.00     0.200 A 
ATOM    106  F   UNL A   1      41.813  21.064  28.607  1.00  0.00    -0.200 F 
ATOM    107  F   UNL A   1      39.686  20.783  26.923  1.00  0.00    -0.200 F 
ENDBRANCH  74  97
ENDBRANCH  48  49
ENDBRANCH  41  43
ENDBRANCH  40  41
ENDBRANCH  39  40
ENDBRANCH  38  39
ENDBRANCH  37  38
ENDBRANCH  36  37
ENDBRANCH  35  36
ENDBRANCH   1  35
TORSDOF 24
ENDMDL
MODEL 2
REMARK VINA RESULT:      -9.4      7.548     13.785
REMARK SMILES O=C(OCCOCCOCCOCCOC(=O)c1ccc(-c2c3nc(c(-c4c(F)c(F)c(F)c(F)c4F)c4ccc([nH]4)c(-c4c(F)c(F)c(F)c(F)c4F)c4nc(c(-c5c(F)c(F)c(F)c(F)c5F)c5ccc2[nH]5)C=C4)C=C3)cc1)C1=NN(c2ccc(S(=O)(=O)[O-])cc2)C(=O)/C1=C\Nc1ccccc1
REMARK SMILES IDX 9 1 8 2 7 3 6 4 5 5 4 6 3 7 2 8 1 9 81 10 82 11 96 12 83 13
REMARK SMILES IDX 94 14 97 15 95 16 84 17 85 18 93 19 86 20 92 21 87 22 88 23
REMARK SMILES IDX 89 24 90 25 91 26 98 27 99 29 100 30 104 31 101 32 103 33
REMARK SMILES IDX 102 34 10 35 11 36 12 37 13 38 14 39 15 40 16 41 17 42 18 43
REMARK SMILES IDX 19 44 80 45 20 46 79 47 21 48 22 49 23 50 73 51 24 52 78 53
REMARK SMILES IDX 72 54 74 55 25 56 77 57 71 58 70 59 26 61 58 62 38 63 57 64
REMARK SMILES IDX 39 65 42 66 56 67 75 68 40 69 41 70 55 72 76 73 43 74 27 75
REMARK SMILES IDX 28 76 36 77 29 78 30 79 34 80 37 81 31 82 32 83 35 84 33 85
REMARK SMILES IDX 59 86 60 87 68 88 61 89 62 90 66 91 69 92 63 93 64 94 67 95
REMARK SMILES IDX 65 96 44 97 45 98 53 99 46 100 47 101 51 102 54 103 48 104
REMARK SMILES IDX 49 105 52 106 50 107
REMARK H PARENT 98 28 74 60 42 71
REMARK Flexibility Score: inf
ROOT
ATOM      1  O   UNL A   1      41.115  33.593  42.170  1.00  0.00    -0.377 OA
ENDROOT
BRANCH   1   2
ATOM      2  C   UNL A   1      40.194  34.227  41.285  1.00  0.00     0.188 C 
BRANCH   2   3
ATOM      3  C   UNL A   1      39.061  33.346  40.759  1.00  0.00     0.188 C 
BRANCH   3   4
ATOM      4  O   UNL A   1      38.597  33.774  39.475  1.00  0.00    -0.376 OA
BRANCH   4   5
ATOM      5  C   UNL A   1      37.866  32.782  38.746  1.00  0.00     0.202 C 
BRANCH   5   6
ATOM      6  C   UNL A   1      38.426  32.593  37.345  1.00  0.00     0.261 C 
BRANCH   6   7
ATOM      7  O   UNL A   1      37.558  31.660  36.685  1.00  0.00    -0.458 OA
BRANCH   7   8
ATOM      8  C   UNL A   1      38.196  30.939  35.748  1.00  0.00     0.359 C 
ATOM      9  O   UNL A   1      39.048  30.082  35.910  1.00  0.00    -0.244 OA
BRANCH   8  10
ATOM     10  C   UNL A   1      37.733  31.313  34.387  1.00  0.00     0.183 C 
ATOM     11  N   UNL A   1      37.235  32.502  34.192  1.00  0.00    -0.157 NA
ATOM     12  C   UNL A   1      37.654  30.456  33.191  1.00  0.00     0.093 C 
ATOM     13  N   UNL A   1      36.730  32.494  32.910  1.00  0.00    -0.196 N 
ATOM     14  C   UNL A   1      36.972  31.319  32.197  1.00  0.00     0.282 C 
ATOM     15  C   UNL A   1      37.989  29.191  32.892  1.00  0.00     0.099 C 
ATOM     16  O   UNL A   1      36.692  31.002  31.050  1.00  0.00    -0.267 OA
BRANCH  13  17
ATOM     17  C   UNL A   1      35.859  33.540  32.564  1.00  0.00     0.069 A 
ATOM     18  C   UNL A   1      35.574  34.548  33.499  1.00  0.00     0.030 A 
ATOM     19  C   UNL A   1      35.200  33.543  31.329  1.00  0.00     0.030 A 
ATOM     20  C   UNL A   1      34.663  35.556  33.198  1.00  0.00     0.021 A 
ATOM     21  C   UNL A   1      34.266  34.531  31.031  1.00  0.00     0.021 A 
ATOM     22  C   UNL A   1      34.017  35.539  31.962  1.00  0.00     0.054 A 
BRANCH  22  23
ATOM     23  S   UNL A   1      32.878  36.835  31.593  1.00  0.00     0.124 S 
ATOM     24  O   UNL A   1      33.061  37.205  30.209  1.00  0.00    -0.237 OA
ATOM     25  O   UNL A   1      31.592  36.440  32.124  1.00  0.00    -0.237 OA
ATOM     26  O   UNL A   1      33.342  38.088  32.499  1.00  0.00    -0.744 OA
ENDBRANCH  22  23
ENDBRANCH  13  17
BRANCH  15  27
ATOM     27  N   UNL A   1      37.778  28.569  31.676  1.00  0.00    -0.361 N 
ATOM     28  H   UNL A   1      36.842  28.350  31.463  1.00  0.00     0.166 HD
BRANCH  27  29
ATOM     29  C   UNL A   1      38.722  28.208  30.706  1.00  0.00     0.038 A 
ATOM     30  C   UNL A   1      39.742  29.070  30.299  1.00  0.00     0.026 A 
ATOM     31  C   UNL A   1      38.618  26.958  30.084  1.00  0.00     0.026 A 
ATOM     32  C   UNL A   1      40.642  28.686  29.296  1.00  0.00     0.002 A 
ATOM     33  C   UNL A   1      39.539  26.555  29.114  1.00  0.00     0.002 A 
ATOM     34  C   UNL A   1      40.550  27.421  28.717  1.00  0.00     0.000 A 
ENDBRANCH  27  29
ENDBRANCH  15  27
ENDBRANCH   8  10
ENDBRANCH   7   8
ENDBRANCH   6   7
ENDBRANCH   5   6
ENDBRANCH   4   5
ENDBRANCH   3   4
ENDBRANCH   2   3
ENDBRANCH   1   2
BRANCH   1  35
ATOM     35  C   UNL A   1      41.661  34.367  43.235  1.00  0.00     0.188 C 
BRANCH  35  36
ATOM     36  C   UNL A   1      41.607  35.908  43.151  1.00  0.00     0.188 C 
BRANCH  36  37
ATOM     37  O   UNL A   1      42.884  36.514  43.114  1.00  0.00    -0.376 OA
BRANCH  37  38
ATOM     38  C   UNL A   1      43.929  35.815  42.465  1.00  0.00     0.202 C 
BRANCH  38  39
ATOM     39  C   UNL A   1      44.272  36.129  41.001  1.00  0.00     0.261 C 
BRANCH  39  40
ATOM     40  O   UNL A   1      43.535  35.395  40.013  1.00  0.00    -0.460 OA
BRANCH  40  41
ATOM     41  C   UNL A   1      42.635  36.047  39.242  1.00  0.00     0.338 C 
ATOM     42  O   UNL A   1      42.069  37.096  39.477  1.00  0.00    -0.246 OA
BRANCH  41  43
ATOM     43  C   UNL A   1      42.592  35.316  37.952  1.00  0.00     0.060 A 
ATOM     44  C   UNL A   1      41.356  35.082  37.331  1.00  0.00     0.016 A 
ATOM     45  C   UNL A   1      43.781  34.985  37.298  1.00  0.00     0.016 A 
ATOM     46  C   UNL A   1      41.305  34.527  36.048  1.00  0.00     0.010 A 
ATOM     47  C   UNL A   1      43.728  34.405  36.031  1.00  0.00     0.010 A 
ATOM     48  C   UNL A   1      42.492  34.165  35.401  1.00  0.00    -0.014 A 
BRANCH  48  49
ATOM     49  C   UNL A   1      42.492  33.390  34.137  1.00  0.00     0.031 A 
ATOM     50  C   UNL A   1      42.560  31.895  34.238  1.00  0.00     0.074 A 
ATOM     51  C   UNL A   1      42.552  34.001  32.940  1.00  0.00     0.049 A 
ATOM     52  N   UNL A   1      42.865  31.013  33.325  1.00  0.00    -0.248 NA
ATOM     53  C   UNL A   1      42.264  31.321  35.561  1.00  0.00     0.031 C 
ATOM     54  C   UNL A   1      42.449  35.442  32.717  1.00  0.00     0.029 A 
ATOM     55  N   UNL A   1      42.771  33.481  31.686  1.00  0.00    -0.354 N 
ATOM     56  C   UNL A   1      42.842  29.784  33.972  1.00  0.00     0.074 A 
ATOM     57  C   UNL A   1      42.480  30.031  35.351  1.00  0.00     0.031 C 
ATOM     58  C   UNL A   1      42.658  35.697  31.413  1.00  0.00     0.029 A 
ATOM     59  C   UNL A   1      42.966  34.445  30.724  1.00  0.00     0.049 A 
ATOM     60  H   UNL A   1      42.787  32.516  31.496  1.00  0.00     0.167 HD
ATOM     61  C   UNL A   1      43.118  28.564  33.459  1.00  0.00     0.037 A 
ATOM     62  C   UNL A   1      43.410  34.329  29.455  1.00  0.00     0.037 A 
ATOM     63  C   UNL A   1      43.465  28.331  32.084  1.00  0.00     0.049 A 
ATOM     64  C   UNL A   1      43.768  32.960  28.923  1.00  0.00     0.074 A 
ATOM     65  C   UNL A   1      43.705  27.128  31.447  1.00  0.00     0.029 A 
ATOM     66  N   UNL A   1      43.634  29.330  31.138  1.00  0.00    -0.354 N 
ATOM     67  N   UNL A   1      43.712  31.796  29.526  1.00  0.00    -0.248 NA
ATOM     68  C   UNL A   1      44.266  32.891  27.542  1.00  0.00     0.031 C 
ATOM     69  C   UNL A   1      44.076  27.402  30.128  1.00  0.00     0.029 A 
ATOM     70  C   UNL A   1      44.014  28.772  29.930  1.00  0.00     0.049 A 
ATOM     71  H   UNL A   1      43.503  30.293  31.300  1.00  0.00     0.167 HD
ATOM     72  C   UNL A   1      44.148  30.861  28.595  1.00  0.00     0.074 A 
ATOM     73  C   UNL A   1      44.445  31.588  27.380  1.00  0.00     0.031 C 
ATOM     74  C   UNL A   1      44.296  29.520  28.731  1.00  0.00     0.037 A 
BRANCH  61  75
ATOM     75  C   UNL A   1      43.099  27.389  34.390  1.00  0.00     0.064 A 
ATOM     76  C   UNL A   1      44.246  26.970  35.078  1.00  0.00     0.173 A 
ATOM     77  C   UNL A   1      41.896  26.713  34.642  1.00  0.00     0.173 A 
ATOM     78  F   UNL A   1      45.424  27.572  34.857  1.00  0.00    -0.203 F 
ATOM     79  C   UNL A   1      44.190  25.910  35.980  1.00  0.00     0.198 A 
ATOM     80  C   UNL A   1      41.838  25.671  35.563  1.00  0.00     0.198 A 
ATOM     81  F   UNL A   1      40.770  27.075  34.007  1.00  0.00    -0.203 F 
ATOM     82  F   UNL A   1      45.305  25.505  36.606  1.00  0.00    -0.200 F 
ATOM     83  C   UNL A   1      42.986  25.269  36.229  1.00  0.00     0.200 A 
ATOM     84  F   UNL A   1      40.671  25.060  35.810  1.00  0.00    -0.200 F 
ATOM     85  F   UNL A   1      42.931  24.260  37.110  1.00  0.00    -0.200 F 
ENDBRANCH  61  75
BRANCH  62  86
ATOM     86  C   UNL A   1      43.616  35.539  28.612  1.00  0.00     0.064 A 
ATOM     87  C   UNL A   1      44.870  36.162  28.531  1.00  0.00     0.173 A 
ATOM     88  C   UNL A   1      42.553  36.128  27.909  1.00  0.00     0.173 A 
ATOM     89  F   UNL A   1      45.911  35.658  29.208  1.00  0.00    -0.203 F 
ATOM     90  C   UNL A   1      45.046  37.337  27.802  1.00  0.00     0.198 A 
ATOM     91  C   UNL A   1      42.739  37.285  27.154  1.00  0.00     0.198 A 
ATOM     92  F   UNL A   1      41.330  35.579  27.956  1.00  0.00    -0.203 F 
ATOM     93  F   UNL A   1      46.242  37.942  27.792  1.00  0.00    -0.200 F 
ATOM     94  C   UNL A   1      43.982  37.895  27.110  1.00  0.00     0.200 A 
ATOM     95  F   UNL A   1      41.710  37.813  26.477  1.00  0.00    -0.200 F 
ATOM     96  F   UNL A   1      44.152  39.026  26.411  1.00  0.00    -0.200 F 
ENDBRANCH  62  86
BRANCH  74  97
ATOM     97  C   UNL A   1      44.771  28.749  27.535  1.00  0.00     0.064 A 
ATOM     98  C   UNL A   1      46.119  28.392  27.382  1.00  0.00     0.173 A 
ATOM     99  C   UNL A   1      43.858  28.307  26.567  1.00  0.00     0.173 A 
ATOM    100  F   UNL A   1      47.032  28.805  28.273  1.00  0.00    -0.203 F 
ATOM    101  C   UNL A   1      46.536  27.633  26.292  1.00  0.00     0.198 A 
ATOM    102  C   UNL A   1      44.274  27.523  25.495  1.00  0.00     0.198 A 
ATOM    103  F   UNL A   1      42.556  28.615  26.673  1.00  0.00    -0.203 F 
ATOM    104  F   UNL A   1      47.835  27.335  26.144  1.00  0.00    -0.200 F 
ATOM    105  C   UNL A   1      45.613  27.191  25.356  1.00  0.00     0.200 A 
ATOM    106  F   UNL A   1      43.378  27.083  24.600  1.00  0.00    -0.200 F 
ATOM    107  F   UNL A   1      46.016  26.448  24.315  1.00  0.00    -0.200 F 
ENDBRANCH  74  97
ENDBRANCH  48  49
ENDBRANCH  41  43
ENDBRANCH  40  41
ENDBRANCH  39  40
ENDBRANCH  38  39
ENDBRANCH  37  38
ENDBRANCH  36  37
ENDBRANCH  35  36
ENDBRANCH   1  35
TORSDOF 24
ENDMDL
MODEL 3
REMARK VINA RESULT:      -9.4      7.971     17.358
REMARK SMILES O=C(OCCOCCOCCOCCOC(=O)c1ccc(-c2c3nc(c(-c4c(F)c(F)c(F)c(F)c4F)c4ccc([nH]4)c(-c4c(F)c(F)c(F)c(F)c4F)c4nc(c(-c5c(F)c(F)c(F)c(F)c5F)c5ccc2[nH]5)C=C4)C=C3)cc1)C1=NN(c2ccc(S(=O)(=O)[O-])cc2)C(=O)/C1=C\Nc1ccccc1
REMARK SMILES IDX 9 1 8 2 7 3 6 4 5 5 4 6 3 7 2 8 1 9 81 10 82 11 96 12 83 13
REMARK SMILES IDX 94 14 97 15 95 16 84 17 85 18 93 19 86 20 92 21 87 22 88 23
REMARK SMILES IDX 89 24 90 25 91 26 98 27 99 29 100 30 104 31 101 32 103 33
REMARK SMILES IDX 102 34 10 35 11 36 12 37 13 38 14 39 15 40 16 41 17 42 18 43
REMARK SMILES IDX 19 44 80 45 20 46 79 47 21 48 22 49 23 50 73 51 24 52 78 53
REMARK SMILES IDX 72 54 74 55 25 56 77 57 71 58 70 59 26 61 58 62 38 63 57 64
REMARK SMILES IDX 39 65 42 66 56 67 75 68 40 69 41 70 55 72 76 73 43 74 27 75
REMARK SMILES IDX 28 76 36 77 29 78 30 79 34 80 37 81 31 82 32 83 35 84 33 85
REMARK SMILES IDX 59 86 60 87 68 88 61 89 62 90 66 91 69 92 63 93 64 94 67 95
REMARK SMILES IDX 65 96 44 97 45 98 53 99 46 100 47 101 51 102 54 103 48 104
REMARK SMILES IDX 49 105 52 106 50 107
REMARK H PARENT 98 28 74 60 42 71
REMARK Flexibility Score: inf
ROOT
ATOM      1  O   UNL A   1      42.861  25.120  27.945  1.00  0.00    -0.377 OA
ENDROOT
BRANCH   1   2
ATOM      2  C   UNL A   1      43.189  24.171  28.957  1.00  0.00     0.188 C 
BRANCH   2   3
ATOM      3  C   UNL A   1      42.395  22.865  28.930  1.00  0.00     0.188 C 
BRANCH   3   4
ATOM      4  O   UNL A   1      41.827  22.606  27.643  1.00  0.00    -0.376 OA
BRANCH   4   5
ATOM      5  C   UNL A   1      40.442  22.950  27.524  1.00  0.00     0.202 C 
BRANCH   5   6
ATOM      6  C   UNL A   1      39.959  22.836  26.087  1.00  0.00     0.261 C 
BRANCH   6   7
ATOM      7  O   UNL A   1      38.526  22.844  26.140  1.00  0.00    -0.458 OA
BRANCH   7   8
ATOM      8  C   UNL A   1      37.983  21.781  25.523  1.00  0.00     0.359 C 
ATOM      9  O   UNL A   1      38.458  20.667  25.386  1.00  0.00    -0.244 OA
BRANCH   8  10
ATOM     10  C   UNL A   1      36.642  22.116  24.976  1.00  0.00     0.183 C 
ATOM     11  N   UNL A   1      36.347  23.365  24.745  1.00  0.00    -0.157 NA
ATOM     12  C   UNL A   1      35.507  21.205  24.744  1.00  0.00     0.093 C 
ATOM     13  N   UNL A   1      35.006  23.382  24.430  1.00  0.00    -0.196 N 
ATOM     14  C   UNL A   1      34.410  22.122  24.353  1.00  0.00     0.282 C 
ATOM     15  C   UNL A   1      35.296  19.885  24.859  1.00  0.00     0.099 C 
ATOM     16  O   UNL A   1      33.268  21.788  24.072  1.00  0.00    -0.267 OA
BRANCH  13  17
ATOM     17  C   UNL A   1      34.364  24.631  24.450  1.00  0.00     0.069 A 
ATOM     18  C   UNL A   1      34.219  25.359  23.258  1.00  0.00     0.030 A 
ATOM     19  C   UNL A   1      33.948  25.202  25.659  1.00  0.00     0.030 A 
ATOM     20  C   UNL A   1      33.647  26.628  23.269  1.00  0.00     0.021 A 
ATOM     21  C   UNL A   1      33.401  26.482  25.682  1.00  0.00     0.021 A 
ATOM     22  C   UNL A   1      33.239  27.178  24.484  1.00  0.00     0.054 A 
BRANCH  22  23
ATOM     23  S   UNL A   1      32.501  28.780  24.474  1.00  0.00     0.124 S 
ATOM     24  O   UNL A   1      33.208  29.600  25.431  1.00  0.00    -0.237 OA
ATOM     25  O   UNL A   1      32.342  29.170  23.090  1.00  0.00    -0.237 OA
ATOM     26  O   UNL A   1      31.000  28.567  25.028  1.00  0.00    -0.744 OA
ENDBRANCH  22  23
ENDBRANCH  13  17
BRANCH  15  27
ATOM     27  N   UNL A   1      34.099  19.238  24.616  1.00  0.00    -0.361 N 
ATOM     28  H   UNL A   1      33.397  19.782  24.191  1.00  0.00     0.166 HD
BRANCH  27  29
ATOM     29  C   UNL A   1      33.754  17.910  24.894  1.00  0.00     0.038 A 
ATOM     30  C   UNL A   1      34.561  16.833  24.521  1.00  0.00     0.026 A 
ATOM     31  C   UNL A   1      32.535  17.640  25.529  1.00  0.00     0.026 A 
ATOM     32  C   UNL A   1      34.159  15.517  24.782  1.00  0.00     0.002 A 
ATOM     33  C   UNL A   1      32.151  16.330  25.830  1.00  0.00     0.002 A 
ATOM     34  C   UNL A   1      32.963  15.267  25.453  1.00  0.00     0.000 A 
ENDBRANCH  27  29
ENDBRANCH  15  27
ENDBRANCH   8  10
ENDBRANCH   7   8
ENDBRANCH   6   7
ENDBRANCH   5   6
ENDBRANCH   4   5
ENDBRANCH   3   4
ENDBRANCH   2   3
ENDBRANCH   1   2
BRANCH   1  35
ATOM     35  C   UNL A   1      43.731  25.227  26.821  1.00  0.00     0.188 C 
BRANCH  35  36
ATOM     36  C   UNL A   1      43.194  24.881  25.416  1.00  0.00     0.188 C 
BRANCH  36  37
ATOM     37  O   UNL A   1      43.617  23.617  24.946  1.00  0.00    -0.376 OA
BRANCH  37  38
ATOM     38  C   UNL A   1      44.356  22.797  25.831  1.00  0.00     0.202 C 
BRANCH  38  39
ATOM     39  C   UNL A   1      45.828  22.473  25.531  1.00  0.00     0.261 C 
BRANCH  39  40
ATOM     40  O   UNL A   1      46.782  23.466  25.930  1.00  0.00    -0.460 OA
BRANCH  40  41
ATOM     41  C   UNL A   1      47.162  24.410  25.038  1.00  0.00     0.338 C 
ATOM     42  O   UNL A   1      47.476  24.258  23.875  1.00  0.00    -0.246 OA
BRANCH  41  43
ATOM     43  C   UNL A   1      46.956  25.717  25.710  1.00  0.00     0.060 A 
ATOM     44  C   UNL A   1      47.376  25.885  27.039  1.00  0.00     0.016 A 
ATOM     45  C   UNL A   1      46.473  26.807  24.983  1.00  0.00     0.016 A 
ATOM     46  C   UNL A   1      47.325  27.146  27.641  1.00  0.00     0.010 A 
ATOM     47  C   UNL A   1      46.397  28.059  25.594  1.00  0.00     0.010 A 
ATOM     48  C   UNL A   1      46.814  28.235  26.926  1.00  0.00    -0.014 A 
BRANCH  48  49
ATOM     49  C   UNL A   1      46.547  29.542  27.574  1.00  0.00     0.031 A 
ATOM     50  C   UNL A   1      45.216  29.729  28.241  1.00  0.00     0.074 A 
ATOM     51  C   UNL A   1      47.410  30.568  27.465  1.00  0.00     0.049 A 
ATOM     52  N   UNL A   1      44.618  30.829  28.613  1.00  0.00    -0.248 NA
ATOM     53  C   UNL A   1      44.446  28.502  28.503  1.00  0.00     0.031 C 
ATOM     54  C   UNL A   1      48.746  30.494  26.879  1.00  0.00     0.029 A 
ATOM     55  N   UNL A   1      47.262  31.894  27.798  1.00  0.00    -0.354 N 
ATOM     56  C   UNL A   1      43.385  30.431  29.112  1.00  0.00     0.074 A 
ATOM     57  C   UNL A   1      43.323  28.989  29.008  1.00  0.00     0.031 C 
ATOM     58  C   UNL A   1      49.277  31.729  26.845  1.00  0.00     0.029 A 
ATOM     59  C   UNL A   1      48.294  32.686  27.352  1.00  0.00     0.049 A 
ATOM     60  H   UNL A   1      46.494  32.242  28.306  1.00  0.00     0.167 HD
ATOM     61  C   UNL A   1      42.388  31.208  29.594  1.00  0.00     0.037 A 
ATOM     62  C   UNL A   1      48.398  34.030  27.298  1.00  0.00     0.037 A 
ATOM     63  C   UNL A   1      42.467  32.639  29.701  1.00  0.00     0.049 A 
ATOM     64  C   UNL A   1      47.247  34.877  27.789  1.00  0.00     0.074 A 
ATOM     65  C   UNL A   1      41.539  33.516  30.230  1.00  0.00     0.029 A 
ATOM     66  N   UNL A   1      43.536  33.402  29.256  1.00  0.00    -0.354 N 
ATOM     67  N   UNL A   1      46.095  34.499  28.292  1.00  0.00    -0.248 NA
ATOM     68  C   UNL A   1      47.402  36.336  27.689  1.00  0.00     0.031 C 
ATOM     69  C   UNL A   1      42.021  34.816  30.053  1.00  0.00     0.029 A 
ATOM     70  C   UNL A   1      43.273  34.744  29.462  1.00  0.00     0.049 A 
ATOM     71  H   UNL A   1      44.359  33.042  28.852  1.00  0.00     0.167 HD
ATOM     72  C   UNL A   1      45.403  35.668  28.584  1.00  0.00     0.074 A 
ATOM     73  C   UNL A   1      46.268  36.769  28.221  1.00  0.00     0.031 C 
ATOM     74  C   UNL A   1      44.158  35.821  29.100  1.00  0.00     0.037 A 
BRANCH  61  75
ATOM     75  C   UNL A   1      41.111  30.540  30.003  1.00  0.00     0.064 A 
ATOM     76  C   UNL A   1      40.232  29.980  29.065  1.00  0.00     0.173 A 
ATOM     77  C   UNL A   1      40.795  30.405  31.363  1.00  0.00     0.173 A 
ATOM     78  F   UNL A   1      40.481  30.099  27.753  1.00  0.00    -0.203 F 
ATOM     79  C   UNL A   1      39.079  29.316  29.475  1.00  0.00     0.198 A 
ATOM     80  C   UNL A   1      39.654  29.718  31.770  1.00  0.00     0.198 A 
ATOM     81  F   UNL A   1      41.602  30.925  32.301  1.00  0.00    -0.203 F 
ATOM     82  F   UNL A   1      38.237  28.813  28.561  1.00  0.00    -0.200 F 
ATOM     83  C   UNL A   1      38.796  29.177  30.825  1.00  0.00     0.200 A 
ATOM     84  F   UNL A   1      39.389  29.576  33.077  1.00  0.00    -0.200 F 
ATOM     85  F   UNL A   1      37.694  28.522  31.217  1.00  0.00    -0.200 F 
ENDBRANCH  61  75
BRANCH  62  86
ATOM     86  C   UNL A   1      49.598  34.673  26.695  1.00  0.00     0.064 A 
ATOM     87  C   UNL A   1      50.773  34.858  27.437  1.00  0.00     0.173 A 
ATOM     88  C   UNL A   1      49.579  35.163  25.379  1.00  0.00     0.173 A 
ATOM     89  F   UNL A   1      50.833  34.438  28.709  1.00  0.00    -0.203 F 
ATOM     90  C   UNL A   1      51.871  35.528  26.898  1.00  0.00     0.198 A 
ATOM     91  C   UNL A   1      50.689  35.803  24.830  1.00  0.00     0.198 A 
ATOM     92  F   UNL A   1      48.480  35.020  24.624  1.00  0.00    -0.203 F 
ATOM     93  F   UNL A   1      52.957  35.742  27.652  1.00  0.00    -0.200 F 
ATOM     94  C   UNL A   1      51.830  35.995  25.593  1.00  0.00     0.200 A 
ATOM     95  F   UNL A   1      50.649  36.242  23.565  1.00  0.00    -0.200 F 
ATOM     96  F   UNL A   1      52.885  36.640  25.076  1.00  0.00    -0.200 F 
ENDBRANCH  62  86
BRANCH  74  97
ATOM     97  C   UNL A   1      43.670  37.221  29.330  1.00  0.00     0.064 A 
ATOM     98  C   UNL A   1      42.783  37.844  28.441  1.00  0.00     0.173 A 
ATOM     99  C   UNL A   1      44.041  37.920  30.489  1.00  0.00     0.173 A 
ATOM    100  F   UNL A   1      42.411  37.221  27.312  1.00  0.00    -0.203 F 
ATOM    101  C   UNL A   1      42.299  39.124  28.695  1.00  0.00     0.198 A 
ATOM    102  C   UNL A   1      43.531  39.187  30.754  1.00  0.00     0.198 A 
ATOM    103  F   UNL A   1      44.880  37.364  31.375  1.00  0.00    -0.203 F 
ATOM    104  F   UNL A   1      41.482  39.716  27.812  1.00  0.00    -0.200 F 
ATOM    105  C   UNL A   1      42.665  39.790  29.854  1.00  0.00     0.200 A 
ATOM    106  F   UNL A   1      43.874  39.823  31.883  1.00  0.00    -0.200 F 
ATOM    107  F   UNL A   1      42.185  41.017  30.104  1.00  0.00    -0.200 F 
ENDBRANCH  74  97
ENDBRANCH  48  49
ENDBRANCH  41  43
ENDBRANCH  40  41
ENDBRANCH  39  40
ENDBRANCH  38  39
ENDBRANCH  37  38
ENDBRANCH  36  37
ENDBRANCH  35  36
ENDBRANCH   1  35
TORSDOF 24
ENDMDL
