MODEL 1
REMARK VINA RESULT:     -10.0      0.000      0.000
REMARK SMILES O=C1OC(c2ccc(Cl)cc2)=N/C1=C/Nc1ccc(O)c(C(=O)OCCOCCOCCOCCOC(=O)c2ccc(-c3c4nc(c(-c5c(F)c(F)c(F)c(F)c5F)c5ccc([nH]5)c(-c5c(F)c(F)c(F)c(F)c5F)c5nc(c(-c6c(F)c(F)c(F)c(F)c6F)c6ccc3[nH]6)C=C5)C=C4)cc2)c1
REMARK SMILES IDX 29 1 28 2 27 3 26 4 25 5 24 6 22 7 23 8 21 9 16 10 17 11
REMARK SMILES IDX 102 12 18 13 19 14 15 15 14 17 1 18 2 19 3 20 13 21 4 22
REMARK SMILES IDX 12 23 5 24 6 25 11 26 7 27 10 28 8 29 9 30 20 31 30 33 31 34
REMARK SMILES IDX 32 35 33 36 34 37 35 38 36 39 37 40 38 41 39 42 40 43 101 44
REMARK SMILES IDX 41 45 100 46 42 47 43 48 44 49 94 50 45 51 99 52 93 53 95 54
REMARK SMILES IDX 46 55 98 56 92 57 91 58 47 60 79 61 59 62 78 63 60 64 63 65
REMARK SMILES IDX 77 66 96 67 61 68 62 69 76 71 97 72 64 73 48 74 49 75 57 76
REMARK SMILES IDX 50 77 51 78 55 79 58 80 52 81 53 82 56 83 54 84 80 85 81 86
REMARK SMILES IDX 89 87 82 88 83 89 87 90 90 91 84 92 85 93 88 94 86 95 65 96
REMARK SMILES IDX 66 97 74 98 67 99 68 100 72 101 75 102 69 103 70 104 73 105
REMARK SMILES IDX 71 106
REMARK H PARENT 15 16 20 32 95 59 63 70
REMARK Flexibility Score: inf
ROOT
ATOM      1  C   UNL A   1      34.563  23.671  25.488  1.00  0.00     0.188 C 
ENDROOT
BRANCH   1   2
ATOM      2  C   UNL A   1      33.346  24.607  25.260  1.00  0.00     0.188 C 
BRANCH   2   3
ATOM      3  O   UNL A   1      33.430  25.432  24.113  1.00  0.00    -0.376 OA
BRANCH   3   4
ATOM      4  C   UNL A   1      33.550  26.831  24.264  1.00  0.00     0.202 C 
BRANCH   4   5
ATOM      5  C   UNL A   1      33.783  27.381  25.675  1.00  0.00     0.261 C 
BRANCH   5   6
ATOM      6  O   UNL A   1      33.932  28.800  25.752  1.00  0.00    -0.460 OA
BRANCH   6   7
ATOM      7  C   UNL A   1      34.074  29.335  26.985  1.00  0.00     0.342 C 
ATOM      8  O   UNL A   1      34.851  28.962  27.847  1.00  0.00    -0.246 OA
BRANCH   7   9
ATOM      9  C   UNL A   1      33.315  30.607  27.046  1.00  0.00     0.103 A 
ATOM     10  C   UNL A   1      33.320  32.946  27.719  1.00  0.00     0.039 A 
ATOM     11  C   UNL A   1      32.027  33.075  27.196  1.00  0.00     0.030 A 
ATOM     12  C   UNL A   1      33.955  31.704  27.647  1.00  0.00     0.045 A 
ATOM     13  C   UNL A   1      31.401  32.002  26.557  1.00  0.00     0.049 A 
ATOM     14  C   UNL A   1      32.048  30.771  26.478  1.00  0.00     0.130 A 
BRANCH  10  15
ATOM     15  N   UNL A   1      33.941  34.012  28.380  1.00  0.00    -0.360 N 
ATOM     16  H   UNL A   1      33.426  34.842  28.506  1.00  0.00     0.166 HD
BRANCH  15  17
ATOM     17  C   UNL A   1      35.225  33.970  28.865  1.00  0.00     0.119 C 
ATOM     18  O   UNL A   1      33.604  34.206  31.410  1.00  0.00    -0.244 OA
ATOM     19  C   UNL A   1      34.812  34.176  31.327  1.00  0.00     0.365 C 
ATOM     20  O   UNL A   1      35.723  34.221  32.344  1.00  0.00    -0.402 OA
ATOM     21  C   UNL A   1      35.675  34.081  30.119  1.00  0.00     0.168 C 
ATOM     22  C   UNL A   1      36.939  34.204  31.755  1.00  0.00     0.231 C 
ATOM     23  N   UNL A   1      36.998  34.124  30.467  1.00  0.00    -0.204 NA
BRANCH  22  24
ATOM     24  C   UNL A   1      38.072  34.337  32.663  1.00  0.00     0.037 A 
ATOM     25  C   UNL A   1      39.376  34.383  32.165  1.00  0.00     0.015 A 
ATOM     26  C   UNL A   1      37.822  34.466  34.033  1.00  0.00     0.015 A 
ATOM     27  C   UNL A   1      40.440  34.567  33.051  1.00  0.00     0.021 A 
ATOM     28  C   UNL A   1      38.890  34.630  34.916  1.00  0.00     0.021 A 
ATOM     29  C   UNL A   1      40.194  34.686  34.422  1.00  0.00     0.041 A 
ATOM     30  Cl  UNL A   1      41.507  34.912  35.508  1.00  0.00    -0.084 Cl
ENDBRANCH  22  24
ENDBRANCH  15  17
ENDBRANCH  10  15
BRANCH  14  31
ATOM     31  O   UNL A   1      31.422  29.734  25.848  1.00  0.00    -0.507 OA
ATOM     32  H   UNL A   1      31.928  29.089  25.393  1.00  0.00     0.293 HD
ENDBRANCH  14  31
ENDBRANCH   7   9
ENDBRANCH   6   7
ENDBRANCH   5   6
ENDBRANCH   4   5
ENDBRANCH   3   4
ENDBRANCH   2   3
ENDBRANCH   1   2
BRANCH   1  33
ATOM     33  O   UNL A   1      34.519  22.262  25.271  1.00  0.00    -0.377 OA
BRANCH  33  34
ATOM     34  C   UNL A   1      35.726  21.519  25.191  1.00  0.00     0.188 C 
BRANCH  34  35
ATOM     35  C   UNL A   1      35.616  19.991  25.002  1.00  0.00     0.188 C 
BRANCH  35  36
ATOM     36  O   UNL A   1      36.872  19.334  25.002  1.00  0.00    -0.376 OA
BRANCH  36  37
ATOM     37  C   UNL A   1      38.030  20.095  25.290  1.00  0.00     0.202 C 
BRANCH  37  38
ATOM     38  C   UNL A   1      39.357  19.387  25.608  1.00  0.00     0.261 C 
BRANCH  38  39
ATOM     39  O   UNL A   1      40.073  19.820  26.773  1.00  0.00    -0.460 OA
BRANCH  39  40
ATOM     40  C   UNL A   1      41.372  20.154  26.627  1.00  0.00     0.338 C 
ATOM     41  O   UNL A   1      42.261  19.481  26.142  1.00  0.00    -0.246 OA
BRANCH  40  42
ATOM     42  C   UNL A   1      41.497  21.579  27.002  1.00  0.00     0.060 A 
ATOM     43  C   UNL A   1      40.723  22.538  26.331  1.00  0.00     0.016 A 
ATOM     44  C   UNL A   1      42.368  21.962  28.024  1.00  0.00     0.016 A 
ATOM     45  C   UNL A   1      40.845  23.888  26.660  1.00  0.00     0.010 A 
ATOM     46  C   UNL A   1      42.508  23.316  28.334  1.00  0.00     0.010 A 
ATOM     47  C   UNL A   1      41.774  24.287  27.629  1.00  0.00    -0.014 A 
BRANCH  47  48
ATOM     48  C   UNL A   1      42.146  25.717  27.752  1.00  0.00     0.031 A 
ATOM     49  C   UNL A   1      43.460  26.155  27.167  1.00  0.00     0.074 A 
ATOM     50  C   UNL A   1      41.342  26.607  28.357  1.00  0.00     0.049 A 
ATOM     51  N   UNL A   1      44.052  27.320  27.220  1.00  0.00    -0.248 NA
ATOM     52  C   UNL A   1      44.212  25.130  26.423  1.00  0.00     0.031 C 
ATOM     53  C   UNL A   1      40.025  26.316  28.916  1.00  0.00     0.029 A 
ATOM     54  N   UNL A   1      41.531  27.942  28.614  1.00  0.00    -0.354 N 
ATOM     55  C   UNL A   1      45.247  27.164  26.531  1.00  0.00     0.074 A 
ATOM     56  C   UNL A   1      45.314  25.786  26.096  1.00  0.00     0.031 C 
ATOM     57  C   UNL A   1      39.529  27.438  29.467  1.00  0.00     0.029 A 
ATOM     58  C   UNL A   1      40.512  28.513  29.334  1.00  0.00     0.049 A 
ATOM     59  H   UNL A   1      42.323  28.443  28.310  1.00  0.00     0.167 HD
ATOM     60  C   UNL A   1      46.201  28.090  26.278  1.00  0.00     0.037 A 
ATOM     61  C   UNL A   1      40.404  29.753  29.852  1.00  0.00     0.037 A 
ATOM     62  C   UNL A   1      46.131  29.458  26.717  1.00  0.00     0.049 A 
ATOM     63  C   UNL A   1      41.522  30.744  29.632  1.00  0.00     0.074 A 
ATOM     64  C   UNL A   1      47.040  30.479  26.504  1.00  0.00     0.029 A 
ATOM     65  N   UNL A   1      45.096  29.992  27.471  1.00  0.00    -0.354 N 
ATOM     66  N   UNL A   1      42.642  30.600  28.964  1.00  0.00    -0.248 NA
ATOM     67  C   UNL A   1      41.357  32.074  30.236  1.00  0.00     0.031 C 
ATOM     68  C   UNL A   1      46.586  31.615  27.183  1.00  0.00     0.029 A 
ATOM     69  C   UNL A   1      45.358  31.322  27.756  1.00  0.00     0.049 A 
ATOM     70  H   UNL A   1      44.295  29.499  27.760  1.00  0.00     0.167 HD
ATOM     71  C   UNL A   1      43.292  31.826  29.036  1.00  0.00     0.074 A 
ATOM     72  C   UNL A   1      42.438  32.706  29.803  1.00  0.00     0.031 C 
ATOM     73  C   UNL A   1      44.488  32.192  28.508  1.00  0.00     0.037 A 
BRANCH  60  74
ATOM     74  C   UNL A   1      47.420  27.642  25.523  1.00  0.00     0.064 A 
ATOM     75  C   UNL A   1      48.543  27.112  26.177  1.00  0.00     0.173 A 
ATOM     76  C   UNL A   1      47.454  27.721  24.123  1.00  0.00     0.173 A 
ATOM     77  F   UNL A   1      48.571  27.029  27.515  1.00  0.00    -0.203 F 
ATOM     78  C   UNL A   1      49.665  26.707  25.457  1.00  0.00     0.198 A 
ATOM     79  C   UNL A   1      48.562  27.282  23.405  1.00  0.00     0.198 A 
ATOM     80  F   UNL A   1      46.406  28.218  23.448  1.00  0.00    -0.203 F 
ATOM     81  F   UNL A   1      50.748  26.255  26.105  1.00  0.00    -0.200 F 
ATOM     82  C   UNL A   1      49.671  26.784  24.073  1.00  0.00     0.200 A 
ATOM     83  F   UNL A   1      48.559  27.344  22.067  1.00  0.00    -0.200 F 
ATOM     84  F   UNL A   1      50.747  26.384  23.382  1.00  0.00    -0.200 F 
ENDBRANCH  60  74
BRANCH  61  85
ATOM     85  C   UNL A   1      39.205  30.129  30.648  1.00  0.00     0.064 A 
ATOM     86  C   UNL A   1      39.270  30.249  32.044  1.00  0.00     0.173 A 
ATOM     87  C   UNL A   1      37.961  30.342  30.034  1.00  0.00     0.173 A 
ATOM     88  F   UNL A   1      40.428  30.028  32.682  1.00  0.00    -0.203 F 
ATOM     89  C   UNL A   1      38.133  30.546  32.796  1.00  0.00     0.198 A 
ATOM     90  C   UNL A   1      36.834  30.672  30.784  1.00  0.00     0.198 A 
ATOM     91  F   UNL A   1      37.841  30.235  28.702  1.00  0.00    -0.203 F 
ATOM     92  F   UNL A   1      38.213  30.598  34.133  1.00  0.00    -0.200 F 
ATOM     93  C   UNL A   1      36.918  30.764  32.164  1.00  0.00     0.200 A 
ATOM     94  F   UNL A   1      35.664  30.893  30.168  1.00  0.00    -0.200 F 
ATOM     95  F   UNL A   1      35.826  31.048  32.888  1.00  0.00    -0.200 F 
ENDBRANCH  61  85
BRANCH  73  96
ATOM     96  C   UNL A   1      44.923  33.620  28.691  1.00  0.00     0.064 A 
ATOM     97  C   UNL A   1      44.517  34.639  27.817  1.00  0.00     0.173 A 
ATOM     98  C   UNL A   1      45.717  33.979  29.792  1.00  0.00     0.173 A 
ATOM     99  F   UNL A   1      43.767  34.349  26.743  1.00  0.00    -0.203 F 
ATOM    100  C   UNL A   1      44.915  35.958  28.022  1.00  0.00     0.198 A 
ATOM    101  C   UNL A   1      46.082  35.304  30.014  1.00  0.00     0.198 A 
ATOM    102  F   UNL A   1      46.125  33.046  30.666  1.00  0.00    -0.203 F 
ATOM    103  F   UNL A   1      44.559  36.907  27.144  1.00  0.00    -0.200 F 
ATOM    104  C   UNL A   1      45.688  36.291  29.124  1.00  0.00     0.200 A 
ATOM    105  F   UNL A   1      46.812  35.625  31.091  1.00  0.00    -0.200 F 
ATOM    106  F   UNL A   1      46.060  37.563  29.326  1.00  0.00    -0.200 F 
ENDBRANCH  73  96
ENDBRANCH  47  48
ENDBRANCH  40  42
ENDBRANCH  39  40
ENDBRANCH  38  39
ENDBRANCH  37  38
ENDBRANCH  36  37
ENDBRANCH  35  36
ENDBRANCH  34  35
ENDBRANCH  33  34
ENDBRANCH   1  33
TORSDOF 24
ENDMDL
MODEL 2
REMARK VINA RESULT:     -10.0      0.897      7.004
REMARK SMILES O=C1OC(c2ccc(Cl)cc2)=N/C1=C/Nc1ccc(O)c(C(=O)OCCOCCOCCOCCOC(=O)c2ccc(-c3c4nc(c(-c5c(F)c(F)c(F)c(F)c5F)c5ccc([nH]5)c(-c5c(F)c(F)c(F)c(F)c5F)c5nc(c(-c6c(F)c(F)c(F)c(F)c6F)c6ccc3[nH]6)C=C5)C=C4)cc2)c1
REMARK SMILES IDX 29 1 28 2 27 3 26 4 25 5 24 6 22 7 23 8 21 9 16 10 17 11
REMARK SMILES IDX 102 12 18 13 19 14 15 15 14 17 1 18 2 19 3 20 13 21 4 22
REMARK SMILES IDX 12 23 5 24 6 25 11 26 7 27 10 28 8 29 9 30 20 31 30 33 31 34
REMARK SMILES IDX 32 35 33 36 34 37 35 38 36 39 37 40 38 41 39 42 40 43 101 44
REMARK SMILES IDX 41 45 100 46 42 47 43 48 44 49 94 50 45 51 99 52 93 53 95 54
REMARK SMILES IDX 46 55 98 56 92 57 91 58 47 60 79 61 59 62 78 63 60 64 63 65
REMARK SMILES IDX 77 66 96 67 61 68 62 69 76 71 97 72 64 73 48 74 49 75 57 76
REMARK SMILES IDX 50 77 51 78 55 79 58 80 52 81 53 82 56 83 54 84 80 85 81 86
REMARK SMILES IDX 89 87 82 88 83 89 87 90 90 91 84 92 85 93 88 94 86 95 65 96
REMARK SMILES IDX 66 97 74 98 67 99 68 100 72 101 75 102 69 103 70 104 73 105
REMARK SMILES IDX 71 106
REMARK H PARENT 15 16 20 32 95 59 63 70
REMARK Flexibility Score: inf
ROOT
ATOM      1  C   UNL A   1      33.690  23.750  25.738  1.00  0.00     0.188 C 
ENDROOT
BRANCH   1   2
ATOM      2  C   UNL A   1      32.553  24.805  25.762  1.00  0.00     0.188 C 
BRANCH   2   3
ATOM      3  O   UNL A   1      32.535  25.694  24.660  1.00  0.00    -0.376 OA
BRANCH   3   4
ATOM      4  C   UNL A   1      33.485  26.736  24.586  1.00  0.00     0.202 C 
BRANCH   4   5
ATOM      5  C   UNL A   1      33.946  27.378  25.899  1.00  0.00     0.261 C 
BRANCH   5   6
ATOM      6  O   UNL A   1      34.000  28.807  25.884  1.00  0.00    -0.460 OA
BRANCH   6   7
ATOM      7  C   UNL A   1      34.074  29.429  27.081  1.00  0.00     0.342 C 
ATOM      8  O   UNL A   1      34.852  29.166  27.983  1.00  0.00    -0.246 OA
BRANCH   7   9
ATOM      9  C   UNL A   1      33.231  30.647  27.042  1.00  0.00     0.103 A 
ATOM     10  C   UNL A   1      33.063  33.020  27.557  1.00  0.00     0.039 A 
ATOM     11  C   UNL A   1      31.778  33.026  27.001  1.00  0.00     0.030 A 
ATOM     12  C   UNL A   1      33.781  31.822  27.581  1.00  0.00     0.045 A 
ATOM     13  C   UNL A   1      31.240  31.873  26.423  1.00  0.00     0.049 A 
ATOM     14  C   UNL A   1      31.969  30.686  26.439  1.00  0.00     0.130 A 
BRANCH  10  15
ATOM     15  N   UNL A   1      33.595  34.167  28.157  1.00  0.00    -0.360 N 
ATOM     16  H   UNL A   1      33.869  34.910  27.572  1.00  0.00     0.166 HD
BRANCH  15  17
ATOM     17  C   UNL A   1      33.757  34.319  29.512  1.00  0.00     0.119 C 
ATOM     18  O   UNL A   1      36.608  33.905  28.586  1.00  0.00    -0.244 OA
ATOM     19  C   UNL A   1      36.237  34.047  29.730  1.00  0.00     0.365 C 
ATOM     20  O   UNL A   1      37.002  34.072  30.862  1.00  0.00    -0.402 OA
ATOM     21  C   UNL A   1      34.860  34.235  30.262  1.00  0.00     0.168 C 
ATOM     22  C   UNL A   1      36.138  34.207  31.892  1.00  0.00     0.231 C 
ATOM     23  N   UNL A   1      34.877  34.307  31.629  1.00  0.00    -0.204 NA
BRANCH  22  24
ATOM     24  C   UNL A   1      36.740  34.166  33.219  1.00  0.00     0.037 A 
ATOM     25  C   UNL A   1      35.956  33.901  34.344  1.00  0.00     0.015 A 
ATOM     26  C   UNL A   1      38.122  34.348  33.334  1.00  0.00     0.015 A 
ATOM     27  C   UNL A   1      36.566  33.812  35.598  1.00  0.00     0.021 A 
ATOM     28  C   UNL A   1      38.724  34.278  34.592  1.00  0.00     0.021 A 
ATOM     29  C   UNL A   1      37.945  34.004  35.716  1.00  0.00     0.041 A 
ATOM     30  Cl  UNL A   1      38.692  33.893  37.262  1.00  0.00    -0.084 Cl
ENDBRANCH  22  24
ENDBRANCH  15  17
ENDBRANCH  10  15
BRANCH  14  31
ATOM     31  O   UNL A   1      31.430  29.570  25.868  1.00  0.00    -0.507 OA
ATOM     32  H   UNL A   1      30.571  29.604  25.493  1.00  0.00     0.293 HD
ENDBRANCH  14  31
ENDBRANCH   7   9
ENDBRANCH   6   7
ENDBRANCH   5   6
ENDBRANCH   4   5
ENDBRANCH   3   4
ENDBRANCH   2   3
ENDBRANCH   1   2
BRANCH   1  33
ATOM     33  O   UNL A   1      33.457  22.349  25.611  1.00  0.00    -0.377 OA
BRANCH  33  34
ATOM     34  C   UNL A   1      34.098  21.614  24.579  1.00  0.00     0.188 C 
BRANCH  34  35
ATOM     35  C   UNL A   1      34.300  20.099  24.797  1.00  0.00     0.188 C 
BRANCH  35  36
ATOM     36  O   UNL A   1      35.647  19.685  24.644  1.00  0.00    -0.376 OA
BRANCH  36  37
ATOM     37  C   UNL A   1      36.674  20.604  24.966  1.00  0.00     0.202 C 
BRANCH  37  38
ATOM     38  C   UNL A   1      38.109  20.104  25.201  1.00  0.00     0.261 C 
BRANCH  38  39
ATOM     39  O   UNL A   1      38.745  20.481  26.431  1.00  0.00    -0.460 OA
BRANCH  39  40
ATOM     40  C   UNL A   1      40.094  20.500  26.463  1.00  0.00     0.338 C 
ATOM     41  O   UNL A   1      40.857  19.635  26.080  1.00  0.00    -0.246 OA
BRANCH  40  42
ATOM     42  C   UNL A   1      40.496  21.858  26.888  1.00  0.00     0.060 A 
ATOM     43  C   UNL A   1      39.986  22.972  26.205  1.00  0.00     0.016 A 
ATOM     44  C   UNL A   1      41.366  22.026  27.967  1.00  0.00     0.016 A 
ATOM     45  C   UNL A   1      40.373  24.258  26.582  1.00  0.00     0.010 A 
ATOM     46  C   UNL A   1      41.773  23.313  28.326  1.00  0.00     0.010 A 
ATOM     47  C   UNL A   1      41.306  24.432  27.612  1.00  0.00    -0.014 A 
BRANCH  47  48
ATOM     48  C   UNL A   1      41.966  25.746  27.799  1.00  0.00     0.031 A 
ATOM     49  C   UNL A   1      41.221  26.805  28.562  1.00  0.00     0.074 A 
ATOM     50  C   UNL A   1      43.194  25.995  27.313  1.00  0.00     0.049 A 
ATOM     51  N   UNL A   1      41.538  28.055  28.783  1.00  0.00    -0.248 NA
ATOM     52  C   UNL A   1      39.936  26.396  29.153  1.00  0.00     0.031 C 
ATOM     53  C   UNL A   1      44.034  25.036  26.604  1.00  0.00     0.029 A 
ATOM     54  N   UNL A   1      43.939  27.148  27.335  1.00  0.00    -0.354 N 
ATOM     55  C   UNL A   1      40.489  28.582  29.525  1.00  0.00     0.074 A 
ATOM     56  C   UNL A   1      39.510  27.529  29.689  1.00  0.00     0.031 C 
ATOM     57  C   UNL A   1      45.177  25.645  26.241  1.00  0.00     0.029 A 
ATOM     58  C   UNL A   1      45.129  27.046  26.658  1.00  0.00     0.049 A 
ATOM     59  H   UNL A   1      43.648  27.969  27.794  1.00  0.00     0.167 HD
ATOM     60  C   UNL A   1      40.356  29.831  30.028  1.00  0.00     0.037 A 
ATOM     61  C   UNL A   1      46.053  27.987  26.382  1.00  0.00     0.037 A 
ATOM     62  C   UNL A   1      41.330  30.875  29.857  1.00  0.00     0.049 A 
ATOM     63  C   UNL A   1      45.842  29.397  26.881  1.00  0.00     0.074 A 
ATOM     64  C   UNL A   1      41.297  32.172  30.337  1.00  0.00     0.029 A 
ATOM     65  N   UNL A   1      42.510  30.742  29.139  1.00  0.00    -0.354 N 
ATOM     66  N   UNL A   1      44.858  29.888  27.596  1.00  0.00    -0.248 NA
ATOM     67  C   UNL A   1      46.874  30.385  26.533  1.00  0.00     0.031 C 
ATOM     68  C   UNL A   1      42.425  32.844  29.855  1.00  0.00     0.029 A 
ATOM     69  C   UNL A   1      43.200  31.944  29.138  1.00  0.00     0.049 A 
ATOM     70  H   UNL A   1      42.813  29.917  28.697  1.00  0.00     0.167 HD
ATOM     71  C   UNL A   1      45.172  31.223  27.816  1.00  0.00     0.074 A 
ATOM     72  C   UNL A   1      46.442  31.466  27.167  1.00  0.00     0.031 C 
ATOM     73  C   UNL A   1      44.473  32.165  28.500  1.00  0.00     0.037 A 
BRANCH  60  74
ATOM     74  C   UNL A   1      39.094  30.146  30.779  1.00  0.00     0.064 A 
ATOM     75  C   UNL A   1      39.074  30.269  32.177  1.00  0.00     0.173 A 
ATOM     76  C   UNL A   1      37.892  30.353  30.086  1.00  0.00     0.173 A 
ATOM     77  F   UNL A   1      40.191  30.065  32.890  1.00  0.00    -0.203 F 
ATOM     78  C   UNL A   1      37.891  30.558  32.853  1.00  0.00     0.198 A 
ATOM     79  C   UNL A   1      36.719  30.677  30.762  1.00  0.00     0.198 A 
ATOM     80  F   UNL A   1      37.855  30.249  28.748  1.00  0.00    -0.203 F 
ATOM     81  F   UNL A   1      37.883  30.616  34.192  1.00  0.00    -0.200 F 
ATOM     82  C   UNL A   1      36.717  30.770  32.146  1.00  0.00     0.200 A 
ATOM     83  F   UNL A   1      35.590  30.896  30.075  1.00  0.00    -0.200 F 
ATOM     84  F   UNL A   1      35.582  31.057  32.797  1.00  0.00    -0.200 F 
ENDBRANCH  60  74
BRANCH  61  85
ATOM     85  C   UNL A   1      47.256  27.641  25.579  1.00  0.00     0.064 A 
ATOM     86  C   UNL A   1      47.259  27.773  24.183  1.00  0.00     0.173 A 
ATOM     87  C   UNL A   1      48.417  27.137  26.187  1.00  0.00     0.173 A 
ATOM     88  F   UNL A   1      46.165  28.223  23.551  1.00  0.00    -0.203 F 
ATOM     89  C   UNL A   1      48.366  27.395  23.425  1.00  0.00     0.198 A 
ATOM     90  C   UNL A   1      49.535  26.791  25.431  1.00  0.00     0.198 A 
ATOM     91  F   UNL A   1      48.467  26.985  27.518  1.00  0.00    -0.203 F 
ATOM     92  F   UNL A   1      48.319  27.479  22.088  1.00  0.00    -0.200 F 
ATOM     93  C   UNL A   1      49.505  26.911  24.050  1.00  0.00     0.200 A 
ATOM     94  F   UNL A   1      50.638  26.334  26.040  1.00  0.00    -0.200 F 
ATOM     95  F   UNL A   1      50.569  26.547  23.320  1.00  0.00    -0.200 F 
ENDBRANCH  61  85
BRANCH  73  96
ATOM     96  C   UNL A   1      45.089  33.530  28.633  1.00  0.00     0.064 A 
ATOM     97  C   UNL A   1      46.048  33.822  29.613  1.00  0.00     0.173 A 
ATOM     98  C   UNL A   1      44.748  34.548  27.726  1.00  0.00     0.173 A 
ATOM     99  F   UNL A   1      46.401  32.891  30.511  1.00  0.00    -0.203 F 
ATOM    100  C   UNL A   1      46.621  35.089  29.700  1.00  0.00     0.198 A 
ATOM    101  C   UNL A   1      45.349  35.802  27.793  1.00  0.00     0.198 A 
ATOM    102  F   UNL A   1      43.844  34.320  26.762  1.00  0.00    -0.203 F 
ATOM    103  F   UNL A   1      47.496  35.361  30.678  1.00  0.00    -0.200 F 
ATOM    104  C   UNL A   1      46.278  36.074  28.785  1.00  0.00     0.200 A 
ATOM    105  F   UNL A   1      45.032  36.744  26.895  1.00  0.00    -0.200 F 
ATOM    106  F   UNL A   1      46.839  37.289  28.863  1.00  0.00    -0.200 F 
ENDBRANCH  73  96
ENDBRANCH  47  48
ENDBRANCH  40  42
ENDBRANCH  39  40
ENDBRANCH  38  39
ENDBRANCH  37  38
ENDBRANCH  36  37
ENDBRANCH  35  36
ENDBRANCH  34  35
ENDBRANCH  33  34
ENDBRANCH   1  33
TORSDOF 24
ENDMDL
MODEL 3
REMARK VINA RESULT:      -9.6      4.579     10.384
REMARK SMILES O=C1OC(c2ccc(Cl)cc2)=N/C1=C/Nc1ccc(O)c(C(=O)OCCOCCOCCOCCOC(=O)c2ccc(-c3c4nc(c(-c5c(F)c(F)c(F)c(F)c5F)c5ccc([nH]5)c(-c5c(F)c(F)c(F)c(F)c5F)c5nc(c(-c6c(F)c(F)c(F)c(F)c6F)c6ccc3[nH]6)C=C5)C=C4)cc2)c1
REMARK SMILES IDX 29 1 28 2 27 3 26 4 25 5 24 6 22 7 23 8 21 9 16 10 17 11
REMARK SMILES IDX 102 12 18 13 19 14 15 15 14 17 1 18 2 19 3 20 13 21 4 22
REMARK SMILES IDX 12 23 5 24 6 25 11 26 7 27 10 28 8 29 9 30 20 31 30 33 31 34
REMARK SMILES IDX 32 35 33 36 34 37 35 38 36 39 37 40 38 41 39 42 40 43 101 44
REMARK SMILES IDX 41 45 100 46 42 47 43 48 44 49 94 50 45 51 99 52 93 53 95 54
REMARK SMILES IDX 46 55 98 56 92 57 91 58 47 60 79 61 59 62 78 63 60 64 63 65
REMARK SMILES IDX 77 66 96 67 61 68 62 69 76 71 97 72 64 73 48 74 49 75 57 76
REMARK SMILES IDX 50 77 51 78 55 79 58 80 52 81 53 82 56 83 54 84 80 85 81 86
REMARK SMILES IDX 89 87 82 88 83 89 87 90 90 91 84 92 85 93 88 94 86 95 65 96
REMARK SMILES IDX 66 97 74 98 67 99 68 100 72 101 75 102 69 103 70 104 73 105
REMARK SMILES IDX 71 106
REMARK H PARENT 15 16 20 32 95 59 63 70
REMARK Flexibility Score: inf
ROOT
ATOM      1  C   UNL A   1      32.538  36.447  31.372  1.00  0.00     0.188 C 
ENDROOT
BRANCH   1   2
ATOM      2  C   UNL A   1      33.165  36.442  29.953  1.00  0.00     0.188 C 
BRANCH   2   3
ATOM      3  O   UNL A   1      32.647  35.464  29.071  1.00  0.00    -0.376 OA
BRANCH   3   4
ATOM      4  C   UNL A   1      33.524  34.747  28.228  1.00  0.00     0.202 C 
BRANCH   4   5
ATOM      5  C   UNL A   1      33.395  33.221  28.192  1.00  0.00     0.261 C 
BRANCH   5   6
ATOM      6  O   UNL A   1      34.546  32.508  28.650  1.00  0.00    -0.460 OA
BRANCH   6   7
ATOM      7  C   UNL A   1      34.908  32.691  29.939  1.00  0.00     0.342 C 
ATOM      8  O   UNL A   1      34.164  32.979  30.862  1.00  0.00    -0.246 OA
BRANCH   7   9
ATOM      9  C   UNL A   1      36.310  32.244  30.112  1.00  0.00     0.103 A 
ATOM     10  C   UNL A   1      37.945  30.484  29.722  1.00  0.00     0.039 A 
ATOM     11  C   UNL A   1      38.919  31.285  30.331  1.00  0.00     0.030 A 
ATOM     12  C   UNL A   1      36.639  30.968  29.624  1.00  0.00     0.045 A 
ATOM     13  C   UNL A   1      38.612  32.572  30.780  1.00  0.00     0.049 A 
ATOM     14  C   UNL A   1      37.309  33.052  30.666  1.00  0.00     0.130 A 
BRANCH  10  15
ATOM     15  N   UNL A   1      38.244  29.186  29.292  1.00  0.00    -0.360 N 
ATOM     16  H   UNL A   1      37.813  28.433  29.758  1.00  0.00     0.166 HD
BRANCH  15  17
ATOM     17  C   UNL A   1      39.100  28.898  28.258  1.00  0.00     0.119 C 
ATOM     18  O   UNL A   1      40.631  27.846  30.647  1.00  0.00    -0.244 OA
ATOM     19  C   UNL A   1      41.010  27.852  29.497  1.00  0.00     0.365 C 
ATOM     20  O   UNL A   1      42.191  27.378  29.000  1.00  0.00    -0.402 OA
ATOM     21  C   UNL A   1      40.326  28.366  28.278  1.00  0.00     0.168 C 
ATOM     22  C   UNL A   1      42.173  27.648  27.676  1.00  0.00     0.231 C 
ATOM     23  N   UNL A   1      41.128  28.221  27.178  1.00  0.00    -0.204 NA
BRANCH  22  24
ATOM     24  C   UNL A   1      43.392  27.303  26.955  1.00  0.00     0.037 A 
ATOM     25  C   UNL A   1      43.511  26.064  26.320  1.00  0.00     0.015 A 
ATOM     26  C   UNL A   1      44.414  28.253  26.870  1.00  0.00     0.015 A 
ATOM     27  C   UNL A   1      44.667  25.779  25.589  1.00  0.00     0.021 A 
ATOM     28  C   UNL A   1      45.575  27.956  26.154  1.00  0.00     0.021 A 
ATOM     29  C   UNL A   1      45.694  26.723  25.512  1.00  0.00     0.041 A 
ATOM     30  Cl  UNL A   1      47.114  26.367  24.610  1.00  0.00    -0.084 Cl
ENDBRANCH  22  24
ENDBRANCH  15  17
ENDBRANCH  10  15
BRANCH  14  31
ATOM     31  O   UNL A   1      37.027  34.312  31.107  1.00  0.00    -0.507 OA
ATOM     32  H   UNL A   1      37.066  35.037  30.513  1.00  0.00     0.293 HD
ENDBRANCH  14  31
ENDBRANCH   7   9
ENDBRANCH   6   7
ENDBRANCH   5   6
ENDBRANCH   4   5
ENDBRANCH   3   4
ENDBRANCH   2   3
ENDBRANCH   1   2
BRANCH   1  33
ATOM     33  O   UNL A   1      32.986  37.299  32.424  1.00  0.00    -0.377 OA
BRANCH  33  34
ATOM     34  C   UNL A   1      34.004  36.858  33.310  1.00  0.00     0.188 C 
BRANCH  34  35
ATOM     35  C   UNL A   1      34.375  35.360  33.286  1.00  0.00     0.188 C 
BRANCH  35  36
ATOM     36  O   UNL A   1      35.663  35.093  33.815  1.00  0.00    -0.376 OA
BRANCH  36  37
ATOM     37  C   UNL A   1      35.800  34.042  34.753  1.00  0.00     0.202 C 
BRANCH  37  38
ATOM     38  C   UNL A   1      36.995  33.078  34.660  1.00  0.00     0.261 C 
BRANCH  38  39
ATOM     39  O   UNL A   1      37.762  32.863  35.853  1.00  0.00    -0.460 OA
BRANCH  39  40
ATOM     40  C   UNL A   1      38.190  31.609  36.110  1.00  0.00     0.338 C 
ATOM     41  O   UNL A   1      37.704  30.803  36.880  1.00  0.00    -0.246 OA
BRANCH  40  42
ATOM     42  C   UNL A   1      39.268  31.314  35.142  1.00  0.00     0.060 A 
ATOM     43  C   UNL A   1      39.095  30.277  34.214  1.00  0.00     0.016 A 
ATOM     44  C   UNL A   1      40.441  32.072  35.147  1.00  0.00     0.016 A 
ATOM     45  C   UNL A   1      40.112  29.974  33.308  1.00  0.00     0.010 A 
ATOM     46  C   UNL A   1      41.468  31.750  34.258  1.00  0.00     0.010 A 
ATOM     47  C   UNL A   1      41.322  30.677  33.359  1.00  0.00    -0.014 A 
BRANCH  47  48
ATOM     48  C   UNL A   1      42.510  30.157  32.641  1.00  0.00     0.031 A 
ATOM     49  C   UNL A   1      43.197  28.944  33.203  1.00  0.00     0.074 A 
ATOM     50  C   UNL A   1      42.966  30.737  31.518  1.00  0.00     0.049 A 
ATOM     51  N   UNL A   1      44.298  28.352  32.817  1.00  0.00    -0.248 NA
ATOM     52  C   UNL A   1      42.550  28.315  34.367  1.00  0.00     0.031 C 
ATOM     53  C   UNL A   1      42.359  31.883  30.849  1.00  0.00     0.029 A 
ATOM     54  N   UNL A   1      44.066  30.441  30.751  1.00  0.00    -0.354 N 
ATOM     55  C   UNL A   1      44.482  27.294  33.696  1.00  0.00     0.074 A 
ATOM     56  C   UNL A   1      43.399  27.341  34.655  1.00  0.00     0.031 C 
ATOM     57  C   UNL A   1      43.104  32.206  29.777  1.00  0.00     0.029 A 
ATOM     58  C   UNL A   1      44.262  31.314  29.710  1.00  0.00     0.049 A 
ATOM     59  H   UNL A   1      44.658  29.674  30.929  1.00  0.00     0.167 HD
ATOM     60  C   UNL A   1      45.463  26.362  33.701  1.00  0.00     0.037 A 
ATOM     61  C   UNL A   1      45.277  31.399  28.828  1.00  0.00     0.037 A 
ATOM     62  C   UNL A   1      46.539  26.324  32.747  1.00  0.00     0.049 A 
ATOM     63  C   UNL A   1      46.407  30.400  28.906  1.00  0.00     0.074 A 
ATOM     64  C   UNL A   1      47.579  25.415  32.656  1.00  0.00     0.029 A 
ATOM     65  N   UNL A   1      46.721  27.244  31.725  1.00  0.00    -0.354 N 
ATOM     66  N   UNL A   1      46.569  29.390  29.726  1.00  0.00    -0.248 NA
ATOM     67  C   UNL A   1      47.496  30.555  27.929  1.00  0.00     0.031 C 
ATOM     68  C   UNL A   1      48.424  25.822  31.619  1.00  0.00     0.029 A 
ATOM     69  C   UNL A   1      47.872  26.941  31.015  1.00  0.00     0.049 A 
ATOM     70  H   UNL A   1      46.120  27.999  31.531  1.00  0.00     0.167 HD
ATOM     71  C   UNL A   1      47.751  28.769  29.342  1.00  0.00     0.074 A 
ATOM     72  C   UNL A   1      48.261  29.509  28.208  1.00  0.00     0.031 C 
ATOM     73  C   UNL A   1      48.358  27.679  29.877  1.00  0.00     0.037 A 
BRANCH  60  74
ATOM     74  C   UNL A   1      45.438  25.332  34.793  1.00  0.00     0.064 A 
ATOM     75  C   UNL A   1      44.866  24.064  34.603  1.00  0.00     0.173 A 
ATOM     76  C   UNL A   1      46.017  25.609  36.040  1.00  0.00     0.173 A 
ATOM     77  F   UNL A   1      44.284  23.752  33.436  1.00  0.00    -0.203 F 
ATOM     78  C   UNL A   1      44.850  23.125  35.632  1.00  0.00     0.198 A 
ATOM     79  C   UNL A   1      46.032  24.656  37.054  1.00  0.00     0.198 A 
ATOM     80  F   UNL A   1      46.579  26.805  36.275  1.00  0.00    -0.203 F 
ATOM     81  F   UNL A   1      44.250  21.941  35.447  1.00  0.00    -0.200 F 
ATOM     82  C   UNL A   1      45.439  23.418  36.852  1.00  0.00     0.200 A 
ATOM     83  F   UNL A   1      46.615  24.936  38.227  1.00  0.00    -0.200 F 
ATOM     84  F   UNL A   1      45.431  22.510  37.838  1.00  0.00    -0.200 F 
ENDBRANCH  60  74
BRANCH  61  85
ATOM     85  C   UNL A   1      45.289  32.478  27.804  1.00  0.00     0.064 A 
ATOM     86  C   UNL A   1      46.038  33.648  27.993  1.00  0.00     0.173 A 
ATOM     87  C   UNL A   1      44.526  32.377  26.631  1.00  0.00     0.173 A 
ATOM     88  F   UNL A   1      46.763  33.807  29.110  1.00  0.00    -0.203 F 
ATOM     89  C   UNL A   1      46.006  34.684  27.060  1.00  0.00     0.198 A 
ATOM     90  C   UNL A   1      44.521  33.399  25.683  1.00  0.00     0.198 A 
ATOM     91  F   UNL A   1      43.786  31.282  26.401  1.00  0.00    -0.203 F 
ATOM     92  F   UNL A   1      46.686  35.815  27.294  1.00  0.00    -0.200 F 
ATOM     93  C   UNL A   1      45.252  34.556  25.903  1.00  0.00     0.200 A 
ATOM     94  F   UNL A   1      43.800  33.265  24.561  1.00  0.00    -0.200 F 
ATOM     95  F   UNL A   1      45.221  35.552  25.007  1.00  0.00    -0.200 F 
ENDBRANCH  61  85
BRANCH  73  96
ATOM     96  C   UNL A   1      49.611  27.181  29.211  1.00  0.00     0.064 A 
ATOM     97  C   UNL A   1      50.888  27.560  29.649  1.00  0.00     0.173 A 
ATOM     98  C   UNL A   1      49.528  26.267  28.147  1.00  0.00     0.173 A 
ATOM     99  F   UNL A   1      51.024  28.438  30.653  1.00  0.00    -0.203 F 
ATOM    100  C   UNL A   1      52.034  27.066  29.029  1.00  0.00     0.198 A 
ATOM    101  C   UNL A   1      50.675  25.748  27.554  1.00  0.00     0.198 A 
ATOM    102  F   UNL A   1      48.331  25.863  27.694  1.00  0.00    -0.203 F 
ATOM    103  F   UNL A   1      53.243  27.482  29.431  1.00  0.00    -0.200 F 
ATOM    104  C   UNL A   1      51.926  26.154  27.990  1.00  0.00     0.200 A 
ATOM    105  F   UNL A   1      50.568  24.851  26.563  1.00  0.00    -0.200 F 
ATOM    106  F   UNL A   1      53.030  25.670  27.402  1.00  0.00    -0.200 F 
ENDBRANCH  73  96
ENDBRANCH  47  48
ENDBRANCH  40  42
ENDBRANCH  39  40
ENDBRANCH  38  39
ENDBRANCH  37  38
ENDBRANCH  36  37
ENDBRANCH  35  36
ENDBRANCH  34  35
ENDBRANCH  33  34
ENDBRANCH   1  33
TORSDOF 24
ENDMDL
