MODEL 1
REMARK VINA RESULT:     -10.1      0.000      0.000
REMARK SMILES COc1ccc(OCCNc2c(Cl)cccc2C(=O)OCCOCCOCCOCCOC(=O)c2ccc(-c3c4nc(c(-c5c(F)c(F)c(F)c(F)c5F)c5ccc([nH]5)c(-c5c(F)c(F)c(F)c(F)c5F)c5nc(c(-c6c(F)c(F)c(F)c(F)c6F)c6ccc3[nH]6)C=C5)C=C4)cc2)cc1
REMARK SMILES IDX 24 1 23 2 22 3 21 4 20 5 18 6 19 7 17 8 11 9 12 10 13 11
REMARK SMILES IDX 14 12 16 13 15 14 10 15 9 17 8 18 7 19 6 20 3 21 4 22 99 23
REMARK SMILES IDX 5 24 98 25 2 26 1 27 25 28 26 29 27 30 28 31 29 32 30 33
REMARK SMILES IDX 31 34 32 35 33 36 34 37 35 38 36 39 97 40 37 41 96 42 38 43
REMARK SMILES IDX 39 44 40 45 90 46 41 47 95 48 89 49 91 50 42 51 94 52 88 53
REMARK SMILES IDX 87 54 43 56 75 57 55 58 74 59 56 60 59 61 73 62 92 63 57 64
REMARK SMILES IDX 58 65 72 67 93 68 60 69 44 70 45 71 53 72 46 73 47 74 51 75
REMARK SMILES IDX 54 76 48 77 49 78 52 79 50 80 76 81 77 82 85 83 78 84 79 85
REMARK SMILES IDX 83 86 86 87 80 88 81 89 84 90 82 91 61 92 62 93 70 94 63 95
REMARK SMILES IDX 64 96 68 97 71 98 65 99 66 100 69 101 67 102
REMARK H PARENT 10 16 91 55 59 66
REMARK Flexibility Score: inf
ROOT
ATOM      1  C   UNL A   1      40.927  20.211  27.246  1.00  0.00     0.188 C 
ENDROOT
BRANCH   1   2
ATOM      2  O   UNL A   1      39.942  21.035  26.634  1.00  0.00    -0.376 OA
BRANCH   2   3
ATOM      3  C   UNL A   1      40.213  22.429  26.611  1.00  0.00     0.202 C 
BRANCH   3   4
ATOM      4  C   UNL A   1      38.972  23.291  26.387  1.00  0.00     0.261 C 
BRANCH   4   5
ATOM      5  O   UNL A   1      37.889  22.549  25.812  1.00  0.00    -0.460 OA
BRANCH   5   6
ATOM      6  C   UNL A   1      36.698  23.169  25.733  1.00  0.00     0.340 C 
ATOM      7  O   UNL A   1      36.505  24.370  25.845  1.00  0.00    -0.246 OA
BRANCH   6   8
ATOM      8  C   UNL A   1      35.671  22.213  25.260  1.00  0.00     0.084 A 
ATOM      9  C   UNL A   1      34.394  22.541  24.767  1.00  0.00     0.068 A 
ATOM     10  C   UNL A   1      33.636  21.435  24.277  1.00  0.00     0.065 A 
ATOM     11  Cl  UNL A   1      32.151  21.672  23.411  1.00  0.00    -0.082 Cl
ATOM     12  C   UNL A   1      34.033  20.101  24.417  1.00  0.00     0.023 A 
ATOM     13  C   UNL A   1      36.067  20.858  25.406  1.00  0.00     0.018 A 
ATOM     14  C   UNL A   1      35.240  19.808  25.021  1.00  0.00     0.003 A 
BRANCH   9  15
ATOM     15  N   UNL A   1      33.815  23.798  24.649  1.00  0.00    -0.380 N 
ATOM     16  H   UNL A   1      33.736  24.116  23.721  1.00  0.00     0.160 HD
BRANCH  15  17
ATOM     17  C   UNL A   1      33.300  24.733  25.642  1.00  0.00     0.154 C 
BRANCH  17  18
ATOM     18  C   UNL A   1      31.967  24.241  26.259  1.00  0.00     0.250 C 
BRANCH  18  19
ATOM     19  O   UNL A   1      31.121  25.286  26.764  1.00  0.00    -0.492 OA
BRANCH  19  20
ATOM     20  C   UNL A   1      30.971  26.440  26.050  1.00  0.00     0.119 A 
ATOM     21  C   UNL A   1      30.816  28.560  24.229  1.00  0.00     0.119 A 
ATOM     22  C   UNL A   1      30.079  27.402  24.004  1.00  0.00     0.050 A 
ATOM     23  C   UNL A   1      31.503  28.716  25.426  1.00  0.00     0.050 A 
ATOM     24  C   UNL A   1      30.171  26.339  24.908  1.00  0.00     0.050 A 
ATOM     25  C   UNL A   1      31.553  27.667  26.348  1.00  0.00     0.050 A 
BRANCH  21  26
ATOM     26  O   UNL A   1      30.795  29.540  23.276  1.00  0.00    -0.497 OA
ATOM     27  C   UNL A   1      29.714  29.347  22.359  1.00  0.00     0.278 C 
ENDBRANCH  21  26
ENDBRANCH  19  20
ENDBRANCH  18  19
ENDBRANCH  17  18
ENDBRANCH  15  17
ENDBRANCH   9  15
ENDBRANCH   6   8
ENDBRANCH   5   6
ENDBRANCH   4   5
ENDBRANCH   3   4
ENDBRANCH   2   3
ENDBRANCH   1   2
BRANCH   1  28
ATOM     28  C   UNL A   1      42.252  20.082  26.462  1.00  0.00     0.188 C 
BRANCH  28  29
ATOM     29  O   UNL A   1      42.517  18.935  25.667  1.00  0.00    -0.377 OA
BRANCH  29  30
ATOM     30  C   UNL A   1      43.820  18.718  25.143  1.00  0.00     0.188 C 
BRANCH  30  31
ATOM     31  C   UNL A   1      44.786  19.905  24.936  1.00  0.00     0.188 C 
BRANCH  31  32
ATOM     32  O   UNL A   1      44.636  20.580  23.696  1.00  0.00    -0.376 OA
BRANCH  32  33
ATOM     33  C   UNL A   1      44.976  21.958  23.686  1.00  0.00     0.202 C 
BRANCH  33  34
ATOM     34  C   UNL A   1      43.888  22.882  24.245  1.00  0.00     0.261 C 
BRANCH  34  35
ATOM     35  O   UNL A   1      44.363  24.120  24.798  1.00  0.00    -0.460 OA
BRANCH  35  36
ATOM     36  C   UNL A   1      44.877  24.083  26.047  1.00  0.00     0.338 C 
ATOM     37  O   UNL A   1      45.880  23.507  26.424  1.00  0.00    -0.246 OA
BRANCH  36  38
ATOM     38  C   UNL A   1      44.093  25.017  26.873  1.00  0.00     0.060 A 
ATOM     39  C   UNL A   1      44.391  26.386  26.828  1.00  0.00     0.016 A 
ATOM     40  C   UNL A   1      43.070  24.534  27.690  1.00  0.00     0.016 A 
ATOM     41  C   UNL A   1      43.681  27.275  27.634  1.00  0.00     0.010 A 
ATOM     42  C   UNL A   1      42.374  25.421  28.510  1.00  0.00     0.010 A 
ATOM     43  C   UNL A   1      42.701  26.788  28.510  1.00  0.00    -0.014 A 
BRANCH  43  44
ATOM     44  C   UNL A   1      42.164  27.662  29.577  1.00  0.00     0.031 A 
ATOM     45  C   UNL A   1      42.854  27.651  30.912  1.00  0.00     0.074 A 
ATOM     46  C   UNL A   1      41.090  28.441  29.370  1.00  0.00     0.049 A 
ATOM     47  N   UNL A   1      42.542  28.278  32.017  1.00  0.00    -0.248 NA
ATOM     48  C   UNL A   1      44.061  26.814  31.013  1.00  0.00     0.031 C 
ATOM     49  C   UNL A   1      40.359  28.559  28.111  1.00  0.00     0.029 A 
ATOM     50  N   UNL A   1      40.422  29.276  30.230  1.00  0.00    -0.354 N 
ATOM     51  C   UNL A   1      43.510  27.908  32.941  1.00  0.00     0.074 A 
ATOM     52  C   UNL A   1      44.402  26.981  32.281  1.00  0.00     0.031 C 
ATOM     53  C   UNL A   1      39.331  29.408  28.284  1.00  0.00     0.029 A 
ATOM     54  C   UNL A   1      39.316  29.868  29.673  1.00  0.00     0.049 A 
ATOM     55  H   UNL A   1      40.708  29.436  31.159  1.00  0.00     0.167 HD
ATOM     56  C   UNL A   1      43.648  28.313  34.225  1.00  0.00     0.037 A 
ATOM     57  C   UNL A   1      38.391  30.671  30.233  1.00  0.00     0.037 A 
ATOM     58  C   UNL A   1      42.752  29.226  34.883  1.00  0.00     0.049 A 
ATOM     59  C   UNL A   1      38.523  31.048  31.688  1.00  0.00     0.074 A 
ATOM     60  C   UNL A   1      42.807  29.708  36.178  1.00  0.00     0.029 A 
ATOM     61  N   UNL A   1      41.629  29.787  34.294  1.00  0.00    -0.354 N 
ATOM     62  N   UNL A   1      39.456  30.722  32.549  1.00  0.00    -0.248 NA
ATOM     63  C   UNL A   1      37.470  31.907  32.247  1.00  0.00     0.031 C 
ATOM     64  C   UNL A   1      41.690  30.522  36.389  1.00  0.00     0.029 A 
ATOM     65  C   UNL A   1      40.969  30.592  35.207  1.00  0.00     0.049 A 
ATOM     66  H   UNL A   1      41.343  29.635  33.363  1.00  0.00     0.167 HD
ATOM     67  C   UNL A   1      39.122  31.358  33.738  1.00  0.00     0.074 A 
ATOM     68  C   UNL A   1      37.904  32.099  33.485  1.00  0.00     0.031 C 
ATOM     69  C   UNL A   1      39.764  31.332  34.932  1.00  0.00     0.037 A 
BRANCH  56  70
ATOM     70  C   UNL A   1      44.795  27.747  35.008  1.00  0.00     0.064 A 
ATOM     71  C   UNL A   1      46.039  28.393  35.062  1.00  0.00     0.173 A 
ATOM     72  C   UNL A   1      44.642  26.552  35.727  1.00  0.00     0.173 A 
ATOM     73  F   UNL A   1      46.241  29.527  34.375  1.00  0.00    -0.203 F 
ATOM     74  C   UNL A   1      47.096  27.850  35.788  1.00  0.00     0.198 A 
ATOM     75  C   UNL A   1      45.692  26.028  36.476  1.00  0.00     0.198 A 
ATOM     76  F   UNL A   1      43.472  25.895  35.709  1.00  0.00    -0.203 F 
ATOM     77  F   UNL A   1      48.290  28.459  35.786  1.00  0.00    -0.200 F 
ATOM     78  C   UNL A   1      46.920  26.672  36.499  1.00  0.00     0.200 A 
ATOM     79  F   UNL A   1      45.517  24.896  37.171  1.00  0.00    -0.200 F 
ATOM     80  F   UNL A   1      47.936  26.155  37.202  1.00  0.00    -0.200 F 
ENDBRANCH  56  70
BRANCH  57  81
ATOM     81  C   UNL A   1      37.247  31.168  29.424  1.00  0.00     0.064 A 
ATOM     82  C   UNL A   1      37.174  32.509  29.023  1.00  0.00     0.173 A 
ATOM     83  C   UNL A   1      36.191  30.320  29.059  1.00  0.00     0.173 A 
ATOM     84  F   UNL A   1      38.144  33.366  29.373  1.00  0.00    -0.203 F 
ATOM     85  C   UNL A   1      36.080  32.989  28.306  1.00  0.00     0.198 A 
ATOM     86  C   UNL A   1      35.110  30.794  28.316  1.00  0.00     0.198 A 
ATOM     87  F   UNL A   1      36.209  29.029  29.421  1.00  0.00    -0.203 F 
ATOM     88  F   UNL A   1      36.012  34.286  27.979  1.00  0.00    -0.200 F 
ATOM     89  C   UNL A   1      35.052  32.129  27.947  1.00  0.00     0.200 A 
ATOM     90  F   UNL A   1      34.123  29.958  27.966  1.00  0.00    -0.200 F 
ATOM     91  F   UNL A   1      33.999  32.590  27.258  1.00  0.00    -0.200 F 
ENDBRANCH  57  81
BRANCH  69  92
ATOM     92  C   UNL A   1      39.190  32.161  36.046  1.00  0.00     0.064 A 
ATOM     93  C   UNL A   1      38.256  31.636  36.951  1.00  0.00     0.173 A 
ATOM     94  C   UNL A   1      39.619  33.483  36.237  1.00  0.00     0.173 A 
ATOM     95  F   UNL A   1      37.805  30.381  36.803  1.00  0.00    -0.203 F 
ATOM     96  C   UNL A   1      37.757  32.412  37.994  1.00  0.00     0.198 A 
ATOM     97  C   UNL A   1      39.142  34.245  37.299  1.00  0.00     0.198 A 
ATOM     98  F   UNL A   1      40.519  34.029  35.405  1.00  0.00    -0.203 F 
ATOM     99  F   UNL A   1      36.832  31.904  38.820  1.00  0.00    -0.200 F 
ATOM    100  C   UNL A   1      38.206  33.713  38.171  1.00  0.00     0.200 A 
ATOM    101  F   UNL A   1      39.588  35.497  37.477  1.00  0.00    -0.200 F 
ATOM    102  F   UNL A   1      37.730  34.455  39.181  1.00  0.00    -0.200 F 
ENDBRANCH  69  92
ENDBRANCH  43  44
ENDBRANCH  36  38
ENDBRANCH  35  36
ENDBRANCH  34  35
ENDBRANCH  33  34
ENDBRANCH  32  33
ENDBRANCH  31  32
ENDBRANCH  30  31
ENDBRANCH  29  30
ENDBRANCH  28  29
ENDBRANCH   1  28
TORSDOF 26
ENDMDL
MODEL 2
REMARK VINA RESULT:      -9.9      1.244      7.120
REMARK SMILES COc1ccc(OCCNc2c(Cl)cccc2C(=O)OCCOCCOCCOCCOC(=O)c2ccc(-c3c4nc(c(-c5c(F)c(F)c(F)c(F)c5F)c5ccc([nH]5)c(-c5c(F)c(F)c(F)c(F)c5F)c5nc(c(-c6c(F)c(F)c(F)c(F)c6F)c6ccc3[nH]6)C=C5)C=C4)cc2)cc1
REMARK SMILES IDX 24 1 23 2 22 3 21 4 20 5 18 6 19 7 17 8 11 9 12 10 13 11
REMARK SMILES IDX 14 12 16 13 15 14 10 15 9 17 8 18 7 19 6 20 3 21 4 22 99 23
REMARK SMILES IDX 5 24 98 25 2 26 1 27 25 28 26 29 27 30 28 31 29 32 30 33
REMARK SMILES IDX 31 34 32 35 33 36 34 37 35 38 36 39 97 40 37 41 96 42 38 43
REMARK SMILES IDX 39 44 40 45 90 46 41 47 95 48 89 49 91 50 42 51 94 52 88 53
REMARK SMILES IDX 87 54 43 56 75 57 55 58 74 59 56 60 59 61 73 62 92 63 57 64
REMARK SMILES IDX 58 65 72 67 93 68 60 69 44 70 45 71 53 72 46 73 47 74 51 75
REMARK SMILES IDX 54 76 48 77 49 78 52 79 50 80 76 81 77 82 85 83 78 84 79 85
REMARK SMILES IDX 83 86 86 87 80 88 81 89 84 90 82 91 61 92 62 93 70 94 63 95
REMARK SMILES IDX 64 96 68 97 71 98 65 99 66 100 69 101 67 102
REMARK H PARENT 10 16 91 55 59 66
REMARK Flexibility Score: inf
ROOT
ATOM      1  C   UNL A   1      40.227  20.584  26.189  1.00  0.00     0.188 C 
ENDROOT
BRANCH   1   2
ATOM      2  O   UNL A   1      39.831  21.885  25.770  1.00  0.00    -0.376 OA
BRANCH   2   3
ATOM      3  C   UNL A   1      38.667  22.418  26.384  1.00  0.00     0.202 C 
BRANCH   3   4
ATOM      4  C   UNL A   1      37.555  22.759  25.395  1.00  0.00     0.261 C 
BRANCH   4   5
ATOM      5  O   UNL A   1      36.325  23.094  26.051  1.00  0.00    -0.460 OA
BRANCH   5   6
ATOM      6  C   UNL A   1      35.467  23.880  25.375  1.00  0.00     0.340 C 
ATOM      7  O   UNL A   1      35.528  25.098  25.284  1.00  0.00    -0.246 OA
BRANCH   6   8
ATOM      8  C   UNL A   1      34.561  23.040  24.560  1.00  0.00     0.084 A 
ATOM      9  C   UNL A   1      34.037  21.786  24.927  1.00  0.00     0.068 A 
ATOM     10  C   UNL A   1      33.101  21.232  24.001  1.00  0.00     0.065 A 
ATOM     11  Cl  UNL A   1      32.169  19.821  24.395  1.00  0.00    -0.082 Cl
ATOM     12  C   UNL A   1      32.834  21.785  22.745  1.00  0.00     0.023 A 
ATOM     13  C   UNL A   1      34.291  23.594  23.282  1.00  0.00     0.018 A 
ATOM     14  C   UNL A   1      33.463  22.955  22.366  1.00  0.00     0.003 A 
BRANCH   9  15
ATOM     15  N   UNL A   1      34.272  21.061  26.087  1.00  0.00    -0.380 N 
ATOM     16  H   UNL A   1      35.010  20.414  26.011  1.00  0.00     0.160 HD
BRANCH  15  17
ATOM     17  C   UNL A   1      33.632  21.079  27.397  1.00  0.00     0.154 C 
BRANCH  17  18
ATOM     18  C   UNL A   1      33.322  22.522  27.866  1.00  0.00     0.250 C 
BRANCH  18  19
ATOM     19  O   UNL A   1      31.972  22.951  27.629  1.00  0.00    -0.492 OA
BRANCH  19  20
ATOM     20  C   UNL A   1      31.714  23.858  26.642  1.00  0.00     0.119 A 
ATOM     21  C   UNL A   1      31.327  25.387  24.330  1.00  0.00     0.119 A 
ATOM     22  C   UNL A   1      30.638  24.189  24.487  1.00  0.00     0.050 A 
ATOM     23  C   UNL A   1      32.082  25.890  25.382  1.00  0.00     0.050 A 
ATOM     24  C   UNL A   1      30.846  23.420  25.637  1.00  0.00     0.050 A 
ATOM     25  C   UNL A   1      32.249  25.138  26.548  1.00  0.00     0.050 A 
BRANCH  21  26
ATOM     26  O   UNL A   1      31.191  26.066  23.151  1.00  0.00    -0.497 OA
ATOM     27  C   UNL A   1      30.241  27.129  23.274  1.00  0.00     0.278 C 
ENDBRANCH  21  26
ENDBRANCH  19  20
ENDBRANCH  18  19
ENDBRANCH  17  18
ENDBRANCH  15  17
ENDBRANCH   9  15
ENDBRANCH   6   8
ENDBRANCH   5   6
ENDBRANCH   4   5
ENDBRANCH   3   4
ENDBRANCH   2   3
ENDBRANCH   1   2
BRANCH   1  28
ATOM     28  C   UNL A   1      41.753  20.364  26.290  1.00  0.00     0.188 C 
BRANCH  28  29
ATOM     29  O   UNL A   1      42.296  19.053  26.345  1.00  0.00    -0.377 OA
BRANCH  29  30
ATOM     30  C   UNL A   1      43.467  18.737  25.604  1.00  0.00     0.188 C 
BRANCH  30  31
ATOM     31  C   UNL A   1      44.186  19.825  24.778  1.00  0.00     0.188 C 
BRANCH  31  32
ATOM     32  O   UNL A   1      45.589  19.897  24.989  1.00  0.00    -0.376 OA
BRANCH  32  33
ATOM     33  C   UNL A   1      46.100  21.160  25.385  1.00  0.00     0.202 C 
BRANCH  33  34
ATOM     34  C   UNL A   1      45.443  22.356  24.687  1.00  0.00     0.261 C 
BRANCH  34  35
ATOM     35  O   UNL A   1      44.696  23.231  25.548  1.00  0.00    -0.460 OA
BRANCH  35  36
ATOM     36  C   UNL A   1      43.444  23.558  25.161  1.00  0.00     0.338 C 
ATOM     37  O   UNL A   1      42.791  23.072  24.256  1.00  0.00    -0.246 OA
BRANCH  36  38
ATOM     38  C   UNL A   1      42.915  24.515  26.147  1.00  0.00     0.060 A 
ATOM     39  C   UNL A   1      43.398  25.830  26.152  1.00  0.00     0.016 A 
ATOM     40  C   UNL A   1      41.946  24.105  27.065  1.00  0.00     0.016 A 
ATOM     41  C   UNL A   1      42.932  26.735  27.106  1.00  0.00     0.010 A 
ATOM     42  C   UNL A   1      41.496  25.004  28.030  1.00  0.00     0.010 A 
ATOM     43  C   UNL A   1      42.013  26.310  28.075  1.00  0.00    -0.014 A 
BRANCH  43  44
ATOM     44  C   UNL A   1      41.748  27.154  29.262  1.00  0.00     0.031 A 
ATOM     45  C   UNL A   1      40.564  28.080  29.218  1.00  0.00     0.074 A 
ATOM     46  C   UNL A   1      42.537  27.106  30.347  1.00  0.00     0.049 A 
ATOM     47  N   UNL A   1      40.159  28.958  30.100  1.00  0.00    -0.248 NA
ATOM     48  C   UNL A   1      39.725  28.008  28.010  1.00  0.00     0.031 C 
ATOM     49  C   UNL A   1      43.691  26.227  30.516  1.00  0.00     0.029 A 
ATOM     50  N   UNL A   1      42.487  27.829  31.512  1.00  0.00    -0.354 N 
ATOM     51  C   UNL A   1      39.024  29.541  29.552  1.00  0.00     0.074 A 
ATOM     52  C   UNL A   1      38.820  28.943  28.252  1.00  0.00     0.031 C 
ATOM     53  C   UNL A   1      44.251  26.472  31.714  1.00  0.00     0.029 A 
ATOM     54  C   UNL A   1      43.513  27.545  32.379  1.00  0.00     0.049 A 
ATOM     55  H   UNL A   1      41.783  28.488  31.709  1.00  0.00     0.167 HD
ATOM     56  C   UNL A   1      38.219  30.485  30.091  1.00  0.00     0.037 A 
ATOM     57  C   UNL A   1      43.825  28.107  33.562  1.00  0.00     0.037 A 
ATOM     58  C   UNL A   1      38.431  31.087  31.379  1.00  0.00     0.049 A 
ATOM     59  C   UNL A   1      42.955  29.213  34.107  1.00  0.00     0.074 A 
ATOM     60  C   UNL A   1      37.670  32.046  32.021  1.00  0.00     0.029 A 
ATOM     61  N   UNL A   1      39.495  30.792  32.219  1.00  0.00    -0.354 N 
ATOM     62  N   UNL A   1      41.866  29.738  33.602  1.00  0.00    -0.248 NA
ATOM     63  C   UNL A   1      43.361  29.803  35.392  1.00  0.00     0.031 C 
ATOM     64  C   UNL A   1      38.299  32.368  33.228  1.00  0.00     0.029 A 
ATOM     65  C   UNL A   1      39.423  31.568  33.363  1.00  0.00     0.049 A 
ATOM     66  H   UNL A   1      40.198  30.128  32.029  1.00  0.00     0.167 HD
ATOM     67  C   UNL A   1      41.440  30.694  34.515  1.00  0.00     0.074 A 
ATOM     68  C   UNL A   1      42.382  30.670  35.613  1.00  0.00     0.031 C 
ATOM     69  C   UNL A   1      40.365  31.519  34.452  1.00  0.00     0.037 A 
BRANCH  56  70
ATOM     70  C   UNL A   1      37.050  30.943  29.271  1.00  0.00     0.064 A 
ATOM     71  C   UNL A   1      36.999  32.231  28.716  1.00  0.00     0.173 A 
ATOM     72  C   UNL A   1      35.975  30.076  29.021  1.00  0.00     0.173 A 
ATOM     73  F   UNL A   1      37.993  33.103  28.942  1.00  0.00    -0.203 F 
ATOM     74  C   UNL A   1      35.903  32.641  27.962  1.00  0.00     0.198 A 
ATOM     75  C   UNL A   1      34.894  30.481  28.243  1.00  0.00     0.198 A 
ATOM     76  F   UNL A   1      35.975  28.834  29.529  1.00  0.00    -0.203 F 
ATOM     77  F   UNL A   1      35.853  33.892  27.482  1.00  0.00    -0.200 F 
ATOM     78  C   UNL A   1      34.855  31.765  27.720  1.00  0.00     0.200 A 
ATOM     79  F   UNL A   1      33.888  29.630  28.002  1.00  0.00    -0.200 F 
ATOM     80  F   UNL A   1      33.804  32.161  26.990  1.00  0.00    -0.200 F 
ENDBRANCH  56  70
BRANCH  57  81
ATOM     81  C   UNL A   1      45.022  27.648  34.313  1.00  0.00     0.064 A 
ATOM     82  C   UNL A   1      46.276  28.239  34.108  1.00  0.00     0.173 A 
ATOM     83  C   UNL A   1      44.944  26.589  35.231  1.00  0.00     0.173 A 
ATOM     84  F   UNL A   1      46.409  29.235  33.219  1.00  0.00    -0.203 F 
ATOM     85  C   UNL A   1      47.409  27.778  34.775  1.00  0.00     0.198 A 
ATOM     86  C   UNL A   1      46.072  26.147  35.920  1.00  0.00     0.198 A 
ATOM     87  F   UNL A   1      43.769  25.985  35.461  1.00  0.00    -0.203 F 
ATOM     88  F   UNL A   1      48.604  28.329  34.523  1.00  0.00    -0.200 F 
ATOM     89  C   UNL A   1      47.305  26.737  35.686  1.00  0.00     0.200 A 
ATOM     90  F   UNL A   1      45.966  25.146  36.804  1.00  0.00    -0.200 F 
ATOM     91  F   UNL A   1      48.395  26.293  36.327  1.00  0.00    -0.200 F 
ENDBRANCH  57  81
BRANCH  69  92
ATOM     92  C   UNL A   1      40.123  32.433  35.620  1.00  0.00     0.064 A 
ATOM     93  C   UNL A   1      40.743  33.687  35.717  1.00  0.00     0.173 A 
ATOM     94  C   UNL A   1      39.219  32.067  36.629  1.00  0.00     0.173 A 
ATOM     95  F   UNL A   1      41.625  34.078  34.785  1.00  0.00    -0.203 F 
ATOM     96  C   UNL A   1      40.484  34.531  36.794  1.00  0.00     0.198 A 
ATOM     97  C   UNL A   1      38.939  32.925  37.687  1.00  0.00     0.198 A 
ATOM     98  F   UNL A   1      38.591  30.882  36.578  1.00  0.00    -0.203 F 
ATOM     99  F   UNL A   1      41.122  35.706  36.890  1.00  0.00    -0.200 F 
ATOM    100  C   UNL A   1      39.577  34.153  37.774  1.00  0.00     0.200 A 
ATOM    101  F   UNL A   1      38.051  32.565  38.624  1.00  0.00    -0.200 F 
ATOM    102  F   UNL A   1      39.322  34.972  38.805  1.00  0.00    -0.200 F 
ENDBRANCH  69  92
ENDBRANCH  43  44
ENDBRANCH  36  38
ENDBRANCH  35  36
ENDBRANCH  34  35
ENDBRANCH  33  34
ENDBRANCH  32  33
ENDBRANCH  31  32
ENDBRANCH  30  31
ENDBRANCH  29  30
ENDBRANCH  28  29
ENDBRANCH   1  28
TORSDOF 26
ENDMDL
MODEL 3
REMARK VINA RESULT:      -9.5      6.111     12.876
REMARK SMILES COc1ccc(OCCNc2c(Cl)cccc2C(=O)OCCOCCOCCOCCOC(=O)c2ccc(-c3c4nc(c(-c5c(F)c(F)c(F)c(F)c5F)c5ccc([nH]5)c(-c5c(F)c(F)c(F)c(F)c5F)c5nc(c(-c6c(F)c(F)c(F)c(F)c6F)c6ccc3[nH]6)C=C5)C=C4)cc2)cc1
REMARK SMILES IDX 24 1 23 2 22 3 21 4 20 5 18 6 19 7 17 8 11 9 12 10 13 11
REMARK SMILES IDX 14 12 16 13 15 14 10 15 9 17 8 18 7 19 6 20 3 21 4 22 99 23
REMARK SMILES IDX 5 24 98 25 2 26 1 27 25 28 26 29 27 30 28 31 29 32 30 33
REMARK SMILES IDX 31 34 32 35 33 36 34 37 35 38 36 39 97 40 37 41 96 42 38 43
REMARK SMILES IDX 39 44 40 45 90 46 41 47 95 48 89 49 91 50 42 51 94 52 88 53
REMARK SMILES IDX 87 54 43 56 75 57 55 58 74 59 56 60 59 61 73 62 92 63 57 64
REMARK SMILES IDX 58 65 72 67 93 68 60 69 44 70 45 71 53 72 46 73 47 74 51 75
REMARK SMILES IDX 54 76 48 77 49 78 52 79 50 80 76 81 77 82 85 83 78 84 79 85
REMARK SMILES IDX 83 86 86 87 80 88 81 89 84 90 82 91 61 92 62 93 70 94 63 95
REMARK SMILES IDX 64 96 68 97 71 98 65 99 66 100 69 101 67 102
REMARK H PARENT 10 16 91 55 59 66
REMARK Flexibility Score: inf
ROOT
ATOM      1  C   UNL A   1      32.620  36.436  30.829  1.00  0.00     0.188 C 
ENDROOT
BRANCH   1   2
ATOM      2  O   UNL A   1      33.088  37.721  31.220  1.00  0.00    -0.376 OA
BRANCH   2   3
ATOM      3  C   UNL A   1      33.779  37.791  32.459  1.00  0.00     0.202 C 
BRANCH   3   4
ATOM      4  C   UNL A   1      33.781  36.476  33.234  1.00  0.00     0.261 C 
BRANCH   4   5
ATOM      5  O   UNL A   1      35.102  35.947  33.407  1.00  0.00    -0.460 OA
BRANCH   5   6
ATOM      6  C   UNL A   1      35.200  34.649  33.748  1.00  0.00     0.340 C 
ATOM      7  O   UNL A   1      34.350  33.791  33.562  1.00  0.00    -0.246 OA
BRANCH   6   8
ATOM      8  C   UNL A   1      36.586  34.352  34.179  1.00  0.00     0.084 A 
ATOM      9  C   UNL A   1      37.748  34.508  33.401  1.00  0.00     0.068 A 
ATOM     10  C   UNL A   1      38.972  34.250  34.091  1.00  0.00     0.065 A 
ATOM     11  Cl  UNL A   1      40.508  34.625  33.375  1.00  0.00    -0.082 Cl
ATOM     12  C   UNL A   1      39.034  33.722  35.385  1.00  0.00     0.023 A 
ATOM     13  C   UNL A   1      36.654  33.811  35.489  1.00  0.00     0.018 A 
ATOM     14  C   UNL A   1      37.867  33.465  36.075  1.00  0.00     0.003 A 
BRANCH   9  15
ATOM     15  N   UNL A   1      37.852  34.928  32.082  1.00  0.00    -0.380 N 
ATOM     16  H   UNL A   1      37.925  35.904  31.978  1.00  0.00     0.160 HD
BRANCH  15  17
ATOM     17  C   UNL A   1      37.872  34.195  30.822  1.00  0.00     0.154 C 
BRANCH  17  18
ATOM     18  C   UNL A   1      37.539  32.696  31.023  1.00  0.00     0.250 C 
BRANCH  18  19
ATOM     19  O   UNL A   1      38.674  31.818  30.968  1.00  0.00    -0.492 OA
BRANCH  19  20
ATOM     20  C   UNL A   1      39.110  31.203  32.106  1.00  0.00     0.119 A 
ATOM     21  C   UNL A   1      39.740  30.246  34.660  1.00  0.00     0.119 A 
ATOM     22  C   UNL A   1      38.419  30.237  34.227  1.00  0.00     0.050 A 
ATOM     23  C   UNL A   1      40.753  30.586  33.772  1.00  0.00     0.050 A 
ATOM     24  C   UNL A   1      38.106  30.731  32.956  1.00  0.00     0.050 A 
ATOM     25  C   UNL A   1      40.438  31.034  32.486  1.00  0.00     0.050 A 
BRANCH  21  26
ATOM     26  O   UNL A   1      40.008  29.862  35.945  1.00  0.00    -0.497 OA
ATOM     27  C   UNL A   1      41.261  29.176  36.029  1.00  0.00     0.278 C 
ENDBRANCH  21  26
ENDBRANCH  19  20
ENDBRANCH  18  19
ENDBRANCH  17  18
ENDBRANCH  15  17
ENDBRANCH   9  15
ENDBRANCH   6   8
ENDBRANCH   5   6
ENDBRANCH   4   5
ENDBRANCH   3   4
ENDBRANCH   2   3
ENDBRANCH   1   2
BRANCH   1  28
ATOM     28  C   UNL A   1      33.620  35.598  30.002  1.00  0.00     0.188 C 
BRANCH  28  29
ATOM     29  O   UNL A   1      33.502  35.513  28.589  1.00  0.00    -0.377 OA
BRANCH  29  30
ATOM     30  C   UNL A   1      32.864  34.390  27.995  1.00  0.00     0.188 C 
BRANCH  30  31
ATOM     31  C   UNL A   1      33.593  33.032  27.911  1.00  0.00     0.188 C 
BRANCH  31  32
ATOM     32  O   UNL A   1      34.981  33.122  27.625  1.00  0.00    -0.376 OA
BRANCH  32  33
ATOM     33  C   UNL A   1      35.749  31.953  27.866  1.00  0.00     0.202 C 
BRANCH  33  34
ATOM     34  C   UNL A   1      34.942  30.651  27.842  1.00  0.00     0.261 C 
BRANCH  34  35
ATOM     35  O   UNL A   1      35.663  29.478  28.255  1.00  0.00    -0.460 OA
BRANCH  35  36
ATOM     36  C   UNL A   1      36.309  29.535  29.440  1.00  0.00     0.338 C 
ATOM     37  O   UNL A   1      35.834  29.746  30.540  1.00  0.00    -0.246 OA
BRANCH  36  38
ATOM     38  C   UNL A   1      37.703  29.124  29.199  1.00  0.00     0.060 A 
ATOM     39  C   UNL A   1      38.363  28.348  30.162  1.00  0.00     0.016 A 
ATOM     40  C   UNL A   1      38.351  29.512  28.025  1.00  0.00     0.016 A 
ATOM     41  C   UNL A   1      39.695  27.985  29.962  1.00  0.00     0.010 A 
ATOM     42  C   UNL A   1      39.688  29.165  27.836  1.00  0.00     0.010 A 
ATOM     43  C   UNL A   1      40.373  28.431  28.819  1.00  0.00    -0.014 A 
BRANCH  43  44
ATOM     44  C   UNL A   1      41.847  28.318  28.744  1.00  0.00     0.031 A 
ATOM     45  C   UNL A   1      42.429  27.060  28.162  1.00  0.00     0.074 A 
ATOM     46  C   UNL A   1      42.649  29.301  29.183  1.00  0.00     0.049 A 
ATOM     47  N   UNL A   1      43.680  26.697  28.043  1.00  0.00    -0.248 NA
ATOM     48  C   UNL A   1      41.464  26.074  27.648  1.00  0.00     0.031 C 
ATOM     49  C   UNL A   1      42.200  30.576  29.737  1.00  0.00     0.029 A 
ATOM     50  N   UNL A   1      44.018  29.369  29.242  1.00  0.00    -0.354 N 
ATOM     51  C   UNL A   1      43.651  25.445  27.445  1.00  0.00     0.074 A 
ATOM     52  C   UNL A   1      42.261  25.094  27.253  1.00  0.00     0.031 C 
ATOM     53  C   UNL A   1      43.278  31.298  30.092  1.00  0.00     0.029 A 
ATOM     54  C   UNL A   1      44.487  30.522  29.820  1.00  0.00     0.049 A 
ATOM     55  H   UNL A   1      44.609  28.658  28.901  1.00  0.00     0.167 HD
ATOM     56  C   UNL A   1      44.691  24.660  27.081  1.00  0.00     0.037 A 
ATOM     57  C   UNL A   1      45.749  30.891  30.112  1.00  0.00     0.037 A 
ATOM     58  C   UNL A   1      46.072  25.006  27.284  1.00  0.00     0.049 A 
ATOM     59  C   UNL A   1      46.889  29.965  29.765  1.00  0.00     0.074 A 
ATOM     60  C   UNL A   1      47.202  24.286  26.943  1.00  0.00     0.029 A 
ATOM     61  N   UNL A   1      46.508  26.173  27.896  1.00  0.00    -0.354 N 
ATOM     62  N   UNL A   1      46.858  28.797  29.172  1.00  0.00    -0.248 NA
ATOM     63  C   UNL A   1      48.240  30.414  30.130  1.00  0.00     0.031 C 
ATOM     64  C   UNL A   1      48.322  24.993  27.392  1.00  0.00     0.029 A 
ATOM     65  C   UNL A   1      47.891  26.181  27.963  1.00  0.00     0.049 A 
ATOM     66  H   UNL A   1      45.921  26.889  28.231  1.00  0.00     0.167 HD
ATOM     67  C   UNL A   1      48.181  28.386  29.064  1.00  0.00     0.074 A 
ATOM     68  C   UNL A   1      48.992  29.435  29.645  1.00  0.00     0.031 C 
ATOM     69  C   UNL A   1      48.681  27.242  28.534  1.00  0.00     0.037 A 
BRANCH  56  70
ATOM     70  C   UNL A   1      44.370  23.338  26.450  1.00  0.00     0.064 A 
ATOM     71  C   UNL A   1      43.691  22.333  27.155  1.00  0.00     0.173 A 
ATOM     72  C   UNL A   1      44.730  23.081  25.119  1.00  0.00     0.173 A 
ATOM     73  F   UNL A   1      43.343  22.523  28.436  1.00  0.00    -0.203 F 
ATOM     74  C   UNL A   1      43.405  21.108  26.555  1.00  0.00     0.198 A 
ATOM     75  C   UNL A   1      44.417  21.866  24.515  1.00  0.00     0.198 A 
ATOM     76  F   UNL A   1      45.380  24.009  24.401  1.00  0.00    -0.203 F 
ATOM     77  F   UNL A   1      42.799  20.144  27.262  1.00  0.00    -0.200 F 
ATOM     78  C   UNL A   1      43.762  20.878  25.235  1.00  0.00     0.200 A 
ATOM     79  F   UNL A   1      44.753  21.650  23.236  1.00  0.00    -0.200 F 
ATOM     80  F   UNL A   1      43.482  19.702  24.659  1.00  0.00    -0.200 F 
ENDBRANCH  56  70
BRANCH  57  81
ATOM     81  C   UNL A   1      46.009  32.194  30.780  1.00  0.00     0.064 A 
ATOM     82  C   UNL A   1      46.151  32.277  32.172  1.00  0.00     0.173 A 
ATOM     83  C   UNL A   1      46.093  33.385  30.043  1.00  0.00     0.173 A 
ATOM     84  F   UNL A   1      46.050  31.170  32.922  1.00  0.00    -0.203 F 
ATOM     85  C   UNL A   1      46.347  33.503  32.804  1.00  0.00     0.198 A 
ATOM     86  C   UNL A   1      46.318  34.608  30.674  1.00  0.00     0.198 A 
ATOM     87  F   UNL A   1      45.958  33.362  28.709  1.00  0.00    -0.203 F 
ATOM     88  F   UNL A   1      46.430  33.560  34.140  1.00  0.00    -0.200 F 
ATOM     89  C   UNL A   1      46.437  34.667  32.055  1.00  0.00     0.200 A 
ATOM     90  F   UNL A   1      46.411  35.728  29.946  1.00  0.00    -0.200 F 
ATOM     91  F   UNL A   1      46.625  35.846  32.663  1.00  0.00    -0.200 F 
ENDBRANCH  57  81
BRANCH  69  92
ATOM     92  C   UNL A   1      50.175  27.083  28.514  1.00  0.00     0.064 A 
ATOM     93  C   UNL A   1      50.869  26.501  29.585  1.00  0.00     0.173 A 
ATOM     94  C   UNL A   1      50.913  27.472  27.386  1.00  0.00     0.173 A 
ATOM     95  F   UNL A   1      50.211  26.124  30.691  1.00  0.00    -0.203 F 
ATOM     96  C   UNL A   1      52.251  26.336  29.535  1.00  0.00     0.198 A 
ATOM     97  C   UNL A   1      52.289  27.278  27.327  1.00  0.00     0.198 A 
ATOM     98  F   UNL A   1      50.295  28.024  26.331  1.00  0.00    -0.203 F 
ATOM     99  F   UNL A   1      52.900  25.820  30.588  1.00  0.00    -0.200 F 
ATOM    100  C   UNL A   1      52.959  26.718  28.404  1.00  0.00     0.200 A 
ATOM    101  F   UNL A   1      52.969  27.632  26.228  1.00  0.00    -0.200 F 
ATOM    102  F   UNL A   1      54.288  26.550  28.356  1.00  0.00    -0.200 F 
ENDBRANCH  69  92
ENDBRANCH  43  44
ENDBRANCH  36  38
ENDBRANCH  35  36
ENDBRANCH  34  35
ENDBRANCH  33  34
ENDBRANCH  32  33
ENDBRANCH  31  32
ENDBRANCH  30  31
ENDBRANCH  29  30
ENDBRANCH  28  29
ENDBRANCH   1  28
TORSDOF 26
ENDMDL
