MODEL 1
REMARK VINA RESULT:      -8.8      0.000      0.000
REMARK SMILES COC(=O)C1=C(C)NC(C)=C(C(=O)OC)C1c1ccc(C(=O)OCCOCCOCCOCCOC(=O)c2ccc(-c3c4nc(c(-c5c(F)c(F)c(F)c(F)c5F)c5ccc([nH]5)c(-c5c(F)c(F)c(F)c(F)c5F)c5nc(c(-c6c(F)c(F)c(F)c(F)c6F)c6ccc3[nH]6)C=C5)C=C4)cc2)cc1
REMARK SMILES IDX 28 1 27 2 26 3 25 4 24 5 23 6 21 7 22 8 20 9 17 10 18 11
REMARK SMILES IDX 102 12 19 13 101 14 16 15 5 16 6 17 7 18 8 19 11 20 9 21
REMARK SMILES IDX 10 23 3 24 4 25 2 26 1 27 12 28 13 29 14 30 15 31 29 32
REMARK SMILES IDX 30 33 31 34 32 35 33 36 34 37 35 38 36 39 37 40 38 41 39 42
REMARK SMILES IDX 100 43 40 44 99 45 41 46 42 47 43 48 93 49 44 50 98 51 92 52
REMARK SMILES IDX 94 53 45 54 97 55 91 56 90 57 46 59 78 60 58 61 77 62 59 63
REMARK SMILES IDX 62 64 76 65 95 66 60 67 61 68 75 70 96 71 63 72 47 73 48 74
REMARK SMILES IDX 56 75 49 76 50 77 54 78 57 79 51 80 52 81 55 82 53 83 79 84
REMARK SMILES IDX 80 85 88 86 81 87 82 88 86 89 89 90 83 91 84 92 87 93 85 94
REMARK SMILES IDX 64 95 65 96 73 97 66 98 67 99 71 100 74 101 68 102 69 103
REMARK SMILES IDX 72 104 70 105
REMARK H PARENT 8 22 94 58 62 69
REMARK Flexibility Score: inf
ROOT
ATOM      1  C   UNL A   1      38.663  32.808  29.875  1.00  0.00     0.188 C 
ENDROOT
BRANCH   1   2
ATOM      2  C   UNL A   1      37.618  32.019  29.058  1.00  0.00     0.188 C 
BRANCH   2   3
ATOM      3  O   UNL A   1      38.135  30.852  28.437  1.00  0.00    -0.376 OA
BRANCH   3   4
ATOM      4  C   UNL A   1      37.231  29.822  28.073  1.00  0.00     0.202 C 
BRANCH   4   5
ATOM      5  C   UNL A   1      35.780  30.225  27.774  1.00  0.00     0.261 C 
BRANCH   5   6
ATOM      6  O   UNL A   1      34.830  29.158  27.862  1.00  0.00    -0.460 OA
BRANCH   6   7
ATOM      7  C   UNL A   1      33.592  29.432  27.396  1.00  0.00     0.338 C 
ATOM      8  O   UNL A   1      33.019  30.506  27.474  1.00  0.00    -0.246 OA
BRANCH   7   9
ATOM      9  C   UNL A   1      33.110  28.285  26.586  1.00  0.00     0.060 A 
ATOM     10  C   UNL A   1      32.058  26.159  25.071  1.00  0.00    -0.035 A 
ATOM     11  C   UNL A   1      31.232  27.206  25.504  1.00  0.00     0.005 A 
ATOM     12  C   UNL A   1      33.441  26.235  25.347  1.00  0.00     0.005 A 
ATOM     13  C   UNL A   1      31.759  28.273  26.229  1.00  0.00     0.016 A 
ATOM     14  C   UNL A   1      33.958  27.271  26.129  1.00  0.00     0.016 A 
BRANCH  10  15
ATOM     15  C   UNL A   1      31.491  24.875  24.440  1.00  0.00     0.098 C 
ATOM     16  C   UNL A   1      32.124  24.644  23.058  1.00  0.00     0.068 C 
ATOM     17  C   UNL A   1      32.555  23.430  22.659  1.00  0.00     0.023 C 
ATOM     18  C   UNL A   1      33.234  23.138  21.342  1.00  0.00     0.065 C 
ATOM     19  N   UNL A   1      32.429  22.355  23.512  1.00  0.00    -0.362 N 
ATOM     20  C   UNL A   1      31.571  23.613  25.336  1.00  0.00     0.068 C 
ATOM     21  C   UNL A   1      32.025  22.435  24.834  1.00  0.00     0.023 C 
ATOM     22  H   UNL A   1      32.644  21.463  23.154  1.00  0.00     0.166 HD
ATOM     23  C   UNL A   1      32.188  21.132  25.585  1.00  0.00     0.065 C 
BRANCH  16  24
ATOM     24  C   UNL A   1      32.397  25.784  22.162  1.00  0.00     0.336 C 
ATOM     25  O   UNL A   1      33.519  26.143  21.842  1.00  0.00    -0.246 OA
BRANCH  24  26
ATOM     26  O   UNL A   1      31.229  26.282  21.686  1.00  0.00    -0.466 OA
ATOM     27  C   UNL A   1      30.980  27.643  22.055  1.00  0.00     0.282 C 
ENDBRANCH  24  26
ENDBRANCH  16  24
BRANCH  20  28
ATOM     28  C   UNL A   1      31.251  23.734  26.784  1.00  0.00     0.336 C 
ATOM     29  O   UNL A   1      32.093  23.779  27.671  1.00  0.00    -0.246 OA
BRANCH  28  30
ATOM     30  O   UNL A   1      29.918  23.895  26.985  1.00  0.00    -0.466 OA
ATOM     31  C   UNL A   1      29.252  22.678  27.342  1.00  0.00     0.282 C 
ENDBRANCH  28  30
ENDBRANCH  20  28
ENDBRANCH  10  15
ENDBRANCH   7   9
ENDBRANCH   6   7
ENDBRANCH   5   6
ENDBRANCH   4   5
ENDBRANCH   3   4
ENDBRANCH   2   3
ENDBRANCH   1   2
BRANCH   1  32
ATOM     32  O   UNL A   1      38.962  32.383  31.197  1.00  0.00    -0.377 OA
BRANCH  32  33
ATOM     33  C   UNL A   1      38.304  33.002  32.302  1.00  0.00     0.188 C 
BRANCH  33  34
ATOM     34  C   UNL A   1      38.426  34.520  32.579  1.00  0.00     0.188 C 
BRANCH  34  35
ATOM     35  O   UNL A   1      37.979  34.927  33.860  1.00  0.00    -0.376 OA
BRANCH  35  36
ATOM     36  C   UNL A   1      36.853  34.259  34.400  1.00  0.00     0.202 C 
BRANCH  36  37
ATOM     37  C   UNL A   1      37.099  33.384  35.636  1.00  0.00     0.261 C 
BRANCH  37  38
ATOM     38  O   UNL A   1      37.160  31.966  35.408  1.00  0.00    -0.460 OA
BRANCH  38  39
ATOM     39  C   UNL A   1      38.027  31.247  36.154  1.00  0.00     0.338 C 
ATOM     40  O   UNL A   1      37.849  30.805  37.276  1.00  0.00    -0.246 OA
BRANCH  39  41
ATOM     41  C   UNL A   1      39.184  30.920  35.293  1.00  0.00     0.060 A 
ATOM     42  C   UNL A   1      39.029  29.989  34.257  1.00  0.00     0.016 A 
ATOM     43  C   UNL A   1      40.410  31.557  35.492  1.00  0.00     0.016 A 
ATOM     44  C   UNL A   1      40.108  29.684  33.425  1.00  0.00     0.010 A 
ATOM     45  C   UNL A   1      41.495  31.235  34.674  1.00  0.00     0.010 A 
ATOM     46  C   UNL A   1      41.356  30.281  33.649  1.00  0.00    -0.014 A 
BRANCH  46  47
ATOM     47  C   UNL A   1      42.556  29.802  32.919  1.00  0.00     0.031 A 
ATOM     48  C   UNL A   1      43.297  28.609  33.455  1.00  0.00     0.074 A 
ATOM     49  C   UNL A   1      42.982  30.415  31.800  1.00  0.00     0.049 A 
ATOM     50  N   UNL A   1      44.406  28.058  33.033  1.00  0.00    -0.248 NA
ATOM     51  C   UNL A   1      42.705  27.951  34.630  1.00  0.00     0.031 C 
ATOM     52  C   UNL A   1      42.331  31.553  31.160  1.00  0.00     0.029 A 
ATOM     53  N   UNL A   1      44.081  30.167  31.013  1.00  0.00    -0.354 N 
ATOM     54  C   UNL A   1      44.648  26.994  33.894  1.00  0.00     0.074 A 
ATOM     55  C   UNL A   1      43.588  26.996  34.879  1.00  0.00     0.031 C 
ATOM     56  C   UNL A   1      43.051  31.919  30.085  1.00  0.00     0.029 A 
ATOM     57  C   UNL A   1      44.234  31.065  29.985  1.00  0.00     0.049 A 
ATOM     58  H   UNL A   1      44.700  29.418  31.172  1.00  0.00     0.167 HD
ATOM     59  C   UNL A   1      45.660  26.096  33.861  1.00  0.00     0.037 A 
ATOM     60  C   UNL A   1      45.231  31.199  29.088  1.00  0.00     0.037 A 
ATOM     61  C   UNL A   1      46.716  26.103  32.883  1.00  0.00     0.049 A 
ATOM     62  C   UNL A   1      46.394  30.238  29.128  1.00  0.00     0.074 A 
ATOM     63  C   UNL A   1      47.773  25.218  32.749  1.00  0.00     0.029 A 
ATOM     64  N   UNL A   1      46.859  27.050  31.879  1.00  0.00    -0.354 N 
ATOM     65  N   UNL A   1      46.600  29.213  29.920  1.00  0.00    -0.248 NA
ATOM     66  C   UNL A   1      47.466  30.454  28.144  1.00  0.00     0.031 C 
ATOM     67  C   UNL A   1      48.590  25.669  31.707  1.00  0.00     0.029 A 
ATOM     68  C   UNL A   1      48.008  26.794  31.147  1.00  0.00     0.049 A 
ATOM     69  H   UNL A   1      46.236  27.793  31.712  1.00  0.00     0.167 HD
ATOM     70  C   UNL A   1      47.806  28.652  29.518  1.00  0.00     0.074 A 
ATOM     71  C   UNL A   1      48.277  29.437  28.396  1.00  0.00     0.031 C 
ATOM     72  C   UNL A   1      48.466  27.584  30.033  1.00  0.00     0.037 A 
BRANCH  59  73
ATOM     73  C   UNL A   1      45.694  25.048  34.935  1.00  0.00     0.064 A 
ATOM     74  C   UNL A   1      46.261  25.295  36.195  1.00  0.00     0.173 A 
ATOM     75  C   UNL A   1      45.119  23.788  34.712  1.00  0.00     0.173 A 
ATOM     76  F   UNL A   1      46.837  26.478  36.457  1.00  0.00    -0.203 F 
ATOM     77  C   UNL A   1      46.275  24.310  37.181  1.00  0.00     0.198 A 
ATOM     78  C   UNL A   1      45.104  22.818  35.710  1.00  0.00     0.198 A 
ATOM     79  F   UNL A   1      44.560  23.499  33.527  1.00  0.00    -0.203 F 
ATOM     80  F   UNL A   1      46.866  24.552  38.359  1.00  0.00    -0.200 F 
ATOM     81  C   UNL A   1      45.689  23.076  36.940  1.00  0.00     0.200 A 
ATOM     82  F   UNL A   1      44.525  21.631  35.481  1.00  0.00    -0.200 F 
ATOM     83  F   UNL A   1      45.695  22.134  37.893  1.00  0.00    -0.200 F 
ENDBRANCH  59  73
BRANCH  60  84
ATOM     84  C   UNL A   1      45.194  32.300  28.090  1.00  0.00     0.064 A 
ATOM     85  C   UNL A   1      45.784  33.544  28.357  1.00  0.00     0.173 A 
ATOM     86  C   UNL A   1      44.538  32.144  26.859  1.00  0.00     0.173 A 
ATOM     87  F   UNL A   1      46.395  33.755  29.533  1.00  0.00    -0.203 F 
ATOM     88  C   UNL A   1      45.703  34.592  27.442  1.00  0.00     0.198 A 
ATOM     89  C   UNL A   1      44.487  33.182  25.930  1.00  0.00     0.198 A 
ATOM     90  F   UNL A   1      43.950  30.978  26.554  1.00  0.00    -0.203 F 
ATOM     91  F   UNL A   1      46.229  35.787  27.748  1.00  0.00    -0.200 F 
ATOM     92  C   UNL A   1      45.061  34.409  26.228  1.00  0.00     0.200 A 
ATOM     93  F   UNL A   1      43.875  32.996  24.754  1.00  0.00    -0.200 F 
ATOM     94  F   UNL A   1      44.986  35.417  25.348  1.00  0.00    -0.200 F 
ENDBRANCH  60  84
BRANCH  72  95
ATOM     95  C   UNL A   1      49.758  27.184  29.374  1.00  0.00     0.064 A 
ATOM     96  C   UNL A   1      50.993  27.691  29.802  1.00  0.00     0.173 A 
ATOM     97  C   UNL A   1      49.762  26.248  28.327  1.00  0.00     0.173 A 
ATOM     98  F   UNL A   1      51.046  28.599  30.789  1.00  0.00    -0.203 F 
ATOM     99  C   UNL A   1      52.181  27.298  29.189  1.00  0.00     0.198 A 
ATOM    100  C   UNL A   1      50.954  25.830  27.742  1.00  0.00     0.198 A 
ATOM    101  F   UNL A   1      48.610  25.723  27.883  1.00  0.00    -0.203 F 
ATOM    102  F   UNL A   1      53.344  27.837  29.580  1.00  0.00    -0.200 F 
ATOM    103  C   UNL A   1      52.162  26.363  28.166  1.00  0.00     0.200 A 
ATOM    104  F   UNL A   1      50.934  24.912  26.765  1.00  0.00    -0.200 F 
ATOM    105  F   UNL A   1      53.306  25.979  27.584  1.00  0.00    -0.200 F 
ENDBRANCH  72  95
ENDBRANCH  46  47
ENDBRANCH  39  41
ENDBRANCH  38  39
ENDBRANCH  37  38
ENDBRANCH  36  37
ENDBRANCH  35  36
ENDBRANCH  34  35
ENDBRANCH  33  34
ENDBRANCH  32  33
ENDBRANCH   1  32
TORSDOF 25
ENDMDL
MODEL 2
REMARK VINA RESULT:      -8.6      1.018      6.926
REMARK SMILES COC(=O)C1=C(C)NC(C)=C(C(=O)OC)C1c1ccc(C(=O)OCCOCCOCCOCCOC(=O)c2ccc(-c3c4nc(c(-c5c(F)c(F)c(F)c(F)c5F)c5ccc([nH]5)c(-c5c(F)c(F)c(F)c(F)c5F)c5nc(c(-c6c(F)c(F)c(F)c(F)c6F)c6ccc3[nH]6)C=C5)C=C4)cc2)cc1
REMARK SMILES IDX 28 1 27 2 26 3 25 4 24 5 23 6 21 7 22 8 20 9 17 10 18 11
REMARK SMILES IDX 102 12 19 13 101 14 16 15 5 16 6 17 7 18 8 19 11 20 9 21
REMARK SMILES IDX 10 23 3 24 4 25 2 26 1 27 12 28 13 29 14 30 15 31 29 32
REMARK SMILES IDX 30 33 31 34 32 35 33 36 34 37 35 38 36 39 37 40 38 41 39 42
REMARK SMILES IDX 100 43 40 44 99 45 41 46 42 47 43 48 93 49 44 50 98 51 92 52
REMARK SMILES IDX 94 53 45 54 97 55 91 56 90 57 46 59 78 60 58 61 77 62 59 63
REMARK SMILES IDX 62 64 76 65 95 66 60 67 61 68 75 70 96 71 63 72 47 73 48 74
REMARK SMILES IDX 56 75 49 76 50 77 54 78 57 79 51 80 52 81 55 82 53 83 79 84
REMARK SMILES IDX 80 85 88 86 81 87 82 88 86 89 89 90 83 91 84 92 87 93 85 94
REMARK SMILES IDX 64 95 65 96 73 97 66 98 67 99 71 100 74 101 68 102 69 103
REMARK SMILES IDX 72 104 70 105
REMARK H PARENT 8 22 94 58 62 69
REMARK Flexibility Score: inf
ROOT
ATOM      1  C   UNL A   1      38.651  32.824  29.929  1.00  0.00     0.188 C 
ENDROOT
BRANCH   1   2
ATOM      2  C   UNL A   1      37.609  32.054  29.091  1.00  0.00     0.188 C 
BRANCH   2   3
ATOM      3  O   UNL A   1      38.134  30.920  28.420  1.00  0.00    -0.376 OA
BRANCH   3   4
ATOM      4  C   UNL A   1      37.245  29.881  28.046  1.00  0.00     0.202 C 
BRANCH   4   5
ATOM      5  C   UNL A   1      35.779  30.261  27.790  1.00  0.00     0.261 C 
BRANCH   5   6
ATOM      6  O   UNL A   1      34.855  29.170  27.857  1.00  0.00    -0.460 OA
BRANCH   6   7
ATOM      7  C   UNL A   1      33.606  29.428  27.413  1.00  0.00     0.338 C 
ATOM      8  O   UNL A   1      33.014  30.490  27.517  1.00  0.00    -0.246 OA
BRANCH   7   9
ATOM      9  C   UNL A   1      33.134  28.287  26.589  1.00  0.00     0.060 A 
ATOM     10  C   UNL A   1      32.102  26.169  25.049  1.00  0.00    -0.035 A 
ATOM     11  C   UNL A   1      31.267  27.207  25.489  1.00  0.00     0.005 A 
ATOM     12  C   UNL A   1      33.483  26.251  25.332  1.00  0.00     0.005 A 
ATOM     13  C   UNL A   1      31.785  28.270  26.227  1.00  0.00     0.016 A 
ATOM     14  C   UNL A   1      33.990  27.283  26.126  1.00  0.00     0.016 A 
BRANCH  10  15
ATOM     15  C   UNL A   1      31.545  24.888  24.404  1.00  0.00     0.098 C 
ATOM     16  C   UNL A   1      32.166  24.687  23.012  1.00  0.00     0.068 C 
ATOM     17  C   UNL A   1      32.609  23.486  22.588  1.00  0.00     0.023 C 
ATOM     18  C   UNL A   1      33.277  23.225  21.260  1.00  0.00     0.065 C 
ATOM     19  N   UNL A   1      32.507  22.396  23.425  1.00  0.00    -0.362 N 
ATOM     20  C   UNL A   1      31.652  23.612  25.278  1.00  0.00     0.068 C 
ATOM     21  C   UNL A   1      32.116  22.449  24.753  1.00  0.00     0.023 C 
ATOM     22  H   UNL A   1      32.730  21.512  23.051  1.00  0.00     0.166 HD
ATOM     23  C   UNL A   1      32.305  21.136  25.481  1.00  0.00     0.065 C 
BRANCH  16  24
ATOM     24  C   UNL A   1      32.414  25.845  22.132  1.00  0.00     0.336 C 
ATOM     25  O   UNL A   1      33.528  26.244  21.832  1.00  0.00    -0.246 OA
BRANCH  24  26
ATOM     26  O   UNL A   1      31.237  26.310  21.644  1.00  0.00    -0.466 OA
ATOM     27  C   UNL A   1      30.951  27.667  22.001  1.00  0.00     0.282 C 
ENDBRANCH  24  26
ENDBRANCH  16  24
BRANCH  20  28
ATOM     28  C   UNL A   1      31.346  23.706  26.732  1.00  0.00     0.336 C 
ATOM     29  O   UNL A   1      32.196  23.715  27.612  1.00  0.00    -0.246 OA
BRANCH  28  30
ATOM     30  O   UNL A   1      30.018  23.888  26.948  1.00  0.00    -0.466 OA
ATOM     31  C   UNL A   1      29.325  22.671  27.250  1.00  0.00     0.282 C 
ENDBRANCH  28  30
ENDBRANCH  20  28
ENDBRANCH  10  15
ENDBRANCH   7   9
ENDBRANCH   6   7
ENDBRANCH   5   6
ENDBRANCH   4   5
ENDBRANCH   3   4
ENDBRANCH   2   3
ENDBRANCH   1   2
BRANCH   1  32
ATOM     32  O   UNL A   1      38.930  32.383  31.250  1.00  0.00    -0.377 OA
BRANCH  32  33
ATOM     33  C   UNL A   1      38.275  33.008  32.354  1.00  0.00     0.188 C 
BRANCH  33  34
ATOM     34  C   UNL A   1      38.380  34.531  32.610  1.00  0.00     0.188 C 
BRANCH  34  35
ATOM     35  O   UNL A   1      37.930  34.950  33.886  1.00  0.00    -0.376 OA
BRANCH  35  36
ATOM     36  C   UNL A   1      36.810  34.280  34.435  1.00  0.00     0.202 C 
BRANCH  36  37
ATOM     37  C   UNL A   1      37.058  33.443  35.697  1.00  0.00     0.261 C 
BRANCH  37  38
ATOM     38  O   UNL A   1      37.178  32.023  35.505  1.00  0.00    -0.460 OA
BRANCH  38  39
ATOM     39  C   UNL A   1      38.094  31.364  36.246  1.00  0.00     0.338 C 
ATOM     40  O   UNL A   1      37.957  30.928  37.376  1.00  0.00    -0.246 OA
BRANCH  39  41
ATOM     41  C   UNL A   1      39.254  31.090  35.372  1.00  0.00     0.060 A 
ATOM     42  C   UNL A   1      39.123  30.173  34.321  1.00  0.00     0.016 A 
ATOM     43  C   UNL A   1      40.460  31.763  35.574  1.00  0.00     0.016 A 
ATOM     44  C   UNL A   1      40.205  29.917  33.476  1.00  0.00     0.010 A 
ATOM     45  C   UNL A   1      41.549  31.490  34.743  1.00  0.00     0.010 A 
ATOM     46  C   UNL A   1      41.435  30.551  33.703  1.00  0.00    -0.014 A 
BRANCH  46  47
ATOM     47  C   UNL A   1      42.644  30.124  32.957  1.00  0.00     0.031 A 
ATOM     48  C   UNL A   1      43.112  30.965  31.802  1.00  0.00     0.074 A 
ATOM     49  C   UNL A   1      43.315  29.009  33.296  1.00  0.00     0.049 A 
ATOM     50  N   UNL A   1      44.093  30.755  30.962  1.00  0.00    -0.248 NA
ATOM     51  C   UNL A   1      42.369  32.212  31.564  1.00  0.00     0.031 C 
ATOM     52  C   UNL A   1      42.986  28.132  34.415  1.00  0.00     0.029 A 
ATOM     53  N   UNL A   1      44.411  28.418  32.714  1.00  0.00    -0.354 N 
ATOM     54  C   UNL A   1      44.080  31.838  30.092  1.00  0.00     0.074 A 
ATOM     55  C   UNL A   1      42.976  32.687  30.487  1.00  0.00     0.031 C 
ATOM     56  C   UNL A   1      43.851  27.103  34.432  1.00  0.00     0.029 A 
ATOM     57  C   UNL A   1      44.770  27.229  33.301  1.00  0.00     0.049 A 
ATOM     58  H   UNL A   1      44.892  28.809  31.950  1.00  0.00     0.167 HD
ATOM     59  C   UNL A   1      44.916  32.101  29.060  1.00  0.00     0.037 A 
ATOM     60  C   UNL A   1      45.711  26.333  32.944  1.00  0.00     0.037 A 
ATOM     61  C   UNL A   1      46.008  31.251  28.666  1.00  0.00     0.049 A 
ATOM     62  C   UNL A   1      46.574  26.607  31.736  1.00  0.00     0.074 A 
ATOM     63  C   UNL A   1      46.930  31.445  27.652  1.00  0.00     0.029 A 
ATOM     64  N   UNL A   1      46.318  30.036  29.260  1.00  0.00    -0.354 N 
ATOM     65  N   UNL A   1      46.581  27.649  30.939  1.00  0.00    -0.248 NA
ATOM     66  C   UNL A   1      47.561  25.578  31.379  1.00  0.00     0.031 C 
ATOM     67  C   UNL A   1      47.754  30.317  27.589  1.00  0.00     0.029 A 
ATOM     68  C   UNL A   1      47.392  29.450  28.608  1.00  0.00     0.049 A 
ATOM     69  H   UNL A   1      45.845  29.648  30.032  1.00  0.00     0.167 HD
ATOM     70  C   UNL A   1      47.583  27.412  30.006  1.00  0.00     0.074 A 
ATOM     71  C   UNL A   1      48.177  26.137  30.348  1.00  0.00     0.031 C 
ATOM     72  C   UNL A   1      47.974  28.179  28.958  1.00  0.00     0.037 A 
BRANCH  59  73
ATOM     73  C   UNL A   1      44.663  33.347  28.261  1.00  0.00     0.064 A 
ATOM     74  C   UNL A   1      44.027  33.309  27.010  1.00  0.00     0.173 A 
ATOM     75  C   UNL A   1      45.031  34.601  28.770  1.00  0.00     0.173 A 
ATOM     76  F   UNL A   1      43.666  32.135  26.471  1.00  0.00    -0.203 F 
ATOM     77  C   UNL A   1      43.794  34.478  26.288  1.00  0.00     0.198 A 
ATOM     78  C   UNL A   1      44.767  35.770  28.061  1.00  0.00     0.198 A 
ATOM     79  F   UNL A   1      45.638  34.696  29.962  1.00  0.00    -0.203 F 
ATOM     80  F   UNL A   1      43.230  34.412  25.075  1.00  0.00    -0.200 F 
ATOM     81  C   UNL A   1      44.156  35.707  26.818  1.00  0.00     0.200 A 
ATOM     82  F   UNL A   1      45.104  36.959  28.581  1.00  0.00    -0.200 F 
ATOM     83  F   UNL A   1      43.923  36.831  26.127  1.00  0.00    -0.200 F 
ENDBRANCH  59  73
BRANCH  60  84
ATOM     84  C   UNL A   1      45.876  25.075  33.721  1.00  0.00     0.064 A 
ATOM     85  C   UNL A   1      46.893  24.939  34.677  1.00  0.00     0.173 A 
ATOM     86  C   UNL A   1      45.041  23.969  33.500  1.00  0.00     0.173 A 
ATOM     87  F   UNL A   1      47.739  25.956  34.902  1.00  0.00    -0.203 F 
ATOM     88  C   UNL A   1      47.080  23.743  35.367  1.00  0.00     0.198 A 
ATOM     89  C   UNL A   1      45.207  22.784  34.215  1.00  0.00     0.198 A 
ATOM     90  F   UNL A   1      44.056  24.041  32.592  1.00  0.00    -0.203 F 
ATOM     91  F   UNL A   1      48.094  23.624  36.235  1.00  0.00    -0.200 F 
ATOM     92  C   UNL A   1      46.233  22.669  35.141  1.00  0.00     0.200 A 
ATOM     93  F   UNL A   1      44.379  21.754  34.001  1.00  0.00    -0.200 F 
ATOM     94  F   UNL A   1      46.412  21.519  35.806  1.00  0.00    -0.200 F 
ENDBRANCH  60  84
BRANCH  72  95
ATOM     95  C   UNL A   1      49.114  27.675  28.117  1.00  0.00     0.064 A 
ATOM     96  C   UNL A   1      48.898  26.923  26.953  1.00  0.00     0.173 A 
ATOM     97  C   UNL A   1      50.441  27.986  28.457  1.00  0.00     0.173 A 
ATOM     98  F   UNL A   1      47.651  26.587  26.588  1.00  0.00    -0.203 F 
ATOM     99  C   UNL A   1      49.966  26.477  26.178  1.00  0.00     0.198 A 
ATOM    100  C   UNL A   1      51.504  27.569  27.661  1.00  0.00     0.198 A 
ATOM    101  F   UNL A   1      50.706  28.711  29.555  1.00  0.00    -0.203 F 
ATOM    102  F   UNL A   1      49.737  25.714  25.101  1.00  0.00    -0.200 F 
ATOM    103  C   UNL A   1      51.267  26.807  26.528  1.00  0.00     0.200 A 
ATOM    104  F   UNL A   1      52.759  27.905  27.991  1.00  0.00    -0.200 F 
ATOM    105  F   UNL A   1      52.293  26.385  25.776  1.00  0.00    -0.200 F 
ENDBRANCH  72  95
ENDBRANCH  46  47
ENDBRANCH  39  41
ENDBRANCH  38  39
ENDBRANCH  37  38
ENDBRANCH  36  37
ENDBRANCH  35  36
ENDBRANCH  34  35
ENDBRANCH  33  34
ENDBRANCH  32  33
ENDBRANCH   1  32
TORSDOF 25
ENDMDL
MODEL 3
REMARK VINA RESULT:      -8.4      3.969      5.976
REMARK SMILES COC(=O)C1=C(C)NC(C)=C(C(=O)OC)C1c1ccc(C(=O)OCCOCCOCCOCCOC(=O)c2ccc(-c3c4nc(c(-c5c(F)c(F)c(F)c(F)c5F)c5ccc([nH]5)c(-c5c(F)c(F)c(F)c(F)c5F)c5nc(c(-c6c(F)c(F)c(F)c(F)c6F)c6ccc3[nH]6)C=C5)C=C4)cc2)cc1
REMARK SMILES IDX 28 1 27 2 26 3 25 4 24 5 23 6 21 7 22 8 20 9 17 10 18 11
REMARK SMILES IDX 102 12 19 13 101 14 16 15 5 16 6 17 7 18 8 19 11 20 9 21
REMARK SMILES IDX 10 23 3 24 4 25 2 26 1 27 12 28 13 29 14 30 15 31 29 32
REMARK SMILES IDX 30 33 31 34 32 35 33 36 34 37 35 38 36 39 37 40 38 41 39 42
REMARK SMILES IDX 100 43 40 44 99 45 41 46 42 47 43 48 93 49 44 50 98 51 92 52
REMARK SMILES IDX 94 53 45 54 97 55 91 56 90 57 46 59 78 60 58 61 77 62 59 63
REMARK SMILES IDX 62 64 76 65 95 66 60 67 61 68 75 70 96 71 63 72 47 73 48 74
REMARK SMILES IDX 56 75 49 76 50 77 54 78 57 79 51 80 52 81 55 82 53 83 79 84
REMARK SMILES IDX 80 85 88 86 81 87 82 88 86 89 89 90 83 91 84 92 87 93 85 94
REMARK SMILES IDX 64 95 65 96 73 97 66 98 67 99 71 100 74 101 68 102 69 103
REMARK SMILES IDX 72 104 70 105
REMARK H PARENT 8 22 94 58 62 69
REMARK Flexibility Score: inf
ROOT
ATOM      1  C   UNL A   1      30.938  31.992  26.580  1.00  0.00     0.188 C 
ENDROOT
BRANCH   1   2
ATOM      2  C   UNL A   1      30.779  32.333  25.084  1.00  0.00     0.188 C 
BRANCH   2   3
ATOM      3  O   UNL A   1      29.474  32.106  24.577  1.00  0.00    -0.376 OA
BRANCH   3   4
ATOM      4  C   UNL A   1      29.001  32.934  23.527  1.00  0.00     0.202 C 
BRANCH   4   5
ATOM      5  C   UNL A   1      28.540  32.244  22.234  1.00  0.00     0.261 C 
BRANCH   5   6
ATOM      6  O   UNL A   1      29.335  31.124  21.835  1.00  0.00    -0.460 OA
BRANCH   6   7
ATOM      7  C   UNL A   1      28.745  29.914  21.950  1.00  0.00     0.338 C 
ATOM      8  O   UNL A   1      27.688  29.581  21.442  1.00  0.00    -0.246 OA
BRANCH   7   9
ATOM      9  C   UNL A   1      29.681  28.975  22.618  1.00  0.00     0.060 A 
ATOM     10  C   UNL A   1      31.562  27.292  23.864  1.00  0.00    -0.035 A 
ATOM     11  C   UNL A   1      31.897  28.611  23.525  1.00  0.00     0.005 A 
ATOM     12  C   UNL A   1      30.239  26.853  23.635  1.00  0.00     0.005 A 
ATOM     13  C   UNL A   1      30.956  29.452  22.934  1.00  0.00     0.016 A 
ATOM     14  C   UNL A   1      29.316  27.676  22.985  1.00  0.00     0.016 A 
BRANCH  10  15
ATOM     15  C   UNL A   1      32.616  26.275  24.336  1.00  0.00     0.098 C 
ATOM     16  C   UNL A   1      32.143  25.588  25.627  1.00  0.00     0.068 C 
ATOM     17  C   UNL A   1      32.261  24.258  25.819  1.00  0.00     0.023 C 
ATOM     18  C   UNL A   1      31.771  23.509  27.034  1.00  0.00     0.065 C 
ATOM     19  N   UNL A   1      32.821  23.481  24.829  1.00  0.00    -0.362 N 
ATOM     20  C   UNL A   1      33.068  25.251  23.264  1.00  0.00     0.068 C 
ATOM     21  C   UNL A   1      33.149  23.928  23.559  1.00  0.00     0.023 C 
ATOM     22  H   UNL A   1      33.000  22.536  25.039  1.00  0.00     0.166 HD
ATOM     23  C   UNL A   1      33.543  22.811  22.619  1.00  0.00     0.065 C 
BRANCH  16  24
ATOM     24  C   UNL A   1      31.422  26.357  26.660  1.00  0.00     0.336 C 
ATOM     25  O   UNL A   1      30.234  26.217  26.905  1.00  0.00    -0.246 OA
BRANCH  24  26
ATOM     26  O   UNL A   1      32.295  27.140  27.341  1.00  0.00    -0.466 OA
ATOM     27  C   UNL A   1      31.962  28.533  27.330  1.00  0.00     0.282 C 
ENDBRANCH  24  26
ENDBRANCH  16  24
BRANCH  20  28
ATOM     28  C   UNL A   1      33.302  25.721  21.871  1.00  0.00     0.336 C 
ATOM     29  O   UNL A   1      34.100  26.598  21.569  1.00  0.00    -0.246 OA
BRANCH  28  30
ATOM     30  O   UNL A   1      32.600  24.983  20.974  1.00  0.00    -0.466 OA
ATOM     31  C   UNL A   1      32.549  25.578  19.672  1.00  0.00     0.282 C 
ENDBRANCH  28  30
ENDBRANCH  20  28
ENDBRANCH  10  15
ENDBRANCH   7   9
ENDBRANCH   6   7
ENDBRANCH   5   6
ENDBRANCH   4   5
ENDBRANCH   3   4
ENDBRANCH   2   3
ENDBRANCH   1   2
BRANCH   1  32
ATOM     32  O   UNL A   1      32.169  32.289  27.225  1.00  0.00    -0.377 OA
BRANCH  32  33
ATOM     33  C   UNL A   1      32.668  33.626  27.206  1.00  0.00     0.188 C 
BRANCH  33  34
ATOM     34  C   UNL A   1      33.675  34.136  28.265  1.00  0.00     0.188 C 
BRANCH  34  35
ATOM     35  O   UNL A   1      33.344  33.812  29.603  1.00  0.00    -0.376 OA
BRANCH  35  36
ATOM     36  C   UNL A   1      34.169  34.341  30.626  1.00  0.00     0.202 C 
BRANCH  36  37
ATOM     37  C   UNL A   1      35.466  33.578  30.928  1.00  0.00     0.261 C 
BRANCH  37  38
ATOM     38  O   UNL A   1      35.320  32.333  31.632  1.00  0.00    -0.460 OA
BRANCH  38  39
ATOM     39  C   UNL A   1      36.247  32.026  32.564  1.00  0.00     0.338 C 
ATOM     40  O   UNL A   1      36.118  32.059  33.776  1.00  0.00    -0.246 OA
BRANCH  39  41
ATOM     41  C   UNL A   1      37.412  31.453  31.857  1.00  0.00     0.060 A 
ATOM     42  C   UNL A   1      38.600  31.219  32.562  1.00  0.00     0.016 A 
ATOM     43  C   UNL A   1      37.318  31.119  30.504  1.00  0.00     0.016 A 
ATOM     44  C   UNL A   1      39.702  30.661  31.911  1.00  0.00     0.010 A 
ATOM     45  C   UNL A   1      38.427  30.582  29.848  1.00  0.00     0.010 A 
ATOM     46  C   UNL A   1      39.633  30.370  30.542  1.00  0.00    -0.014 A 
BRANCH  46  47
ATOM     47  C   UNL A   1      40.857  29.989  29.796  1.00  0.00     0.031 A 
ATOM     48  C   UNL A   1      40.946  28.604  29.217  1.00  0.00     0.074 A 
ATOM     49  C   UNL A   1      41.873  30.855  29.634  1.00  0.00     0.049 A 
ATOM     50  N   UNL A   1      41.940  28.024  28.594  1.00  0.00    -0.248 NA
ATOM     51  C   UNL A   1      39.751  27.760  29.366  1.00  0.00     0.031 C 
ATOM     52  C   UNL A   1      41.892  32.234  30.112  1.00  0.00     0.029 A 
ATOM     53  N   UNL A   1      43.097  30.689  29.031  1.00  0.00    -0.354 N 
ATOM     54  C   UNL A   1      41.492  26.746  28.283  1.00  0.00     0.074 A 
ATOM     55  C   UNL A   1      40.151  26.625  28.813  1.00  0.00     0.031 C 
ATOM     56  C   UNL A   1      43.076  32.787  29.799  1.00  0.00     0.029 A 
ATOM     57  C   UNL A   1      43.913  31.789  29.133  1.00  0.00     0.049 A 
ATOM     58  H   UNL A   1      43.363  29.861  28.570  1.00  0.00     0.167 HD
ATOM     59  C   UNL A   1      42.141  25.765  27.613  1.00  0.00     0.037 A 
ATOM     60  C   UNL A   1      45.197  31.956  28.761  1.00  0.00     0.037 A 
ATOM     61  C   UNL A   1      43.478  25.887  27.094  1.00  0.00     0.049 A 
ATOM     62  C   UNL A   1      45.928  30.817  28.094  1.00  0.00     0.074 A 
ATOM     63  C   UNL A   1      44.213  24.959  26.375  1.00  0.00     0.029 A 
ATOM     64  N   UNL A   1      44.288  27.002  27.250  1.00  0.00    -0.354 N 
ATOM     65  N   UNL A   1      45.490  29.624  27.770  1.00  0.00    -0.248 NA
ATOM     66  C   UNL A   1      47.336  31.049  27.739  1.00  0.00     0.031 C 
ATOM     67  C   UNL A   1      45.489  25.487  26.156  1.00  0.00     0.029 A 
ATOM     68  C   UNL A   1      45.528  26.770  26.676  1.00  0.00     0.049 A 
ATOM     69  H   UNL A   1      44.020  27.836  27.701  1.00  0.00     0.167 HD
ATOM     70  C   UNL A   1      46.555  28.975  27.157  1.00  0.00     0.074 A 
ATOM     71  C   UNL A   1      47.656  29.915  27.133  1.00  0.00     0.031 C 
ATOM     72  C   UNL A   1      46.617  27.715  26.660  1.00  0.00     0.037 A 
BRANCH  59  73
ATOM     73  C   UNL A   1      41.425  24.457  27.430  1.00  0.00     0.064 A 
ATOM     74  C   UNL A   1      40.321  24.330  26.574  1.00  0.00     0.173 A 
ATOM     75  C   UNL A   1      41.874  23.306  28.095  1.00  0.00     0.173 A 
ATOM     76  F   UNL A   1      39.843  25.402  25.923  1.00  0.00    -0.203 F 
ATOM     77  C   UNL A   1      39.676  23.105  26.411  1.00  0.00     0.198 A 
ATOM     78  C   UNL A   1      41.248  22.078  27.906  1.00  0.00     0.198 A 
ATOM     79  F   UNL A   1      42.927  23.371  28.924  1.00  0.00    -0.203 F 
ATOM     80  F   UNL A   1      38.594  23.019  25.627  1.00  0.00    -0.200 F 
ATOM     81  C   UNL A   1      40.145  21.980  27.071  1.00  0.00     0.200 A 
ATOM     82  F   UNL A   1      41.711  20.987  28.533  1.00  0.00    -0.200 F 
ATOM     83  F   UNL A   1      39.530  20.800  26.906  1.00  0.00    -0.200 F 
ENDBRANCH  59  73
BRANCH  60  84
ATOM     84  C   UNL A   1      45.891  33.244  29.031  1.00  0.00     0.064 A 
ATOM     85  C   UNL A   1      46.577  33.461  30.235  1.00  0.00     0.173 A 
ATOM     86  C   UNL A   1      45.855  34.298  28.105  1.00  0.00     0.173 A 
ATOM     87  F   UNL A   1      46.613  32.497  31.167  1.00  0.00    -0.203 F 
ATOM     88  C   UNL A   1      47.182  34.687  30.509  1.00  0.00     0.198 A 
ATOM     89  C   UNL A   1      46.490  35.511  28.366  1.00  0.00     0.198 A 
ATOM     90  F   UNL A   1      45.208  34.147  26.940  1.00  0.00    -0.203 F 
ATOM     91  F   UNL A   1      47.782  34.884  31.691  1.00  0.00    -0.200 F 
ATOM     92  C   UNL A   1      47.144  35.707  29.572  1.00  0.00     0.200 A 
ATOM     93  F   UNL A   1      46.459  36.490  27.453  1.00  0.00    -0.200 F 
ATOM     94  F   UNL A   1      47.727  36.885  29.837  1.00  0.00    -0.200 F 
ENDBRANCH  60  84
BRANCH  72  95
ATOM     95  C   UNL A   1      47.910  27.283  26.025  1.00  0.00     0.064 A 
ATOM     96  C   UNL A   1      48.170  27.493  24.663  1.00  0.00     0.173 A 
ATOM     97  C   UNL A   1      48.920  26.690  26.799  1.00  0.00     0.173 A 
ATOM     98  F   UNL A   1      47.234  28.044  23.874  1.00  0.00    -0.203 F 
ATOM     99  C   UNL A   1      49.379  27.099  24.093  1.00  0.00     0.198 A 
ATOM    100  C   UNL A   1      50.141  26.331  26.235  1.00  0.00     0.198 A 
ATOM    101  F   UNL A   1      48.729  26.473  28.110  1.00  0.00    -0.203 F 
ATOM    102  F   UNL A   1      49.582  27.261  22.779  1.00  0.00    -0.200 F 
ATOM    103  C   UNL A   1      50.366  26.527  24.881  1.00  0.00     0.200 A 
ATOM    104  F   UNL A   1      51.101  25.794  27.002  1.00  0.00    -0.200 F 
ATOM    105  F   UNL A   1      51.533  26.158  24.334  1.00  0.00    -0.200 F 
ENDBRANCH  72  95
ENDBRANCH  46  47
ENDBRANCH  39  41
ENDBRANCH  38  39
ENDBRANCH  37  38
ENDBRANCH  36  37
ENDBRANCH  35  36
ENDBRANCH  34  35
ENDBRANCH  33  34
ENDBRANCH  32  33
ENDBRANCH   1  32
TORSDOF 25
ENDMDL
