MODEL 1
REMARK VINA RESULT:      -9.5      0.000      0.000
REMARK SMILES C[C@H]1[NH2+]CC[C@H]1C(=O)N(C)CCCC(=O)OCCOCCOCCOCCOC(=O)c1ccc(-c2c3nc(c(-c4c(F)c(F)c(F)c(F)c4F)c4ccc([nH]4)c(-c4c(F)c(F)c(F)c(F)c4F)c4nc(c(-c5c(F)c(F)c(F)c(F)c5F)c5ccc2[nH]5)C=C4)C=C3)cc1
REMARK SMILES IDX 20 1 19 2 18 3 17 4 16 5 14 6 15 7 13 8 12 9 11 10 9 11
REMARK SMILES IDX 10 12 7 13 8 14 6 15 1 16 2 17 3 18 4 19 5 22 21 23 22 24
REMARK SMILES IDX 23 25 24 26 25 27 26 28 27 29 28 30 29 31 30 32 31 33 32 34
REMARK SMILES IDX 93 35 33 36 92 37 34 38 35 39 36 40 86 41 37 42 91 43 85 44
REMARK SMILES IDX 87 45 38 46 90 47 84 48 83 49 39 51 71 52 51 53 70 54 52 55
REMARK SMILES IDX 55 56 69 57 88 58 53 59 54 60 68 62 89 63 56 64 40 65 41 66
REMARK SMILES IDX 49 67 42 68 43 69 47 70 50 71 44 72 45 73 48 74 46 75 72 76
REMARK SMILES IDX 73 77 81 78 74 79 75 80 79 81 82 82 76 83 77 84 80 85 78 86
REMARK SMILES IDX 57 87 58 88 66 89 59 90 60 91 64 92 67 93 61 94 62 95 65 96
REMARK SMILES IDX 63 97
REMARK H PARENT 3 20 3 21 87 50 55 61
REMARK Flexibility Score: inf
ROOT
ATOM      1  C   UNL A   1      37.597  21.299  25.308  1.00  0.00     0.188 C 
ENDROOT
BRANCH   1   2
ATOM      2  O   UNL A   1      37.144  21.848  24.088  1.00  0.00    -0.376 OA
BRANCH   2   3
ATOM      3  C   UNL A   1      35.907  22.536  24.059  1.00  0.00     0.202 C 
BRANCH   3   4
ATOM      4  C   UNL A   1      34.578  21.791  24.243  1.00  0.00     0.261 C 
BRANCH   4   5
ATOM      5  O   UNL A   1      34.153  21.598  25.596  1.00  0.00    -0.463 OA
BRANCH   5   6
ATOM      6  C   UNL A   1      34.092  22.689  26.387  1.00  0.00     0.305 C 
ATOM      7  O   UNL A   1      34.852  22.902  27.327  1.00  0.00    -0.252 OA
BRANCH   6   8
ATOM      8  C   UNL A   1      33.039  23.701  25.961  1.00  0.00     0.124 C 
BRANCH   8   9
ATOM      9  C   UNL A   1      33.244  25.224  26.020  1.00  0.00     0.033 C 
BRANCH   9  10
ATOM     10  C   UNL A   1      32.068  26.157  26.327  1.00  0.00     0.119 C 
BRANCH  10  11
ATOM     11  N   UNL A   1      30.934  25.936  25.434  1.00  0.00    -0.345 N 
ATOM     12  C   UNL A   1      29.765  25.324  26.043  1.00  0.00     0.146 C 
BRANCH  11  13
ATOM     13  C   UNL A   1      30.919  26.621  24.241  1.00  0.00     0.231 C 
ATOM     14  O   UNL A   1      31.432  26.131  23.229  1.00  0.00    -0.274 OA
BRANCH  13  15
ATOM     15  C   UNL A   1      30.283  27.986  24.096  1.00  0.00     0.142 C 
ATOM     16  C   UNL A   1      32.480  29.403  24.566  1.00  0.00     0.076 C 
ATOM     17  C   UNL A   1      30.962  29.284  24.536  1.00  0.00     0.192 C 
ATOM     18  N   UNL A   1      30.405  30.334  23.655  1.00  0.00    -0.343 N 
ATOM     19  C   UNL A   1      29.415  29.727  22.762  1.00  0.00     0.261 C 
ATOM     20  H   UNL A   1      31.154  30.751  23.103  1.00  0.00     0.346 HD
ATOM     21  H   UNL A   1      29.962  31.061  24.219  1.00  0.00     0.346 HD
ATOM     22  C   UNL A   1      29.688  28.241  22.733  1.00  0.00     0.081 C 
ENDBRANCH  13  15
ENDBRANCH  11  13
ENDBRANCH  10  11
ENDBRANCH   9  10
ENDBRANCH   8   9
ENDBRANCH   6   8
ENDBRANCH   5   6
ENDBRANCH   4   5
ENDBRANCH   3   4
ENDBRANCH   2   3
ENDBRANCH   1   2
BRANCH   1  23
ATOM     23  C   UNL A   1      38.927  21.895  25.811  1.00  0.00     0.188 C 
BRANCH  23  24
ATOM     24  O   UNL A   1      39.788  21.150  26.666  1.00  0.00    -0.377 OA
BRANCH  24  25
ATOM     25  C   UNL A   1      40.369  19.935  26.196  1.00  0.00     0.188 C 
BRANCH  25  26
ATOM     26  C   UNL A   1      41.886  19.692  26.361  1.00  0.00     0.188 C 
BRANCH  26  27
ATOM     27  O   UNL A   1      42.658  19.966  25.205  1.00  0.00    -0.376 OA
BRANCH  27  28
ATOM     28  C   UNL A   1      44.055  20.156  25.371  1.00  0.00     0.202 C 
BRANCH  28  29
ATOM     29  C   UNL A   1      44.582  21.596  25.487  1.00  0.00     0.261 C 
BRANCH  29  30
ATOM     30  O   UNL A   1      43.593  22.630  25.615  1.00  0.00    -0.460 OA
BRANCH  30  31
ATOM     31  C   UNL A   1      43.929  23.871  25.212  1.00  0.00     0.338 C 
ATOM     32  O   UNL A   1      44.580  24.185  24.227  1.00  0.00    -0.246 OA
BRANCH  31  33
ATOM     33  C   UNL A   1      43.224  24.828  26.082  1.00  0.00     0.060 A 
ATOM     34  C   UNL A   1      43.607  26.176  26.070  1.00  0.00     0.016 A 
ATOM     35  C   UNL A   1      42.195  24.389  26.918  1.00  0.00     0.016 A 
ATOM     36  C   UNL A   1      42.988  27.084  26.926  1.00  0.00     0.010 A 
ATOM     37  C   UNL A   1      41.590  25.294  27.791  1.00  0.00     0.010 A 
ATOM     38  C   UNL A   1      42.012  26.637  27.825  1.00  0.00    -0.014 A 
BRANCH  38  39
ATOM     39  C   UNL A   1      41.595  27.516  28.941  1.00  0.00     0.031 A 
ATOM     40  C   UNL A   1      42.377  27.461  30.222  1.00  0.00     0.074 A 
ATOM     41  C   UNL A   1      40.557  28.359  28.816  1.00  0.00     0.049 A 
ATOM     42  N   UNL A   1      42.181  28.094  31.349  1.00  0.00    -0.248 NA
ATOM     43  C   UNL A   1      43.539  26.558  30.232  1.00  0.00     0.031 C 
ATOM     44  C   UNL A   1      39.747  28.529  27.614  1.00  0.00     0.029 A 
ATOM     45  N   UNL A   1      40.002  29.223  29.727  1.00  0.00    -0.354 N 
ATOM     46  C   UNL A   1      43.182  27.653  32.206  1.00  0.00     0.074 A 
ATOM     47  C   UNL A   1      43.964  26.677  31.479  1.00  0.00     0.031 C 
ATOM     48  C   UNL A   1      38.780  29.428  27.866  1.00  0.00     0.029 A 
ATOM     49  C   UNL A   1      38.886  29.867  29.258  1.00  0.00     0.049 A 
ATOM     50  H   UNL A   1      40.369  29.367  30.630  1.00  0.00     0.167 HD
ATOM     51  C   UNL A   1      43.429  28.033  33.482  1.00  0.00     0.037 A 
ATOM     52  C   UNL A   1      38.030  30.693  29.890  1.00  0.00     0.037 A 
ATOM     53  C   UNL A   1      42.643  29.004  34.197  1.00  0.00     0.049 A 
ATOM     54  C   UNL A   1      38.286  31.062  31.330  1.00  0.00     0.074 A 
ATOM     55  C   UNL A   1      42.830  29.490  35.478  1.00  0.00     0.029 A 
ATOM     56  N   UNL A   1      41.505  29.623  33.697  1.00  0.00    -0.354 N 
ATOM     57  N   UNL A   1      39.255  30.675  32.125  1.00  0.00    -0.248 NA
ATOM     58  C   UNL A   1      37.333  31.988  31.957  1.00  0.00     0.031 C 
ATOM     59  C   UNL A   1      41.764  30.344  35.781  1.00  0.00     0.029 A 
ATOM     60  C   UNL A   1      40.954  30.453  34.660  1.00  0.00     0.049 A 
ATOM     61  H   UNL A   1      41.143  29.491  32.791  1.00  0.00     0.167 HD
ATOM     62  C   UNL A   1      39.044  31.325  33.334  1.00  0.00     0.074 A 
ATOM     63  C   UNL A   1      37.862  32.143  33.164  1.00  0.00     0.031 C 
ATOM     64  C   UNL A   1      39.769  31.256  34.480  1.00  0.00     0.037 A 
BRANCH  51  65
ATOM     65  C   UNL A   1      44.560  27.349  34.198  1.00  0.00     0.064 A 
ATOM     66  C   UNL A   1      44.387  26.138  34.885  1.00  0.00     0.173 A 
ATOM     67  C   UNL A   1      45.838  27.927  34.205  1.00  0.00     0.173 A 
ATOM     68  F   UNL A   1      43.182  25.548  34.925  1.00  0.00    -0.203 F 
ATOM     69  C   UNL A   1      45.438  25.558  35.592  1.00  0.00     0.198 A 
ATOM     70  C   UNL A   1      46.897  27.324  34.878  1.00  0.00     0.198 A 
ATOM     71  F   UNL A   1      46.063  29.082  33.560  1.00  0.00    -0.203 F 
ATOM     72  F   UNL A   1      45.230  24.441  36.303  1.00  0.00    -0.200 F 
ATOM     73  C   UNL A   1      46.693  26.148  35.584  1.00  0.00     0.200 A 
ATOM     74  F   UNL A   1      48.112  27.889  34.857  1.00  0.00    -0.200 F 
ATOM     75  F   UNL A   1      47.702  25.591  36.266  1.00  0.00    -0.200 F 
ENDBRANCH  51  65
BRANCH  52  76
ATOM     76  C   UNL A   1      36.840  31.207  29.163  1.00  0.00     0.064 A 
ATOM     77  C   UNL A   1      36.788  32.524  28.688  1.00  0.00     0.173 A 
ATOM     78  C   UNL A   1      35.737  30.378  28.908  1.00  0.00     0.173 A 
ATOM     79  F   UNL A   1      37.805  33.364  28.928  1.00  0.00    -0.203 F 
ATOM     80  C   UNL A   1      35.677  32.993  27.987  1.00  0.00     0.198 A 
ATOM     81  C   UNL A   1      34.642  30.837  28.183  1.00  0.00     0.198 A 
ATOM     82  F   UNL A   1      35.737  29.109  29.343  1.00  0.00    -0.203 F 
ATOM     83  F   UNL A   1      35.638  34.267  27.572  1.00  0.00    -0.200 F 
ATOM     84  C   UNL A   1      34.610  32.146  27.726  1.00  0.00     0.200 A 
ATOM     85  F   UNL A   1      33.620  30.010  27.920  1.00  0.00    -0.200 F 
ATOM     86  F   UNL A   1      33.550  32.592  27.040  1.00  0.00    -0.200 F 
ENDBRANCH  52  76
BRANCH  64  87
ATOM     87  C   UNL A   1      39.323  32.109  35.636  1.00  0.00     0.064 A 
ATOM     88  C   UNL A   1      38.454  31.624  36.625  1.00  0.00     0.173 A 
ATOM     89  C   UNL A   1      39.811  33.418  35.781  1.00  0.00     0.173 A 
ATOM     90  F   UNL A   1      37.949  30.385  36.532  1.00  0.00    -0.203 F 
ATOM     91  C   UNL A   1      38.068  32.426  37.697  1.00  0.00     0.198 A 
ATOM     92  C   UNL A   1      39.452  34.204  36.873  1.00  0.00     0.198 A 
ATOM     93  F   UNL A   1      40.653  33.931  34.870  1.00  0.00    -0.203 F 
ATOM     94  F   UNL A   1      37.195  31.959  38.600  1.00  0.00    -0.200 F 
ATOM     95  C   UNL A   1      38.574  33.711  37.824  1.00  0.00     0.200 A 
ATOM     96  F   UNL A   1      39.958  35.438  37.003  1.00  0.00    -0.200 F 
ATOM     97  F   UNL A   1      38.209  34.477  38.862  1.00  0.00    -0.200 F 
ENDBRANCH  64  87
ENDBRANCH  38  39
ENDBRANCH  31  33
ENDBRANCH  30  31
ENDBRANCH  29  30
ENDBRANCH  28  29
ENDBRANCH  27  28
ENDBRANCH  26  27
ENDBRANCH  25  26
ENDBRANCH  24  25
ENDBRANCH  23  24
ENDBRANCH   1  23
TORSDOF 25
ENDMDL
MODEL 2
REMARK VINA RESULT:      -9.4      0.964      1.953
REMARK SMILES C[C@H]1[NH2+]CC[C@H]1C(=O)N(C)CCCC(=O)OCCOCCOCCOCCOC(=O)c1ccc(-c2c3nc(c(-c4c(F)c(F)c(F)c(F)c4F)c4ccc([nH]4)c(-c4c(F)c(F)c(F)c(F)c4F)c4nc(c(-c5c(F)c(F)c(F)c(F)c5F)c5ccc2[nH]5)C=C4)C=C3)cc1
REMARK SMILES IDX 20 1 19 2 18 3 17 4 16 5 14 6 15 7 13 8 12 9 11 10 9 11
REMARK SMILES IDX 10 12 7 13 8 14 6 15 1 16 2 17 3 18 4 19 5 22 21 23 22 24
REMARK SMILES IDX 23 25 24 26 25 27 26 28 27 29 28 30 29 31 30 32 31 33 32 34
REMARK SMILES IDX 93 35 33 36 92 37 34 38 35 39 36 40 86 41 37 42 91 43 85 44
REMARK SMILES IDX 87 45 38 46 90 47 84 48 83 49 39 51 71 52 51 53 70 54 52 55
REMARK SMILES IDX 55 56 69 57 88 58 53 59 54 60 68 62 89 63 56 64 40 65 41 66
REMARK SMILES IDX 49 67 42 68 43 69 47 70 50 71 44 72 45 73 48 74 46 75 72 76
REMARK SMILES IDX 73 77 81 78 74 79 75 80 79 81 82 82 76 83 77 84 80 85 78 86
REMARK SMILES IDX 57 87 58 88 66 89 59 90 60 91 64 92 67 93 61 94 62 95 65 96
REMARK SMILES IDX 63 97
REMARK H PARENT 3 20 3 21 87 50 55 61
REMARK Flexibility Score: inf
ROOT
ATOM      1  C   UNL A   1      37.997  21.927  26.126  1.00  0.00     0.188 C 
ENDROOT
BRANCH   1   2
ATOM      2  O   UNL A   1      37.425  22.519  24.977  1.00  0.00    -0.376 OA
BRANCH   2   3
ATOM      3  C   UNL A   1      36.358  21.859  24.321  1.00  0.00     0.202 C 
BRANCH   3   4
ATOM      4  C   UNL A   1      34.919  21.957  24.846  1.00  0.00     0.261 C 
BRANCH   4   5
ATOM      5  O   UNL A   1      34.117  20.782  24.690  1.00  0.00    -0.463 OA
BRANCH   5   6
ATOM      6  C   UNL A   1      32.786  20.915  24.856  1.00  0.00     0.305 C 
ATOM      7  O   UNL A   1      32.006  19.972  24.950  1.00  0.00    -0.252 OA
BRANCH   6   8
ATOM      8  C   UNL A   1      32.324  22.356  25.012  1.00  0.00     0.124 C 
BRANCH   8   9
ATOM      9  C   UNL A   1      31.487  23.104  23.960  1.00  0.00     0.033 C 
BRANCH   9  10
ATOM     10  C   UNL A   1      32.168  23.825  22.792  1.00  0.00     0.119 C 
BRANCH  10  11
ATOM     11  N   UNL A   1      32.556  25.191  23.130  1.00  0.00    -0.345 N 
ATOM     12  C   UNL A   1      33.865  25.339  23.743  1.00  0.00     0.146 C 
BRANCH  11  13
ATOM     13  C   UNL A   1      31.854  26.218  22.541  1.00  0.00     0.231 C 
ATOM     14  O   UNL A   1      31.599  26.192  21.332  1.00  0.00    -0.274 OA
BRANCH  13  15
ATOM     15  C   UNL A   1      31.356  27.414  23.323  1.00  0.00     0.142 C 
ATOM     16  C   UNL A   1      33.484  28.953  22.922  1.00  0.00     0.076 C 
ATOM     17  C   UNL A   1      32.251  28.583  23.737  1.00  0.00     0.192 C 
ATOM     18  N   UNL A   1      31.351  29.753  23.822  1.00  0.00    -0.343 N 
ATOM     19  C   UNL A   1      29.983  29.321  23.523  1.00  0.00     0.261 C 
ATOM     20  H   UNL A   1      31.643  30.460  23.147  1.00  0.00     0.346 HD
ATOM     21  H   UNL A   1      31.390  30.154  24.760  1.00  0.00     0.346 HD
ATOM     22  C   UNL A   1      30.079  28.008  22.781  1.00  0.00     0.081 C 
ENDBRANCH  13  15
ENDBRANCH  11  13
ENDBRANCH  10  11
ENDBRANCH   9  10
ENDBRANCH   8   9
ENDBRANCH   6   8
ENDBRANCH   5   6
ENDBRANCH   4   5
ENDBRANCH   3   4
ENDBRANCH   2   3
ENDBRANCH   1   2
BRANCH   1  23
ATOM     23  C   UNL A   1      39.411  22.443  26.462  1.00  0.00     0.188 C 
BRANCH  23  24
ATOM     24  O   UNL A   1      40.307  21.667  27.250  1.00  0.00    -0.377 OA
BRANCH  24  25
ATOM     25  C   UNL A   1      40.814  20.437  26.734  1.00  0.00     0.188 C 
BRANCH  25  26
ATOM     26  C   UNL A   1      42.337  20.180  26.711  1.00  0.00     0.188 C 
BRANCH  26  27
ATOM     27  O   UNL A   1      42.923  20.212  25.422  1.00  0.00    -0.376 OA
BRANCH  27  28
ATOM     28  C   UNL A   1      44.338  20.283  25.339  1.00  0.00     0.202 C 
BRANCH  28  29
ATOM     29  C   UNL A   1      44.983  21.658  25.097  1.00  0.00     0.261 C 
BRANCH  29  30
ATOM     30  O   UNL A   1      44.471  22.750  25.878  1.00  0.00    -0.460 OA
BRANCH  30  31
ATOM     31  C   UNL A   1      44.461  23.973  25.312  1.00  0.00     0.338 C 
ATOM     32  O   UNL A   1      44.870  24.285  24.204  1.00  0.00    -0.246 OA
BRANCH  31  33
ATOM     33  C   UNL A   1      43.700  24.868  26.201  1.00  0.00     0.060 A 
ATOM     34  C   UNL A   1      43.909  26.252  26.122  1.00  0.00     0.016 A 
ATOM     35  C   UNL A   1      42.790  24.338  27.119  1.00  0.00     0.016 A 
ATOM     36  C   UNL A   1      43.238  27.108  26.991  1.00  0.00     0.010 A 
ATOM     37  C   UNL A   1      42.136  25.194  28.005  1.00  0.00     0.010 A 
ATOM     38  C   UNL A   1      42.388  26.579  27.969  1.00  0.00    -0.014 A 
BRANCH  38  39
ATOM     39  C   UNL A   1      41.937  27.442  29.085  1.00  0.00     0.031 A 
ATOM     40  C   UNL A   1      42.685  27.372  30.386  1.00  0.00     0.074 A 
ATOM     41  C   UNL A   1      40.899  28.283  28.944  1.00  0.00     0.049 A 
ATOM     42  N   UNL A   1      42.456  27.989  31.516  1.00  0.00    -0.248 NA
ATOM     43  C   UNL A   1      43.849  26.472  30.415  1.00  0.00     0.031 C 
ATOM     44  C   UNL A   1      40.122  28.466  27.722  1.00  0.00     0.029 A 
ATOM     45  N   UNL A   1      40.317  29.133  29.850  1.00  0.00    -0.354 N 
ATOM     46  C   UNL A   1      43.435  27.540  32.393  1.00  0.00     0.074 A 
ATOM     47  C   UNL A   1      44.240  26.577  31.675  1.00  0.00     0.031 C 
ATOM     48  C   UNL A   1      39.146  29.358  27.960  1.00  0.00     0.029 A 
ATOM     49  C   UNL A   1      39.212  29.780  29.360  1.00  0.00     0.049 A 
ATOM     50  H   UNL A   1      40.659  29.265  30.764  1.00  0.00     0.167 HD
ATOM     51  C   UNL A   1      43.646  27.904  33.680  1.00  0.00     0.037 A 
ATOM     52  C   UNL A   1      38.336  30.594  29.980  1.00  0.00     0.037 A 
ATOM     53  C   UNL A   1      42.838  28.863  34.387  1.00  0.00     0.049 A 
ATOM     54  C   UNL A   1      38.552  30.945  31.431  1.00  0.00     0.074 A 
ATOM     55  C   UNL A   1      42.989  29.333  35.679  1.00  0.00     0.029 A 
ATOM     56  N   UNL A   1      41.712  29.484  33.864  1.00  0.00    -0.354 N 
ATOM     57  N   UNL A   1      39.501  30.551  32.246  1.00  0.00    -0.248 NA
ATOM     58  C   UNL A   1      37.579  31.859  32.044  1.00  0.00     0.031 C 
ATOM     59  C   UNL A   1      41.911  30.179  35.964  1.00  0.00     0.029 A 
ATOM     60  C   UNL A   1      41.132  30.300  34.823  1.00  0.00     0.049 A 
ATOM     61  H   UNL A   1      41.374  29.363  32.948  1.00  0.00     0.167 HD
ATOM     62  C   UNL A   1      39.255  31.183  33.458  1.00  0.00     0.074 A 
ATOM     63  C   UNL A   1      38.075  32.000  33.267  1.00  0.00     0.031 C 
ATOM     64  C   UNL A   1      39.949  31.102  34.622  1.00  0.00     0.037 A 
BRANCH  51  65
ATOM     65  C   UNL A   1      44.760  27.214  34.417  1.00  0.00     0.064 A 
ATOM     66  C   UNL A   1      44.558  26.028  35.139  1.00  0.00     0.173 A 
ATOM     67  C   UNL A   1      46.052  27.762  34.410  1.00  0.00     0.173 A 
ATOM     68  F   UNL A   1      43.340  25.468  35.193  1.00  0.00    -0.203 F 
ATOM     69  C   UNL A   1      45.594  25.443  35.863  1.00  0.00     0.198 A 
ATOM     70  C   UNL A   1      47.095  27.154  35.102  1.00  0.00     0.198 A 
ATOM     71  F   UNL A   1      46.305  28.892  33.733  1.00  0.00    -0.203 F 
ATOM     72  F   UNL A   1      45.359  24.352  36.605  1.00  0.00    -0.200 F 
ATOM     73  C   UNL A   1      46.863  26.003  35.840  1.00  0.00     0.200 A 
ATOM     74  F   UNL A   1      48.323  27.689  35.066  1.00  0.00    -0.200 F 
ATOM     75  F   UNL A   1      47.858  25.442  36.540  1.00  0.00    -0.200 F 
ENDBRANCH  51  65
BRANCH  52  76
ATOM     76  C   UNL A   1      37.165  31.114  29.227  1.00  0.00     0.064 A 
ATOM     77  C   UNL A   1      36.059  30.301  28.947  1.00  0.00     0.173 A 
ATOM     78  C   UNL A   1      37.121  32.448  28.794  1.00  0.00     0.173 A 
ATOM     79  F   UNL A   1      36.063  29.013  29.317  1.00  0.00    -0.203 F 
ATOM     80  C   UNL A   1      34.955  30.802  28.258  1.00  0.00     0.198 A 
ATOM     81  C   UNL A   1      36.006  32.955  28.133  1.00  0.00     0.198 A 
ATOM     82  F   UNL A   1      38.155  33.267  29.035  1.00  0.00    -0.203 F 
ATOM     83  F   UNL A   1      33.923  29.995  27.972  1.00  0.00    -0.200 F 
ATOM     84  C   UNL A   1      34.924  32.131  27.861  1.00  0.00     0.200 A 
ATOM     85  F   UNL A   1      35.975  34.244  27.766  1.00  0.00    -0.200 F 
ATOM     86  F   UNL A   1      33.857  32.615  27.214  1.00  0.00    -0.200 F 
ENDBRANCH  52  76
BRANCH  64  87
ATOM     87  C   UNL A   1      39.469  31.938  35.777  1.00  0.00     0.064 A 
ATOM     88  C   UNL A   1      39.951  33.236  36.005  1.00  0.00     0.173 A 
ATOM     89  C   UNL A   1      38.476  31.448  36.641  1.00  0.00     0.173 A 
ATOM     90  F   UNL A   1      40.907  33.750  35.218  1.00  0.00    -0.203 F 
ATOM     91  C   UNL A   1      39.478  33.998  37.070  1.00  0.00     0.198 A 
ATOM     92  C   UNL A   1      37.980  32.227  37.682  1.00  0.00     0.198 A 
ATOM     93  F   UNL A   1      37.972  30.217  36.464  1.00  0.00    -0.203 F 
ATOM     94  F   UNL A   1      39.992  35.215  37.300  1.00  0.00    -0.200 F 
ATOM     95  C   UNL A   1      38.488  33.498  37.903  1.00  0.00     0.200 A 
ATOM     96  F   UNL A   1      37.010  31.748  38.473  1.00  0.00    -0.200 F 
ATOM     97  F   UNL A   1      38.028  34.238  38.921  1.00  0.00    -0.200 F 
ENDBRANCH  64  87
ENDBRANCH  38  39
ENDBRANCH  31  33
ENDBRANCH  30  31
ENDBRANCH  29  30
ENDBRANCH  28  29
ENDBRANCH  27  28
ENDBRANCH  26  27
ENDBRANCH  25  26
ENDBRANCH  24  25
ENDBRANCH  23  24
ENDBRANCH   1  23
TORSDOF 25
ENDMDL
MODEL 3
REMARK VINA RESULT:      -8.8      4.424      6.765
REMARK SMILES C[C@H]1[NH2+]CC[C@H]1C(=O)N(C)CCCC(=O)OCCOCCOCCOCCOC(=O)c1ccc(-c2c3nc(c(-c4c(F)c(F)c(F)c(F)c4F)c4ccc([nH]4)c(-c4c(F)c(F)c(F)c(F)c4F)c4nc(c(-c5c(F)c(F)c(F)c(F)c5F)c5ccc2[nH]5)C=C4)C=C3)cc1
REMARK SMILES IDX 20 1 19 2 18 3 17 4 16 5 14 6 15 7 13 8 12 9 11 10 9 11
REMARK SMILES IDX 10 12 7 13 8 14 6 15 1 16 2 17 3 18 4 19 5 22 21 23 22 24
REMARK SMILES IDX 23 25 24 26 25 27 26 28 27 29 28 30 29 31 30 32 31 33 32 34
REMARK SMILES IDX 93 35 33 36 92 37 34 38 35 39 36 40 86 41 37 42 91 43 85 44
REMARK SMILES IDX 87 45 38 46 90 47 84 48 83 49 39 51 71 52 51 53 70 54 52 55
REMARK SMILES IDX 55 56 69 57 88 58 53 59 54 60 68 62 89 63 56 64 40 65 41 66
REMARK SMILES IDX 49 67 42 68 43 69 47 70 50 71 44 72 45 73 48 74 46 75 72 76
REMARK SMILES IDX 73 77 81 78 74 79 75 80 79 81 82 82 76 83 77 84 80 85 78 86
REMARK SMILES IDX 57 87 58 88 66 89 59 90 60 91 64 92 67 93 61 94 62 95 65 96
REMARK SMILES IDX 63 97
REMARK H PARENT 3 20 3 21 87 50 55 61
REMARK Flexibility Score: inf
ROOT
ATOM      1  C   UNL A   1      32.215  20.319  23.543  1.00  0.00     0.188 C 
ENDROOT
BRANCH   1   2
ATOM      2  O   UNL A   1      32.132  21.695  23.851  1.00  0.00    -0.376 OA
BRANCH   2   3
ATOM      3  C   UNL A   1      32.912  22.616  23.111  1.00  0.00     0.202 C 
BRANCH   3   4
ATOM      4  C   UNL A   1      33.310  23.976  23.700  1.00  0.00     0.261 C 
BRANCH   4   5
ATOM      5  O   UNL A   1      34.199  24.765  22.904  1.00  0.00    -0.463 OA
BRANCH   5   6
ATOM      6  C   UNL A   1      33.657  25.752  22.162  1.00  0.00     0.305 C 
ATOM      7  O   UNL A   1      34.226  26.805  21.894  1.00  0.00    -0.252 OA
BRANCH   6   8
ATOM      8  C   UNL A   1      32.286  25.415  21.595  1.00  0.00     0.124 C 
BRANCH   8   9
ATOM      9  C   UNL A   1      31.058  26.334  21.722  1.00  0.00     0.033 C 
BRANCH   9  10
ATOM     10  C   UNL A   1      31.114  27.591  22.595  1.00  0.00     0.119 C 
BRANCH  10  11
ATOM     11  N   UNL A   1      30.403  27.423  23.860  1.00  0.00    -0.345 N 
ATOM     12  C   UNL A   1      29.012  27.018  23.749  1.00  0.00     0.146 C 
BRANCH  11  13
ATOM     13  C   UNL A   1      31.157  27.305  25.005  1.00  0.00     0.231 C 
ATOM     14  O   UNL A   1      30.770  26.597  25.941  1.00  0.00    -0.274 OA
BRANCH  13  15
ATOM     15  C   UNL A   1      32.481  28.016  25.182  1.00  0.00     0.142 C 
ATOM     16  C   UNL A   1      31.475  30.415  25.717  1.00  0.00     0.076 C 
ATOM     17  C   UNL A   1      32.621  29.538  25.230  1.00  0.00     0.192 C 
ATOM     18  N   UNL A   1      33.820  29.794  26.059  1.00  0.00    -0.343 N 
ATOM     19  C   UNL A   1      34.403  28.510  26.457  1.00  0.00     0.261 C 
ATOM     20  H   UNL A   1      33.555  30.322  26.891  1.00  0.00     0.346 HD
ATOM     21  H   UNL A   1      34.502  30.333  25.526  1.00  0.00     0.346 HD
ATOM     22  C   UNL A   1      33.327  27.460  26.301  1.00  0.00     0.081 C 
ENDBRANCH  13  15
ENDBRANCH  11  13
ENDBRANCH  10  11
ENDBRANCH   9  10
ENDBRANCH   8   9
ENDBRANCH   6   8
ENDBRANCH   5   6
ENDBRANCH   4   5
ENDBRANCH   3   4
ENDBRANCH   2   3
ENDBRANCH   1   2
BRANCH   1  23
ATOM     23  C   UNL A   1      32.385  19.407  24.775  1.00  0.00     0.188 C 
BRANCH  23  24
ATOM     24  O   UNL A   1      33.672  19.146  25.324  1.00  0.00    -0.377 OA
BRANCH  24  25
ATOM     25  C   UNL A   1      34.829  19.705  24.703  1.00  0.00     0.188 C 
BRANCH  25  26
ATOM     26  C   UNL A   1      35.511  20.946  25.321  1.00  0.00     0.188 C 
BRANCH  26  27
ATOM     27  O   UNL A   1      36.358  21.657  24.436  1.00  0.00    -0.376 OA
BRANCH  27  28
ATOM     28  C   UNL A   1      37.665  21.981  24.886  1.00  0.00     0.202 C 
BRANCH  28  29
ATOM     29  C   UNL A   1      38.420  20.939  25.728  1.00  0.00     0.261 C 
BRANCH  29  30
ATOM     30  O   UNL A   1      39.850  21.070  25.775  1.00  0.00    -0.460 OA
BRANCH  30  31
ATOM     31  C   UNL A   1      40.443  21.026  26.984  1.00  0.00     0.338 C 
ATOM     32  O   UNL A   1      40.852  20.040  27.578  1.00  0.00    -0.246 OA
BRANCH  31  33
ATOM     33  C   UNL A   1      40.682  22.415  27.414  1.00  0.00     0.060 A 
ATOM     34  C   UNL A   1      39.958  23.453  26.811  1.00  0.00     0.016 A 
ATOM     35  C   UNL A   1      41.629  22.689  28.402  1.00  0.00     0.016 A 
ATOM     36  C   UNL A   1      40.210  24.776  27.168  1.00  0.00     0.010 A 
ATOM     37  C   UNL A   1      41.898  24.016  28.742  1.00  0.00     0.010 A 
ATOM     38  C   UNL A   1      41.216  25.065  28.097  1.00  0.00    -0.014 A 
BRANCH  38  39
ATOM     39  C   UNL A   1      41.703  26.457  28.232  1.00  0.00     0.031 A 
ATOM     40  C   UNL A   1      43.049  26.799  27.659  1.00  0.00     0.074 A 
ATOM     41  C   UNL A   1      40.961  27.403  28.831  1.00  0.00     0.049 A 
ATOM     42  N   UNL A   1      43.709  27.927  27.691  1.00  0.00    -0.248 NA
ATOM     43  C   UNL A   1      43.750  25.709  26.960  1.00  0.00     0.031 C 
ATOM     44  C   UNL A   1      39.628  27.201  29.390  1.00  0.00     0.029 A 
ATOM     45  N   UNL A   1      41.239  28.724  29.078  1.00  0.00    -0.354 N 
ATOM     46  C   UNL A   1      44.907  27.679  27.033  1.00  0.00     0.074 A 
ATOM     47  C   UNL A   1      44.897  26.287  26.641  1.00  0.00     0.031 C 
ATOM     48  C   UNL A   1      39.209  28.355  29.937  1.00  0.00     0.029 A 
ATOM     49  C   UNL A   1      40.261  29.363  29.795  1.00  0.00     0.049 A 
ATOM     50  H   UNL A   1      42.062  29.170  28.770  1.00  0.00     0.167 HD
ATOM     51  C   UNL A   1      45.922  28.538  26.775  1.00  0.00     0.037 A 
ATOM     52  C   UNL A   1      40.232  30.609  30.306  1.00  0.00     0.037 A 
ATOM     53  C   UNL A   1      45.923  29.922  27.171  1.00  0.00     0.049 A 
ATOM     54  C   UNL A   1      41.396  31.537  30.059  1.00  0.00     0.074 A 
ATOM     55  C   UNL A   1      46.881  30.888  26.926  1.00  0.00     0.029 A 
ATOM     56  N   UNL A   1      44.922  30.532  27.916  1.00  0.00    -0.354 N 
ATOM     57  N   UNL A   1      42.509  31.312  29.403  1.00  0.00    -0.248 NA
ATOM     58  C   UNL A   1      41.294  32.891  30.617  1.00  0.00     0.031 C 
ATOM     59  C   UNL A   1      46.498  32.061  27.587  1.00  0.00     0.029 A 
ATOM     60  C   UNL A   1      45.261  31.850  28.177  1.00  0.00     0.049 A 
ATOM     61  H   UNL A   1      44.094  30.092  28.215  1.00  0.00     0.167 HD
ATOM     62  C   UNL A   1      43.229  32.499  29.449  1.00  0.00     0.074 A 
ATOM     63  C   UNL A   1      42.419  33.446  30.185  1.00  0.00     0.031 C 
ATOM     64  C   UNL A   1      44.448  32.781  28.921  1.00  0.00     0.037 A 
BRANCH  51  65
ATOM     65  C   UNL A   1      47.135  27.983  26.082  1.00  0.00     0.064 A 
ATOM     66  C   UNL A   1      47.213  27.868  24.686  1.00  0.00     0.173 A 
ATOM     67  C   UNL A   1      48.235  27.546  26.836  1.00  0.00     0.173 A 
ATOM     68  F   UNL A   1      46.184  28.255  23.916  1.00  0.00    -0.203 F 
ATOM     69  C   UNL A   1      48.324  27.293  24.074  1.00  0.00     0.198 A 
ATOM     70  C   UNL A   1      49.361  27.009  26.220  1.00  0.00     0.198 A 
ATOM     71  F   UNL A   1      48.218  27.636  28.174  1.00  0.00    -0.203 F 
ATOM     72  F   UNL A   1      48.345  27.125  22.745  1.00  0.00    -0.200 F 
ATOM     73  C   UNL A   1      49.400  26.869  24.840  1.00  0.00     0.200 A 
ATOM     74  F   UNL A   1      50.405  26.613  26.961  1.00  0.00    -0.200 F 
ATOM     75  F   UNL A   1      50.467  26.313  24.251  1.00  0.00    -0.200 F 
ENDBRANCH  51  65
BRANCH  52  76
ATOM     76  C   UNL A   1      39.064  31.038  31.118  1.00  0.00     0.064 A 
ATOM     77  C   UNL A   1      38.995  30.775  32.492  1.00  0.00     0.173 A 
ATOM     78  C   UNL A   1      38.000  31.743  30.535  1.00  0.00     0.173 A 
ATOM     79  F   UNL A   1      39.974  30.081  33.092  1.00  0.00    -0.203 F 
ATOM     80  C   UNL A   1      37.905  31.198  33.252  1.00  0.00     0.198 A 
ATOM     81  C   UNL A   1      36.927  32.191  31.299  1.00  0.00     0.198 A 
ATOM     82  F   UNL A   1      38.016  32.018  29.222  1.00  0.00    -0.203 F 
ATOM     83  F   UNL A   1      37.847  30.905  34.559  1.00  0.00    -0.200 F 
ATOM     84  C   UNL A   1      36.878  31.915  32.657  1.00  0.00     0.200 A 
ATOM     85  F   UNL A   1      35.944  32.897  30.723  1.00  0.00    -0.200 F 
ATOM     86  F   UNL A   1      35.838  32.336  33.391  1.00  0.00    -0.200 F 
ENDBRANCH  52  76
BRANCH  64  87
ATOM     87  C   UNL A   1      44.973  34.180  29.096  1.00  0.00     0.064 A 
ATOM     88  C   UNL A   1      45.948  34.492  30.056  1.00  0.00     0.173 A 
ATOM     89  C   UNL A   1      44.527  35.214  28.257  1.00  0.00     0.173 A 
ATOM     90  F   UNL A   1      46.402  33.547  30.891  1.00  0.00    -0.203 F 
ATOM     91  C   UNL A   1      46.433  35.792  30.187  1.00  0.00     0.198 A 
ATOM     92  C   UNL A   1      45.041  36.503  28.367  1.00  0.00     0.198 A 
ATOM     93  F   UNL A   1      43.603  34.970  27.315  1.00  0.00    -0.203 F 
ATOM     94  F   UNL A   1      47.324  36.078  31.147  1.00  0.00    -0.200 F 
ATOM     95  C   UNL A   1      45.986  36.793  29.338  1.00  0.00     0.200 A 
ATOM     96  F   UNL A   1      44.621  37.464  27.533  1.00  0.00    -0.200 F 
ATOM     97  F   UNL A   1      46.462  38.040  29.461  1.00  0.00    -0.200 F 
ENDBRANCH  64  87
ENDBRANCH  38  39
ENDBRANCH  31  33
ENDBRANCH  30  31
ENDBRANCH  29  30
ENDBRANCH  28  29
ENDBRANCH  27  28
ENDBRANCH  26  27
ENDBRANCH  25  26
ENDBRANCH  24  25
ENDBRANCH  23  24
ENDBRANCH   1  23
TORSDOF 25
ENDMDL
