MODEL 1
REMARK VINA RESULT:     -10.7      0.000      0.000
REMARK SMILES O=C(OCCOCCOCCOCCOC(=O)c1ccccc1C[N@H+]1CCCC[C@@H]1CCn1cccn1)c1ccc(-c2c3nc(c(-c4c(F)c(F)c(F)c(F)c4F)c4ccc([nH]4)c(-c4c(F)c(F)c(F)c(F)c4F)c4nc(c(-c5c(F)c(F)c(F)c(F)c5F)c5ccc2[nH]5)C=C4)C=C3)cc1
REMARK SMILES IDX 10 1 9 2 8 3 7 4 6 5 5 6 4 7 3 8 2 9 1 10 38 11 39 12 100 13
REMARK SMILES IDX 40 14 99 15 41 16 42 17 43 18 93 19 44 20 98 21 92 22 94 23
REMARK SMILES IDX 45 24 97 25 91 26 90 27 46 29 78 30 58 31 77 32 59 33 62 34
REMARK SMILES IDX 76 35 95 36 60 37 61 38 75 40 96 41 63 42 47 43 48 44 56 45
REMARK SMILES IDX 49 46 50 47 54 48 57 49 51 50 52 51 55 52 53 53 79 54 80 55
REMARK SMILES IDX 88 56 81 57 82 58 86 59 89 60 83 61 84 62 87 63 85 64 64 65
REMARK SMILES IDX 65 66 73 67 66 68 67 69 71 70 74 71 68 72 69 73 72 74 70 75
REMARK SMILES IDX 11 76 12 77 13 78 14 79 15 80 16 81 17 82 18 83 19 84 23 85
REMARK SMILES IDX 20 86 22 87 21 88 24 89 25 90 26 91 30 92 27 94 29 95 28 96
REMARK SMILES IDX 31 97 32 98 33 99 34 100 37 101 35 102 36 103
REMARK H PARENT 94 28 62 39 25 93
REMARK Flexibility Score: inf
ROOT
ATOM      1  C   UNL A   1      40.814  21.285  27.677  1.00  0.00     0.188 C 
ENDROOT
BRANCH   1   2
ATOM      2  O   UNL A   1      41.105  19.945  27.347  1.00  0.00    -0.377 OA
BRANCH   2   3
ATOM      3  C   UNL A   1      41.760  19.778  26.102  1.00  0.00     0.188 C 
BRANCH   3   4
ATOM      4  C   UNL A   1      43.016  18.884  25.963  1.00  0.00     0.188 C 
BRANCH   4   5
ATOM      5  O   UNL A   1      44.320  19.215  25.498  1.00  0.00    -0.376 OA
BRANCH   5   6
ATOM      6  C   UNL A   1      44.845  20.380  24.898  1.00  0.00     0.202 C 
BRANCH   6   7
ATOM      7  C   UNL A   1      45.200  21.639  25.680  1.00  0.00     0.261 C 
BRANCH   7   8
ATOM      8  O   UNL A   1      44.092  22.290  26.274  1.00  0.00    -0.460 OA
BRANCH   8   9
ATOM      9  C   UNL A   1      43.274  23.189  25.695  1.00  0.00     0.338 C 
ATOM     10  O   UNL A   1      43.103  23.105  24.479  1.00  0.00    -0.246 OA
BRANCH   9  11
ATOM     11  C   UNL A   1      42.596  24.311  26.409  1.00  0.00     0.060 A 
ATOM     12  C   UNL A   1      41.675  25.222  25.883  1.00  0.00     0.016 A 
ATOM     13  C   UNL A   1      42.990  24.457  27.754  1.00  0.00     0.016 A 
ATOM     14  C   UNL A   1      41.373  26.376  26.575  1.00  0.00     0.010 A 
ATOM     15  C   UNL A   1      42.668  25.590  28.467  1.00  0.00     0.010 A 
ATOM     16  C   UNL A   1      41.958  26.585  27.819  1.00  0.00    -0.014 A 
BRANCH  16  17
ATOM     17  C   UNL A   1      41.778  27.883  28.422  1.00  0.00     0.031 A 
ATOM     18  C   UNL A   1      42.895  28.811  28.154  1.00  0.00     0.074 A 
ATOM     19  C   UNL A   1      40.686  28.154  29.160  1.00  0.00     0.049 A 
ATOM     20  N   UNL A   1      43.781  29.225  28.998  1.00  0.00    -0.248 NA
ATOM     21  C   UNL A   1      43.180  29.169  26.757  1.00  0.00     0.031 C 
ATOM     22  C   UNL A   1      39.463  27.361  29.303  1.00  0.00     0.029 A 
ATOM     23  N   UNL A   1      40.415  29.261  29.901  1.00  0.00    -0.354 N 
ATOM     24  C   UNL A   1      44.616  30.071  28.279  1.00  0.00     0.074 A 
ATOM     25  C   UNL A   1      44.317  29.855  26.888  1.00  0.00     0.031 C 
ATOM     26  C   UNL A   1      38.501  28.118  29.880  1.00  0.00     0.029 A 
ATOM     27  C   UNL A   1      39.082  29.387  30.276  1.00  0.00     0.049 A 
ATOM     28  H   UNL A   1      41.104  29.919  30.150  1.00  0.00     0.167 HD
ATOM     29  C   UNL A   1      45.284  31.070  28.914  1.00  0.00     0.037 A 
ATOM     30  C   UNL A   1      38.514  30.503  30.799  1.00  0.00     0.037 A 
ATOM     31  C   UNL A   1      45.369  30.817  30.330  1.00  0.00     0.049 A 
ATOM     32  C   UNL A   1      39.615  31.332  31.362  1.00  0.00     0.074 A 
ATOM     33  C   UNL A   1      45.943  29.827  31.104  1.00  0.00     0.029 A 
ATOM     34  N   UNL A   1      44.464  31.454  31.144  1.00  0.00    -0.354 N 
ATOM     35  N   UNL A   1      40.310  30.982  32.409  1.00  0.00    -0.248 NA
ATOM     36  C   UNL A   1      40.264  32.281  30.467  1.00  0.00     0.031 C 
ATOM     37  C   UNL A   1      45.028  29.617  32.177  1.00  0.00     0.029 A 
ATOM     38  C   UNL A   1      43.989  30.539  32.047  1.00  0.00     0.049 A 
ATOM     39  H   UNL A   1      44.203  32.402  31.088  1.00  0.00     0.167 HD
ATOM     40  C   UNL A   1      41.620  31.302  32.082  1.00  0.00     0.074 A 
ATOM     41  C   UNL A   1      41.522  32.160  30.903  1.00  0.00     0.031 C 
ATOM     42  C   UNL A   1      42.664  30.600  32.614  1.00  0.00     0.037 A 
BRANCH  29  43
ATOM     43  C   UNL A   1      45.466  32.452  28.334  1.00  0.00     0.064 A 
ATOM     44  C   UNL A   1      44.322  33.199  27.990  1.00  0.00     0.173 A 
ATOM     45  C   UNL A   1      46.686  32.930  27.808  1.00  0.00     0.173 A 
ATOM     46  F   UNL A   1      43.107  32.826  28.420  1.00  0.00    -0.203 F 
ATOM     47  C   UNL A   1      44.387  34.282  27.110  1.00  0.00     0.198 A 
ATOM     48  C   UNL A   1      46.753  34.042  26.973  1.00  0.00     0.198 A 
ATOM     49  F   UNL A   1      47.844  32.282  27.975  1.00  0.00    -0.203 F 
ATOM     50  F   UNL A   1      43.258  34.876  26.702  1.00  0.00    -0.200 F 
ATOM     51  C   UNL A   1      45.601  34.697  26.596  1.00  0.00     0.200 A 
ATOM     52  F   UNL A   1      47.939  34.413  26.468  1.00  0.00    -0.200 F 
ATOM     53  F   UNL A   1      45.659  35.690  25.700  1.00  0.00    -0.200 F 
ENDBRANCH  29  43
BRANCH  30  54
ATOM     54  C   UNL A   1      37.169  31.061  30.517  1.00  0.00     0.064 A 
ATOM     55  C   UNL A   1      36.303  31.428  31.562  1.00  0.00     0.173 A 
ATOM     56  C   UNL A   1      36.819  31.518  29.231  1.00  0.00     0.173 A 
ATOM     57  F   UNL A   1      36.585  31.075  32.825  1.00  0.00    -0.203 F 
ATOM     58  C   UNL A   1      35.175  32.225  31.338  1.00  0.00     0.198 A 
ATOM     59  C   UNL A   1      35.691  32.309  29.007  1.00  0.00     0.198 A 
ATOM     60  F   UNL A   1      37.618  31.291  28.178  1.00  0.00    -0.203 F 
ATOM     61  F   UNL A   1      34.410  32.608  32.370  1.00  0.00    -0.200 F 
ATOM     62  C   UNL A   1      34.877  32.675  30.062  1.00  0.00     0.200 A 
ATOM     63  F   UNL A   1      35.437  32.771  27.775  1.00  0.00    -0.200 F 
ATOM     64  F   UNL A   1      33.836  33.493  29.857  1.00  0.00    -0.200 F 
ENDBRANCH  30  54
BRANCH  42  65
ATOM     65  C   UNL A   1      42.371  29.663  33.751  1.00  0.00     0.064 A 
ATOM     66  C   UNL A   1      41.914  28.343  33.593  1.00  0.00     0.173 A 
ATOM     67  C   UNL A   1      42.704  30.080  35.046  1.00  0.00     0.173 A 
ATOM     68  F   UNL A   1      41.673  27.837  32.376  1.00  0.00    -0.203 F 
ATOM     69  C   UNL A   1      41.759  27.497  34.692  1.00  0.00     0.198 A 
ATOM     70  C   UNL A   1      42.584  29.222  36.136  1.00  0.00     0.198 A 
ATOM     71  F   UNL A   1      43.198  31.311  35.249  1.00  0.00    -0.203 F 
ATOM     72  F   UNL A   1      41.313  26.243  34.519  1.00  0.00    -0.200 F 
ATOM     73  C   UNL A   1      42.100  27.936  35.960  1.00  0.00     0.200 A 
ATOM     74  F   UNL A   1      42.967  29.635  37.351  1.00  0.00    -0.200 F 
ATOM     75  F   UNL A   1      41.992  27.110  37.011  1.00  0.00    -0.200 F 
ENDBRANCH  42  65
ENDBRANCH  16  17
ENDBRANCH   9  11
ENDBRANCH   8   9
ENDBRANCH   7   8
ENDBRANCH   6   7
ENDBRANCH   5   6
ENDBRANCH   4   5
ENDBRANCH   3   4
ENDBRANCH   2   3
ENDBRANCH   1   2
BRANCH   1  76
ATOM     76  C   UNL A   1      39.803  21.909  26.692  1.00  0.00     0.188 C 
BRANCH  76  77
ATOM     77  O   UNL A   1      39.234  23.142  27.082  1.00  0.00    -0.376 OA
BRANCH  77  78
ATOM     78  C   UNL A   1      38.257  23.803  26.290  1.00  0.00     0.202 C 
BRANCH  78  79
ATOM     79  C   UNL A   1      37.591  23.258  25.012  1.00  0.00     0.261 C 
BRANCH  79  80
ATOM     80  O   UNL A   1      36.221  23.568  24.796  1.00  0.00    -0.460 OA
BRANCH  80  81
ATOM     81  C   UNL A   1      35.639  23.149  23.659  1.00  0.00     0.338 C 
ATOM     82  O   UNL A   1      36.118  23.178  22.534  1.00  0.00    -0.246 OA
BRANCH  81  83
ATOM     83  C   UNL A   1      34.385  22.448  24.038  1.00  0.00     0.068 A 
ATOM     84  C   UNL A   1      34.517  21.311  24.858  1.00  0.00     0.016 A 
ATOM     85  C   UNL A   1      33.112  22.907  23.650  1.00  0.00     0.021 A 
ATOM     86  C   UNL A   1      33.391  20.626  25.304  1.00  0.00     0.001 A 
ATOM     87  C   UNL A   1      31.996  22.192  24.112  1.00  0.00     0.010 A 
ATOM     88  C   UNL A   1      32.129  21.059  24.917  1.00  0.00     0.001 A 
BRANCH  85  89
ATOM     89  C   UNL A   1      32.900  24.070  22.693  1.00  0.00     0.300 C 
BRANCH  89  90
ATOM     90  N   UNL A   1      31.981  25.131  23.173  1.00  0.00    -0.329 N 
ATOM     91  C   UNL A   1      30.617  24.583  23.305  1.00  0.00     0.262 C 
ATOM     92  C   UNL A   1      32.442  25.843  24.393  1.00  0.00     0.186 C 
ATOM     93  H   UNL A   1      31.974  25.865  22.464  1.00  0.00     0.348 HD
ATOM     94  C   UNL A   1      29.561  25.573  23.758  1.00  0.00     0.062 C 
ATOM     95  C   UNL A   1      31.375  26.872  24.835  1.00  0.00     0.065 C 
ATOM     96  C   UNL A   1      30.009  26.234  25.046  1.00  0.00     0.012 C 
BRANCH  92  97
ATOM     97  C   UNL A   1      33.788  26.580  24.140  1.00  0.00     0.088 C 
BRANCH  97  98
ATOM     98  C   UNL A   1      33.709  28.110  24.104  1.00  0.00     0.150 C 
BRANCH  98  99
ATOM     99  N   UNL A   1      33.776  28.730  25.414  1.00  0.00    -0.273 N 
ATOM    100  C   UNL A   1      34.498  28.301  26.493  1.00  0.00     0.108 A 
ATOM    101  N   UNL A   1      33.098  29.867  25.653  1.00  0.00    -0.182 NA
ATOM    102  C   UNL A   1      34.239  29.193  27.506  1.00  0.00     0.042 A 
ATOM    103  C   UNL A   1      33.385  30.148  26.926  1.00  0.00     0.135 A 
ENDBRANCH  98  99
ENDBRANCH  97  98
ENDBRANCH  92  97
ENDBRANCH  89  90
ENDBRANCH  85  89
ENDBRANCH  81  83
ENDBRANCH  80  81
ENDBRANCH  79  80
ENDBRANCH  78  79
ENDBRANCH  77  78
ENDBRANCH  76  77
ENDBRANCH   1  76
TORSDOF 25
ENDMDL
MODEL 2
REMARK VINA RESULT:     -10.6      1.575      2.457
REMARK SMILES O=C(OCCOCCOCCOCCOC(=O)c1ccccc1C[N@H+]1CCCC[C@@H]1CCn1cccn1)c1ccc(-c2c3nc(c(-c4c(F)c(F)c(F)c(F)c4F)c4ccc([nH]4)c(-c4c(F)c(F)c(F)c(F)c4F)c4nc(c(-c5c(F)c(F)c(F)c(F)c5F)c5ccc2[nH]5)C=C4)C=C3)cc1
REMARK SMILES IDX 10 1 9 2 8 3 7 4 6 5 5 6 4 7 3 8 2 9 1 10 38 11 39 12 100 13
REMARK SMILES IDX 40 14 99 15 41 16 42 17 43 18 93 19 44 20 98 21 92 22 94 23
REMARK SMILES IDX 45 24 97 25 91 26 90 27 46 29 78 30 58 31 77 32 59 33 62 34
REMARK SMILES IDX 76 35 95 36 60 37 61 38 75 40 96 41 63 42 47 43 48 44 56 45
REMARK SMILES IDX 49 46 50 47 54 48 57 49 51 50 52 51 55 52 53 53 79 54 80 55
REMARK SMILES IDX 88 56 81 57 82 58 86 59 89 60 83 61 84 62 87 63 85 64 64 65
REMARK SMILES IDX 65 66 73 67 66 68 67 69 71 70 74 71 68 72 69 73 72 74 70 75
REMARK SMILES IDX 11 76 12 77 13 78 14 79 15 80 16 81 17 82 18 83 19 84 23 85
REMARK SMILES IDX 20 86 22 87 21 88 24 89 25 90 26 91 30 92 27 94 29 95 28 96
REMARK SMILES IDX 31 97 32 98 33 99 34 100 37 101 35 102 36 103
REMARK H PARENT 94 28 62 39 25 93
REMARK Flexibility Score: inf
ROOT
ATOM      1  C   UNL A   1      41.173  21.670  27.580  1.00  0.00     0.188 C 
ENDROOT
BRANCH   1   2
ATOM      2  O   UNL A   1      41.233  20.267  27.463  1.00  0.00    -0.377 OA
BRANCH   2   3
ATOM      3  C   UNL A   1      42.056  19.801  26.409  1.00  0.00     0.188 C 
BRANCH   3   4
ATOM      4  C   UNL A   1      42.821  18.459  26.513  1.00  0.00     0.188 C 
BRANCH   4   5
ATOM      5  O   UNL A   1      44.105  18.103  26.012  1.00  0.00    -0.376 OA
BRANCH   5   6
ATOM      6  C   UNL A   1      44.858  18.574  24.914  1.00  0.00     0.202 C 
BRANCH   6   7
ATOM      7  C   UNL A   1      46.113  19.425  25.061  1.00  0.00     0.261 C 
BRANCH   7   8
ATOM      8  O   UNL A   1      45.868  20.772  25.423  1.00  0.00    -0.460 OA
BRANCH   8   9
ATOM      9  C   UNL A   1      45.006  21.623  24.836  1.00  0.00     0.338 C 
ATOM     10  O   UNL A   1      44.826  21.511  23.624  1.00  0.00    -0.246 OA
BRANCH   9  11
ATOM     11  C   UNL A   1      44.286  22.728  25.538  1.00  0.00     0.060 A 
ATOM     12  C   UNL A   1      43.298  23.567  25.016  1.00  0.00     0.016 A 
ATOM     13  C   UNL A   1      44.713  22.939  26.865  1.00  0.00     0.016 A 
ATOM     14  C   UNL A   1      42.951  24.723  25.682  1.00  0.00     0.010 A 
ATOM     15  C   UNL A   1      44.348  24.075  27.553  1.00  0.00     0.010 A 
ATOM     16  C   UNL A   1      43.562  25.006  26.899  1.00  0.00    -0.014 A 
BRANCH  16  17
ATOM     17  C   UNL A   1      43.325  26.310  27.468  1.00  0.00     0.031 A 
ATOM     18  C   UNL A   1      44.335  27.312  27.069  1.00  0.00     0.074 A 
ATOM     19  C   UNL A   1      42.281  26.525  28.288  1.00  0.00     0.049 A 
ATOM     20  N   UNL A   1      45.251  27.832  27.817  1.00  0.00    -0.248 NA
ATOM     21  C   UNL A   1      44.469  27.631  25.640  1.00  0.00     0.031 C 
ATOM     22  C   UNL A   1      41.145  25.643  28.567  1.00  0.00     0.029 A 
ATOM     23  N   UNL A   1      41.982  27.638  29.010  1.00  0.00    -0.354 N 
ATOM     24  C   UNL A   1      45.949  28.710  26.997  1.00  0.00     0.074 A 
ATOM     25  C   UNL A   1      45.552  28.411  25.646  1.00  0.00     0.031 C 
ATOM     26  C   UNL A   1      40.175  26.345  29.198  1.00  0.00     0.029 A 
ATOM     27  C   UNL A   1      40.680  27.672  29.495  1.00  0.00     0.049 A 
ATOM     28  H   UNL A   1      42.633  28.359  29.173  1.00  0.00     0.167 HD
ATOM     29  C   UNL A   1      46.582  29.786  27.534  1.00  0.00     0.037 A 
ATOM     30  C   UNL A   1      40.066  28.761  30.025  1.00  0.00     0.037 A 
ATOM     31  C   UNL A   1      46.807  29.602  28.945  1.00  0.00     0.049 A 
ATOM     32  C   UNL A   1      41.138  29.699  30.458  1.00  0.00     0.074 A 
ATOM     33  C   UNL A   1      47.525  28.696  29.702  1.00  0.00     0.029 A 
ATOM     34  N   UNL A   1      45.924  30.200  29.811  1.00  0.00    -0.354 N 
ATOM     35  N   UNL A   1      41.946  29.452  31.453  1.00  0.00    -0.248 NA
ATOM     36  C   UNL A   1      41.628  30.657  29.476  1.00  0.00     0.031 C 
ATOM     37  C   UNL A   1      46.725  28.461  30.858  1.00  0.00     0.029 A 
ATOM     38  C   UNL A   1      45.605  29.290  30.785  1.00  0.00     0.049 A 
ATOM     39  H   UNL A   1      45.581  31.120  29.745  1.00  0.00     0.167 HD
ATOM     40  C   UNL A   1      43.192  29.862  31.001  1.00  0.00     0.074 A 
ATOM     41  C   UNL A   1      42.923  30.656  29.804  1.00  0.00     0.031 C 
ATOM     42  C   UNL A   1      44.332  29.269  31.464  1.00  0.00     0.037 A 
BRANCH  29  43
ATOM     43  C   UNL A   1      46.598  31.152  26.891  1.00  0.00     0.064 A 
ATOM     44  C   UNL A   1      47.810  31.870  26.853  1.00  0.00     0.173 A 
ATOM     45  C   UNL A   1      45.436  31.905  26.614  1.00  0.00     0.173 A 
ATOM     46  F   UNL A   1      48.975  31.259  27.118  1.00  0.00    -0.203 F 
ATOM     47  C   UNL A   1      47.842  33.251  26.649  1.00  0.00     0.198 A 
ATOM     48  C   UNL A   1      45.477  33.273  26.359  1.00  0.00     0.198 A 
ATOM     49  F   UNL A   1      44.207  31.385  26.696  1.00  0.00    -0.203 F 
ATOM     50  F   UNL A   1      49.001  33.913  26.760  1.00  0.00    -0.200 F 
ATOM     51  C   UNL A   1      46.674  33.953  26.411  1.00  0.00     0.200 A 
ATOM     52  F   UNL A   1      44.331  33.937  26.152  1.00  0.00    -0.200 F 
ATOM     53  F   UNL A   1      46.693  35.285  26.282  1.00  0.00    -0.200 F 
ENDBRANCH  29  43
BRANCH  30  54
ATOM     54  C   UNL A   1      38.660  29.197  29.841  1.00  0.00     0.064 A 
ATOM     55  C   UNL A   1      37.831  29.452  30.947  1.00  0.00     0.173 A 
ATOM     56  C   UNL A   1      38.190  29.653  28.594  1.00  0.00     0.173 A 
ATOM     57  F   UNL A   1      38.223  29.094  32.179  1.00  0.00    -0.203 F 
ATOM     58  C   UNL A   1      36.622  30.145  30.817  1.00  0.00     0.198 A 
ATOM     59  C   UNL A   1      36.982  30.339  28.463  1.00  0.00     0.198 A 
ATOM     60  F   UNL A   1      38.939  29.530  27.489  1.00  0.00    -0.203 F 
ATOM     61  F   UNL A   1      35.892  30.426  31.905  1.00  0.00    -0.200 F 
ATOM     62  C   UNL A   1      36.205  30.599  29.577  1.00  0.00     0.200 A 
ATOM     63  F   UNL A   1      36.610  30.807  27.264  1.00  0.00    -0.200 F 
ATOM     64  F   UNL A   1      35.081  31.319  29.460  1.00  0.00    -0.200 F 
ENDBRANCH  30  54
BRANCH  42  65
ATOM     65  C   UNL A   1      44.215  28.362  32.656  1.00  0.00     0.064 A 
ATOM     66  C   UNL A   1      44.154  28.809  33.988  1.00  0.00     0.173 A 
ATOM     67  C   UNL A   1      44.015  26.996  32.424  1.00  0.00     0.173 A 
ATOM     68  F   UNL A   1      44.234  30.113  34.284  1.00  0.00    -0.203 F 
ATOM     69  C   UNL A   1      43.946  27.915  35.039  1.00  0.00     0.198 A 
ATOM     70  C   UNL A   1      43.769  26.112  33.470  1.00  0.00     0.198 A 
ATOM     71  F   UNL A   1      44.005  26.523  31.167  1.00  0.00    -0.203 F 
ATOM     72  F   UNL A   1      43.901  28.360  36.304  1.00  0.00    -0.200 F 
ATOM     73  C   UNL A   1      43.747  26.569  34.778  1.00  0.00     0.200 A 
ATOM     74  F   UNL A   1      43.523  24.822  33.206  1.00  0.00    -0.200 F 
ATOM     75  F   UNL A   1      43.503  25.716  35.783  1.00  0.00    -0.200 F 
ENDBRANCH  42  65
ENDBRANCH  16  17
ENDBRANCH   9  11
ENDBRANCH   8   9
ENDBRANCH   7   8
ENDBRANCH   6   7
ENDBRANCH   5   6
ENDBRANCH   4   5
ENDBRANCH   3   4
ENDBRANCH   2   3
ENDBRANCH   1   2
BRANCH   1  76
ATOM     76  C   UNL A   1      40.173  22.285  26.579  1.00  0.00     0.188 C 
BRANCH  76  77
ATOM     77  O   UNL A   1      39.228  23.187  27.117  1.00  0.00    -0.376 OA
BRANCH  77  78
ATOM     78  C   UNL A   1      38.301  23.884  26.297  1.00  0.00     0.202 C 
BRANCH  78  79
ATOM     79  C   UNL A   1      37.646  23.360  25.004  1.00  0.00     0.261 C 
BRANCH  79  80
ATOM     80  O   UNL A   1      36.232  23.459  24.893  1.00  0.00    -0.460 OA
BRANCH  80  81
ATOM     81  C   UNL A   1      35.651  23.074  23.743  1.00  0.00     0.338 C 
ATOM     82  O   UNL A   1      36.115  23.173  22.616  1.00  0.00    -0.246 OA
BRANCH  81  83
ATOM     83  C   UNL A   1      34.427  22.312  24.101  1.00  0.00     0.068 A 
ATOM     84  C   UNL A   1      34.614  21.091  24.774  1.00  0.00     0.016 A 
ATOM     85  C   UNL A   1      33.130  22.792  23.834  1.00  0.00     0.021 A 
ATOM     86  C   UNL A   1      33.520  20.340  25.194  1.00  0.00     0.001 A 
ATOM     87  C   UNL A   1      32.048  22.010  24.267  1.00  0.00     0.010 A 
ATOM     88  C   UNL A   1      32.236  20.794  24.925  1.00  0.00     0.001 A 
BRANCH  85  89
ATOM     89  C   UNL A   1      32.855  24.055  23.033  1.00  0.00     0.300 C 
BRANCH  89  90
ATOM     90  N   UNL A   1      31.962  25.044  23.685  1.00  0.00    -0.329 N 
ATOM     91  C   UNL A   1      30.554  24.700  23.405  1.00  0.00     0.262 C 
ATOM     92  C   UNL A   1      32.232  25.261  25.131  1.00  0.00     0.186 C 
ATOM     93  H   UNL A   1      32.168  25.953  23.271  1.00  0.00     0.348 HD
ATOM     94  C   UNL A   1      29.526  25.651  23.988  1.00  0.00     0.062 C 
ATOM     95  C   UNL A   1      31.199  26.254  25.714  1.00  0.00     0.065 C 
ATOM     96  C   UNL A   1      29.764  25.801  25.476  1.00  0.00     0.012 C 
BRANCH  92  97
ATOM     97  C   UNL A   1      33.664  25.822  25.358  1.00  0.00     0.088 C 
BRANCH  97  98
ATOM     98  C   UNL A   1      33.960  27.170  24.693  1.00  0.00     0.150 C 
BRANCH  98  99
ATOM     99  N   UNL A   1      33.623  28.316  25.517  1.00  0.00    -0.273 N 
ATOM    100  C   UNL A   1      33.952  28.512  26.830  1.00  0.00     0.108 A 
ATOM    101  N   UNL A   1      32.935  29.343  24.987  1.00  0.00    -0.182 NA
ATOM    102  C   UNL A   1      33.408  29.724  27.184  1.00  0.00     0.042 A 
ATOM    103  C   UNL A   1      32.808  30.199  26.004  1.00  0.00     0.135 A 
ENDBRANCH  98  99
ENDBRANCH  97  98
ENDBRANCH  92  97
ENDBRANCH  89  90
ENDBRANCH  85  89
ENDBRANCH  81  83
ENDBRANCH  80  81
ENDBRANCH  79  80
ENDBRANCH  78  79
ENDBRANCH  77  78
ENDBRANCH  76  77
ENDBRANCH   1  76
TORSDOF 25
ENDMDL
MODEL 3
REMARK VINA RESULT:     -10.2      1.706      2.536
REMARK SMILES O=C(OCCOCCOCCOCCOC(=O)c1ccccc1C[N@H+]1CCCC[C@@H]1CCn1cccn1)c1ccc(-c2c3nc(c(-c4c(F)c(F)c(F)c(F)c4F)c4ccc([nH]4)c(-c4c(F)c(F)c(F)c(F)c4F)c4nc(c(-c5c(F)c(F)c(F)c(F)c5F)c5ccc2[nH]5)C=C4)C=C3)cc1
REMARK SMILES IDX 10 1 9 2 8 3 7 4 6 5 5 6 4 7 3 8 2 9 1 10 38 11 39 12 100 13
REMARK SMILES IDX 40 14 99 15 41 16 42 17 43 18 93 19 44 20 98 21 92 22 94 23
REMARK SMILES IDX 45 24 97 25 91 26 90 27 46 29 78 30 58 31 77 32 59 33 62 34
REMARK SMILES IDX 76 35 95 36 60 37 61 38 75 40 96 41 63 42 47 43 48 44 56 45
REMARK SMILES IDX 49 46 50 47 54 48 57 49 51 50 52 51 55 52 53 53 79 54 80 55
REMARK SMILES IDX 88 56 81 57 82 58 86 59 89 60 83 61 84 62 87 63 85 64 64 65
REMARK SMILES IDX 65 66 73 67 66 68 67 69 71 70 74 71 68 72 69 73 72 74 70 75
REMARK SMILES IDX 11 76 12 77 13 78 14 79 15 80 16 81 17 82 18 83 19 84 23 85
REMARK SMILES IDX 20 86 22 87 21 88 24 89 25 90 26 91 30 92 27 94 29 95 28 96
REMARK SMILES IDX 31 97 32 98 33 99 34 100 37 101 35 102 36 103
REMARK H PARENT 94 28 62 39 25 93
REMARK Flexibility Score: inf
ROOT
ATOM      1  C   UNL A   1      41.213  21.365  27.631  1.00  0.00     0.188 C 
ENDROOT
BRANCH   1   2
ATOM      2  O   UNL A   1      41.406  19.989  27.392  1.00  0.00    -0.377 OA
BRANCH   2   3
ATOM      3  C   UNL A   1      42.080  19.694  26.181  1.00  0.00     0.188 C 
BRANCH   3   4
ATOM      4  C   UNL A   1      42.982  18.444  26.043  1.00  0.00     0.188 C 
BRANCH   4   5
ATOM      5  O   UNL A   1      44.207  18.281  25.335  1.00  0.00    -0.376 OA
BRANCH   5   6
ATOM      6  C   UNL A   1      44.837  19.059  24.339  1.00  0.00     0.202 C 
BRANCH   6   7
ATOM      7  C   UNL A   1      45.948  20.058  24.634  1.00  0.00     0.261 C 
BRANCH   7   8
ATOM      8  O   UNL A   1      45.523  21.222  25.319  1.00  0.00    -0.460 OA
BRANCH   8   9
ATOM      9  C   UNL A   1      44.720  22.193  24.845  1.00  0.00     0.338 C 
ATOM     10  O   UNL A   1      44.571  22.267  23.625  1.00  0.00    -0.246 OA
BRANCH   9  11
ATOM     11  C   UNL A   1      44.033  23.218  25.685  1.00  0.00     0.060 A 
ATOM     12  C   UNL A   1      42.899  23.967  25.355  1.00  0.00     0.016 A 
ATOM     13  C   UNL A   1      44.657  23.456  26.926  1.00  0.00     0.016 A 
ATOM     14  C   UNL A   1      42.568  25.080  26.099  1.00  0.00     0.010 A 
ATOM     15  C   UNL A   1      44.313  24.546  27.694  1.00  0.00     0.010 A 
ATOM     16  C   UNL A   1      43.347  25.407  27.204  1.00  0.00    -0.014 A 
BRANCH  16  17
ATOM     17  C   UNL A   1      43.093  26.678  27.837  1.00  0.00     0.031 A 
ATOM     18  C   UNL A   1      44.139  27.685  27.563  1.00  0.00     0.074 A 
ATOM     19  C   UNL A   1      42.003  26.860  28.604  1.00  0.00     0.049 A 
ATOM     20  N   UNL A   1      45.014  28.142  28.395  1.00  0.00    -0.248 NA
ATOM     21  C   UNL A   1      44.366  28.087  26.167  1.00  0.00     0.031 C 
ATOM     22  C   UNL A   1      40.840  25.983  28.758  1.00  0.00     0.029 A 
ATOM     23  N   UNL A   1      41.676  27.933  29.373  1.00  0.00    -0.354 N 
ATOM     24  C   UNL A   1      45.774  29.056  27.675  1.00  0.00     0.074 A 
ATOM     25  C   UNL A   1      45.457  28.846  26.287  1.00  0.00     0.031 C 
ATOM     26  C   UNL A   1      39.843  26.662  29.371  1.00  0.00     0.029 A 
ATOM     27  C   UNL A   1      40.347  27.960  29.779  1.00  0.00     0.049 A 
ATOM     28  H   UNL A   1      42.325  28.631  29.620  1.00  0.00     0.167 HD
ATOM     29  C   UNL A   1      46.387  30.086  28.315  1.00  0.00     0.037 A 
ATOM     30  C   UNL A   1      39.716  29.025  30.337  1.00  0.00     0.037 A 
ATOM     31  C   UNL A   1      46.522  29.813  29.723  1.00  0.00     0.049 A 
ATOM     32  C   UNL A   1      40.772  29.917  30.892  1.00  0.00     0.074 A 
ATOM     33  C   UNL A   1      47.179  28.850  30.464  1.00  0.00     0.029 A 
ATOM     34  N   UNL A   1      45.595  30.372  30.569  1.00  0.00    -0.354 N 
ATOM     35  N   UNL A   1      41.513  29.596  31.916  1.00  0.00    -0.248 NA
ATOM     36  C   UNL A   1      41.335  30.924  30.002  1.00  0.00     0.031 C 
ATOM     37  C   UNL A   1      46.306  28.559  31.553  1.00  0.00     0.029 A 
ATOM     38  C   UNL A   1      45.204  29.411  31.464  1.00  0.00     0.049 A 
ATOM     39  H   UNL A   1      45.270  31.301  30.539  1.00  0.00     0.167 HD
ATOM     40  C   UNL A   1      42.791  30.010  31.567  1.00  0.00     0.074 A 
ATOM     41  C   UNL A   1      42.607  30.881  30.408  1.00  0.00     0.031 C 
ATOM     42  C   UNL A   1      43.891  29.371  32.061  1.00  0.00     0.037 A 
BRANCH  29  43
ATOM     43  C   UNL A   1      46.462  31.488  27.759  1.00  0.00     0.064 A 
ATOM     44  C   UNL A   1      45.268  32.128  27.369  1.00  0.00     0.173 A 
ATOM     45  C   UNL A   1      47.653  32.088  27.295  1.00  0.00     0.173 A 
ATOM     46  F   UNL A   1      44.076  31.634  27.738  1.00  0.00    -0.203 F 
ATOM     47  C   UNL A   1      45.269  33.225  26.505  1.00  0.00     0.198 A 
ATOM     48  C   UNL A   1      47.651  33.214  26.476  1.00  0.00     0.198 A 
ATOM     49  F   UNL A   1      48.858  31.550  27.509  1.00  0.00    -0.203 F 
ATOM     50  F   UNL A   1      44.108  33.714  26.051  1.00  0.00    -0.200 F 
ATOM     51  C   UNL A   1      46.460  33.761  26.053  1.00  0.00     0.200 A 
ATOM     52  F   UNL A   1      48.817  33.704  26.031  1.00  0.00    -0.200 F 
ATOM     53  F   UNL A   1      46.463  34.769  25.171  1.00  0.00    -0.200 F 
ENDBRANCH  29  43
BRANCH  30  54
ATOM     54  C   UNL A   1      38.330  29.496  30.095  1.00  0.00     0.064 A 
ATOM     55  C   UNL A   1      37.524  29.946  31.155  1.00  0.00     0.173 A 
ATOM     56  C   UNL A   1      37.871  29.790  28.796  1.00  0.00     0.173 A 
ATOM     57  F   UNL A   1      37.910  29.751  32.425  1.00  0.00    -0.203 F 
ATOM     58  C   UNL A   1      36.347  30.669  30.929  1.00  0.00     0.198 A 
ATOM     59  C   UNL A   1      36.695  30.507  28.571  1.00  0.00     0.198 A 
ATOM     60  F   UNL A   1      38.604  29.475  27.719  1.00  0.00    -0.203 F 
ATOM     61  F   UNL A   1      35.640  31.138  31.966  1.00  0.00    -0.200 F 
ATOM     62  C   UNL A   1      35.941  30.959  29.637  1.00  0.00     0.200 A 
ATOM     63  F   UNL A   1      36.334  30.814  27.318  1.00  0.00    -0.200 F 
ATOM     64  F   UNL A   1      34.850  31.708  29.420  1.00  0.00    -0.200 F 
ENDBRANCH  30  54
BRANCH  42  65
ATOM     65  C   UNL A   1      43.689  28.396  33.186  1.00  0.00     0.064 A 
ATOM     66  C   UNL A   1      43.440  28.765  34.520  1.00  0.00     0.173 A 
ATOM     67  C   UNL A   1      43.604  27.035  32.867  1.00  0.00     0.173 A 
ATOM     68  F   UNL A   1      43.402  30.053  34.884  1.00  0.00    -0.203 F 
ATOM     69  C   UNL A   1      43.163  27.805  35.494  1.00  0.00     0.198 A 
ATOM     70  C   UNL A   1      43.290  26.083  33.832  1.00  0.00     0.198 A 
ATOM     71  F   UNL A   1      43.776  26.631  31.598  1.00  0.00    -0.203 F 
ATOM     72  F   UNL A   1      42.938  28.178  36.763  1.00  0.00    -0.200 F 
ATOM     73  C   UNL A   1      43.082  26.466  35.147  1.00  0.00     0.200 A 
ATOM     74  F   UNL A   1      43.160  24.797  33.480  1.00  0.00    -0.200 F 
ATOM     75  F   UNL A   1      42.772  25.547  36.073  1.00  0.00    -0.200 F 
ENDBRANCH  42  65
ENDBRANCH  16  17
ENDBRANCH   9  11
ENDBRANCH   8   9
ENDBRANCH   7   8
ENDBRANCH   6   7
ENDBRANCH   5   6
ENDBRANCH   4   5
ENDBRANCH   3   4
ENDBRANCH   2   3
ENDBRANCH   1   2
BRANCH   1  76
ATOM     76  C   UNL A   1      40.044  21.931  26.797  1.00  0.00     0.188 C 
BRANCH  76  77
ATOM     77  O   UNL A   1      39.524  23.175  27.217  1.00  0.00    -0.376 OA
BRANCH  77  78
ATOM     78  C   UNL A   1      38.818  24.033  26.331  1.00  0.00     0.202 C 
BRANCH  78  79
ATOM     79  C   UNL A   1      37.539  23.686  25.545  1.00  0.00     0.261 C 
BRANCH  79  80
ATOM     80  O   UNL A   1      36.297  24.139  26.071  1.00  0.00    -0.460 OA
BRANCH  80  81
ATOM     81  C   UNL A   1      35.230  24.176  25.254  1.00  0.00     0.338 C 
ATOM     82  O   UNL A   1      35.235  24.374  24.047  1.00  0.00    -0.246 OA
BRANCH  81  83
ATOM     83  C   UNL A   1      34.055  23.725  26.043  1.00  0.00     0.068 A 
ATOM     84  C   UNL A   1      34.276  22.697  26.978  1.00  0.00     0.016 A 
ATOM     85  C   UNL A   1      32.784  24.316  25.915  1.00  0.00     0.021 A 
ATOM     86  C   UNL A   1      33.242  22.251  27.797  1.00  0.00     0.001 A 
ATOM     87  C   UNL A   1      31.760  23.842  26.751  1.00  0.00     0.010 A 
ATOM     88  C   UNL A   1      31.979  22.815  27.671  1.00  0.00     0.001 A 
BRANCH  85  89
ATOM     89  C   UNL A   1      32.452  25.365  24.865  1.00  0.00     0.300 C 
BRANCH  89  90
ATOM     90  N   UNL A   1      32.465  26.770  25.340  1.00  0.00    -0.329 N 
ATOM     91  C   UNL A   1      32.288  26.799  26.805  1.00  0.00     0.262 C 
ATOM     92  C   UNL A   1      33.630  27.568  24.878  1.00  0.00     0.186 C 
ATOM     93  H   UNL A   1      31.672  27.242  24.903  1.00  0.00     0.348 HD
ATOM     94  C   UNL A   1      32.248  28.182  27.426  1.00  0.00     0.062 C 
ATOM     95  C   UNL A   1      33.570  28.987  25.491  1.00  0.00     0.065 C 
ATOM     96  C   UNL A   1      33.482  28.957  27.011  1.00  0.00     0.012 C 
BRANCH  92  97
ATOM     97  C   UNL A   1      33.656  27.682  23.328  1.00  0.00     0.088 C 
BRANCH  97  98
ATOM     98  C   UNL A   1      32.873  28.859  22.738  1.00  0.00     0.150 C 
BRANCH  98  99
ATOM     99  N   UNL A   1      31.433  28.718  22.847  1.00  0.00    -0.273 N 
ATOM    100  C   UNL A   1      30.527  29.706  23.116  1.00  0.00     0.108 A 
ATOM    101  N   UNL A   1      30.859  27.517  22.649  1.00  0.00    -0.182 NA
ATOM    102  C   UNL A   1      29.293  29.100  23.134  1.00  0.00     0.042 A 
ATOM    103  C   UNL A   1      29.557  27.754  22.822  1.00  0.00     0.135 A 
ENDBRANCH  98  99
ENDBRANCH  97  98
ENDBRANCH  92  97
ENDBRANCH  89  90
ENDBRANCH  85  89
ENDBRANCH  81  83
ENDBRANCH  80  81
ENDBRANCH  79  80
ENDBRANCH  78  79
ENDBRANCH  77  78
ENDBRANCH  76  77
ENDBRANCH   1  76
TORSDOF 25
ENDMDL
