MODEL 1
REMARK VINA RESULT:     -10.7      0.000      0.000
REMARK SMILES Cc1ccccc1OC1(C(=O)OCCOCCOCCOCCOC(=O)c2ccc(-c3c4nc(c(-c5c(F)c(F)c(F)c(F)c5F)c5ccc([nH]5)c(-c5c(F)c(F)c(F)c(F)c5F)c5nc(c(-c6c(F)c(F)c(F)c(F)c6F)c6ccc3[nH]6)C=C5)C=C4)cc2)CCN(C(=O)[C@H]2CCCCO2)CC1
REMARK SMILES IDX 18 1 17 2 16 3 15 4 14 5 13 6 12 7 10 8 11 9 9 10 90 11
REMARK SMILES IDX 102 12 91 13 101 14 92 15 93 16 94 17 8 18 7 19 1 20 2 21
REMARK SMILES IDX 3 22 4 23 6 24 5 25 95 26 96 27 100 28 97 29 99 30 98 31
REMARK SMILES IDX 19 32 20 33 21 34 22 35 23 36 24 37 25 38 26 39 27 40 28 41
REMARK SMILES IDX 89 42 29 43 88 44 30 45 31 46 32 47 82 48 33 49 87 50 81 51
REMARK SMILES IDX 83 52 34 53 86 54 80 55 79 56 35 58 67 59 47 60 66 61 48 62
REMARK SMILES IDX 51 63 65 64 84 65 49 66 50 67 64 69 85 70 52 71 36 72 37 73
REMARK SMILES IDX 45 74 38 75 39 76 43 77 46 78 40 79 41 80 44 81 42 82 68 83
REMARK SMILES IDX 69 84 77 85 70 86 71 87 75 88 78 89 72 90 73 91 76 92 74 93
REMARK SMILES IDX 53 94 54 95 62 96 55 97 56 98 60 99 63 100 57 101 58 102
REMARK SMILES IDX 61 103 59 104
REMARK H PARENT 83 57 51 68
REMARK Flexibility Score: inf
ROOT
ATOM      1  O   UNL A   1      35.143  32.907  27.580  1.00  0.00    -0.377 OA
ENDROOT
BRANCH   1   2
ATOM      2  C   UNL A   1      34.259  31.941  28.134  1.00  0.00     0.188 C 
BRANCH   2   3
ATOM      3  C   UNL A   1      34.525  30.535  27.569  1.00  0.00     0.188 C 
BRANCH   3   4
ATOM      4  O   UNL A   1      33.409  29.649  27.508  1.00  0.00    -0.376 OA
BRANCH   4   5
ATOM      5  C   UNL A   1      33.363  28.776  26.379  1.00  0.00     0.202 C 
BRANCH   5   6
ATOM      6  C   UNL A   1      32.100  27.928  26.270  1.00  0.00     0.261 C 
BRANCH   6   7
ATOM      7  O   UNL A   1      32.427  26.559  26.511  1.00  0.00    -0.460 OA
BRANCH   7   8
ATOM      8  C   UNL A   1      31.464  25.626  26.299  1.00  0.00     0.350 C 
ATOM      9  O   UNL A   1      30.294  25.796  26.550  1.00  0.00    -0.247 OA
BRANCH   8  10
ATOM     10  C   UNL A   1      32.110  24.354  25.669  1.00  0.00     0.209 C 
ATOM     11  C   UNL A   1      33.633  24.349  25.873  1.00  0.00     0.082 C 
ATOM     12  C   UNL A   1      31.547  23.145  26.435  1.00  0.00     0.082 C 
ATOM     13  C   UNL A   1      34.359  23.031  26.091  1.00  0.00     0.124 C 
ATOM     14  C   UNL A   1      32.162  21.828  25.958  1.00  0.00     0.124 C 
ATOM     15  N   UNL A   1      33.614  21.831  25.782  1.00  0.00    -0.340 N 
ATOM     16  C   UNL A   1      34.372  20.727  25.362  1.00  0.00     0.251 C 
ATOM     17  O   UNL A   1      35.607  20.759  25.385  1.00  0.00    -0.272 OA
BRANCH  10  18
ATOM     18  O   UNL A   1      31.709  24.153  24.308  1.00  0.00    -0.475 OA
BRANCH  18  19
ATOM     19  C   UNL A   1      32.271  24.831  23.254  1.00  0.00     0.123 A 
ATOM     20  C   UNL A   1      33.320  22.660  22.465  1.00  0.00     0.048 C 
ATOM     21  C   UNL A   1      32.834  24.050  22.235  1.00  0.00    -0.009 A 
ATOM     22  C   UNL A   1      32.928  24.554  20.931  1.00  0.00     0.007 A 
ATOM     23  C   UNL A   1      32.532  25.854  20.650  1.00  0.00     0.001 A 
ATOM     24  C   UNL A   1      31.959  26.166  22.983  1.00  0.00     0.047 A 
ATOM     25  C   UNL A   1      32.102  26.677  21.685  1.00  0.00     0.004 A 
ENDBRANCH  18  19
ENDBRANCH  10  18
BRANCH  16  26
ATOM     26  C   UNL A   1      33.618  19.500  24.800  1.00  0.00     0.207 C 
ATOM     27  C   UNL A   1      34.642  18.505  24.242  1.00  0.00     0.042 C 
ATOM     28  O   UNL A   1      32.860  18.861  25.835  1.00  0.00    -0.368 OA
ATOM     29  C   UNL A   1      33.986  17.223  23.763  1.00  0.00     0.006 C 
ATOM     30  C   UNL A   1      32.152  17.711  25.382  1.00  0.00     0.161 C 
ATOM     31  C   UNL A   1      33.109  16.647  24.862  1.00  0.00     0.029 C 
ENDBRANCH  16  26
ENDBRANCH   8  10
ENDBRANCH   7   8
ENDBRANCH   6   7
ENDBRANCH   5   6
ENDBRANCH   4   5
ENDBRANCH   3   4
ENDBRANCH   2   3
ENDBRANCH   1   2
BRANCH   1  32
ATOM     32  C   UNL A   1      35.498  33.958  28.456  1.00  0.00     0.188 C 
BRANCH  32  33
ATOM     33  C   UNL A   1      35.422  33.617  29.947  1.00  0.00     0.188 C 
BRANCH  33  34
ATOM     34  O   UNL A   1      36.592  33.904  30.701  1.00  0.00    -0.376 OA
BRANCH  34  35
ATOM     35  C   UNL A   1      37.396  32.816  31.158  1.00  0.00     0.202 C 
BRANCH  35  36
ATOM     36  C   UNL A   1      36.887  31.409  30.810  1.00  0.00     0.261 C 
BRANCH  36  37
ATOM     37  O   UNL A   1      37.979  30.472  30.870  1.00  0.00    -0.460 OA
BRANCH  37  38
ATOM     38  C   UNL A   1      37.737  29.338  31.584  1.00  0.00     0.338 C 
ATOM     39  O   UNL A   1      36.856  29.208  32.418  1.00  0.00    -0.246 OA
BRANCH  38  40
ATOM     40  C   UNL A   1      38.892  28.396  31.443  1.00  0.00     0.060 A 
ATOM     41  C   UNL A   1      40.103  28.681  32.100  1.00  0.00     0.016 A 
ATOM     42  C   UNL A   1      38.894  27.523  30.365  1.00  0.00     0.016 A 
ATOM     43  C   UNL A   1      41.326  28.260  31.546  1.00  0.00     0.010 A 
ATOM     44  C   UNL A   1      40.103  27.225  29.762  1.00  0.00     0.010 A 
ATOM     45  C   UNL A   1      41.338  27.620  30.306  1.00  0.00    -0.014 A 
BRANCH  45  46
ATOM     46  C   UNL A   1      42.507  27.488  29.399  1.00  0.00     0.031 A 
ATOM     47  C   UNL A   1      43.089  26.118  29.133  1.00  0.00     0.074 A 
ATOM     48  C   UNL A   1      42.791  28.514  28.552  1.00  0.00     0.049 A 
ATOM     49  N   UNL A   1      44.007  25.846  28.265  1.00  0.00    -0.248 NA
ATOM     50  C   UNL A   1      42.671  24.909  29.850  1.00  0.00     0.031 C 
ATOM     51  C   UNL A   1      43.313  28.392  27.190  1.00  0.00     0.029 A 
ATOM     52  N   UNL A   1      42.603  29.895  28.683  1.00  0.00    -0.354 N 
ATOM     53  C   UNL A   1      44.056  24.473  28.075  1.00  0.00     0.074 A 
ATOM     54  C   UNL A   1      43.269  23.935  29.152  1.00  0.00     0.031 C 
ATOM     55  C   UNL A   1      43.426  29.594  26.614  1.00  0.00     0.029 A 
ATOM     56  C   UNL A   1      43.332  30.557  27.670  1.00  0.00     0.049 A 
ATOM     57  H   UNL A   1      42.053  30.335  29.370  1.00  0.00     0.167 HD
ATOM     58  C   UNL A   1      44.655  23.969  26.950  1.00  0.00     0.037 A 
ATOM     59  C   UNL A   1      44.402  31.363  27.959  1.00  0.00     0.037 A 
ATOM     60  C   UNL A   1      45.369  25.020  26.207  1.00  0.00     0.049 A 
ATOM     61  C   UNL A   1      45.741  30.736  27.568  1.00  0.00     0.074 A 
ATOM     62  C   UNL A   1      45.363  25.467  24.898  1.00  0.00     0.029 A 
ATOM     63  N   UNL A   1      46.176  25.913  26.911  1.00  0.00    -0.354 N 
ATOM     64  N   UNL A   1      45.884  29.446  27.361  1.00  0.00    -0.248 NA
ATOM     65  C   UNL A   1      46.976  31.462  27.275  1.00  0.00     0.031 C 
ATOM     66  C   UNL A   1      46.077  26.701  24.854  1.00  0.00     0.029 A 
ATOM     67  C   UNL A   1      46.587  26.958  26.118  1.00  0.00     0.049 A 
ATOM     68  H   UNL A   1      46.423  25.808  27.859  1.00  0.00     0.167 HD
ATOM     69  C   UNL A   1      47.144  29.169  26.916  1.00  0.00     0.074 A 
ATOM     70  C   UNL A   1      47.795  30.464  26.891  1.00  0.00     0.031 C 
ATOM     71  C   UNL A   1      47.570  27.907  26.613  1.00  0.00     0.037 A 
BRANCH  58  72
ATOM     72  C   UNL A   1      44.482  22.560  26.372  1.00  0.00     0.064 A 
ATOM     73  C   UNL A   1      45.553  21.933  25.686  1.00  0.00     0.173 A 
ATOM     74  C   UNL A   1      43.274  21.828  26.339  1.00  0.00     0.173 A 
ATOM     75  F   UNL A   1      46.773  22.488  25.658  1.00  0.00    -0.203 F 
ATOM     76  C   UNL A   1      45.417  20.717  25.001  1.00  0.00     0.198 A 
ATOM     77  C   UNL A   1      43.156  20.579  25.704  1.00  0.00     0.198 A 
ATOM     78  F   UNL A   1      42.145  22.307  26.869  1.00  0.00    -0.203 F 
ATOM     79  F   UNL A   1      46.455  20.214  24.316  1.00  0.00    -0.200 F 
ATOM     80  C   UNL A   1      44.221  20.033  25.018  1.00  0.00     0.200 A 
ATOM     81  F   UNL A   1      41.988  19.920  25.746  1.00  0.00    -0.200 F 
ATOM     82  F   UNL A   1      44.090  18.864  24.376  1.00  0.00    -0.200 F 
ENDBRANCH  58  72
BRANCH  59  83
ATOM     83  C   UNL A   1      44.022  32.379  28.992  1.00  0.00     0.064 A 
ATOM     84  C   UNL A   1      44.743  32.199  30.199  1.00  0.00     0.173 A 
ATOM     85  C   UNL A   1      43.804  33.701  28.573  1.00  0.00     0.173 A 
ATOM     86  F   UNL A   1      44.923  30.960  30.682  1.00  0.00    -0.203 F 
ATOM     87  C   UNL A   1      45.521  33.233  30.720  1.00  0.00     0.198 A 
ATOM     88  C   UNL A   1      44.550  34.746  29.133  1.00  0.00     0.198 A 
ATOM     89  F   UNL A   1      43.078  33.945  27.473  1.00  0.00    -0.203 F 
ATOM     90  F   UNL A   1      46.439  32.967  31.661  1.00  0.00    -0.200 F 
ATOM     91  C   UNL A   1      45.468  34.490  30.145  1.00  0.00     0.200 A 
ATOM     92  F   UNL A   1      44.508  35.967  28.583  1.00  0.00    -0.200 F 
ATOM     93  F   UNL A   1      46.365  35.425  30.493  1.00  0.00    -0.200 F 
ENDBRANCH  59  83
BRANCH  71  94
ATOM     94  C   UNL A   1      49.002  27.429  26.748  1.00  0.00     0.064 A 
ATOM     95  C   UNL A   1      49.791  27.073  25.643  1.00  0.00     0.173 A 
ATOM     96  C   UNL A   1      49.701  27.545  27.978  1.00  0.00     0.173 A 
ATOM     97  F   UNL A   1      49.293  27.061  24.399  1.00  0.00    -0.203 F 
ATOM     98  C   UNL A   1      51.150  26.783  25.767  1.00  0.00     0.198 A 
ATOM     99  C   UNL A   1      51.072  27.321  28.084  1.00  0.00     0.198 A 
ATOM    100  F   UNL A   1      49.091  27.926  29.110  1.00  0.00    -0.203 F 
ATOM    101  F   UNL A   1      51.844  26.407  24.684  1.00  0.00    -0.200 F 
ATOM    102  C   UNL A   1      51.793  26.919  26.982  1.00  0.00     0.200 A 
ATOM    103  F   UNL A   1      51.692  27.527  29.254  1.00  0.00    -0.200 F 
ATOM    104  F   UNL A   1      53.108  26.688  27.083  1.00  0.00    -0.200 F 
ENDBRANCH  71  94
ENDBRANCH  45  46
ENDBRANCH  38  40
ENDBRANCH  37  38
ENDBRANCH  36  37
ENDBRANCH  35  36
ENDBRANCH  34  35
ENDBRANCH  33  34
ENDBRANCH  32  33
ENDBRANCH   1  32
TORSDOF 23
ENDMDL
MODEL 2
REMARK VINA RESULT:     -10.7      4.550     10.330
REMARK SMILES Cc1ccccc1OC1(C(=O)OCCOCCOCCOCCOC(=O)c2ccc(-c3c4nc(c(-c5c(F)c(F)c(F)c(F)c5F)c5ccc([nH]5)c(-c5c(F)c(F)c(F)c(F)c5F)c5nc(c(-c6c(F)c(F)c(F)c(F)c6F)c6ccc3[nH]6)C=C5)C=C4)cc2)CCN(C(=O)[C@H]2CCCCO2)CC1
REMARK SMILES IDX 18 1 17 2 16 3 15 4 14 5 13 6 12 7 10 8 11 9 9 10 90 11
REMARK SMILES IDX 102 12 91 13 101 14 92 15 93 16 94 17 8 18 7 19 1 20 2 21
REMARK SMILES IDX 3 22 4 23 6 24 5 25 95 26 96 27 100 28 97 29 99 30 98 31
REMARK SMILES IDX 19 32 20 33 21 34 22 35 23 36 24 37 25 38 26 39 27 40 28 41
REMARK SMILES IDX 89 42 29 43 88 44 30 45 31 46 32 47 82 48 33 49 87 50 81 51
REMARK SMILES IDX 83 52 34 53 86 54 80 55 79 56 35 58 67 59 47 60 66 61 48 62
REMARK SMILES IDX 51 63 65 64 84 65 49 66 50 67 64 69 85 70 52 71 36 72 37 73
REMARK SMILES IDX 45 74 38 75 39 76 43 77 46 78 40 79 41 80 44 81 42 82 68 83
REMARK SMILES IDX 69 84 77 85 70 86 71 87 75 88 78 89 72 90 73 91 76 92 74 93
REMARK SMILES IDX 53 94 54 95 62 96 55 97 56 98 60 99 63 100 57 101 58 102
REMARK SMILES IDX 61 103 59 104
REMARK H PARENT 83 57 51 68
REMARK Flexibility Score: inf
ROOT
ATOM      1  O   UNL A   1      40.432  21.221  26.986  1.00  0.00    -0.377 OA
ENDROOT
BRANCH   1   2
ATOM      2  C   UNL A   1      39.457  21.824  26.146  1.00  0.00     0.188 C 
BRANCH   2   3
ATOM      3  C   UNL A   1      39.153  23.270  26.572  1.00  0.00     0.188 C 
BRANCH   3   4
ATOM      4  O   UNL A   1      37.983  23.867  26.016  1.00  0.00    -0.376 OA
BRANCH   4   5
ATOM      5  C   UNL A   1      36.895  22.981  25.749  1.00  0.00     0.202 C 
BRANCH   5   6
ATOM      6  C   UNL A   1      36.286  23.108  24.356  1.00  0.00     0.261 C 
BRANCH   6   7
ATOM      7  O   UNL A   1      35.177  24.007  24.405  1.00  0.00    -0.460 OA
BRANCH   7   8
ATOM      8  C   UNL A   1      34.445  24.179  23.275  1.00  0.00     0.350 C 
ATOM      9  O   UNL A   1      34.655  23.590  22.240  1.00  0.00    -0.247 OA
BRANCH   8  10
ATOM     10  C   UNL A   1      33.309  25.211  23.550  1.00  0.00     0.209 C 
ATOM     11  C   UNL A   1      33.466  25.849  24.939  1.00  0.00     0.082 C 
ATOM     12  C   UNL A   1      33.470  26.336  22.513  1.00  0.00     0.082 C 
ATOM     13  C   UNL A   1      33.068  27.302  25.149  1.00  0.00     0.124 C 
ATOM     14  C   UNL A   1      32.452  27.457  22.722  1.00  0.00     0.124 C 
ATOM     15  N   UNL A   1      32.273  27.905  24.103  1.00  0.00    -0.340 N 
ATOM     16  C   UNL A   1      31.397  28.925  24.507  1.00  0.00     0.251 C 
ATOM     17  O   UNL A   1      31.414  29.353  25.666  1.00  0.00    -0.272 OA
BRANCH  10  18
ATOM     18  O   UNL A   1      32.005  24.667  23.309  1.00  0.00    -0.475 OA
BRANCH  18  19
ATOM     19  C   UNL A   1      31.209  24.159  24.306  1.00  0.00     0.123 A 
ATOM     20  C   UNL A   1      32.129  21.847  23.811  1.00  0.00     0.048 C 
ATOM     21  C   UNL A   1      31.469  22.840  24.706  1.00  0.00    -0.009 A 
ATOM     22  C   UNL A   1      31.138  22.418  25.999  1.00  0.00     0.007 A 
ATOM     23  C   UNL A   1      30.485  23.275  26.874  1.00  0.00     0.001 A 
ATOM     24  C   UNL A   1      30.473  24.986  25.158  1.00  0.00     0.047 A 
ATOM     25  C   UNL A   1      30.103  24.539  26.434  1.00  0.00     0.004 A 
ENDBRANCH  18  19
ENDBRANCH  10  18
BRANCH  16  26
ATOM     26  C   UNL A   1      30.363  29.443  23.481  1.00  0.00     0.207 C 
ATOM     27  C   UNL A   1      29.247  28.402  23.339  1.00  0.00     0.042 C 
ATOM     28  O   UNL A   1      29.795  30.681  23.925  1.00  0.00    -0.368 OA
ATOM     29  C   UNL A   1      28.135  28.883  22.424  1.00  0.00     0.006 C 
ATOM     30  C   UNL A   1      28.821  31.204  23.028  1.00  0.00     0.161 C 
ATOM     31  C   UNL A   1      27.645  30.249  22.876  1.00  0.00     0.029 C 
ENDBRANCH  16  26
ENDBRANCH   8  10
ENDBRANCH   7   8
ENDBRANCH   6   7
ENDBRANCH   5   6
ENDBRANCH   4   5
ENDBRANCH   3   4
ENDBRANCH   2   3
ENDBRANCH   1   2
BRANCH   1  32
ATOM     32  C   UNL A   1      41.336  20.358  26.325  1.00  0.00     0.188 C 
BRANCH  32  33
ATOM     33  C   UNL A   1      42.792  20.830  26.306  1.00  0.00     0.188 C 
BRANCH  33  34
ATOM     34  O   UNL A   1      43.202  21.500  25.122  1.00  0.00    -0.376 OA
BRANCH  34  35
ATOM     35  C   UNL A   1      42.981  22.907  25.020  1.00  0.00     0.202 C 
BRANCH  35  36
ATOM     36  C   UNL A   1      44.238  23.787  24.979  1.00  0.00     0.261 C 
BRANCH  36  37
ATOM     37  O   UNL A   1      43.960  25.057  25.599  1.00  0.00    -0.460 OA
BRANCH  37  38
ATOM     38  C   UNL A   1      45.020  25.655  26.207  1.00  0.00     0.338 C 
ATOM     39  O   UNL A   1      46.120  25.815  25.704  1.00  0.00    -0.246 OA
BRANCH  38  40
ATOM     40  C   UNL A   1      44.753  25.788  27.674  1.00  0.00     0.060 A 
ATOM     41  C   UNL A   1      43.635  25.145  28.236  1.00  0.00     0.016 A 
ATOM     42  C   UNL A   1      45.334  26.853  28.349  1.00  0.00     0.016 A 
ATOM     43  C   UNL A   1      42.985  25.701  29.354  1.00  0.00     0.010 A 
ATOM     44  C   UNL A   1      44.616  27.459  29.364  1.00  0.00     0.010 A 
ATOM     45  C   UNL A   1      43.410  26.930  29.858  1.00  0.00    -0.014 A 
BRANCH  45  46
ATOM     46  C   UNL A   1      42.620  27.844  30.723  1.00  0.00     0.031 A 
ATOM     47  C   UNL A   1      41.647  28.810  30.089  1.00  0.00     0.074 A 
ATOM     48  C   UNL A   1      42.507  27.549  32.047  1.00  0.00     0.049 A 
ATOM     49  N   UNL A   1      40.803  29.556  30.724  1.00  0.00    -0.248 NA
ATOM     50  C   UNL A   1      41.546  29.023  28.641  1.00  0.00     0.031 C 
ATOM     51  C   UNL A   1      41.329  27.774  32.885  1.00  0.00     0.029 A 
ATOM     52  N   UNL A   1      43.387  26.907  32.926  1.00  0.00    -0.354 N 
ATOM     53  C   UNL A   1      39.875  30.056  29.824  1.00  0.00     0.074 A 
ATOM     54  C   UNL A   1      40.439  29.768  28.533  1.00  0.00     0.031 C 
ATOM     55  C   UNL A   1      41.533  27.319  34.126  1.00  0.00     0.029 A 
ATOM     56  C   UNL A   1      42.944  27.112  34.252  1.00  0.00     0.049 A 
ATOM     57  H   UNL A   1      44.187  26.396  32.664  1.00  0.00     0.167 HD
ATOM     58  C   UNL A   1      38.680  30.541  30.287  1.00  0.00     0.037 A 
ATOM     59  C   UNL A   1      43.668  27.853  35.149  1.00  0.00     0.037 A 
ATOM     60  C   UNL A   1      38.679  30.649  31.755  1.00  0.00     0.049 A 
ATOM     61  C   UNL A   1      43.031  29.210  35.449  1.00  0.00     0.074 A 
ATOM     62  C   UNL A   1      37.849  30.201  32.767  1.00  0.00     0.029 A 
ATOM     63  N   UNL A   1      39.786  31.209  32.390  1.00  0.00    -0.354 N 
ATOM     64  N   UNL A   1      42.138  29.762  34.659  1.00  0.00    -0.248 NA
ATOM     65  C   UNL A   1      43.235  30.006  36.659  1.00  0.00     0.031 C 
ATOM     66  C   UNL A   1      38.527  30.393  34.006  1.00  0.00     0.029 A 
ATOM     67  C   UNL A   1      39.731  31.034  33.753  1.00  0.00     0.049 A 
ATOM     68  H   UNL A   1      40.517  31.674  31.922  1.00  0.00     0.167 HD
ATOM     69  C   UNL A   1      41.652  30.910  35.213  1.00  0.00     0.074 A 
ATOM     70  C   UNL A   1      42.379  31.028  36.461  1.00  0.00     0.031 C 
ATOM     71  C   UNL A   1      40.704  31.689  34.612  1.00  0.00     0.037 A 
BRANCH  58  72
ATOM     72  C   UNL A   1      37.404  30.770  29.469  1.00  0.00     0.064 A 
ATOM     73  C   UNL A   1      36.686  31.987  29.591  1.00  0.00     0.173 A 
ATOM     74  C   UNL A   1      36.764  29.806  28.658  1.00  0.00     0.173 A 
ATOM     75  F   UNL A   1      37.180  33.011  30.299  1.00  0.00    -0.203 F 
ATOM     76  C   UNL A   1      35.434  32.201  28.994  1.00  0.00     0.198 A 
ATOM     77  C   UNL A   1      35.539  30.046  28.010  1.00  0.00     0.198 A 
ATOM     78  F   UNL A   1      37.263  28.577  28.496  1.00  0.00    -0.203 F 
ATOM     79  F   UNL A   1      34.781  33.353  29.206  1.00  0.00    -0.200 F 
ATOM     80  C   UNL A   1      34.865  31.235  28.194  1.00  0.00     0.200 A 
ATOM     81  F   UNL A   1      35.008  29.099  27.221  1.00  0.00    -0.200 F 
ATOM     82  F   UNL A   1      33.675  31.441  27.611  1.00  0.00    -0.200 F 
ENDBRANCH  58  72
BRANCH  59  83
ATOM     83  C   UNL A   1      45.083  27.363  35.206  1.00  0.00     0.064 A 
ATOM     84  C   UNL A   1      45.149  25.955  35.351  1.00  0.00     0.173 A 
ATOM     85  C   UNL A   1      46.024  27.958  34.352  1.00  0.00     0.173 A 
ATOM     86  F   UNL A   1      44.316  25.340  36.206  1.00  0.00    -0.203 F 
ATOM     87  C   UNL A   1      45.830  25.177  34.416  1.00  0.00     0.198 A 
ATOM     88  C   UNL A   1      46.747  27.170  33.447  1.00  0.00     0.198 A 
ATOM     89  F   UNL A   1      46.059  29.291  34.214  1.00  0.00    -0.203 F 
ATOM     90  F   UNL A   1      45.624  23.852  34.372  1.00  0.00    -0.200 F 
ATOM     91  C   UNL A   1      46.579  25.790  33.427  1.00  0.00     0.200 A 
ATOM     92  F   UNL A   1      47.474  27.753  32.484  1.00  0.00    -0.200 F 
ATOM     93  F   UNL A   1      47.055  25.068  32.402  1.00  0.00    -0.200 F 
ENDBRANCH  59  83
BRANCH  71  94
ATOM     94  C   UNL A   1      40.588  33.189  34.787  1.00  0.00     0.064 A 
ATOM     95  C   UNL A   1      39.879  33.778  35.847  1.00  0.00     0.173 A 
ATOM     96  C   UNL A   1      41.389  34.081  34.027  1.00  0.00     0.173 A 
ATOM     97  F   UNL A   1      39.194  33.039  36.729  1.00  0.00    -0.203 F 
ATOM     98  C   UNL A   1      39.908  35.153  36.083  1.00  0.00     0.198 A 
ATOM     99  C   UNL A   1      41.469  35.443  34.309  1.00  0.00     0.198 A 
ATOM    100  F   UNL A   1      42.161  33.657  33.015  1.00  0.00    -0.203 F 
ATOM    101  F   UNL A   1      39.179  35.664  37.084  1.00  0.00    -0.200 F 
ATOM    102  C   UNL A   1      40.711  35.982  35.324  1.00  0.00     0.200 A 
ATOM    103  F   UNL A   1      42.306  36.220  33.609  1.00  0.00    -0.200 F 
ATOM    104  F   UNL A   1      40.773  37.293  35.590  1.00  0.00    -0.200 F 
ENDBRANCH  71  94
ENDBRANCH  45  46
ENDBRANCH  38  40
ENDBRANCH  37  38
ENDBRANCH  36  37
ENDBRANCH  35  36
ENDBRANCH  34  35
ENDBRANCH  33  34
ENDBRANCH  32  33
ENDBRANCH   1  32
TORSDOF 23
ENDMDL
MODEL 3
REMARK VINA RESULT:     -10.6      1.370      2.208
REMARK SMILES Cc1ccccc1OC1(C(=O)OCCOCCOCCOCCOC(=O)c2ccc(-c3c4nc(c(-c5c(F)c(F)c(F)c(F)c5F)c5ccc([nH]5)c(-c5c(F)c(F)c(F)c(F)c5F)c5nc(c(-c6c(F)c(F)c(F)c(F)c6F)c6ccc3[nH]6)C=C5)C=C4)cc2)CCN(C(=O)[C@H]2CCCCO2)CC1
REMARK SMILES IDX 18 1 17 2 16 3 15 4 14 5 13 6 12 7 10 8 11 9 9 10 90 11
REMARK SMILES IDX 102 12 91 13 101 14 92 15 93 16 94 17 8 18 7 19 1 20 2 21
REMARK SMILES IDX 3 22 4 23 6 24 5 25 95 26 96 27 100 28 97 29 99 30 98 31
REMARK SMILES IDX 19 32 20 33 21 34 22 35 23 36 24 37 25 38 26 39 27 40 28 41
REMARK SMILES IDX 89 42 29 43 88 44 30 45 31 46 32 47 82 48 33 49 87 50 81 51
REMARK SMILES IDX 83 52 34 53 86 54 80 55 79 56 35 58 67 59 47 60 66 61 48 62
REMARK SMILES IDX 51 63 65 64 84 65 49 66 50 67 64 69 85 70 52 71 36 72 37 73
REMARK SMILES IDX 45 74 38 75 39 76 43 77 46 78 40 79 41 80 44 81 42 82 68 83
REMARK SMILES IDX 69 84 77 85 70 86 71 87 75 88 78 89 72 90 73 91 76 92 74 93
REMARK SMILES IDX 53 94 54 95 62 96 55 97 56 98 60 99 63 100 57 101 58 102
REMARK SMILES IDX 61 103 59 104
REMARK H PARENT 83 57 51 68
REMARK Flexibility Score: inf
ROOT
ATOM      1  O   UNL A   1      34.268  31.791  28.726  1.00  0.00    -0.377 OA
ENDROOT
BRANCH   1   2
ATOM      2  C   UNL A   1      34.891  31.072  27.670  1.00  0.00     0.188 C 
BRANCH   2   3
ATOM      3  C   UNL A   1      33.880  30.213  26.891  1.00  0.00     0.188 C 
BRANCH   3   4
ATOM      4  O   UNL A   1      34.378  29.012  26.307  1.00  0.00    -0.376 OA
BRANCH   4   5
ATOM      5  C   UNL A   1      33.483  28.322  25.434  1.00  0.00     0.202 C 
BRANCH   5   6
ATOM      6  C   UNL A   1      32.193  27.834  26.087  1.00  0.00     0.261 C 
BRANCH   6   7
ATOM      7  O   UNL A   1      32.401  26.529  26.628  1.00  0.00    -0.460 OA
BRANCH   7   8
ATOM      8  C   UNL A   1      31.440  25.592  26.421  1.00  0.00     0.350 C 
ATOM      9  O   UNL A   1      30.270  25.758  26.678  1.00  0.00    -0.247 OA
BRANCH   8  10
ATOM     10  C   UNL A   1      32.087  24.323  25.788  1.00  0.00     0.209 C 
ATOM     11  C   UNL A   1      33.612  24.326  25.978  1.00  0.00     0.082 C 
ATOM     12  C   UNL A   1      31.538  23.112  26.561  1.00  0.00     0.082 C 
ATOM     13  C   UNL A   1      34.348  23.013  26.192  1.00  0.00     0.124 C 
ATOM     14  C   UNL A   1      32.156  21.798  26.082  1.00  0.00     0.124 C 
ATOM     15  N   UNL A   1      33.606  21.808  25.892  1.00  0.00    -0.340 N 
ATOM     16  C   UNL A   1      34.366  20.707  25.468  1.00  0.00     0.251 C 
ATOM     17  O   UNL A   1      35.601  20.747  25.480  1.00  0.00    -0.272 OA
BRANCH  10  18
ATOM     18  O   UNL A   1      31.675  24.116  24.431  1.00  0.00    -0.475 OA
BRANCH  18  19
ATOM     19  C   UNL A   1      32.046  24.945  23.401  1.00  0.00     0.123 A 
ATOM     20  C   UNL A   1      33.673  23.169  22.607  1.00  0.00     0.048 C 
ATOM     21  C   UNL A   1      32.824  24.373  22.385  1.00  0.00    -0.009 A 
ATOM     22  C   UNL A   1      32.799  24.911  21.091  1.00  0.00     0.007 A 
ATOM     23  C   UNL A   1      32.063  26.055  20.819  1.00  0.00     0.001 A 
ATOM     24  C   UNL A   1      31.380  26.146  23.142  1.00  0.00     0.047 A 
ATOM     25  C   UNL A   1      31.400  26.703  21.856  1.00  0.00     0.004 A 
ENDBRANCH  18  19
ENDBRANCH  10  18
BRANCH  16  26
ATOM     26  C   UNL A   1      33.614  19.475  24.916  1.00  0.00     0.207 C 
ATOM     27  C   UNL A   1      32.933  19.862  23.599  1.00  0.00     0.042 C 
ATOM     28  O   UNL A   1      34.528  18.399  24.671  1.00  0.00    -0.368 OA
ATOM     29  C   UNL A   1      32.257  18.675  22.938  1.00  0.00     0.006 C 
ATOM     30  C   UNL A   1      33.897  17.235  24.146  1.00  0.00     0.161 C 
ATOM     31  C   UNL A   1      33.242  17.526  22.803  1.00  0.00     0.029 C 
ENDBRANCH  16  26
ENDBRANCH   8  10
ENDBRANCH   7   8
ENDBRANCH   6   7
ENDBRANCH   5   6
ENDBRANCH   4   5
ENDBRANCH   3   4
ENDBRANCH   2   3
ENDBRANCH   1   2
BRANCH   1  32
ATOM     32  C   UNL A   1      34.699  33.130  28.868  1.00  0.00     0.188 C 
BRANCH  32  33
ATOM     33  C   UNL A   1      34.371  33.779  30.216  1.00  0.00     0.188 C 
BRANCH  33  34
ATOM     34  O   UNL A   1      34.267  32.885  31.316  1.00  0.00    -0.376 OA
BRANCH  34  35
ATOM     35  C   UNL A   1      35.428  32.641  32.110  1.00  0.00     0.202 C 
BRANCH  35  36
ATOM     36  C   UNL A   1      36.217  31.367  31.777  1.00  0.00     0.261 C 
BRANCH  36  37
ATOM     37  O   UNL A   1      37.434  31.718  31.091  1.00  0.00    -0.460 OA
BRANCH  37  38
ATOM     38  C   UNL A   1      38.538  31.827  31.879  1.00  0.00     0.338 C 
ATOM     39  O   UNL A   1      38.866  32.828  32.496  1.00  0.00    -0.246 OA
BRANCH  38  40
ATOM     40  C   UNL A   1      39.457  30.673  31.624  1.00  0.00     0.060 A 
ATOM     41  C   UNL A   1      40.665  30.577  32.339  1.00  0.00     0.016 A 
ATOM     42  C   UNL A   1      39.320  29.981  30.429  1.00  0.00     0.016 A 
ATOM     43  C   UNL A   1      41.790  29.967  31.753  1.00  0.00     0.010 A 
ATOM     44  C   UNL A   1      40.461  29.499  29.813  1.00  0.00     0.010 A 
ATOM     45  C   UNL A   1      41.723  29.520  30.434  1.00  0.00    -0.014 A 
BRANCH  45  46
ATOM     46  C   UNL A   1      42.878  29.250  29.539  1.00  0.00     0.031 A 
ATOM     47  C   UNL A   1      43.293  27.821  29.274  1.00  0.00     0.074 A 
ATOM     48  C   UNL A   1      43.296  30.237  28.702  1.00  0.00     0.049 A 
ATOM     49  N   UNL A   1      44.182  27.442  28.416  1.00  0.00    -0.248 NA
ATOM     50  C   UNL A   1      42.723  26.668  29.980  1.00  0.00     0.031 C 
ATOM     51  C   UNL A   1      43.816  30.057  27.345  1.00  0.00     0.029 A 
ATOM     52  N   UNL A   1      43.276  31.630  28.837  1.00  0.00    -0.354 N 
ATOM     53  C   UNL A   1      44.066  26.074  28.219  1.00  0.00     0.074 A 
ATOM     54  C   UNL A   1      43.207  25.632  29.284  1.00  0.00     0.031 C 
ATOM     55  C   UNL A   1      44.082  31.238  26.776  1.00  0.00     0.029 A 
ATOM     56  C   UNL A   1      44.092  32.202  27.836  1.00  0.00     0.049 A 
ATOM     57  H   UNL A   1      42.774  32.132  29.520  1.00  0.00     0.167 HD
ATOM     58  C   UNL A   1      44.613  25.504  27.100  1.00  0.00     0.037 A 
ATOM     59  C   UNL A   1      45.249  32.871  28.141  1.00  0.00     0.037 A 
ATOM     60  C   UNL A   1      45.460  26.464  26.370  1.00  0.00     0.049 A 
ATOM     61  C   UNL A   1      46.506  32.087  27.764  1.00  0.00     0.074 A 
ATOM     62  C   UNL A   1      45.524  26.913  25.063  1.00  0.00     0.029 A 
ATOM     63  N   UNL A   1      46.360  27.249  27.088  1.00  0.00    -0.354 N 
ATOM     64  N   UNL A   1      46.494  30.790  27.552  1.00  0.00    -0.248 NA
ATOM     65  C   UNL A   1      47.824  32.659  27.490  1.00  0.00     0.031 C 
ATOM     66  C   UNL A   1      46.383  28.050  25.034  1.00  0.00     0.029 A 
ATOM     67  C   UNL A   1      46.905  28.239  26.305  1.00  0.00     0.049 A 
ATOM     68  H   UNL A   1      46.580  27.112  28.038  1.00  0.00     0.167 HD
ATOM     69  C   UNL A   1      47.716  30.364  27.121  1.00  0.00     0.074 A 
ATOM     70  C   UNL A   1      48.521  31.569  27.110  1.00  0.00     0.031 C 
ATOM     71  C   UNL A   1      47.990  29.060  26.817  1.00  0.00     0.037 A 
BRANCH  58  72
ATOM     72  C   UNL A   1      44.278  24.129  26.512  1.00  0.00     0.064 A 
ATOM     73  C   UNL A   1      42.928  23.768  26.268  1.00  0.00     0.173 A 
ATOM     74  C   UNL A   1      45.200  23.083  26.291  1.00  0.00     0.173 A 
ATOM     75  F   UNL A   1      41.939  24.662  26.400  1.00  0.00    -0.203 F 
ATOM     76  C   UNL A   1      42.539  22.477  25.880  1.00  0.00     0.198 A 
ATOM     77  C   UNL A   1      44.814  21.807  25.843  1.00  0.00     0.198 A 
ATOM     78  F   UNL A   1      46.504  23.226  26.546  1.00  0.00    -0.203 F 
ATOM     79  F   UNL A   1      41.238  22.187  25.730  1.00  0.00    -0.200 F 
ATOM     80  C   UNL A   1      43.483  21.498  25.656  1.00  0.00     0.200 A 
ATOM     81  F   UNL A   1      45.749  20.872  25.613  1.00  0.00    -0.200 F 
ATOM     82  F   UNL A   1      43.116  20.267  25.273  1.00  0.00    -0.200 F 
ENDBRANCH  58  72
BRANCH  59  83
ATOM     83  C   UNL A   1      44.982  33.922  29.176  1.00  0.00     0.064 A 
ATOM     84  C   UNL A   1      44.114  34.931  28.692  1.00  0.00     0.173 A 
ATOM     85  C   UNL A   1      44.800  33.511  30.506  1.00  0.00     0.173 A 
ATOM     86  F   UNL A   1      44.285  35.410  27.449  1.00  0.00    -0.203 F 
ATOM     87  C   UNL A   1      42.916  35.211  29.349  1.00  0.00     0.198 A 
ATOM     88  C   UNL A   1      43.619  33.836  31.184  1.00  0.00     0.198 A 
ATOM     89  F   UNL A   1      45.626  32.604  31.047  1.00  0.00    -0.203 F 
ATOM     90  F   UNL A   1      41.963  35.920  28.727  1.00  0.00    -0.200 F 
ATOM     91  C   UNL A   1      42.645  34.613  30.567  1.00  0.00     0.200 A 
ATOM     92  F   UNL A   1      43.345  33.261  32.363  1.00  0.00    -0.200 F 
ATOM     93  F   UNL A   1      41.417  34.701  31.098  1.00  0.00    -0.200 F 
ENDBRANCH  59  83
BRANCH  71  94
ATOM     94  C   UNL A   1      49.351  28.411  26.966  1.00  0.00     0.064 A 
ATOM     95  C   UNL A   1      50.158  28.078  25.867  1.00  0.00     0.173 A 
ATOM     96  C   UNL A   1      49.987  28.326  28.233  1.00  0.00     0.173 A 
ATOM     97  F   UNL A   1      49.734  28.245  24.608  1.00  0.00    -0.203 F 
ATOM     98  C   UNL A   1      51.469  27.624  26.022  1.00  0.00     0.198 A 
ATOM     99  C   UNL A   1      51.317  27.937  28.377  1.00  0.00     0.198 A 
ATOM    100  F   UNL A   1      49.359  28.660  29.369  1.00  0.00    -0.203 F 
ATOM    101  F   UNL A   1      52.178  27.280  24.939  1.00  0.00    -0.200 F 
ATOM    102  C   UNL A   1      52.052  27.565  27.273  1.00  0.00     0.200 A 
ATOM    103  F   UNL A   1      51.888  27.955  29.590  1.00  0.00    -0.200 F 
ATOM    104  F   UNL A   1      53.326  27.177  27.410  1.00  0.00    -0.200 F 
ENDBRANCH  71  94
ENDBRANCH  45  46
ENDBRANCH  38  40
ENDBRANCH  37  38
ENDBRANCH  36  37
ENDBRANCH  35  36
ENDBRANCH  34  35
ENDBRANCH  33  34
ENDBRANCH  32  33
ENDBRANCH   1  32
TORSDOF 23
ENDMDL
