MODEL 1
REMARK VINA RESULT:      -9.5      0.000      0.000
REMARK SMILES CC(C)Cc1ccc([C@@H](C)C(=O)OCCOCCOCCOCCOC(=O)c2ccc(-c3c4nc(c(-c5c(F)c(F)c(F)c(F)c5F)c5ccc([nH]5)c(-c5c(F)c(F)c(F)c(F)c5F)c5nc(c(-c6c(F)c(F)c(F)c(F)c6F)c6ccc3[nH]6)C=C5)C=C4)cc2)cc1
REMARK SMILES IDX 18 1 17 2 16 3 15 4 14 5 13 6 11 7 12 8 9 9 10 10 8 11 5 12
REMARK SMILES IDX 6 13 92 14 7 15 91 16 4 17 2 18 1 19 3 20 19 21 20 22 21 23
REMARK SMILES IDX 22 24 23 25 24 26 25 27 26 28 27 29 28 30 29 31 90 32 30 33
REMARK SMILES IDX 89 34 31 35 32 36 33 37 83 38 34 39 88 40 82 41 84 42 35 43
REMARK SMILES IDX 87 44 81 45 80 46 36 48 68 49 48 50 67 51 49 52 52 53 66 54
REMARK SMILES IDX 85 55 50 56 51 57 65 59 86 60 53 61 37 62 38 63 46 64 39 65
REMARK SMILES IDX 40 66 44 67 47 68 41 69 42 70 45 71 43 72 69 73 70 74 78 75
REMARK SMILES IDX 71 76 72 77 76 78 79 79 73 80 74 81 77 82 75 83 54 84 55 85
REMARK SMILES IDX 63 86 56 87 57 88 61 89 64 90 58 91 59 92 62 93 60 94
REMARK H PARENT 84 47 52 58
REMARK Flexibility Score: inf
ROOT
ATOM      1  C   UNL A   1      41.081  21.960  27.095  1.00  0.00     0.188 C 
ENDROOT
BRANCH   1   2
ATOM      2  C   UNL A   1      39.575  22.215  26.925  1.00  0.00     0.188 C 
BRANCH   2   3
ATOM      3  O   UNL A   1      38.872  21.721  25.793  1.00  0.00    -0.376 OA
BRANCH   3   4
ATOM      4  C   UNL A   1      37.695  22.370  25.339  1.00  0.00     0.202 C 
BRANCH   4   5
ATOM      5  C   UNL A   1      36.518  21.552  24.772  1.00  0.00     0.261 C 
BRANCH   5   6
ATOM      6  O   UNL A   1      35.328  21.455  25.587  1.00  0.00    -0.463 OA
BRANCH   6   7
ATOM      7  C   UNL A   1      34.559  22.567  25.652  1.00  0.00     0.313 C 
ATOM      8  O   UNL A   1      35.022  23.708  25.653  1.00  0.00    -0.252 OA
BRANCH   7   9
ATOM      9  C   UNL A   1      33.053  22.343  25.764  1.00  0.00     0.126 C 
ATOM     10  C   UNL A   1      32.707  20.997  25.140  1.00  0.00     0.025 C 
BRANCH   9  11
ATOM     11  C   UNL A   1      32.055  23.421  25.342  1.00  0.00    -0.034 A 
ATOM     12  C   UNL A   1      30.212  25.387  24.403  1.00  0.00    -0.048 A 
ATOM     13  C   UNL A   1      30.793  25.486  25.676  1.00  0.00     0.004 A 
ATOM     14  C   UNL A   1      30.527  24.270  23.627  1.00  0.00     0.004 A 
ATOM     15  C   UNL A   1      31.697  24.512  26.144  1.00  0.00     0.005 A 
ATOM     16  C   UNL A   1      31.457  23.324  24.070  1.00  0.00     0.005 A 
BRANCH  12  17
ATOM     17  C   UNL A   1      29.271  26.452  23.876  1.00  0.00     0.038 C 
BRANCH  17  18
ATOM     18  C   UNL A   1      29.968  27.628  23.146  1.00  0.00    -0.013 C 
ATOM     19  C   UNL A   1      29.007  28.759  22.761  1.00  0.00     0.008 C 
ATOM     20  C   UNL A   1      31.079  28.218  24.024  1.00  0.00     0.008 C 
ENDBRANCH  17  18
ENDBRANCH  12  17
ENDBRANCH   9  11
ENDBRANCH   7   9
ENDBRANCH   6   7
ENDBRANCH   5   6
ENDBRANCH   4   5
ENDBRANCH   3   4
ENDBRANCH   2   3
ENDBRANCH   1   2
BRANCH   1  21
ATOM     21  O   UNL A   1      41.793  21.687  25.905  1.00  0.00    -0.377 OA
BRANCH  21  22
ATOM     22  C   UNL A   1      42.786  20.681  25.984  1.00  0.00     0.188 C 
BRANCH  22  23
ATOM     23  C   UNL A   1      44.199  21.072  25.519  1.00  0.00     0.188 C 
BRANCH  23  24
ATOM     24  O   UNL A   1      44.341  21.130  24.103  1.00  0.00    -0.376 OA
BRANCH  24  25
ATOM     25  C   UNL A   1      44.693  22.369  23.503  1.00  0.00     0.202 C 
BRANCH  25  26
ATOM     26  C   UNL A   1      45.873  23.156  24.105  1.00  0.00     0.261 C 
BRANCH  26  27
ATOM     27  O   UNL A   1      45.541  24.266  24.958  1.00  0.00    -0.460 OA
BRANCH  27  28
ATOM     28  C   UNL A   1      45.930  24.211  26.245  1.00  0.00     0.338 C 
ATOM     29  O   UNL A   1      46.979  23.755  26.677  1.00  0.00    -0.246 OA
BRANCH  28  30
ATOM     30  C   UNL A   1      44.972  24.988  27.060  1.00  0.00     0.060 A 
ATOM     31  C   UNL A   1      45.174  26.369  27.179  1.00  0.00     0.016 A 
ATOM     32  C   UNL A   1      43.902  24.375  27.717  1.00  0.00     0.016 A 
ATOM     33  C   UNL A   1      44.340  27.130  27.995  1.00  0.00     0.010 A 
ATOM     34  C   UNL A   1      43.078  25.137  28.555  1.00  0.00     0.010 A 
ATOM     35  C   UNL A   1      43.320  26.511  28.730  1.00  0.00    -0.014 A 
BRANCH  35  36
ATOM     36  C   UNL A   1      42.656  27.286  29.809  1.00  0.00     0.031 A 
ATOM     37  C   UNL A   1      43.292  27.317  31.174  1.00  0.00     0.074 A 
ATOM     38  C   UNL A   1      41.565  28.032  29.558  1.00  0.00     0.049 A 
ATOM     39  N   UNL A   1      42.931  27.972  32.248  1.00  0.00    -0.248 NA
ATOM     40  C   UNL A   1      44.507  26.503  31.349  1.00  0.00     0.031 C 
ATOM     41  C   UNL A   1      40.880  28.116  28.270  1.00  0.00     0.029 A 
ATOM     42  N   UNL A   1      40.849  28.870  30.377  1.00  0.00    -0.354 N 
ATOM     43  C   UNL A   1      43.879  27.664  33.216  1.00  0.00     0.074 A 
ATOM     44  C   UNL A   1      44.803  26.723  32.620  1.00  0.00     0.031 C 
ATOM     45  C   UNL A   1      39.837  28.958  28.387  1.00  0.00     0.029 A 
ATOM     46  C   UNL A   1      39.768  29.452  29.761  1.00  0.00     0.049 A 
ATOM     47  H   UNL A   1      41.089  29.038  31.317  1.00  0.00     0.167 HD
ATOM     48  C   UNL A   1      43.982  28.138  34.480  1.00  0.00     0.037 A 
ATOM     49  C   UNL A   1      38.823  30.274  30.259  1.00  0.00     0.037 A 
ATOM     50  C   UNL A   1      43.057  29.063  35.079  1.00  0.00     0.049 A 
ATOM     51  C   UNL A   1      38.920  30.724  31.696  1.00  0.00     0.074 A 
ATOM     52  C   UNL A   1      43.067  29.591  36.358  1.00  0.00     0.029 A 
ATOM     53  N   UNL A   1      41.949  29.597  34.437  1.00  0.00    -0.354 N 
ATOM     54  N   UNL A   1      39.832  30.444  32.596  1.00  0.00    -0.248 NA
ATOM     55  C   UNL A   1      37.860  31.619  32.182  1.00  0.00     0.031 C 
ATOM     56  C   UNL A   1      41.937  30.402  36.508  1.00  0.00     0.029 A 
ATOM     57  C   UNL A   1      41.258  30.432  35.302  1.00  0.00     0.049 A 
ATOM     58  H   UNL A   1      41.691  29.409  33.506  1.00  0.00     0.167 HD
ATOM     59  C   UNL A   1      39.471  31.146  33.740  1.00  0.00     0.074 A 
ATOM     60  C   UNL A   1      38.275  31.892  33.409  1.00  0.00     0.031 C 
ATOM     61  C   UNL A   1      40.068  31.169  34.958  1.00  0.00     0.037 A 
BRANCH  48  62
ATOM     62  C   UNL A   1      45.136  27.655  35.312  1.00  0.00     0.064 A 
ATOM     63  C   UNL A   1      46.350  28.357  35.361  1.00  0.00     0.173 A 
ATOM     64  C   UNL A   1      45.010  26.508  36.111  1.00  0.00     0.173 A 
ATOM     65  F   UNL A   1      46.530  29.450  34.605  1.00  0.00    -0.203 F 
ATOM     66  C   UNL A   1      47.400  27.919  36.166  1.00  0.00     0.198 A 
ATOM     67  C   UNL A   1      46.049  26.092  36.938  1.00  0.00     0.198 A 
ATOM     68  F   UNL A   1      43.870  25.800  36.103  1.00  0.00    -0.203 F 
ATOM     69  F   UNL A   1      48.563  28.583  36.167  1.00  0.00    -0.200 F 
ATOM     70  C   UNL A   1      47.245  26.794  36.961  1.00  0.00     0.200 A 
ATOM     71  F   UNL A   1      45.893  25.011  37.716  1.00  0.00    -0.200 F 
ATOM     72  F   UNL A   1      48.250  26.383  37.747  1.00  0.00    -0.200 F 
ENDBRANCH  48  62
BRANCH  49  73
ATOM     73  C   UNL A   1      37.682  30.711  29.406  1.00  0.00     0.064 A 
ATOM     74  C   UNL A   1      37.570  32.032  28.952  1.00  0.00     0.173 A 
ATOM     75  C   UNL A   1      36.647  29.822  29.081  1.00  0.00     0.173 A 
ATOM     76  F   UNL A   1      38.519  32.930  29.257  1.00  0.00    -0.203 F 
ATOM     77  C   UNL A   1      36.450  32.457  28.239  1.00  0.00     0.198 A 
ATOM     78  C   UNL A   1      35.545  30.238  28.335  1.00  0.00     0.198 A 
ATOM     79  F   UNL A   1      36.700  28.546  29.491  1.00  0.00    -0.203 F 
ATOM     80  F   UNL A   1      36.334  33.743  27.882  1.00  0.00    -0.200 F 
ATOM     81  C   UNL A   1      35.440  31.559  27.929  1.00  0.00     0.200 A 
ATOM     82  F   UNL A   1      34.580  29.362  28.026  1.00  0.00    -0.200 F 
ATOM     83  F   UNL A   1      34.360  31.969  27.249  1.00  0.00    -0.200 F 
ENDBRANCH  49  73
BRANCH  61  84
ATOM     84  C   UNL A   1      39.454  32.055  36.008  1.00  0.00     0.064 A 
ATOM     85  C   UNL A   1      38.393  31.618  36.815  1.00  0.00     0.173 A 
ATOM     86  C   UNL A   1      39.934  33.358  36.209  1.00  0.00     0.173 A 
ATOM     87  F   UNL A   1      37.888  30.384  36.659  1.00  0.00    -0.203 F 
ATOM     88  C   UNL A   1      37.802  32.469  37.746  1.00  0.00     0.198 A 
ATOM     89  C   UNL A   1      39.368  34.193  37.168  1.00  0.00     0.198 A 
ATOM     90  F   UNL A   1      40.955  33.825  35.475  1.00  0.00    -0.203 F 
ATOM     91  F   UNL A   1      36.741  32.053  38.451  1.00  0.00    -0.200 F 
ATOM     92  C   UNL A   1      38.293  33.753  37.925  1.00  0.00     0.200 A 
ATOM     93  F   UNL A   1      39.855  35.427  37.353  1.00  0.00    -0.200 F 
ATOM     94  F   UNL A   1      37.721  34.572  38.819  1.00  0.00    -0.200 F 
ENDBRANCH  61  84
ENDBRANCH  35  36
ENDBRANCH  28  30
ENDBRANCH  27  28
ENDBRANCH  26  27
ENDBRANCH  25  26
ENDBRANCH  24  25
ENDBRANCH  23  24
ENDBRANCH  22  23
ENDBRANCH  21  22
ENDBRANCH   1  21
TORSDOF 23
ENDMDL
MODEL 2
REMARK VINA RESULT:      -8.7      6.108     12.324
REMARK SMILES CC(C)Cc1ccc([C@@H](C)C(=O)OCCOCCOCCOCCOC(=O)c2ccc(-c3c4nc(c(-c5c(F)c(F)c(F)c(F)c5F)c5ccc([nH]5)c(-c5c(F)c(F)c(F)c(F)c5F)c5nc(c(-c6c(F)c(F)c(F)c(F)c6F)c6ccc3[nH]6)C=C5)C=C4)cc2)cc1
REMARK SMILES IDX 18 1 17 2 16 3 15 4 14 5 13 6 11 7 12 8 9 9 10 10 8 11 5 12
REMARK SMILES IDX 6 13 92 14 7 15 91 16 4 17 2 18 1 19 3 20 19 21 20 22 21 23
REMARK SMILES IDX 22 24 23 25 24 26 25 27 26 28 27 29 28 30 29 31 90 32 30 33
REMARK SMILES IDX 89 34 31 35 32 36 33 37 83 38 34 39 88 40 82 41 84 42 35 43
REMARK SMILES IDX 87 44 81 45 80 46 36 48 68 49 48 50 67 51 49 52 52 53 66 54
REMARK SMILES IDX 85 55 50 56 51 57 65 59 86 60 53 61 37 62 38 63 46 64 39 65
REMARK SMILES IDX 40 66 44 67 47 68 41 69 42 70 45 71 43 72 69 73 70 74 78 75
REMARK SMILES IDX 71 76 72 77 76 78 79 79 73 80 74 81 77 82 75 83 54 84 55 85
REMARK SMILES IDX 63 86 56 87 57 88 61 89 64 90 58 91 59 92 62 93 60 94
REMARK H PARENT 84 47 52 58
REMARK Flexibility Score: inf
ROOT
ATOM      1  C   UNL A   1      33.557  35.544  32.034  1.00  0.00     0.188 C 
ENDROOT
BRANCH   1   2
ATOM      2  C   UNL A   1      33.459  35.653  30.505  1.00  0.00     0.188 C 
BRANCH   2   3
ATOM      3  O   UNL A   1      34.280  34.858  29.661  1.00  0.00    -0.376 OA
BRANCH   3   4
ATOM      4  C   UNL A   1      33.797  34.409  28.404  1.00  0.00     0.202 C 
BRANCH   4   5
ATOM      5  C   UNL A   1      33.749  32.905  28.075  1.00  0.00     0.261 C 
BRANCH   5   6
ATOM      6  O   UNL A   1      34.539  32.021  28.901  1.00  0.00    -0.463 OA
BRANCH   6   7
ATOM      7  C   UNL A   1      35.822  31.831  28.513  1.00  0.00     0.313 C 
ATOM      8  O   UNL A   1      36.727  32.627  28.761  1.00  0.00    -0.252 OA
BRANCH   7   9
ATOM      9  C   UNL A   1      36.103  30.570  27.698  1.00  0.00     0.126 C 
ATOM     10  C   UNL A   1      34.858  29.691  27.705  1.00  0.00     0.025 C 
BRANCH   9  11
ATOM     11  C   UNL A   1      37.365  29.741  27.927  1.00  0.00    -0.034 A 
ATOM     12  C   UNL A   1      39.683  28.179  28.506  1.00  0.00    -0.048 A 
ATOM     13  C   UNL A   1      39.607  28.962  27.344  1.00  0.00     0.004 A 
ATOM     14  C   UNL A   1      38.569  28.149  29.347  1.00  0.00     0.004 A 
ATOM     15  C   UNL A   1      38.460  29.727  27.053  1.00  0.00     0.005 A 
ATOM     16  C   UNL A   1      37.447  28.941  29.083  1.00  0.00     0.005 A 
BRANCH  12  17
ATOM     17  C   UNL A   1      40.929  27.386  28.846  1.00  0.00     0.038 C 
BRANCH  17  18
ATOM     18  C   UNL A   1      40.816  25.862  28.588  1.00  0.00    -0.013 C 
ATOM     19  C   UNL A   1      39.964  25.515  27.361  1.00  0.00     0.008 C 
ATOM     20  C   UNL A   1      42.208  25.248  28.395  1.00  0.00     0.008 C 
ENDBRANCH  17  18
ENDBRANCH  12  17
ENDBRANCH   9  11
ENDBRANCH   7   9
ENDBRANCH   6   7
ENDBRANCH   5   6
ENDBRANCH   4   5
ENDBRANCH   3   4
ENDBRANCH   2   3
ENDBRANCH   1   2
BRANCH   1  21
ATOM     21  O   UNL A   1      33.064  34.344  32.596  1.00  0.00    -0.377 OA
BRANCH  21  22
ATOM     22  C   UNL A   1      34.000  33.550  33.302  1.00  0.00     0.188 C 
BRANCH  22  23
ATOM     23  C   UNL A   1      35.123  32.909  32.470  1.00  0.00     0.188 C 
BRANCH  23  24
ATOM     24  O   UNL A   1      35.919  31.981  33.200  1.00  0.00    -0.376 OA
BRANCH  24  25
ATOM     25  C   UNL A   1      37.001  32.474  33.977  1.00  0.00     0.202 C 
BRANCH  25  26
ATOM     26  C   UNL A   1      38.329  31.692  33.949  1.00  0.00     0.261 C 
BRANCH  26  27
ATOM     27  O   UNL A   1      38.468  30.694  32.921  1.00  0.00    -0.460 OA
BRANCH  27  28
ATOM     28  C   UNL A   1      39.148  31.025  31.809  1.00  0.00     0.338 C 
ATOM     29  O   UNL A   1      38.878  31.922  31.023  1.00  0.00    -0.246 OA
BRANCH  28  30
ATOM     30  C   UNL A   1      40.414  30.262  31.786  1.00  0.00     0.060 A 
ATOM     31  C   UNL A   1      40.383  28.918  32.179  1.00  0.00     0.016 A 
ATOM     32  C   UNL A   1      41.620  30.856  31.403  1.00  0.00     0.016 A 
ATOM     33  C   UNL A   1      41.563  28.181  32.242  1.00  0.00     0.010 A 
ATOM     34  C   UNL A   1      42.809  30.120  31.489  1.00  0.00     0.010 A 
ATOM     35  C   UNL A   1      42.790  28.791  31.950  1.00  0.00    -0.014 A 
BRANCH  35  36
ATOM     36  C   UNL A   1      44.040  28.078  32.317  1.00  0.00     0.031 A 
ATOM     37  C   UNL A   1      44.924  27.554  31.215  1.00  0.00     0.074 A 
ATOM     38  C   UNL A   1      44.437  27.986  33.599  1.00  0.00     0.049 A 
ATOM     39  N   UNL A   1      46.087  26.958  31.290  1.00  0.00    -0.248 NA
ATOM     40  C   UNL A   1      44.431  27.734  29.838  1.00  0.00     0.031 C 
ATOM     41  C   UNL A   1      43.691  28.487  34.750  1.00  0.00     0.029 A 
ATOM     42  N   UNL A   1      45.576  27.446  34.143  1.00  0.00    -0.354 N 
ATOM     43  C   UNL A   1      46.470  26.709  29.978  1.00  0.00     0.074 A 
ATOM     44  C   UNL A   1      45.394  27.171  29.127  1.00  0.00     0.031 C 
ATOM     45  C   UNL A   1      44.390  28.226  35.869  1.00  0.00     0.029 A 
ATOM     46  C   UNL A   1      45.620  27.520  35.514  1.00  0.00     0.049 A 
ATOM     47  H   UNL A   1      46.293  27.044  33.602  1.00  0.00     0.167 HD
ATOM     48  C   UNL A   1      47.623  26.165  29.522  1.00  0.00     0.037 A 
ATOM     49  C   UNL A   1      46.541  27.054  36.380  1.00  0.00     0.037 A 
ATOM     50  C   UNL A   1      48.688  25.693  30.367  1.00  0.00     0.049 A 
ATOM     51  C   UNL A   1      47.781  26.380  35.846  1.00  0.00     0.074 A 
ATOM     52  C   UNL A   1      49.890  25.112  30.001  1.00  0.00     0.029 A 
ATOM     53  N   UNL A   1      48.677  25.746  31.753  1.00  0.00    -0.354 N 
ATOM     54  N   UNL A   1      48.144  26.168  34.603  1.00  0.00    -0.248 NA
ATOM     55  C   UNL A   1      48.748  25.891  36.839  1.00  0.00     0.031 C 
ATOM     56  C   UNL A   1      50.582  24.765  31.165  1.00  0.00     0.029 A 
ATOM     57  C   UNL A   1      49.842  25.189  32.257  1.00  0.00     0.049 A 
ATOM     58  H   UNL A   1      47.949  26.123  32.298  1.00  0.00     0.167 HD
ATOM     59  C   UNL A   1      49.386  25.550  34.665  1.00  0.00     0.074 A 
ATOM     60  C   UNL A   1      49.731  25.451  36.068  1.00  0.00     0.031 C 
ATOM     61  C   UNL A   1      50.173  25.097  33.656  1.00  0.00     0.037 A 
BRANCH  48  62
ATOM     62  C   UNL A   1      47.792  26.038  28.034  1.00  0.00     0.064 A 
ATOM     63  C   UNL A   1      47.248  24.957  27.323  1.00  0.00     0.173 A 
ATOM     64  C   UNL A   1      48.458  27.033  27.304  1.00  0.00     0.173 A 
ATOM     65  F   UNL A   1      46.616  23.968  27.974  1.00  0.00    -0.203 F 
ATOM     66  C   UNL A   1      47.379  24.871  25.939  1.00  0.00     0.198 A 
ATOM     67  C   UNL A   1      48.560  26.960  25.918  1.00  0.00     0.198 A 
ATOM     68  F   UNL A   1      48.995  28.089  27.934  1.00  0.00    -0.203 F 
ATOM     69  F   UNL A   1      46.886  23.810  25.285  1.00  0.00    -0.200 F 
ATOM     70  C   UNL A   1      48.025  25.877  25.237  1.00  0.00     0.200 A 
ATOM     71  F   UNL A   1      49.172  27.940  25.239  1.00  0.00    -0.200 F 
ATOM     72  F   UNL A   1      48.137  25.800  23.903  1.00  0.00    -0.200 F 
ENDBRANCH  48  62
BRANCH  49  73
ATOM     73  C   UNL A   1      46.324  27.180  37.849  1.00  0.00     0.064 A 
ATOM     74  C   UNL A   1      46.836  28.263  38.576  1.00  0.00     0.173 A 
ATOM     75  C   UNL A   1      45.649  26.179  38.564  1.00  0.00     0.173 A 
ATOM     76  F   UNL A   1      47.513  29.234  37.945  1.00  0.00    -0.203 F 
ATOM     77  C   UNL A   1      46.714  28.323  39.964  1.00  0.00     0.198 A 
ATOM     78  C   UNL A   1      45.494  26.258  39.947  1.00  0.00     0.198 A 
ATOM     79  F   UNL A   1      45.140  25.118  37.920  1.00  0.00    -0.203 F 
ATOM     80  F   UNL A   1      47.277  29.332  40.641  1.00  0.00    -0.200 F 
ATOM     81  C   UNL A   1      46.041  27.322  40.647  1.00  0.00     0.200 A 
ATOM     82  F   UNL A   1      44.829  25.295  40.599  1.00  0.00    -0.200 F 
ATOM     83  F   UNL A   1      45.929  27.376  41.982  1.00  0.00    -0.200 F 
ENDBRANCH  49  73
BRANCH  61  84
ATOM     84  C   UNL A   1      51.494  24.486  34.036  1.00  0.00     0.064 A 
ATOM     85  C   UNL A   1      51.631  23.110  34.275  1.00  0.00     0.173 A 
ATOM     86  C   UNL A   1      52.639  25.288  34.161  1.00  0.00     0.173 A 
ATOM     87  F   UNL A   1      50.566  22.298  34.179  1.00  0.00    -0.203 F 
ATOM     88  C   UNL A   1      52.850  22.569  34.675  1.00  0.00     0.198 A 
ATOM     89  C   UNL A   1      53.865  24.738  34.523  1.00  0.00     0.198 A 
ATOM     90  F   UNL A   1      52.570  26.608  33.932  1.00  0.00    -0.203 F 
ATOM     91  F   UNL A   1      52.936  21.265  34.972  1.00  0.00    -0.200 F 
ATOM     92  C   UNL A   1      53.967  23.382  34.795  1.00  0.00     0.200 A 
ATOM     93  F   UNL A   1      54.948  25.521  34.619  1.00  0.00    -0.200 F 
ATOM     94  F   UNL A   1      55.139  22.861  35.184  1.00  0.00    -0.200 F 
ENDBRANCH  61  84
ENDBRANCH  35  36
ENDBRANCH  28  30
ENDBRANCH  27  28
ENDBRANCH  26  27
ENDBRANCH  25  26
ENDBRANCH  24  25
ENDBRANCH  23  24
ENDBRANCH  22  23
ENDBRANCH  21  22
ENDBRANCH   1  21
TORSDOF 23
ENDMDL
MODEL 3
REMARK VINA RESULT:      -8.5      5.602     12.296
REMARK SMILES CC(C)Cc1ccc([C@@H](C)C(=O)OCCOCCOCCOCCOC(=O)c2ccc(-c3c4nc(c(-c5c(F)c(F)c(F)c(F)c5F)c5ccc([nH]5)c(-c5c(F)c(F)c(F)c(F)c5F)c5nc(c(-c6c(F)c(F)c(F)c(F)c6F)c6ccc3[nH]6)C=C5)C=C4)cc2)cc1
REMARK SMILES IDX 18 1 17 2 16 3 15 4 14 5 13 6 11 7 12 8 9 9 10 10 8 11 5 12
REMARK SMILES IDX 6 13 92 14 7 15 91 16 4 17 2 18 1 19 3 20 19 21 20 22 21 23
REMARK SMILES IDX 22 24 23 25 24 26 25 27 26 28 27 29 28 30 29 31 90 32 30 33
REMARK SMILES IDX 89 34 31 35 32 36 33 37 83 38 34 39 88 40 82 41 84 42 35 43
REMARK SMILES IDX 87 44 81 45 80 46 36 48 68 49 48 50 67 51 49 52 52 53 66 54
REMARK SMILES IDX 85 55 50 56 51 57 65 59 86 60 53 61 37 62 38 63 46 64 39 65
REMARK SMILES IDX 40 66 44 67 47 68 41 69 42 70 45 71 43 72 69 73 70 74 78 75
REMARK SMILES IDX 71 76 72 77 76 78 79 79 73 80 74 81 77 82 75 83 54 84 55 85
REMARK SMILES IDX 63 86 56 87 57 88 61 89 64 90 58 91 59 92 62 93 60 94
REMARK H PARENT 84 47 52 58
REMARK Flexibility Score: inf
ROOT
ATOM      1  C   UNL A   1      35.211  32.321  31.701  1.00  0.00     0.188 C 
ENDROOT
BRANCH   1   2
ATOM      2  C   UNL A   1      35.974  31.123  32.284  1.00  0.00     0.188 C 
BRANCH   2   3
ATOM      3  O   UNL A   1      36.230  29.966  31.500  1.00  0.00    -0.376 OA
BRANCH   3   4
ATOM      4  C   UNL A   1      37.401  29.195  31.717  1.00  0.00     0.202 C 
BRANCH   4   5
ATOM      5  C   UNL A   1      38.785  29.870  31.774  1.00  0.00     0.261 C 
BRANCH   5   6
ATOM      6  O   UNL A   1      39.245  30.537  30.577  1.00  0.00    -0.463 OA
BRANCH   6   7
ATOM      7  C   UNL A   1      38.863  31.827  30.430  1.00  0.00     0.313 C 
ATOM      8  O   UNL A   1      39.007  32.677  31.309  1.00  0.00    -0.252 OA
BRANCH   7   9
ATOM      9  C   UNL A   1      38.194  32.189  29.106  1.00  0.00     0.126 C 
ATOM     10  C   UNL A   1      37.728  33.639  29.169  1.00  0.00     0.025 C 
BRANCH   9  11
ATOM     11  C   UNL A   1      37.125  31.292  28.484  1.00  0.00    -0.034 A 
ATOM     12  C   UNL A   1      35.018  29.717  27.377  1.00  0.00    -0.048 A 
ATOM     13  C   UNL A   1      36.301  29.181  27.572  1.00  0.00     0.004 A 
ATOM     14  C   UNL A   1      34.817  31.061  27.696  1.00  0.00     0.004 A 
ATOM     15  C   UNL A   1      37.343  29.960  28.111  1.00  0.00     0.005 A 
ATOM     16  C   UNL A   1      35.838  31.824  28.272  1.00  0.00     0.005 A 
BRANCH  12  17
ATOM     17  C   UNL A   1      33.881  28.874  26.836  1.00  0.00     0.038 C 
BRANCH  17  18
ATOM     18  C   UNL A   1      32.466  29.449  27.101  1.00  0.00    -0.013 C 
ATOM     19  C   UNL A   1      31.819  30.068  25.857  1.00  0.00     0.008 C 
ATOM     20  C   UNL A   1      31.535  28.352  27.633  1.00  0.00     0.008 C 
ENDBRANCH  17  18
ENDBRANCH  12  17
ENDBRANCH   9  11
ENDBRANCH   7   9
ENDBRANCH   6   7
ENDBRANCH   5   6
ENDBRANCH   4   5
ENDBRANCH   3   4
ENDBRANCH   2   3
ENDBRANCH   1   2
BRANCH   1  21
ATOM     21  O   UNL A   1      34.032  32.691  32.388  1.00  0.00    -0.377 OA
BRANCH  21  22
ATOM     22  C   UNL A   1      34.185  33.627  33.439  1.00  0.00     0.188 C 
BRANCH  22  23
ATOM     23  C   UNL A   1      35.291  34.681  33.264  1.00  0.00     0.188 C 
BRANCH  23  24
ATOM     24  O   UNL A   1      36.216  34.727  34.345  1.00  0.00    -0.376 OA
BRANCH  24  25
ATOM     25  C   UNL A   1      37.460  34.053  34.206  1.00  0.00     0.202 C 
BRANCH  25  26
ATOM     26  C   UNL A   1      37.770  32.897  35.175  1.00  0.00     0.261 C 
BRANCH  26  27
ATOM     27  O   UNL A   1      39.153  32.526  35.319  1.00  0.00    -0.460 OA
BRANCH  27  28
ATOM     28  C   UNL A   1      39.435  31.243  35.607  1.00  0.00     0.338 C 
ATOM     29  O   UNL A   1      38.701  30.435  36.157  1.00  0.00    -0.246 OA
BRANCH  28  30
ATOM     30  C   UNL A   1      40.716  30.886  34.962  1.00  0.00     0.060 A 
ATOM     31  C   UNL A   1      41.135  31.643  33.860  1.00  0.00     0.016 A 
ATOM     32  C   UNL A   1      41.490  29.814  35.413  1.00  0.00     0.016 A 
ATOM     33  C   UNL A   1      42.297  31.298  33.176  1.00  0.00     0.010 A 
ATOM     34  C   UNL A   1      42.648  29.454  34.711  1.00  0.00     0.010 A 
ATOM     35  C   UNL A   1      43.033  30.170  33.563  1.00  0.00    -0.014 A 
BRANCH  35  36
ATOM     36  C   UNL A   1      44.079  29.657  32.642  1.00  0.00     0.031 A 
ATOM     37  C   UNL A   1      43.702  28.603  31.635  1.00  0.00     0.074 A 
ATOM     38  C   UNL A   1      45.315  30.188  32.629  1.00  0.00     0.049 A 
ATOM     39  N   UNL A   1      44.425  28.052  30.692  1.00  0.00    -0.248 NA
ATOM     40  C   UNL A   1      42.316  28.106  31.693  1.00  0.00     0.031 C 
ATOM     41  C   UNL A   1      45.790  31.239  33.526  1.00  0.00     0.029 A 
ATOM     42  N   UNL A   1      46.393  29.920  31.822  1.00  0.00    -0.354 N 
ATOM     43  C   UNL A   1      43.581  27.162  30.039  1.00  0.00     0.074 A 
ATOM     44  C   UNL A   1      42.307  27.206  30.723  1.00  0.00     0.031 C 
ATOM     45  C   UNL A   1      47.069  31.524  33.223  1.00  0.00     0.029 A 
ATOM     46  C   UNL A   1      47.508  30.661  32.128  1.00  0.00     0.049 A 
ATOM     47  H   UNL A   1      46.368  29.259  31.093  1.00  0.00     0.167 HD
ATOM     48  C   UNL A   1      43.838  26.393  28.955  1.00  0.00     0.037 A 
ATOM     49  C   UNL A   1      48.745  30.630  31.594  1.00  0.00     0.037 A 
ATOM     50  C   UNL A   1      45.109  26.338  28.281  1.00  0.00     0.049 A 
ATOM     51  C   UNL A   1      49.025  29.704  30.436  1.00  0.00     0.074 A 
ATOM     52  C   UNL A   1      45.473  25.579  27.182  1.00  0.00     0.029 A 
ATOM     53  N   UNL A   1      46.228  27.071  28.647  1.00  0.00    -0.354 N 
ATOM     54  N   UNL A   1      48.215  28.883  29.812  1.00  0.00    -0.248 NA
ATOM     55  C   UNL A   1      50.393  29.714  29.897  1.00  0.00     0.031 C 
ATOM     56  C   UNL A   1      46.826  25.813  26.916  1.00  0.00     0.029 A 
ATOM     57  C   UNL A   1      47.289  26.766  27.808  1.00  0.00     0.049 A 
ATOM     58  H   UNL A   1      46.264  27.713  29.393  1.00  0.00     0.167 HD
ATOM     59  C   UNL A   1      48.964  28.301  28.797  1.00  0.00     0.074 A 
ATOM     60  C   UNL A   1      50.286  28.890  28.866  1.00  0.00     0.031 C 
ATOM     61  C   UNL A   1      48.599  27.360  27.889  1.00  0.00     0.037 A 
BRANCH  48  62
ATOM     62  C   UNL A   1      42.722  25.535  28.429  1.00  0.00     0.064 A 
ATOM     63  C   UNL A   1      41.795  26.026  27.497  1.00  0.00     0.173 A 
ATOM     64  C   UNL A   1      42.609  24.193  28.820  1.00  0.00     0.173 A 
ATOM     65  F   UNL A   1      41.847  27.307  27.101  1.00  0.00    -0.203 F 
ATOM     66  C   UNL A   1      40.788  25.209  26.989  1.00  0.00     0.198 A 
ATOM     67  C   UNL A   1      41.621  23.371  28.287  1.00  0.00     0.198 A 
ATOM     68  F   UNL A   1      43.470  23.671  29.708  1.00  0.00    -0.203 F 
ATOM     69  F   UNL A   1      39.890  25.711  26.129  1.00  0.00    -0.200 F 
ATOM     70  C   UNL A   1      40.708  23.880  27.376  1.00  0.00     0.200 A 
ATOM     71  F   UNL A   1      41.553  22.082  28.651  1.00  0.00    -0.200 F 
ATOM     72  F   UNL A   1      39.747  23.091  26.874  1.00  0.00    -0.200 F 
ENDBRANCH  48  62
BRANCH  49  73
ATOM     73  C   UNL A   1      49.830  31.480  32.160  1.00  0.00     0.064 A 
ATOM     74  C   UNL A   1      50.116  32.749  31.637  1.00  0.00     0.173 A 
ATOM     75  C   UNL A   1      50.644  31.008  33.201  1.00  0.00     0.173 A 
ATOM     76  F   UNL A   1      49.385  33.237  30.624  1.00  0.00    -0.203 F 
ATOM     77  C   UNL A   1      51.196  33.496  32.106  1.00  0.00     0.198 A 
ATOM     78  C   UNL A   1      51.700  31.771  33.696  1.00  0.00     0.198 A 
ATOM     79  F   UNL A   1      50.418  29.800  33.738  1.00  0.00    -0.203 F 
ATOM     80  F   UNL A   1      51.491  34.672  31.538  1.00  0.00    -0.200 F 
ATOM     81  C   UNL A   1      51.985  33.008  33.137  1.00  0.00     0.200 A 
ATOM     82  F   UNL A   1      52.449  31.301  34.701  1.00  0.00    -0.200 F 
ATOM     83  F   UNL A   1      53.026  33.723  33.584  1.00  0.00    -0.200 F 
ENDBRANCH  49  73
BRANCH  61  84
ATOM     84  C   UNL A   1      49.634  26.938  26.883  1.00  0.00     0.064 A 
ATOM     85  C   UNL A   1      50.616  25.982  27.188  1.00  0.00     0.173 A 
ATOM     86  C   UNL A   1      49.643  27.496  25.595  1.00  0.00     0.173 A 
ATOM     87  F   UNL A   1      50.659  25.424  28.408  1.00  0.00    -0.203 F 
ATOM     88  C   UNL A   1      51.597  25.641  26.261  1.00  0.00     0.198 A 
ATOM     89  C   UNL A   1      50.602  27.123  24.657  1.00  0.00     0.198 A 
ATOM     90  F   UNL A   1      48.721  28.404  25.243  1.00  0.00    -0.203 F 
ATOM     91  F   UNL A   1      52.569  24.784  26.603  1.00  0.00    -0.200 F 
ATOM     92  C   UNL A   1      51.587  26.208  24.995  1.00  0.00     0.200 A 
ATOM     93  F   UNL A   1      50.579  27.656  23.428  1.00  0.00    -0.200 F 
ATOM     94  F   UNL A   1      52.535  25.881  24.105  1.00  0.00    -0.200 F 
ENDBRANCH  61  84
ENDBRANCH  35  36
ENDBRANCH  28  30
ENDBRANCH  27  28
ENDBRANCH  26  27
ENDBRANCH  25  26
ENDBRANCH  24  25
ENDBRANCH  23  24
ENDBRANCH  22  23
ENDBRANCH  21  22
ENDBRANCH   1  21
TORSDOF 23
ENDMDL
