MODEL 1
REMARK VINA RESULT:     -10.5      0.000      0.000
REMARK SMILES O=C(OCCOCCOCCOCCOC(=O)[C@H]1CC2(CC[NH+](S(=O)(=O)N3CCOCC3)CC2)C[NH2+]1)c1ccc(-c2c3nc(c(-c4c(F)c(F)c(F)c(F)c4F)c4ccc([nH]4)c(-c4c(F)c(F)c(F)c(F)c4F)c4nc(c(-c5c(F)c(F)c(F)c(F)c5F)c5ccc2[nH]5)C=C4)C=C3)cc1
REMARK SMILES IDX 9 1 8 2 7 3 6 4 5 5 4 6 3 7 2 8 1 9 37 10 38 11 99 12 39 13
REMARK SMILES IDX 98 14 40 15 41 16 42 17 92 18 43 19 97 20 91 21 93 22 44 23
REMARK SMILES IDX 96 24 90 25 89 26 45 28 77 29 57 30 76 31 58 32 61 33 75 34
REMARK SMILES IDX 94 35 59 36 60 37 74 39 95 40 62 41 46 42 47 43 55 44 48 45
REMARK SMILES IDX 49 46 53 47 56 48 50 49 51 50 54 51 52 52 78 53 79 54 87 55
REMARK SMILES IDX 80 56 81 57 85 58 88 59 82 60 83 61 86 62 84 63 63 64 64 65
REMARK SMILES IDX 72 66 65 67 66 68 70 69 73 70 67 71 68 72 71 73 69 74 10 75
REMARK SMILES IDX 11 76 12 77 13 78 14 79 15 80 16 81 17 82 18 83 19 84 36 85
REMARK SMILES IDX 20 86 35 87 21 90 34 91 22 92 33 93 23 94 24 96 25 97 26 98
REMARK SMILES IDX 27 99 28 100 32 101 29 102 31 103 30 104
REMARK H PARENT 93 27 61 38 36 88 36 89 23 95
REMARK Flexibility Score: inf
ROOT
ATOM      1  O   UNL A   1      39.593  22.497  25.913  1.00  0.00    -0.377 OA
ENDROOT
BRANCH   1   2
ATOM      2  C   UNL A   1      40.872  22.066  26.358  1.00  0.00     0.188 C 
BRANCH   2   3
ATOM      3  C   UNL A   1      40.952  21.216  27.637  1.00  0.00     0.188 C 
BRANCH   3   4
ATOM      4  O   UNL A   1      41.387  19.859  27.463  1.00  0.00    -0.376 OA
BRANCH   4   5
ATOM      5  C   UNL A   1      41.818  19.429  26.156  1.00  0.00     0.202 C 
BRANCH   5   6
ATOM      6  C   UNL A   1      43.024  18.497  26.085  1.00  0.00     0.261 C 
BRANCH   6   7
ATOM      7  O   UNL A   1      44.143  18.954  25.307  1.00  0.00    -0.460 OA
BRANCH   7   8
ATOM      8  C   UNL A   1      44.324  20.060  24.553  1.00  0.00     0.338 C 
ATOM      9  O   UNL A   1      44.549  19.912  23.352  1.00  0.00    -0.246 OA
BRANCH   8  10
ATOM     10  C   UNL A   1      44.296  21.455  25.079  1.00  0.00     0.060 A 
ATOM     11  C   UNL A   1      43.971  22.577  24.330  1.00  0.00     0.016 A 
ATOM     12  C   UNL A   1      44.579  21.651  26.439  1.00  0.00     0.016 A 
ATOM     13  C   UNL A   1      43.921  23.842  24.853  1.00  0.00     0.010 A 
ATOM     14  C   UNL A   1      44.595  22.938  26.987  1.00  0.00     0.010 A 
ATOM     15  C   UNL A   1      44.299  24.031  26.167  1.00  0.00    -0.014 A 
BRANCH  15  16
ATOM     16  C   UNL A   1      44.707  25.405  26.457  1.00  0.00     0.031 A 
ATOM     17  C   UNL A   1      43.705  26.250  27.184  1.00  0.00     0.074 A 
ATOM     18  C   UNL A   1      46.005  25.734  26.366  1.00  0.00     0.049 A 
ATOM     19  N   UNL A   1      43.789  27.487  27.579  1.00  0.00    -0.248 NA
ATOM     20  C   UNL A   1      42.435  25.589  27.553  1.00  0.00     0.031 C 
ATOM     21  C   UNL A   1      47.076  24.830  25.933  1.00  0.00     0.029 A 
ATOM     22  N   UNL A   1      46.651  26.887  26.695  1.00  0.00    -0.354 N 
ATOM     23  C   UNL A   1      42.568  27.768  28.178  1.00  0.00     0.074 A 
ATOM     24  C   UNL A   1      41.764  26.574  28.123  1.00  0.00     0.031 C 
ATOM     25  C   UNL A   1      48.252  25.471  26.026  1.00  0.00     0.029 A 
ATOM     26  C   UNL A   1      47.998  26.843  26.441  1.00  0.00     0.049 A 
ATOM     27  H   UNL A   1      46.198  27.673  27.076  1.00  0.00     0.167 HD
ATOM     28  C   UNL A   1      42.163  28.946  28.697  1.00  0.00     0.037 A 
ATOM     29  C   UNL A   1      48.896  27.841  26.496  1.00  0.00     0.037 A 
ATOM     30  C   UNL A   1      43.020  30.097  28.724  1.00  0.00     0.049 A 
ATOM     31  C   UNL A   1      48.381  29.187  26.929  1.00  0.00     0.074 A 
ATOM     32  C   UNL A   1      42.735  31.388  29.118  1.00  0.00     0.029 A 
ATOM     33  N   UNL A   1      44.353  30.076  28.323  1.00  0.00    -0.354 N 
ATOM     34  N   UNL A   1      47.185  29.516  27.362  1.00  0.00    -0.248 NA
ATOM     35  C   UNL A   1      49.326  30.304  26.866  1.00  0.00     0.031 C 
ATOM     36  C   UNL A   1      43.878  32.162  28.889  1.00  0.00     0.029 A 
ATOM     37  C   UNL A   1      44.901  31.338  28.433  1.00  0.00     0.049 A 
ATOM     38  H   UNL A   1      44.835  29.278  28.007  1.00  0.00     0.167 HD
ATOM     39  C   UNL A   1      47.239  30.868  27.660  1.00  0.00     0.074 A 
ATOM     40  C   UNL A   1      48.597  31.293  27.362  1.00  0.00     0.031 C 
ATOM     41  C   UNL A   1      46.270  31.690  28.137  1.00  0.00     0.037 A 
BRANCH  28  42
ATOM     42  C   UNL A   1      40.725  29.046  29.112  1.00  0.00     0.064 A 
ATOM     43  C   UNL A   1      40.295  28.827  30.430  1.00  0.00     0.173 A 
ATOM     44  C   UNL A   1      39.741  29.267  28.134  1.00  0.00     0.173 A 
ATOM     45  F   UNL A   1      41.188  28.563  31.397  1.00  0.00    -0.203 F 
ATOM     46  C   UNL A   1      38.937  28.783  30.744  1.00  0.00     0.198 A 
ATOM     47  C   UNL A   1      38.387  29.258  28.458  1.00  0.00     0.198 A 
ATOM     48  F   UNL A   1      40.093  29.459  26.854  1.00  0.00    -0.203 F 
ATOM     49  F   UNL A   1      38.549  28.485  31.992  1.00  0.00    -0.200 F 
ATOM     50  C   UNL A   1      37.986  29.002  29.759  1.00  0.00     0.200 A 
ATOM     51  F   UNL A   1      37.471  29.467  27.503  1.00  0.00    -0.200 F 
ATOM     52  F   UNL A   1      36.681  28.943  30.059  1.00  0.00    -0.200 F 
ENDBRANCH  28  42
BRANCH  29  53
ATOM     53  C   UNL A   1      50.305  27.621  26.077  1.00  0.00     0.064 A 
ATOM     54  C   UNL A   1      50.669  27.615  24.725  1.00  0.00     0.173 A 
ATOM     55  C   UNL A   1      51.320  27.392  27.021  1.00  0.00     0.173 A 
ATOM     56  F   UNL A   1      49.738  27.814  23.780  1.00  0.00    -0.203 F 
ATOM     57  C   UNL A   1      51.983  27.364  24.332  1.00  0.00     0.198 A 
ATOM     58  C   UNL A   1      52.639  27.173  26.630  1.00  0.00     0.198 A 
ATOM     59  F   UNL A   1      51.033  27.385  28.332  1.00  0.00    -0.203 F 
ATOM     60  F   UNL A   1      52.292  27.312  23.029  1.00  0.00    -0.200 F 
ATOM     61  C   UNL A   1      52.968  27.148  25.285  1.00  0.00     0.200 A 
ATOM     62  F   UNL A   1      53.588  26.980  27.557  1.00  0.00    -0.200 F 
ATOM     63  F   UNL A   1      54.230  26.904  24.906  1.00  0.00    -0.200 F 
ENDBRANCH  29  53
BRANCH  41  64
ATOM     64  C   UNL A   1      46.675  33.100  28.435  1.00  0.00     0.064 A 
ATOM     65  C   UNL A   1      47.186  33.478  29.684  1.00  0.00     0.173 A 
ATOM     66  C   UNL A   1      46.593  34.073  27.428  1.00  0.00     0.173 A 
ATOM     67  F   UNL A   1      47.270  32.583  30.680  1.00  0.00    -0.203 F 
ATOM     68  C   UNL A   1      47.567  34.793  29.925  1.00  0.00     0.198 A 
ATOM     69  C   UNL A   1      47.015  35.375  27.659  1.00  0.00     0.198 A 
ATOM     70  F   UNL A   1      46.121  33.753  26.213  1.00  0.00    -0.203 F 
ATOM     71  F   UNL A   1      47.995  35.151  31.142  1.00  0.00    -0.200 F 
ATOM     72  C   UNL A   1      47.492  35.737  28.909  1.00  0.00     0.200 A 
ATOM     73  F   UNL A   1      46.964  36.279  26.671  1.00  0.00    -0.200 F 
ATOM     74  F   UNL A   1      47.873  37.000  29.140  1.00  0.00    -0.200 F 
ENDBRANCH  41  64
ENDBRANCH  15  16
ENDBRANCH   8  10
ENDBRANCH   7   8
ENDBRANCH   6   7
ENDBRANCH   5   6
ENDBRANCH   4   5
ENDBRANCH   3   4
ENDBRANCH   2   3
ENDBRANCH   1   2
BRANCH   1  75
ATOM     75  C   UNL A   1      38.658  21.458  25.734  1.00  0.00     0.188 C 
BRANCH  75  76
ATOM     76  C   UNL A   1      37.411  21.638  24.842  1.00  0.00     0.188 C 
BRANCH  76  77
ATOM     77  O   UNL A   1      36.108  21.386  25.331  1.00  0.00    -0.376 OA
BRANCH  77  78
ATOM     78  C   UNL A   1      35.382  20.215  25.003  1.00  0.00     0.202 C 
BRANCH  78  79
ATOM     79  C   UNL A   1      33.855  20.132  24.813  1.00  0.00     0.261 C 
BRANCH  79  80
ATOM     80  O   UNL A   1      33.036  20.624  25.877  1.00  0.00    -0.459 OA
BRANCH  80  81
ATOM     81  C   UNL A   1      32.191  21.620  25.525  1.00  0.00     0.364 C 
ATOM     82  O   UNL A   1      30.972  21.548  25.680  1.00  0.00    -0.245 OA
BRANCH  81  83
ATOM     83  C   UNL A   1      32.884  22.847  24.902  1.00  0.00     0.294 C 
ATOM     84  C   UNL A   1      31.822  23.902  24.776  1.00  0.00     0.090 C 
ATOM     85  N   UNL A   1      33.895  23.515  25.719  1.00  0.00    -0.334 N 
ATOM     86  C   UNL A   1      32.488  25.257  25.006  1.00  0.00     0.036 C 
ATOM     87  C   UNL A   1      33.632  24.930  25.939  1.00  0.00     0.268 C 
ATOM     88  H   UNL A   1      34.798  23.425  25.252  1.00  0.00     0.347 HD
ATOM     89  H   UNL A   1      33.882  23.064  26.634  1.00  0.00     0.347 HD
ATOM     90  C   UNL A   1      31.448  26.171  25.649  1.00  0.00     0.076 C 
ATOM     91  C   UNL A   1      33.001  25.885  23.697  1.00  0.00     0.076 C 
ATOM     92  C   UNL A   1      30.324  26.342  24.643  1.00  0.00     0.280 C 
ATOM     93  C   UNL A   1      31.863  26.255  22.741  1.00  0.00     0.280 C 
ATOM     94  N   UNL A   1      30.791  27.038  23.431  1.00  0.00    -0.215 N 
ATOM     95  H   UNL A   1      29.964  27.051  22.833  1.00  0.00     0.367 HD
BRANCH  94  96
ATOM     96  S   UNL A   1      31.058  28.708  23.501  1.00  0.00     0.371 S 
ATOM     97  O   UNL A   1      30.966  29.130  24.871  1.00  0.00    -0.157 OA
ATOM     98  O   UNL A   1      32.259  28.963  22.727  1.00  0.00    -0.157 OA
BRANCH  96  99
ATOM     99  N   UNL A   1      29.755  29.297  22.674  1.00  0.00    -0.151 NA
ATOM    100  C   UNL A   1      28.402  28.752  22.854  1.00  0.00     0.136 C 
ATOM    101  C   UNL A   1      29.824  30.329  21.623  1.00  0.00     0.136 C 
ATOM    102  C   UNL A   1      27.438  29.907  23.137  1.00  0.00     0.177 C 
ATOM    103  C   UNL A   1      28.794  31.434  21.954  1.00  0.00     0.177 C 
ATOM    104  O   UNL A   1      27.473  30.886  22.080  1.00  0.00    -0.379 OA
ENDBRANCH  96  99
ENDBRANCH  94  96
ENDBRANCH  81  83
ENDBRANCH  80  81
ENDBRANCH  79  80
ENDBRANCH  78  79
ENDBRANCH  77  78
ENDBRANCH  76  77
ENDBRANCH  75  76
ENDBRANCH   1  75
TORSDOF 22
ENDMDL
MODEL 2
REMARK VINA RESULT:     -10.4      4.067     10.063
REMARK SMILES O=C(OCCOCCOCCOCCOC(=O)[C@H]1CC2(CC[NH+](S(=O)(=O)N3CCOCC3)CC2)C[NH2+]1)c1ccc(-c2c3nc(c(-c4c(F)c(F)c(F)c(F)c4F)c4ccc([nH]4)c(-c4c(F)c(F)c(F)c(F)c4F)c4nc(c(-c5c(F)c(F)c(F)c(F)c5F)c5ccc2[nH]5)C=C4)C=C3)cc1
REMARK SMILES IDX 9 1 8 2 7 3 6 4 5 5 4 6 3 7 2 8 1 9 37 10 38 11 99 12 39 13
REMARK SMILES IDX 98 14 40 15 41 16 42 17 92 18 43 19 97 20 91 21 93 22 44 23
REMARK SMILES IDX 96 24 90 25 89 26 45 28 77 29 57 30 76 31 58 32 61 33 75 34
REMARK SMILES IDX 94 35 59 36 60 37 74 39 95 40 62 41 46 42 47 43 55 44 48 45
REMARK SMILES IDX 49 46 53 47 56 48 50 49 51 50 54 51 52 52 78 53 79 54 87 55
REMARK SMILES IDX 80 56 81 57 85 58 88 59 82 60 83 61 86 62 84 63 63 64 64 65
REMARK SMILES IDX 72 66 65 67 66 68 70 69 73 70 67 71 68 72 71 73 69 74 10 75
REMARK SMILES IDX 11 76 12 77 13 78 14 79 15 80 16 81 17 82 18 83 19 84 36 85
REMARK SMILES IDX 20 86 35 87 21 90 34 91 22 92 33 93 23 94 24 96 25 97 26 98
REMARK SMILES IDX 27 99 28 100 32 101 29 102 31 103 30 104
REMARK H PARENT 93 27 61 38 36 88 36 89 23 95
REMARK Flexibility Score: inf
ROOT
ATOM      1  O   UNL A   1      32.346  35.409  30.243  1.00  0.00    -0.377 OA
ENDROOT
BRANCH   1   2
ATOM      2  C   UNL A   1      32.728  36.432  31.152  1.00  0.00     0.188 C 
BRANCH   2   3
ATOM      3  C   UNL A   1      33.107  36.028  32.587  1.00  0.00     0.188 C 
BRANCH   3   4
ATOM      4  O   UNL A   1      33.337  34.628  32.805  1.00  0.00    -0.376 OA
BRANCH   4   5
ATOM      5  C   UNL A   1      34.546  34.034  32.291  1.00  0.00     0.202 C 
BRANCH   5   6
ATOM      6  C   UNL A   1      35.044  32.759  32.965  1.00  0.00     0.261 C 
BRANCH   6   7
ATOM      7  O   UNL A   1      36.278  32.860  33.696  1.00  0.00    -0.460 OA
BRANCH   7   8
ATOM      8  C   UNL A   1      37.222  31.943  34.001  1.00  0.00     0.338 C 
ATOM      9  O   UNL A   1      37.458  31.727  35.189  1.00  0.00    -0.246 OA
BRANCH   8  10
ATOM     10  C   UNL A   1      38.022  31.189  32.993  1.00  0.00     0.060 A 
ATOM     11  C   UNL A   1      38.976  30.228  33.299  1.00  0.00     0.016 A 
ATOM     12  C   UNL A   1      37.770  31.435  31.635  1.00  0.00     0.016 A 
ATOM     13  C   UNL A   1      39.669  29.528  32.348  1.00  0.00     0.010 A 
ATOM     14  C   UNL A   1      38.506  30.780  30.642  1.00  0.00     0.010 A 
ATOM     15  C   UNL A   1      39.482  29.852  31.018  1.00  0.00    -0.014 A 
BRANCH  15  16
ATOM     16  C   UNL A   1      40.599  29.448  30.165  1.00  0.00     0.031 A 
ATOM     17  C   UNL A   1      41.804  30.338  30.192  1.00  0.00     0.074 A 
ATOM     18  C   UNL A   1      40.630  28.197  29.679  1.00  0.00     0.049 A 
ATOM     19  N   UNL A   1      42.933  30.230  29.554  1.00  0.00    -0.248 NA
ATOM     20  C   UNL A   1      41.739  31.502  31.101  1.00  0.00     0.031 C 
ATOM     21  C   UNL A   1      39.587  27.185  29.884  1.00  0.00     0.029 A 
ATOM     22  N   UNL A   1      41.598  27.544  28.978  1.00  0.00    -0.354 N 
ATOM     23  C   UNL A   1      43.679  31.338  29.933  1.00  0.00     0.074 A 
ATOM     24  C   UNL A   1      42.896  32.098  30.873  1.00  0.00     0.031 C 
ATOM     25  C   UNL A   1      39.978  26.034  29.316  1.00  0.00     0.029 A 
ATOM     26  C   UNL A   1      41.249  26.259  28.644  1.00  0.00     0.049 A 
ATOM     27  H   UNL A   1      42.459  27.951  28.734  1.00  0.00     0.167 HD
ATOM     28  C   UNL A   1      44.907  31.689  29.493  1.00  0.00     0.037 A 
ATOM     29  C   UNL A   1      41.889  25.401  27.832  1.00  0.00     0.037 A 
ATOM     30  C   UNL A   1      45.635  30.880  28.557  1.00  0.00     0.049 A 
ATOM     31  C   UNL A   1      43.181  25.879  27.228  1.00  0.00     0.074 A 
ATOM     32  C   UNL A   1      46.838  31.136  27.934  1.00  0.00     0.029 A 
ATOM     33  N   UNL A   1      45.199  29.635  28.110  1.00  0.00    -0.354 N 
ATOM     34  N   UNL A   1      43.840  26.994  27.456  1.00  0.00    -0.248 NA
ATOM     35  C   UNL A   1      43.813  24.998  26.244  1.00  0.00     0.031 C 
ATOM     36  C   UNL A   1      47.095  30.077  27.056  1.00  0.00     0.029 A 
ATOM     37  C   UNL A   1      46.096  29.121  27.195  1.00  0.00     0.049 A 
ATOM     38  H   UNL A   1      44.373  29.188  28.403  1.00  0.00     0.167 HD
ATOM     39  C   UNL A   1      44.982  26.935  26.675  1.00  0.00     0.074 A 
ATOM     40  C   UNL A   1      44.925  25.665  25.972  1.00  0.00     0.031 C 
ATOM     41  C   UNL A   1      45.989  27.836  26.545  1.00  0.00     0.037 A 
BRANCH  28  42
ATOM     42  C   UNL A   1      45.417  33.036  29.908  1.00  0.00     0.064 A 
ATOM     43  C   UNL A   1      45.153  34.208  29.183  1.00  0.00     0.173 A 
ATOM     44  C   UNL A   1      46.281  33.134  31.011  1.00  0.00     0.173 A 
ATOM     45  F   UNL A   1      44.372  34.165  28.091  1.00  0.00    -0.203 F 
ATOM     46  C   UNL A   1      45.766  35.415  29.519  1.00  0.00     0.198 A 
ATOM     47  C   UNL A   1      46.864  34.347  31.365  1.00  0.00     0.198 A 
ATOM     48  F   UNL A   1      46.588  32.042  31.728  1.00  0.00    -0.203 F 
ATOM     49  F   UNL A   1      45.568  36.500  28.758  1.00  0.00    -0.200 F 
ATOM     50  C   UNL A   1      46.618  35.483  30.611  1.00  0.00     0.200 A 
ATOM     51  F   UNL A   1      47.689  34.409  32.420  1.00  0.00    -0.200 F 
ATOM     52  F   UNL A   1      47.220  36.639  30.923  1.00  0.00    -0.200 F 
ENDBRANCH  28  42
BRANCH  29  53
ATOM     53  C   UNL A   1      41.295  24.078  27.504  1.00  0.00     0.064 A 
ATOM     54  C   UNL A   1      41.858  22.889  27.984  1.00  0.00     0.173 A 
ATOM     55  C   UNL A   1      40.158  23.972  26.685  1.00  0.00     0.173 A 
ATOM     56  F   UNL A   1      42.951  22.931  28.758  1.00  0.00    -0.203 F 
ATOM     57  C   UNL A   1      41.325  21.647  27.639  1.00  0.00     0.198 A 
ATOM     58  C   UNL A   1      39.607  22.732  26.366  1.00  0.00     0.198 A 
ATOM     59  F   UNL A   1      39.574  25.076  26.194  1.00  0.00    -0.203 F 
ATOM     60  F   UNL A   1      41.915  20.525  28.070  1.00  0.00    -0.200 F 
ATOM     61  C   UNL A   1      40.197  21.570  26.834  1.00  0.00     0.200 A 
ATOM     62  F   UNL A   1      38.509  22.666  25.600  1.00  0.00    -0.200 F 
ATOM     63  F   UNL A   1      39.688  20.377  26.500  1.00  0.00    -0.200 F 
ENDBRANCH  29  53
BRANCH  41  64
ATOM     64  C   UNL A   1      47.137  27.434  25.671  1.00  0.00     0.064 A 
ATOM     65  C   UNL A   1      48.229  26.710  26.166  1.00  0.00     0.173 A 
ATOM     66  C   UNL A   1      47.108  27.742  24.302  1.00  0.00     0.173 A 
ATOM     67  F   UNL A   1      48.305  26.405  27.470  1.00  0.00    -0.203 F 
ATOM     68  C   UNL A   1      49.273  26.339  25.325  1.00  0.00     0.198 A 
ATOM     69  C   UNL A   1      48.131  27.332  23.458  1.00  0.00     0.198 A 
ATOM     70  F   UNL A   1      46.075  28.424  23.783  1.00  0.00    -0.203 F 
ATOM     71  F   UNL A   1      50.339  25.702  25.827  1.00  0.00    -0.200 F 
ATOM     72  C   UNL A   1      49.217  26.641  23.971  1.00  0.00     0.200 A 
ATOM     73  F   UNL A   1      48.063  27.603  22.147  1.00  0.00    -0.200 F 
ATOM     74  F   UNL A   1      50.217  26.270  23.160  1.00  0.00    -0.200 F 
ENDBRANCH  41  64
ENDBRANCH  15  16
ENDBRANCH   8  10
ENDBRANCH   7   8
ENDBRANCH   6   7
ENDBRANCH   5   6
ENDBRANCH   4   5
ENDBRANCH   3   4
ENDBRANCH   2   3
ENDBRANCH   1   2
BRANCH   1  75
ATOM     75  C   UNL A   1      33.205  35.261  29.136  1.00  0.00     0.188 C 
BRANCH  75  76
ATOM     76  C   UNL A   1      33.092  34.055  28.180  1.00  0.00     0.188 C 
BRANCH  76  77
ATOM     77  O   UNL A   1      34.207  33.582  27.450  1.00  0.00    -0.376 OA
BRANCH  77  78
ATOM     78  C   UNL A   1      35.523  33.589  27.974  1.00  0.00     0.202 C 
BRANCH  78  79
ATOM     79  C   UNL A   1      36.246  32.376  28.591  1.00  0.00     0.261 C 
BRANCH  79  80
ATOM     80  O   UNL A   1      36.456  31.240  27.749  1.00  0.00    -0.459 OA
BRANCH  80  81
ATOM     81  C   UNL A   1      35.595  30.218  27.952  1.00  0.00     0.364 C 
ATOM     82  O   UNL A   1      35.779  29.349  28.804  1.00  0.00    -0.245 OA
BRANCH  81  83
ATOM     83  C   UNL A   1      34.370  30.228  27.017  1.00  0.00     0.294 C 
ATOM     84  C   UNL A   1      34.332  28.871  26.372  1.00  0.00     0.090 C 
ATOM     85  N   UNL A   1      33.058  30.309  27.655  1.00  0.00    -0.334 N 
ATOM     86  C   UNL A   1      32.865  28.497  26.172  1.00  0.00     0.036 C 
ATOM     87  C   UNL A   1      32.163  29.216  27.301  1.00  0.00     0.268 C 
ATOM     88  H   UNL A   1      32.619  31.187  27.378  1.00  0.00     0.347 HD
ATOM     89  H   UNL A   1      33.214  30.252  28.662  1.00  0.00     0.347 HD
ATOM     90  C   UNL A   1      32.763  26.979  26.289  1.00  0.00     0.076 C 
ATOM     91  C   UNL A   1      32.328  28.955  24.803  1.00  0.00     0.076 C 
ATOM     92  C   UNL A   1      33.579  26.389  25.153  1.00  0.00     0.280 C 
ATOM     93  C   UNL A   1      32.999  28.222  23.637  1.00  0.00     0.280 C 
ATOM     94  N   UNL A   1      33.004  26.740  23.842  1.00  0.00    -0.215 N 
ATOM     95  H   UNL A   1      33.658  26.324  23.179  1.00  0.00     0.367 HD
BRANCH  94  96
ATOM     96  S   UNL A   1      31.604  25.942  23.326  1.00  0.00     0.371 S 
ATOM     97  O   UNL A   1      30.602  26.065  24.349  1.00  0.00    -0.157 OA
ATOM     98  O   UNL A   1      31.344  26.403  21.975  1.00  0.00    -0.157 OA
BRANCH  96  99
ATOM     99  N   UNL A   1      32.110  24.370  23.264  1.00  0.00    -0.151 NA
ATOM    100  C   UNL A   1      33.175  23.926  22.353  1.00  0.00     0.136 C 
ATOM    101  C   UNL A   1      31.497  23.260  24.017  1.00  0.00     0.136 C 
ATOM    102  C   UNL A   1      34.220  23.148  23.156  1.00  0.00     0.177 C 
ATOM    103  C   UNL A   1      32.617  22.498  24.762  1.00  0.00     0.177 C 
ATOM    104  O   UNL A   1      33.621  22.034  23.847  1.00  0.00    -0.379 OA
ENDBRANCH  96  99
ENDBRANCH  94  96
ENDBRANCH  81  83
ENDBRANCH  80  81
ENDBRANCH  79  80
ENDBRANCH  78  79
ENDBRANCH  77  78
ENDBRANCH  76  77
ENDBRANCH  75  76
ENDBRANCH   1  75
TORSDOF 22
ENDMDL
MODEL 3
REMARK VINA RESULT:     -10.4      6.177     11.989
REMARK SMILES O=C(OCCOCCOCCOCCOC(=O)[C@H]1CC2(CC[NH+](S(=O)(=O)N3CCOCC3)CC2)C[NH2+]1)c1ccc(-c2c3nc(c(-c4c(F)c(F)c(F)c(F)c4F)c4ccc([nH]4)c(-c4c(F)c(F)c(F)c(F)c4F)c4nc(c(-c5c(F)c(F)c(F)c(F)c5F)c5ccc2[nH]5)C=C4)C=C3)cc1
REMARK SMILES IDX 9 1 8 2 7 3 6 4 5 5 4 6 3 7 2 8 1 9 37 10 38 11 99 12 39 13
REMARK SMILES IDX 98 14 40 15 41 16 42 17 92 18 43 19 97 20 91 21 93 22 44 23
REMARK SMILES IDX 96 24 90 25 89 26 45 28 77 29 57 30 76 31 58 32 61 33 75 34
REMARK SMILES IDX 94 35 59 36 60 37 74 39 95 40 62 41 46 42 47 43 55 44 48 45
REMARK SMILES IDX 49 46 53 47 56 48 50 49 51 50 54 51 52 52 78 53 79 54 87 55
REMARK SMILES IDX 80 56 81 57 85 58 88 59 82 60 83 61 86 62 84 63 63 64 64 65
REMARK SMILES IDX 72 66 65 67 66 68 70 69 73 70 67 71 68 72 71 73 69 74 10 75
REMARK SMILES IDX 11 76 12 77 13 78 14 79 15 80 16 81 17 82 18 83 19 84 36 85
REMARK SMILES IDX 20 86 35 87 21 90 34 91 22 92 33 93 23 94 24 96 25 97 26 98
REMARK SMILES IDX 27 99 28 100 32 101 29 102 31 103 30 104
REMARK H PARENT 93 27 61 38 36 88 36 89 23 95
REMARK Flexibility Score: inf
ROOT
ATOM      1  O   UNL A   1      33.109  28.327  27.224  1.00  0.00    -0.377 OA
ENDROOT
BRANCH   1   2
ATOM      2  C   UNL A   1      34.276  29.005  26.778  1.00  0.00     0.188 C 
BRANCH   2   3
ATOM      3  C   UNL A   1      34.829  30.151  27.641  1.00  0.00     0.188 C 
BRANCH   3   4
ATOM      4  O   UNL A   1      33.989  31.310  27.758  1.00  0.00    -0.376 OA
BRANCH   4   5
ATOM      5  C   UNL A   1      34.577  32.555  28.187  1.00  0.00     0.202 C 
BRANCH   5   6
ATOM      6  C   UNL A   1      33.744  33.821  28.017  1.00  0.00     0.261 C 
BRANCH   6   7
ATOM      7  O   UNL A   1      33.017  34.271  29.172  1.00  0.00    -0.460 OA
BRANCH   7   8
ATOM      8  C   UNL A   1      33.416  34.901  30.298  1.00  0.00     0.338 C 
ATOM      9  O   UNL A   1      32.904  35.988  30.567  1.00  0.00    -0.246 OA
BRANCH   8  10
ATOM     10  C   UNL A   1      34.459  34.384  31.231  1.00  0.00     0.060 A 
ATOM     11  C   UNL A   1      35.700  34.970  31.435  1.00  0.00     0.016 A 
ATOM     12  C   UNL A   1      34.154  33.244  31.991  1.00  0.00     0.016 A 
ATOM     13  C   UNL A   1      36.621  34.489  32.326  1.00  0.00     0.010 A 
ATOM     14  C   UNL A   1      35.099  32.694  32.863  1.00  0.00     0.010 A 
ATOM     15  C   UNL A   1      36.347  33.310  32.992  1.00  0.00    -0.014 A 
BRANCH  15  16
ATOM     16  C   UNL A   1      37.547  32.633  33.482  1.00  0.00     0.031 A 
ATOM     17  C   UNL A   1      38.224  31.711  32.514  1.00  0.00     0.074 A 
ATOM     18  C   UNL A   1      38.148  33.091  34.591  1.00  0.00     0.049 A 
ATOM     19  N   UNL A   1      39.297  30.990  32.663  1.00  0.00    -0.248 NA
ATOM     20  C   UNL A   1      37.622  31.616  31.168  1.00  0.00     0.031 C 
ATOM     21  C   UNL A   1      37.665  34.205  35.415  1.00  0.00     0.029 A 
ATOM     22  N   UNL A   1      39.323  32.727  35.176  1.00  0.00    -0.354 N 
ATOM     23  C   UNL A   1      39.457  30.312  31.462  1.00  0.00     0.074 A 
ATOM     24  C   UNL A   1      38.393  30.719  30.580  1.00  0.00     0.031 C 
ATOM     25  C   UNL A   1      38.545  34.431  36.403  1.00  0.00     0.029 A 
ATOM     26  C   UNL A   1      39.596  33.428  36.323  1.00  0.00     0.049 A 
ATOM     27  H   UNL A   1      39.916  32.030  34.814  1.00  0.00     0.167 HD
ATOM     28  C   UNL A   1      40.408  29.404  31.154  1.00  0.00     0.037 A 
ATOM     29  C   UNL A   1      40.573  33.219  37.222  1.00  0.00     0.037 A 
ATOM     30  C   UNL A   1      41.444  29.049  32.081  1.00  0.00     0.049 A 
ATOM     31  C   UNL A   1      41.528  32.093  36.930  1.00  0.00     0.074 A 
ATOM     32  C   UNL A   1      42.420  28.081  31.969  1.00  0.00     0.029 A 
ATOM     33  N   UNL A   1      41.625  29.672  33.313  1.00  0.00    -0.354 N 
ATOM     34  N   UNL A   1      41.610  31.333  35.862  1.00  0.00    -0.248 NA
ATOM     35  C   UNL A   1      42.512  31.780  37.968  1.00  0.00     0.031 C 
ATOM     36  C   UNL A   1      43.146  28.071  33.166  1.00  0.00     0.029 A 
ATOM     37  C   UNL A   1      42.679  29.090  33.988  1.00  0.00     0.049 A 
ATOM     38  H   UNL A   1      41.079  30.417  33.654  1.00  0.00     0.167 HD
ATOM     39  C   UNL A   1      42.677  30.475  36.078  1.00  0.00     0.074 A 
ATOM     40  C   UNL A   1      43.213  30.820  37.383  1.00  0.00     0.031 C 
ATOM     41  C   UNL A   1      43.176  29.496  35.282  1.00  0.00     0.037 A 
BRANCH  28  42
ATOM     42  C   UNL A   1      40.249  28.670  29.856  1.00  0.00     0.064 A 
ATOM     43  C   UNL A   1      39.526  27.473  29.741  1.00  0.00     0.173 A 
ATOM     44  C   UNL A   1      40.930  29.131  28.718  1.00  0.00     0.173 A 
ATOM     45  F   UNL A   1      38.894  26.960  30.809  1.00  0.00    -0.203 F 
ATOM     46  C   UNL A   1      39.525  26.745  28.551  1.00  0.00     0.198 A 
ATOM     47  C   UNL A   1      40.899  28.420  27.521  1.00  0.00     0.198 A 
ATOM     48  F   UNL A   1      41.657  30.257  28.775  1.00  0.00    -0.203 F 
ATOM     49  F   UNL A   1      38.900  25.561  28.493  1.00  0.00    -0.200 F 
ATOM     50  C   UNL A   1      40.208  27.221  27.443  1.00  0.00     0.200 A 
ATOM     51  F   UNL A   1      41.563  28.882  26.453  1.00  0.00    -0.200 F 
ATOM     52  F   UNL A   1      40.221  26.512  26.305  1.00  0.00    -0.200 F 
ENDBRANCH  28  42
BRANCH  29  53
ATOM     53  C   UNL A   1      40.643  34.024  38.470  1.00  0.00     0.064 A 
ATOM     54  C   UNL A   1      41.478  35.144  38.566  1.00  0.00     0.173 A 
ATOM     55  C   UNL A   1      39.890  33.678  39.605  1.00  0.00     0.173 A 
ATOM     56  F   UNL A   1      42.230  35.510  37.518  1.00  0.00    -0.203 F 
ATOM     57  C   UNL A   1      41.576  35.872  39.752  1.00  0.00     0.198 A 
ATOM     58  C   UNL A   1      39.964  34.425  40.779  1.00  0.00     0.198 A 
ATOM     59  F   UNL A   1      39.073  32.615  39.574  1.00  0.00    -0.203 F 
ATOM     60  F   UNL A   1      42.422  36.907  39.831  1.00  0.00    -0.200 F 
ATOM     61  C   UNL A   1      40.816  35.514  40.856  1.00  0.00     0.200 A 
ATOM     62  F   UNL A   1      39.215  34.082  41.837  1.00  0.00    -0.200 F 
ATOM     63  F   UNL A   1      40.913  36.212  41.996  1.00  0.00    -0.200 F 
ENDBRANCH  29  53
BRANCH  41  64
ATOM     64  C   UNL A   1      44.403  28.794  35.774  1.00  0.00     0.064 A 
ATOM     65  C   UNL A   1      44.331  27.629  36.549  1.00  0.00     0.173 A 
ATOM     66  C   UNL A   1      45.670  29.278  35.416  1.00  0.00     0.173 A 
ATOM     67  F   UNL A   1      43.141  27.138  36.926  1.00  0.00    -0.203 F 
ATOM     68  C   UNL A   1      45.490  26.992  36.979  1.00  0.00     0.198 A 
ATOM     69  C   UNL A   1      46.824  28.614  35.811  1.00  0.00     0.198 A 
ATOM     70  F   UNL A   1      45.786  30.384  34.666  1.00  0.00    -0.203 F 
ATOM     71  F   UNL A   1      45.404  25.915  37.771  1.00  0.00    -0.200 F 
ATOM     72  C   UNL A   1      46.734  27.478  36.601  1.00  0.00     0.200 A 
ATOM     73  F   UNL A   1      48.023  29.072  35.425  1.00  0.00    -0.200 F 
ATOM     74  F   UNL A   1      47.849  26.855  37.004  1.00  0.00    -0.200 F 
ENDBRANCH  41  64
ENDBRANCH  15  16
ENDBRANCH   8  10
ENDBRANCH   7   8
ENDBRANCH   6   7
ENDBRANCH   5   6
ENDBRANCH   4   5
ENDBRANCH   3   4
ENDBRANCH   2   3
ENDBRANCH   1   2
BRANCH   1  75
ATOM     75  C   UNL A   1      31.921  28.725  26.579  1.00  0.00     0.188 C 
BRANCH  75  76
ATOM     76  C   UNL A   1      31.942  29.415  25.199  1.00  0.00     0.188 C 
BRANCH  76  77
ATOM     77  O   UNL A   1      30.782  30.008  24.650  1.00  0.00    -0.376 OA
BRANCH  77  78
ATOM     78  C   UNL A   1      30.090  29.454  23.545  1.00  0.00     0.202 C 
BRANCH  78  79
ATOM     79  C   UNL A   1      30.747  28.860  22.284  1.00  0.00     0.261 C 
BRANCH  79  80
ATOM     80  O   UNL A   1      30.590  27.456  22.063  1.00  0.00    -0.459 OA
BRANCH  80  81
ATOM     81  C   UNL A   1      31.652  26.703  22.430  1.00  0.00     0.364 C 
ATOM     82  O   UNL A   1      32.789  26.900  22.001  1.00  0.00    -0.245 OA
BRANCH  81  83
ATOM     83  C   UNL A   1      31.314  25.571  23.419  1.00  0.00     0.294 C 
ATOM     84  C   UNL A   1      32.407  24.551  23.268  1.00  0.00     0.090 C 
ATOM     85  N   UNL A   1      31.386  25.900  24.841  1.00  0.00    -0.334 N 
ATOM     86  C   UNL A   1      32.650  23.929  24.641  1.00  0.00     0.036 C 
ATOM     87  C   UNL A   1      32.287  25.042  25.598  1.00  0.00     0.268 C 
ATOM     88  H   UNL A   1      30.451  25.815  25.239  1.00  0.00     0.347 HD
ATOM     89  H   UNL A   1      31.754  26.849  24.908  1.00  0.00     0.347 HD
ATOM     90  C   UNL A   1      34.127  23.551  24.714  1.00  0.00     0.076 C 
ATOM     91  C   UNL A   1      31.777  22.683  24.880  1.00  0.00     0.076 C 
ATOM     92  C   UNL A   1      34.370  22.497  23.648  1.00  0.00     0.280 C 
ATOM     93  C   UNL A   1      32.142  21.526  23.945  1.00  0.00     0.280 C 
ATOM     94  N   UNL A   1      33.615  21.264  23.933  1.00  0.00    -0.215 N 
ATOM     95  H   UNL A   1      33.831  20.666  23.136  1.00  0.00     0.367 HD
BRANCH  94  96
ATOM     96  S   UNL A   1      34.167  20.235  25.158  1.00  0.00     0.371 S 
ATOM     97  O   UNL A   1      35.584  20.057  25.005  1.00  0.00    -0.157 OA
ATOM     98  O   UNL A   1      33.614  20.743  26.400  1.00  0.00    -0.157 OA
BRANCH  96  99
ATOM     99  N   UNL A   1      33.409  18.816  24.779  1.00  0.00    -0.151 NA
ATOM    100  C   UNL A   1      33.473  18.231  23.431  1.00  0.00     0.136 C 
ATOM    101  C   UNL A   1      32.531  18.063  25.692  1.00  0.00     0.136 C 
ATOM    102  C   UNL A   1      33.907  16.768  23.549  1.00  0.00     0.177 C 
ATOM    103  C   UNL A   1      33.002  16.591  25.722  1.00  0.00     0.177 C 
ATOM    104  O   UNL A   1      33.013  16.026  24.402  1.00  0.00    -0.379 OA
ENDBRANCH  96  99
ENDBRANCH  94  96
ENDBRANCH  81  83
ENDBRANCH  80  81
ENDBRANCH  79  80
ENDBRANCH  78  79
ENDBRANCH  77  78
ENDBRANCH  76  77
ENDBRANCH  75  76
ENDBRANCH   1  75
TORSDOF 22
ENDMDL
