MODEL 1
REMARK VINA RESULT:     -11.3      0.000      0.000
REMARK SMILES Cc1cc(NC(=O)N2CCO[C@@H](CC(=O)OCCOCCOCCOCCOC(=O)c3ccc(-c4c5nc(c(-c6c(F)c(F)c(F)c(F)c6F)c6ccc([nH]6)c(-c6c(F)c(F)c(F)c(F)c6F)c6nc(c(-c7c(F)c(F)c(F)c(F)c7F)c7ccc4[nH]7)C=C6)C=C5)cc3)C2)ccc1F
REMARK SMILES IDX 21 1 20 2 19 3 18 4 17 5 16 6 14 7 15 8 13 9 12 10 8 11 9 12
REMARK SMILES IDX 94 13 10 14 11 15 6 16 5 17 7 19 4 20 1 21 2 22 3 23 97 24
REMARK SMILES IDX 96 25 98 26 95 27 22 28 23 29 24 30 25 31 26 32 27 33 28 34
REMARK SMILES IDX 29 35 30 36 31 37 32 38 93 39 33 40 92 41 34 42 35 43 36 44
REMARK SMILES IDX 86 45 37 46 91 47 85 48 87 49 38 50 90 51 84 52 83 53 39 55
REMARK SMILES IDX 71 56 51 57 70 58 52 59 55 60 69 61 88 62 53 63 54 64 68 66
REMARK SMILES IDX 89 67 56 68 40 69 41 70 49 71 42 72 43 73 47 74 50 75 44 76
REMARK SMILES IDX 45 77 48 78 46 79 72 80 73 81 81 82 74 83 75 84 79 85 82 86
REMARK SMILES IDX 76 87 77 88 80 89 78 90 57 91 58 92 66 93 59 94 60 95 64 96
REMARK SMILES IDX 67 97 61 98 62 99 65 100 63 101
REMARK H PARENT 5 18 87 54 55 65
REMARK Flexibility Score: inf
ROOT
ATOM      1  C   UNL A   1      43.002  19.416  26.395  1.00  0.00     0.188 C 
ENDROOT
BRANCH   1   2
ATOM      2  C   UNL A   1      41.732  20.098  26.924  1.00  0.00     0.188 C 
BRANCH   2   3
ATOM      3  O   UNL A   1      40.715  20.207  25.949  1.00  0.00    -0.376 OA
BRANCH   3   4
ATOM      4  C   UNL A   1      39.612  21.044  26.234  1.00  0.00     0.202 C 
BRANCH   4   5
ATOM      5  C   UNL A   1      38.343  21.036  25.353  1.00  0.00     0.261 C 
BRANCH   5   6
ATOM      6  O   UNL A   1      37.419  22.135  25.463  1.00  0.00    -0.463 OA
BRANCH   6   7
ATOM      7  C   UNL A   1      36.114  21.810  25.552  1.00  0.00     0.308 C 
ATOM      8  O   UNL A   1      35.682  20.678  25.354  1.00  0.00    -0.252 OA
BRANCH   7   9
ATOM      9  C   UNL A   1      35.186  22.949  25.897  1.00  0.00     0.156 C 
BRANCH   9  10
ATOM     10  C   UNL A   1      34.090  23.483  24.973  1.00  0.00     0.149 C 
ATOM     11  N   UNL A   1      33.373  24.696  22.945  1.00  0.00    -0.320 N 
ATOM     12  C   UNL A   1      32.735  23.478  22.437  1.00  0.00     0.150 C 
ATOM     13  C   UNL A   1      34.521  24.428  23.833  1.00  0.00     0.154 C 
ATOM     14  C   UNL A   1      32.359  22.550  23.591  1.00  0.00     0.182 C 
ATOM     15  O   UNL A   1      33.499  22.271  24.410  1.00  0.00    -0.374 OA
BRANCH  11  16
ATOM     16  C   UNL A   1      33.206  25.945  22.397  1.00  0.00     0.322 C 
ATOM     17  N   UNL A   1      32.439  26.877  23.038  1.00  0.00    -0.308 N 
ATOM     18  H   UNL A   1      31.931  27.468  22.437  1.00  0.00     0.171 HD
ATOM     19  O   UNL A   1      33.670  26.246  21.296  1.00  0.00    -0.248 OA
BRANCH  17  20
ATOM     20  C   UNL A   1      32.248  27.139  24.408  1.00  0.00     0.043 A 
ATOM     21  C   UNL A   1      33.913  29.291  27.091  1.00  0.00     0.047 C 
ATOM     22  C   UNL A   1      32.979  28.346  26.399  1.00  0.00    -0.013 A 
ATOM     23  C   UNL A   1      33.149  28.004  25.047  1.00  0.00     0.032 A 
ATOM     24  C   UNL A   1      31.889  27.817  27.091  1.00  0.00     0.126 A 
ATOM     25  C   UNL A   1      31.029  26.907  26.490  1.00  0.00     0.041 A 
ATOM     26  F   UNL A   1      31.666  28.177  28.363  1.00  0.00    -0.207 F 
ATOM     27  C   UNL A   1      31.233  26.543  25.158  1.00  0.00     0.029 A 
ENDBRANCH  17  20
ENDBRANCH  11  16
ENDBRANCH   9  10
ENDBRANCH   7   9
ENDBRANCH   6   7
ENDBRANCH   5   6
ENDBRANCH   4   5
ENDBRANCH   3   4
ENDBRANCH   2   3
ENDBRANCH   1   2
BRANCH   1  28
ATOM     28  O   UNL A   1      43.204  19.328  24.993  1.00  0.00    -0.377 OA
BRANCH  28  29
ATOM     29  C   UNL A   1      44.450  19.770  24.452  1.00  0.00     0.188 C 
BRANCH  29  30
ATOM     30  C   UNL A   1      45.335  20.793  25.219  1.00  0.00     0.188 C 
BRANCH  30  31
ATOM     31  O   UNL A   1      44.974  22.167  25.086  1.00  0.00    -0.376 OA
BRANCH  31  32
ATOM     32  C   UNL A   1      43.620  22.454  24.747  1.00  0.00     0.202 C 
BRANCH  32  33
ATOM     33  C   UNL A   1      43.077  23.763  25.340  1.00  0.00     0.261 C 
BRANCH  33  34
ATOM     34  O   UNL A   1      41.917  23.548  26.134  1.00  0.00    -0.460 OA
BRANCH  34  35
ATOM     35  C   UNL A   1      41.853  24.351  27.193  1.00  0.00     0.338 C 
ATOM     36  O   UNL A   1      42.644  24.424  28.151  1.00  0.00    -0.246 OA
BRANCH  35  37
ATOM     37  C   UNL A   1      40.673  25.189  27.103  1.00  0.00     0.060 A 
ATOM     38  C   UNL A   1      40.757  26.235  26.168  1.00  0.00     0.016 A 
ATOM     39  C   UNL A   1      40.011  25.285  28.320  1.00  0.00     0.016 A 
ATOM     40  C   UNL A   1      40.549  27.508  26.625  1.00  0.00     0.010 A 
ATOM     41  C   UNL A   1      39.845  26.550  28.789  1.00  0.00     0.010 A 
ATOM     42  C   UNL A   1      40.247  27.623  27.973  1.00  0.00    -0.014 A 
BRANCH  42  43
ATOM     43  C   UNL A   1      40.485  28.835  28.703  1.00  0.00     0.031 A 
ATOM     44  C   UNL A   1      39.389  29.790  28.769  1.00  0.00     0.074 A 
ATOM     45  C   UNL A   1      41.596  28.864  29.469  1.00  0.00     0.049 A 
ATOM     46  N   UNL A   1      39.514  30.991  29.194  1.00  0.00    -0.248 NA
ATOM     47  C   UNL A   1      38.045  29.467  28.301  1.00  0.00     0.031 C 
ATOM     48  C   UNL A   1      41.845  29.674  30.652  1.00  0.00     0.029 A 
ATOM     49  N   UNL A   1      42.818  28.220  29.217  1.00  0.00    -0.354 N 
ATOM     50  C   UNL A   1      38.244  31.482  29.373  1.00  0.00     0.074 A 
ATOM     51  C   UNL A   1      37.372  30.546  28.704  1.00  0.00     0.031 C 
ATOM     52  C   UNL A   1      43.167  29.693  30.894  1.00  0.00     0.029 A 
ATOM     53  C   UNL A   1      43.817  29.056  29.759  1.00  0.00     0.049 A 
ATOM     54  H   UNL A   1      42.951  27.360  28.757  1.00  0.00     0.167 HD
ATOM     55  C   UNL A   1      38.093  32.534  30.223  1.00  0.00     0.037 A 
ATOM     56  C   UNL A   1      44.697  29.697  28.933  1.00  0.00     0.037 A 
ATOM     57  C   UNL A   1      39.400  32.981  30.706  1.00  0.00     0.049 A 
ATOM     58  C   UNL A   1      44.566  31.202  28.999  1.00  0.00     0.074 A 
ATOM     59  C   UNL A   1      40.114  32.696  31.861  1.00  0.00     0.029 A 
ATOM     60  N   UNL A   1      40.319  33.496  29.797  1.00  0.00    -0.354 N 
ATOM     61  N   UNL A   1      43.456  31.833  29.277  1.00  0.00    -0.248 NA
ATOM     62  C   UNL A   1      45.691  32.106  28.796  1.00  0.00     0.031 C 
ATOM     63  C   UNL A   1      41.473  33.033  31.634  1.00  0.00     0.029 A 
ATOM     64  C   UNL A   1      41.585  33.530  30.347  1.00  0.00     0.049 A 
ATOM     65  H   UNL A   1      40.097  33.795  28.886  1.00  0.00     0.167 HD
ATOM     66  C   UNL A   1      43.697  33.184  29.316  1.00  0.00     0.074 A 
ATOM     67  C   UNL A   1      45.112  33.300  29.012  1.00  0.00     0.031 C 
ATOM     68  C   UNL A   1      42.712  34.088  29.609  1.00  0.00     0.037 A 
BRANCH  55  69
ATOM     69  C   UNL A   1      36.778  32.921  30.850  1.00  0.00     0.064 A 
ATOM     70  C   UNL A   1      35.832  33.671  30.119  1.00  0.00     0.173 A 
ATOM     71  C   UNL A   1      36.404  32.634  32.176  1.00  0.00     0.173 A 
ATOM     72  F   UNL A   1      36.008  33.948  28.821  1.00  0.00    -0.203 F 
ATOM     73  C   UNL A   1      34.664  34.173  30.694  1.00  0.00     0.198 A 
ATOM     74  C   UNL A   1      35.262  33.181  32.769  1.00  0.00     0.198 A 
ATOM     75  F   UNL A   1      37.098  31.771  32.927  1.00  0.00    -0.203 F 
ATOM     76  F   UNL A   1      33.807  34.882  29.946  1.00  0.00    -0.200 F 
ATOM     77  C   UNL A   1      34.394  33.956  32.029  1.00  0.00     0.200 A 
ATOM     78  F   UNL A   1      35.008  32.946  34.064  1.00  0.00    -0.200 F 
ATOM     79  F   UNL A   1      33.291  34.468  32.591  1.00  0.00    -0.200 F 
ENDBRANCH  55  69
BRANCH  56  80
ATOM     80  C   UNL A   1      45.014  28.919  27.703  1.00  0.00     0.064 A 
ATOM     81  C   UNL A   1      46.011  27.926  27.777  1.00  0.00     0.173 A 
ATOM     82  C   UNL A   1      44.119  28.852  26.628  1.00  0.00     0.173 A 
ATOM     83  F   UNL A   1      46.904  27.950  28.780  1.00  0.00    -0.203 F 
ATOM     84  C   UNL A   1      46.040  26.854  26.885  1.00  0.00     0.198 A 
ATOM     85  C   UNL A   1      44.148  27.775  25.737  1.00  0.00     0.198 A 
ATOM     86  F   UNL A   1      43.147  29.767  26.495  1.00  0.00    -0.203 F 
ATOM     87  F   UNL A   1      46.955  25.884  27.031  1.00  0.00    -0.200 F 
ATOM     88  C   UNL A   1      45.086  26.762  25.885  1.00  0.00     0.200 A 
ATOM     89  F   UNL A   1      43.217  27.678  24.776  1.00  0.00    -0.200 F 
ATOM     90  F   UNL A   1      45.053  25.693  25.076  1.00  0.00    -0.200 F 
ENDBRANCH  56  80
BRANCH  68  91
ATOM     91  C   UNL A   1      42.724  35.586  29.349  1.00  0.00     0.064 A 
ATOM     92  C   UNL A   1      43.407  36.528  30.136  1.00  0.00     0.173 A 
ATOM     93  C   UNL A   1      42.148  36.116  28.161  1.00  0.00     0.173 A 
ATOM     94  F   UNL A   1      44.107  36.170  31.218  1.00  0.00    -0.203 F 
ATOM     95  C   UNL A   1      43.454  37.886  29.803  1.00  0.00     0.198 A 
ATOM     96  C   UNL A   1      42.263  37.456  27.794  1.00  0.00     0.198 A 
ATOM     97  F   UNL A   1      41.477  35.352  27.288  1.00  0.00    -0.203 F 
ATOM     98  F   UNL A   1      44.077  38.744  30.622  1.00  0.00    -0.200 F 
ATOM     99  C   UNL A   1      42.900  38.347  28.625  1.00  0.00     0.200 A 
ATOM    100  F   UNL A   1      41.772  37.866  26.615  1.00  0.00    -0.200 F 
ATOM    101  F   UNL A   1      42.999  39.639  28.285  1.00  0.00    -0.200 F 
ENDBRANCH  68  91
ENDBRANCH  42  43
ENDBRANCH  35  37
ENDBRANCH  34  35
ENDBRANCH  33  34
ENDBRANCH  32  33
ENDBRANCH  31  32
ENDBRANCH  30  31
ENDBRANCH  29  30
ENDBRANCH  28  29
ENDBRANCH   1  28
TORSDOF 23
ENDMDL
MODEL 2
REMARK VINA RESULT:     -10.6      1.645      2.740
REMARK SMILES Cc1cc(NC(=O)N2CCO[C@@H](CC(=O)OCCOCCOCCOCCOC(=O)c3ccc(-c4c5nc(c(-c6c(F)c(F)c(F)c(F)c6F)c6ccc([nH]6)c(-c6c(F)c(F)c(F)c(F)c6F)c6nc(c(-c7c(F)c(F)c(F)c(F)c7F)c7ccc4[nH]7)C=C6)C=C5)cc3)C2)ccc1F
REMARK SMILES IDX 21 1 20 2 19 3 18 4 17 5 16 6 14 7 15 8 13 9 12 10 8 11 9 12
REMARK SMILES IDX 94 13 10 14 11 15 6 16 5 17 7 19 4 20 1 21 2 22 3 23 97 24
REMARK SMILES IDX 96 25 98 26 95 27 22 28 23 29 24 30 25 31 26 32 27 33 28 34
REMARK SMILES IDX 29 35 30 36 31 37 32 38 93 39 33 40 92 41 34 42 35 43 36 44
REMARK SMILES IDX 86 45 37 46 91 47 85 48 87 49 38 50 90 51 84 52 83 53 39 55
REMARK SMILES IDX 71 56 51 57 70 58 52 59 55 60 69 61 88 62 53 63 54 64 68 66
REMARK SMILES IDX 89 67 56 68 40 69 41 70 49 71 42 72 43 73 47 74 50 75 44 76
REMARK SMILES IDX 45 77 48 78 46 79 72 80 73 81 81 82 74 83 75 84 79 85 82 86
REMARK SMILES IDX 76 87 77 88 80 89 78 90 57 91 58 92 66 93 59 94 60 95 64 96
REMARK SMILES IDX 67 97 61 98 62 99 65 100 63 101
REMARK H PARENT 5 18 87 54 55 65
REMARK Flexibility Score: inf
ROOT
ATOM      1  C   UNL A   1      42.547  19.095  26.653  1.00  0.00     0.188 C 
ENDROOT
BRANCH   1   2
ATOM      2  C   UNL A   1      41.306  19.657  27.361  1.00  0.00     0.188 C 
BRANCH   2   3
ATOM      3  O   UNL A   1      40.255  19.972  26.471  1.00  0.00    -0.376 OA
BRANCH   3   4
ATOM      4  C   UNL A   1      39.784  21.305  26.448  1.00  0.00     0.202 C 
BRANCH   4   5
ATOM      5  C   UNL A   1      38.588  21.725  25.565  1.00  0.00     0.261 C 
BRANCH   5   6
ATOM      6  O   UNL A   1      38.382  23.125  25.301  1.00  0.00    -0.463 OA
BRANCH   6   7
ATOM      7  C   UNL A   1      37.193  23.634  25.680  1.00  0.00     0.308 C 
ATOM      8  O   UNL A   1      37.020  24.243  26.732  1.00  0.00    -0.252 OA
BRANCH   7   9
ATOM      9  C   UNL A   1      36.050  23.388  24.724  1.00  0.00     0.156 C 
BRANCH   9  10
ATOM     10  C   UNL A   1      34.694  24.091  24.798  1.00  0.00     0.149 C 
ATOM     11  N   UNL A   1      32.552  24.543  25.942  1.00  0.00    -0.320 N 
ATOM     12  C   UNL A   1      32.910  25.959  26.062  1.00  0.00     0.150 C 
ATOM     13  C   UNL A   1      33.722  23.644  25.910  1.00  0.00     0.154 C 
ATOM     14  C   UNL A   1      33.903  26.354  24.971  1.00  0.00     0.182 C 
ATOM     15  O   UNL A   1      35.048  25.495  24.991  1.00  0.00    -0.374 OA
BRANCH  11  16
ATOM     16  C   UNL A   1      31.303  24.033  26.206  1.00  0.00     0.322 C 
ATOM     17  N   UNL A   1      30.738  23.129  25.350  1.00  0.00    -0.308 N 
ATOM     18  H   UNL A   1      29.761  23.213  25.257  1.00  0.00     0.171 HD
ATOM     19  O   UNL A   1      30.626  24.416  27.162  1.00  0.00    -0.248 OA
BRANCH  17  20
ATOM     20  C   UNL A   1      31.309  22.100  24.578  1.00  0.00     0.043 A 
ATOM     21  C   UNL A   1      32.822  18.649  25.218  1.00  0.00     0.047 C 
ATOM     22  C   UNL A   1      32.326  19.882  24.526  1.00  0.00    -0.013 A 
ATOM     23  C   UNL A   1      31.794  20.965  25.246  1.00  0.00     0.032 A 
ATOM     24  C   UNL A   1      32.350  19.952  23.132  1.00  0.00     0.126 A 
ATOM     25  C   UNL A   1      31.935  21.096  22.463  1.00  0.00     0.041 A 
ATOM     26  F   UNL A   1      32.792  18.907  22.418  1.00  0.00    -0.207 F 
ATOM     27  C   UNL A   1      31.449  22.183  23.191  1.00  0.00     0.029 A 
ENDBRANCH  17  20
ENDBRANCH  11  16
ENDBRANCH   9  10
ENDBRANCH   7   9
ENDBRANCH   6   7
ENDBRANCH   5   6
ENDBRANCH   4   5
ENDBRANCH   3   4
ENDBRANCH   2   3
ENDBRANCH   1   2
BRANCH   1  28
ATOM     28  O   UNL A   1      42.607  19.134  25.235  1.00  0.00    -0.377 OA
BRANCH  28  29
ATOM     29  C   UNL A   1      43.851  19.458  24.612  1.00  0.00     0.188 C 
BRANCH  29  30
ATOM     30  C   UNL A   1      44.909  20.326  25.347  1.00  0.00     0.188 C 
BRANCH  30  31
ATOM     31  O   UNL A   1      44.659  21.730  25.389  1.00  0.00    -0.376 OA
BRANCH  31  32
ATOM     32  C   UNL A   1      43.343  22.166  25.058  1.00  0.00     0.202 C 
BRANCH  32  33
ATOM     33  C   UNL A   1      42.977  23.559  25.594  1.00  0.00     0.261 C 
BRANCH  33  34
ATOM     34  O   UNL A   1      41.710  23.565  26.241  1.00  0.00    -0.460 OA
BRANCH  34  35
ATOM     35  C   UNL A   1      41.669  24.372  27.298  1.00  0.00     0.338 C 
ATOM     36  O   UNL A   1      42.457  24.419  28.260  1.00  0.00    -0.246 OA
BRANCH  35  37
ATOM     37  C   UNL A   1      40.520  25.249  27.201  1.00  0.00     0.060 A 
ATOM     38  C   UNL A   1      40.642  26.287  26.260  1.00  0.00     0.016 A 
ATOM     39  C   UNL A   1      39.858  25.376  28.416  1.00  0.00     0.016 A 
ATOM     40  C   UNL A   1      40.478  27.569  26.709  1.00  0.00     0.010 A 
ATOM     41  C   UNL A   1      39.736  26.649  28.877  1.00  0.00     0.010 A 
ATOM     42  C   UNL A   1      40.177  27.702  28.056  1.00  0.00    -0.014 A 
BRANCH  42  43
ATOM     43  C   UNL A   1      40.455  28.909  28.779  1.00  0.00     0.031 A 
ATOM     44  C   UNL A   1      39.372  29.873  28.894  1.00  0.00     0.074 A 
ATOM     45  C   UNL A   1      41.598  28.926  29.498  1.00  0.00     0.049 A 
ATOM     46  N   UNL A   1      39.525  31.072  29.317  1.00  0.00    -0.248 NA
ATOM     47  C   UNL A   1      38.007  29.564  28.481  1.00  0.00     0.031 C 
ATOM     48  C   UNL A   1      41.903  29.730  30.672  1.00  0.00     0.029 A 
ATOM     49  N   UNL A   1      42.803  28.273  29.194  1.00  0.00    -0.354 N 
ATOM     50  C   UNL A   1      38.268  31.574  29.550  1.00  0.00     0.074 A 
ATOM     51  C   UNL A   1      37.361  30.647  28.916  1.00  0.00     0.031 C 
ATOM     52  C   UNL A   1      43.234  29.737  30.859  1.00  0.00     0.029 A 
ATOM     53  C   UNL A   1      43.831  29.098  29.696  1.00  0.00     0.049 A 
ATOM     54  H   UNL A   1      42.909  27.413  28.726  1.00  0.00     0.167 HD
ATOM     55  C   UNL A   1      38.161  32.624  30.409  1.00  0.00     0.037 A 
ATOM     56  C   UNL A   1      44.681  29.735  28.836  1.00  0.00     0.037 A 
ATOM     57  C   UNL A   1      39.491  33.058  30.840  1.00  0.00     0.049 A 
ATOM     58  C   UNL A   1      44.565  31.241  28.913  1.00  0.00     0.074 A 
ATOM     59  C   UNL A   1      40.250  32.763  31.962  1.00  0.00     0.029 A 
ATOM     60  N   UNL A   1      40.376  33.568  29.894  1.00  0.00    -0.354 N 
ATOM     61  N   UNL A   1      43.474  31.880  29.239  1.00  0.00    -0.248 NA
ATOM     62  C   UNL A   1      45.689  32.136  28.666  1.00  0.00     0.031 C 
ATOM     63  C   UNL A   1      41.601  33.088  31.680  1.00  0.00     0.029 A 
ATOM     64  C   UNL A   1      41.664  33.589  30.391  1.00  0.00     0.049 A 
ATOM     65  H   UNL A   1      40.119  33.872  28.994  1.00  0.00     0.167 HD
ATOM     66  C   UNL A   1      43.728  33.229  29.272  1.00  0.00     0.074 A 
ATOM     67  C   UNL A   1      45.130  33.334  28.910  1.00  0.00     0.031 C 
ATOM     68  C   UNL A   1      42.764  34.140  29.609  1.00  0.00     0.037 A 
BRANCH  55  69
ATOM     69  C   UNL A   1      36.877  33.020  31.093  1.00  0.00     0.064 A 
ATOM     70  C   UNL A   1      35.894  33.752  30.393  1.00  0.00     0.173 A 
ATOM     71  C   UNL A   1      36.569  32.758  32.441  1.00  0.00     0.173 A 
ATOM     72  F   UNL A   1      36.005  34.004  29.083  1.00  0.00    -0.203 F 
ATOM     73  C   UNL A   1      34.753  34.263  31.015  1.00  0.00     0.198 A 
ATOM     74  C   UNL A   1      35.455  33.313  33.077  1.00  0.00     0.198 A 
ATOM     75  F   UNL A   1      37.302  31.912  33.173  1.00  0.00    -0.203 F 
ATOM     76  F   UNL A   1      33.859  34.955  30.295  1.00  0.00    -0.200 F 
ATOM     77  C   UNL A   1      34.549  34.071  32.365  1.00  0.00     0.200 A 
ATOM     78  F   UNL A   1      35.265  33.103  34.388  1.00  0.00    -0.200 F 
ATOM     79  F   UNL A   1      33.473  34.591  32.970  1.00  0.00    -0.200 F 
ENDBRANCH  55  69
BRANCH  56  80
ATOM     80  C   UNL A   1      44.940  28.959  27.591  1.00  0.00     0.064 A 
ATOM     81  C   UNL A   1      45.921  27.948  27.624  1.00  0.00     0.173 A 
ATOM     82  C   UNL A   1      44.005  28.914  26.549  1.00  0.00     0.173 A 
ATOM     83  F   UNL A   1      46.850  27.950  28.595  1.00  0.00    -0.203 F 
ATOM     84  C   UNL A   1      45.898  26.880  26.726  1.00  0.00     0.198 A 
ATOM     85  C   UNL A   1      43.983  27.841  25.652  1.00  0.00     0.198 A 
ATOM     86  F   UNL A   1      43.046  29.846  26.456  1.00  0.00    -0.203 F 
ATOM     87  F   UNL A   1      46.800  25.894  26.834  1.00  0.00    -0.200 F 
ATOM     88  C   UNL A   1      44.908  26.812  25.760  1.00  0.00     0.200 A 
ATOM     89  F   UNL A   1      43.017  27.767  24.725  1.00  0.00    -0.200 F 
ATOM     90  F   UNL A   1      44.827  25.748  24.948  1.00  0.00    -0.200 F 
ENDBRANCH  56  80
BRANCH  68  91
ATOM     91  C   UNL A   1      42.778  35.639  29.354  1.00  0.00     0.064 A 
ATOM     92  C   UNL A   1      43.508  36.571  30.109  1.00  0.00     0.173 A 
ATOM     93  C   UNL A   1      42.150  36.179  28.197  1.00  0.00     0.173 A 
ATOM     94  F   UNL A   1      44.257  36.202  31.154  1.00  0.00    -0.203 F 
ATOM     95  C   UNL A   1      43.553  37.929  29.778  1.00  0.00     0.198 A 
ATOM     96  C   UNL A   1      42.260  37.519  27.829  1.00  0.00     0.198 A 
ATOM     97  F   UNL A   1      41.429  35.424  27.356  1.00  0.00    -0.203 F 
ATOM     98  F   UNL A   1      44.224  38.778  30.569  1.00  0.00    -0.200 F 
ATOM     99  C   UNL A   1      42.946  38.401  28.631  1.00  0.00     0.200 A 
ATOM    100  F   UNL A   1      41.716  37.938  26.677  1.00  0.00    -0.200 F 
ATOM    101  F   UNL A   1      43.041  39.693  28.290  1.00  0.00    -0.200 F 
ENDBRANCH  68  91
ENDBRANCH  42  43
ENDBRANCH  35  37
ENDBRANCH  34  35
ENDBRANCH  33  34
ENDBRANCH  32  33
ENDBRANCH  31  32
ENDBRANCH  30  31
ENDBRANCH  29  30
ENDBRANCH  28  29
ENDBRANCH   1  28
TORSDOF 23
ENDMDL
MODEL 3
REMARK VINA RESULT:     -10.3      1.283      2.009
REMARK SMILES Cc1cc(NC(=O)N2CCO[C@@H](CC(=O)OCCOCCOCCOCCOC(=O)c3ccc(-c4c5nc(c(-c6c(F)c(F)c(F)c(F)c6F)c6ccc([nH]6)c(-c6c(F)c(F)c(F)c(F)c6F)c6nc(c(-c7c(F)c(F)c(F)c(F)c7F)c7ccc4[nH]7)C=C6)C=C5)cc3)C2)ccc1F
REMARK SMILES IDX 21 1 20 2 19 3 18 4 17 5 16 6 14 7 15 8 13 9 12 10 8 11 9 12
REMARK SMILES IDX 94 13 10 14 11 15 6 16 5 17 7 19 4 20 1 21 2 22 3 23 97 24
REMARK SMILES IDX 96 25 98 26 95 27 22 28 23 29 24 30 25 31 26 32 27 33 28 34
REMARK SMILES IDX 29 35 30 36 31 37 32 38 93 39 33 40 92 41 34 42 35 43 36 44
REMARK SMILES IDX 86 45 37 46 91 47 85 48 87 49 38 50 90 51 84 52 83 53 39 55
REMARK SMILES IDX 71 56 51 57 70 58 52 59 55 60 69 61 88 62 53 63 54 64 68 66
REMARK SMILES IDX 89 67 56 68 40 69 41 70 49 71 42 72 43 73 47 74 50 75 44 76
REMARK SMILES IDX 45 77 48 78 46 79 72 80 73 81 81 82 74 83 75 84 79 85 82 86
REMARK SMILES IDX 76 87 77 88 80 89 78 90 57 91 58 92 66 93 59 94 60 95 64 96
REMARK SMILES IDX 67 97 61 98 62 99 65 100 63 101
REMARK H PARENT 5 18 87 54 55 65
REMARK Flexibility Score: inf
ROOT
ATOM      1  C   UNL A   1      42.100  19.766  26.307  1.00  0.00     0.188 C 
ENDROOT
BRANCH   1   2
ATOM      2  C   UNL A   1      40.604  20.035  26.520  1.00  0.00     0.188 C 
BRANCH   2   3
ATOM      3  O   UNL A   1      39.773  19.125  25.829  1.00  0.00    -0.376 OA
BRANCH   3   4
ATOM      4  C   UNL A   1      38.846  19.648  24.899  1.00  0.00     0.202 C 
BRANCH   4   5
ATOM      5  C   UNL A   1      37.764  20.665  25.321  1.00  0.00     0.261 C 
BRANCH   5   6
ATOM      6  O   UNL A   1      37.569  21.842  24.514  1.00  0.00    -0.463 OA
BRANCH   6   7
ATOM      7  C   UNL A   1      37.092  22.929  25.151  1.00  0.00     0.308 C 
ATOM      8  O   UNL A   1      37.569  24.054  25.022  1.00  0.00    -0.252 OA
BRANCH   7   9
ATOM      9  C   UNL A   1      35.923  22.679  26.073  1.00  0.00     0.156 C 
BRANCH   9  10
ATOM     10  C   UNL A   1      34.478  22.493  25.607  1.00  0.00     0.149 C 
ATOM     11  N   UNL A   1      32.824  21.714  23.947  1.00  0.00    -0.320 N 
ATOM     12  C   UNL A   1      32.268  20.782  24.932  1.00  0.00     0.150 C 
ATOM     13  C   UNL A   1      34.255  22.006  24.161  1.00  0.00     0.154 C 
ATOM     14  C   UNL A   1      32.543  21.277  26.350  1.00  0.00     0.182 C 
ATOM     15  O   UNL A   1      33.941  21.509  26.545  1.00  0.00    -0.374 OA
BRANCH  11  16
ATOM     16  C   UNL A   1      32.237  22.008  22.739  1.00  0.00     0.322 C 
ATOM     17  N   UNL A   1      31.822  23.283  22.472  1.00  0.00    -0.308 N 
ATOM     18  H   UNL A   1      31.003  23.338  21.930  1.00  0.00     0.171 HD
ATOM     19  O   UNL A   1      31.999  21.141  21.896  1.00  0.00    -0.248 OA
BRANCH  17  20
ATOM     20  C   UNL A   1      32.362  24.530  22.839  1.00  0.00     0.043 A 
ATOM     21  C   UNL A   1      32.749  26.564  26.052  1.00  0.00     0.047 C 
ATOM     22  C   UNL A   1      32.825  26.136  24.617  1.00  0.00    -0.013 A 
ATOM     23  C   UNL A   1      32.257  24.927  24.180  1.00  0.00     0.032 A 
ATOM     24  C   UNL A   1      33.506  26.928  23.693  1.00  0.00     0.126 A 
ATOM     25  C   UNL A   1      33.560  26.580  22.349  1.00  0.00     0.041 A 
ATOM     26  F   UNL A   1      34.112  28.054  24.095  1.00  0.00    -0.207 F 
ATOM     27  C   UNL A   1      32.955  25.397  21.919  1.00  0.00     0.029 A 
ENDBRANCH  17  20
ENDBRANCH  11  16
ENDBRANCH   9  10
ENDBRANCH   7   9
ENDBRANCH   6   7
ENDBRANCH   5   6
ENDBRANCH   4   5
ENDBRANCH   3   4
ENDBRANCH   2   3
ENDBRANCH   1   2
BRANCH   1  28
ATOM     28  O   UNL A   1      42.554  19.373  25.020  1.00  0.00    -0.377 OA
BRANCH  28  29
ATOM     29  C   UNL A   1      43.893  19.691  24.640  1.00  0.00     0.188 C 
BRANCH  29  30
ATOM     30  C   UNL A   1      44.882  20.324  25.658  1.00  0.00     0.188 C 
BRANCH  30  31
ATOM     31  O   UNL A   1      44.867  21.747  25.754  1.00  0.00    -0.376 OA
BRANCH  31  32
ATOM     32  C   UNL A   1      44.331  22.469  24.648  1.00  0.00     0.202 C 
BRANCH  32  33
ATOM     33  C   UNL A   1      43.010  23.197  24.939  1.00  0.00     0.261 C 
BRANCH  33  34
ATOM     34  O   UNL A   1      42.627  23.082  26.304  1.00  0.00    -0.460 OA
BRANCH  34  35
ATOM     35  C   UNL A   1      42.779  24.215  26.985  1.00  0.00     0.338 C 
ATOM     36  O   UNL A   1      43.808  24.652  27.530  1.00  0.00    -0.246 OA
BRANCH  35  37
ATOM     37  C   UNL A   1      41.520  24.932  27.030  1.00  0.00     0.060 A 
ATOM     38  C   UNL A   1      41.396  25.972  26.092  1.00  0.00     0.016 A 
ATOM     39  C   UNL A   1      40.992  24.975  28.314  1.00  0.00     0.016 A 
ATOM     40  C   UNL A   1      41.117  27.223  26.571  1.00  0.00     0.010 A 
ATOM     41  C   UNL A   1      40.757  26.223  28.799  1.00  0.00     0.010 A 
ATOM     42  C   UNL A   1      40.958  27.322  27.945  1.00  0.00    -0.014 A 
BRANCH  42  43
ATOM     43  C   UNL A   1      41.156  28.558  28.644  1.00  0.00     0.031 A 
ATOM     44  C   UNL A   1      40.029  29.477  28.690  1.00  0.00     0.074 A 
ATOM     45  C   UNL A   1      42.267  28.644  29.406  1.00  0.00     0.049 A 
ATOM     46  N   UNL A   1      40.114  30.692  29.085  1.00  0.00    -0.248 NA
ATOM     47  C   UNL A   1      38.696  29.099  28.233  1.00  0.00     0.031 C 
ATOM     48  C   UNL A   1      42.491  29.490  30.568  1.00  0.00     0.029 A 
ATOM     49  N   UNL A   1      43.510  28.035  29.167  1.00  0.00    -0.354 N 
ATOM     50  C   UNL A   1      38.829  31.145  29.255  1.00  0.00     0.074 A 
ATOM     51  C   UNL A   1      37.988  30.164  28.612  1.00  0.00     0.031 C 
ATOM     52  C   UNL A   1      43.812  29.560  30.806  1.00  0.00     0.029 A 
ATOM     53  C   UNL A   1      44.481  28.916  29.685  1.00  0.00     0.049 A 
ATOM     54  H   UNL A   1      43.671  27.169  28.728  1.00  0.00     0.167 HD
ATOM     55  C   UNL A   1      38.644  32.212  30.080  1.00  0.00     0.037 A 
ATOM     56  C   UNL A   1      45.338  29.567  28.842  1.00  0.00     0.037 A 
ATOM     57  C   UNL A   1      39.937  32.714  30.549  1.00  0.00     0.049 A 
ATOM     58  C   UNL A   1      45.156  31.068  28.872  1.00  0.00     0.074 A 
ATOM     59  C   UNL A   1      40.661  32.481  31.708  1.00  0.00     0.029 A 
ATOM     60  N   UNL A   1      40.836  33.237  29.625  1.00  0.00    -0.354 N 
ATOM     61  N   UNL A   1      44.026  31.667  29.137  1.00  0.00    -0.248 NA
ATOM     62  C   UNL A   1      46.250  32.004  28.644  1.00  0.00     0.031 C 
ATOM     63  C   UNL A   1      42.008  32.857  31.470  1.00  0.00     0.029 A 
ATOM     64  C   UNL A   1      42.101  33.326  30.170  1.00  0.00     0.049 A 
ATOM     65  H   UNL A   1      40.603  33.506  28.708  1.00  0.00     0.167 HD
ATOM     66  C   UNL A   1      44.221  33.027  29.143  1.00  0.00     0.074 A 
ATOM     67  C   UNL A   1      45.631  33.182  28.832  1.00  0.00     0.031 C 
ATOM     68  C   UNL A   1      43.207  33.904  29.417  1.00  0.00     0.037 A 
BRANCH  55  69
ATOM     69  C   UNL A   1      37.318  32.570  30.701  1.00  0.00     0.064 A 
ATOM     70  C   UNL A   1      36.374  33.331  29.979  1.00  0.00     0.173 A 
ATOM     71  C   UNL A   1      36.930  32.242  32.014  1.00  0.00     0.173 A 
ATOM     72  F   UNL A   1      36.563  33.645  28.691  1.00  0.00    -0.203 F 
ATOM     73  C   UNL A   1      35.195  33.807  30.553  1.00  0.00     0.198 A 
ATOM     74  C   UNL A   1      35.776  32.763  32.607  1.00  0.00     0.198 A 
ATOM     75  F   UNL A   1      37.623  31.365  32.749  1.00  0.00    -0.203 F 
ATOM     76  F   UNL A   1      34.341  34.529  29.814  1.00  0.00    -0.200 F 
ATOM     77  C   UNL A   1      34.910  33.550  31.878  1.00  0.00     0.200 A 
ATOM     78  F   UNL A   1      35.508  32.489  33.892  1.00  0.00    -0.200 F 
ATOM     79  F   UNL A   1      33.796  34.037  32.440  1.00  0.00    -0.200 F 
ENDBRANCH  55  69
BRANCH  56  80
ATOM     80  C   UNL A   1      45.678  28.770  27.630  1.00  0.00     0.064 A 
ATOM     81  C   UNL A   1      46.721  27.827  27.721  1.00  0.00     0.173 A 
ATOM     82  C   UNL A   1      44.776  28.632  26.568  1.00  0.00     0.173 A 
ATOM     83  F   UNL A   1      47.622  27.920  28.713  1.00  0.00    -0.203 F 
ATOM     84  C   UNL A   1      46.791  26.732  26.858  1.00  0.00     0.198 A 
ATOM     85  C   UNL A   1      44.847  27.532  25.707  1.00  0.00     0.198 A 
ATOM     86  F   UNL A   1      43.762  29.496  26.420  1.00  0.00    -0.203 F 
ATOM     87  F   UNL A   1      47.751  25.811  27.020  1.00  0.00    -0.200 F 
ATOM     88  C   UNL A   1      45.832  26.569  25.872  1.00  0.00     0.200 A 
ATOM     89  F   UNL A   1      43.912  27.366  24.759  1.00  0.00    -0.200 F 
ATOM     90  F   UNL A   1      45.842  25.477  25.093  1.00  0.00    -0.200 F 
ENDBRANCH  56  80
BRANCH  68  91
ATOM     91  C   UNL A   1      43.169  35.394  29.120  1.00  0.00     0.064 A 
ATOM     92  C   UNL A   1      42.503  35.975  28.029  1.00  0.00     0.173 A 
ATOM     93  C   UNL A   1      43.699  36.329  30.053  1.00  0.00     0.173 A 
ATOM     94  F   UNL A   1      41.843  35.237  27.130  1.00  0.00    -0.203 F 
ATOM     95  C   UNL A   1      42.429  37.361  27.850  1.00  0.00     0.198 A 
ATOM     96  C   UNL A   1      43.556  37.709  29.910  1.00  0.00     0.198 A 
ATOM     97  F   UNL A   1      44.349  35.944  31.160  1.00  0.00    -0.203 F 
ATOM     98  F   UNL A   1      41.824  37.853  26.760  1.00  0.00    -0.200 F 
ATOM     99  C   UNL A   1      42.938  38.227  28.797  1.00  0.00     0.200 A 
ATOM    100  F   UNL A   1      44.003  38.526  30.875  1.00  0.00    -0.200 F 
ATOM    101  F   UNL A   1      42.813  39.552  28.647  1.00  0.00    -0.200 F 
ENDBRANCH  68  91
ENDBRANCH  42  43
ENDBRANCH  35  37
ENDBRANCH  34  35
ENDBRANCH  33  34
ENDBRANCH  32  33
ENDBRANCH  31  32
ENDBRANCH  30  31
ENDBRANCH  29  30
ENDBRANCH  28  29
ENDBRANCH   1  28
TORSDOF 23
ENDMDL
