MODEL 1
REMARK VINA RESULT:      -6.8      0.000      0.000
REMARK SMILES O=C(/C=C/c1cc(F)cc(COCc2ccco2)c1)OCCOCCOCCOCCOC(=O)c1ccc(-c2c3nc(c(-c4c(F)c(F)c(F)c(F)c4F)c4ccc([nH]4)c(-c4c(F)c(F)c(F)c(F)c4F)c4nc(c(-c5c(F)c(F)c(F)c(F)c5F)c5ccc2[nH]5)C=C4)C=C3)cc1
REMARK SMILES IDX 24 1 23 2 22 3 21 4 20 5 2 6 1 7 3 8 4 9 5 10 6 11 19 12
REMARK SMILES IDX 7 13 10 14 8 15 9 16 11 17 12 18 13 19 14 20 15 21 18 22
REMARK SMILES IDX 16 23 17 24 25 25 26 26 27 27 28 28 29 29 30 30 31 31 32 32
REMARK SMILES IDX 33 33 34 34 35 35 36 36 97 37 37 38 96 39 38 40 39 41 40 42
REMARK SMILES IDX 90 43 41 44 95 45 89 46 91 47 42 48 94 49 88 50 87 51 43 53
REMARK SMILES IDX 75 54 55 55 74 56 56 57 59 58 73 59 92 60 57 61 58 62 72 64
REMARK SMILES IDX 93 65 60 66 44 67 45 68 53 69 46 70 47 71 51 72 54 73 48 74
REMARK SMILES IDX 49 75 52 76 50 77 76 78 77 79 85 80 78 81 79 82 83 83 86 84
REMARK SMILES IDX 80 85 81 86 84 87 82 88 61 89 62 90 70 91 63 92 64 93 68 94
REMARK SMILES IDX 71 95 65 96 66 97 69 98 67 99
REMARK H PARENT 91 52 59 63
REMARK Flexibility Score: inf
ROOT
ATOM      1  C   UNL A   1      35.462  32.390  28.964  1.00  0.00     0.188 C 
ENDROOT
BRANCH   1   2
ATOM      2  O   UNL A   1      36.668  32.625  29.678  1.00  0.00    -0.376 OA
BRANCH   2   3
ATOM      3  C   UNL A   1      37.158  31.918  30.795  1.00  0.00     0.202 C 
BRANCH   3   4
ATOM      4  C   UNL A   1      36.398  30.788  31.470  1.00  0.00     0.261 C 
BRANCH   4   5
ATOM      5  O   UNL A   1      36.645  29.449  31.040  1.00  0.00    -0.460 OA
BRANCH   5   6
ATOM      6  C   UNL A   1      37.521  28.573  31.578  1.00  0.00     0.330 C 
ATOM      7  O   UNL A   1      37.397  28.219  32.746  1.00  0.00    -0.247 OA
BRANCH   6   8
ATOM      8  C   UNL A   1      38.793  28.294  30.887  1.00  0.00     0.094 C 
ATOM      9  C   UNL A   1      39.714  29.156  30.436  1.00  0.00     0.016 C 
BRANCH   9  10
ATOM     10  C   UNL A   1      40.999  28.686  29.897  1.00  0.00    -0.022 A 
ATOM     11  C   UNL A   1      41.754  27.733  30.582  1.00  0.00     0.047 A 
ATOM     12  C   UNL A   1      41.472  29.172  28.664  1.00  0.00     0.014 A 
ATOM     13  C   UNL A   1      42.939  27.264  30.028  1.00  0.00     0.124 A 
ATOM     14  C   UNL A   1      42.671  28.694  28.102  1.00  0.00    -0.019 A 
ATOM     15  F   UNL A   1      43.644  26.334  30.686  1.00  0.00    -0.207 F 
ATOM     16  C   UNL A   1      43.398  27.724  28.799  1.00  0.00     0.045 A 
BRANCH  14  17
ATOM     17  C   UNL A   1      43.141  29.174  26.747  1.00  0.00     0.196 C 
BRANCH  17  18
ATOM     18  O   UNL A   1      44.003  28.267  26.064  1.00  0.00    -0.369 OA
BRANCH  18  19
ATOM     19  C   UNL A   1      45.402  28.561  26.127  1.00  0.00     0.235 C 
BRANCH  19  20
ATOM     20  C   UNL A   1      46.200  27.530  25.412  1.00  0.00     0.129 A 
ATOM     21  C   UNL A   1      47.354  27.565  24.653  1.00  0.00     0.048 A 
ATOM     22  O   UNL A   1      45.809  26.230  25.580  1.00  0.00    -0.467 OA
ATOM     23  C   UNL A   1      47.671  26.227  24.327  1.00  0.00     0.042 A 
ATOM     24  C   UNL A   1      46.711  25.451  24.928  1.00  0.00     0.195 A 
ENDBRANCH  19  20
ENDBRANCH  18  19
ENDBRANCH  17  18
ENDBRANCH  14  17
ENDBRANCH   9  10
ENDBRANCH   6   8
ENDBRANCH   5   6
ENDBRANCH   4   5
ENDBRANCH   3   4
ENDBRANCH   2   3
ENDBRANCH   1   2
BRANCH   1  25
ATOM     25  C   UNL A   1      34.487  33.510  28.580  1.00  0.00     0.188 C 
BRANCH  25  26
ATOM     26  O   UNL A   1      34.369  34.645  29.426  1.00  0.00    -0.377 OA
BRANCH  26  27
ATOM     27  C   UNL A   1      33.878  34.354  30.721  1.00  0.00     0.188 C 
BRANCH  27  28
ATOM     28  C   UNL A   1      34.277  35.425  31.748  1.00  0.00     0.188 C 
BRANCH  28  29
ATOM     29  O   UNL A   1      35.393  35.084  32.540  1.00  0.00    -0.376 OA
BRANCH  29  30
ATOM     30  C   UNL A   1      35.240  34.670  33.888  1.00  0.00     0.202 C 
BRANCH  30  31
ATOM     31  C   UNL A   1      35.920  33.454  34.556  1.00  0.00     0.261 C 
BRANCH  31  32
ATOM     32  O   UNL A   1      37.323  33.497  34.833  1.00  0.00    -0.460 OA
BRANCH  32  33
ATOM     33  C   UNL A   1      37.801  32.693  35.801  1.00  0.00     0.338 C 
ATOM     34  O   UNL A   1      37.290  32.449  36.882  1.00  0.00    -0.246 OA
BRANCH  33  35
ATOM     35  C   UNL A   1      38.941  31.943  35.224  1.00  0.00     0.060 A 
ATOM     36  C   UNL A   1      40.219  32.154  35.764  1.00  0.00     0.016 A 
ATOM     37  C   UNL A   1      38.751  31.001  34.209  1.00  0.00     0.016 A 
ATOM     38  C   UNL A   1      41.318  31.470  35.252  1.00  0.00     0.010 A 
ATOM     39  C   UNL A   1      39.859  30.335  33.675  1.00  0.00     0.010 A 
ATOM     40  C   UNL A   1      41.150  30.608  34.162  1.00  0.00    -0.014 A 
BRANCH  40  41
ATOM     41  C   UNL A   1      42.340  30.223  33.367  1.00  0.00     0.031 A 
ATOM     42  C   UNL A   1      43.044  28.947  33.741  1.00  0.00     0.074 A 
ATOM     43  C   UNL A   1      42.751  30.938  32.307  1.00  0.00     0.049 A 
ATOM     44  N   UNL A   1      44.109  28.397  33.220  1.00  0.00    -0.248 NA
ATOM     45  C   UNL A   1      42.459  28.186  34.858  1.00  0.00     0.031 C 
ATOM     46  C   UNL A   1      42.113  32.154  31.809  1.00  0.00     0.029 A 
ATOM     47  N   UNL A   1      43.808  30.735  31.456  1.00  0.00    -0.354 N 
ATOM     48  C   UNL A   1      44.320  27.232  33.945  1.00  0.00     0.074 A 
ATOM     49  C   UNL A   1      43.304  27.173  34.970  1.00  0.00     0.031 C 
ATOM     50  C   UNL A   1      42.795  32.592  30.735  1.00  0.00     0.029 A 
ATOM     51  C   UNL A   1      43.934  31.705  30.493  1.00  0.00     0.049 A 
ATOM     52  H   UNL A   1      44.419  29.966  31.527  1.00  0.00     0.167 HD
ATOM     53  C   UNL A   1      45.268  26.285  33.761  1.00  0.00     0.037 A 
ATOM     54  C   UNL A   1      44.873  31.864  29.538  1.00  0.00     0.037 A 
ATOM     55  C   UNL A   1      46.281  26.350  32.743  1.00  0.00     0.049 A 
ATOM     56  C   UNL A   1      45.979  30.848  29.411  1.00  0.00     0.074 A 
ATOM     57  C   UNL A   1      47.294  25.447  32.479  1.00  0.00     0.029 A 
ATOM     58  N   UNL A   1      46.413  27.382  31.825  1.00  0.00    -0.354 N 
ATOM     59  N   UNL A   1      46.178  29.751  30.101  1.00  0.00    -0.248 NA
ATOM     60  C   UNL A   1      46.990  31.091  28.372  1.00  0.00     0.031 C 
ATOM     61  C   UNL A   1      48.076  25.962  31.441  1.00  0.00     0.029 A 
ATOM     62  C   UNL A   1      47.507  27.150  31.008  1.00  0.00     0.049 A 
ATOM     63  H   UNL A   1      45.817  28.163  31.763  1.00  0.00     0.167 HD
ATOM     64  C   UNL A   1      47.314  29.157  29.562  1.00  0.00     0.074 A 
ATOM     65  C   UNL A   1      47.756  30.014  28.481  1.00  0.00     0.031 C 
ATOM     66  C   UNL A   1      47.932  28.007  29.929  1.00  0.00     0.037 A 
BRANCH  53  67
ATOM     67  C   UNL A   1      45.264  25.108  34.693  1.00  0.00     0.064 A 
ATOM     68  C   UNL A   1      45.886  25.194  35.948  1.00  0.00     0.173 A 
ATOM     69  C   UNL A   1      44.682  23.883  34.332  1.00  0.00     0.173 A 
ATOM     70  F   UNL A   1      46.456  26.342  36.343  1.00  0.00    -0.203 F 
ATOM     71  C   UNL A   1      45.936  24.093  36.800  1.00  0.00     0.198 A 
ATOM     72  C   UNL A   1      44.704  22.795  35.202  1.00  0.00     0.198 A 
ATOM     73  F   UNL A   1      44.058  23.753  33.151  1.00  0.00    -0.203 F 
ATOM     74  F   UNL A   1      46.563  24.191  37.980  1.00  0.00    -0.200 F 
ATOM     75  C   UNL A   1      45.340  22.898  36.429  1.00  0.00     0.200 A 
ATOM     76  F   UNL A   1      44.099  21.650  34.855  1.00  0.00    -0.200 F 
ATOM     77  F   UNL A   1      45.374  21.845  37.258  1.00  0.00    -0.200 F 
ENDBRANCH  53  67
BRANCH  54  78
ATOM     78  C   UNL A   1      44.788  33.028  28.618  1.00  0.00     0.064 A 
ATOM     79  C   UNL A   1      45.322  34.277  28.969  1.00  0.00     0.173 A 
ATOM     80  C   UNL A   1      44.137  32.924  27.381  1.00  0.00     0.173 A 
ATOM     81  F   UNL A   1      45.958  34.429  30.140  1.00  0.00    -0.203 F 
ATOM     82  C   UNL A   1      45.179  35.384  28.134  1.00  0.00     0.198 A 
ATOM     83  C   UNL A   1      44.018  34.025  26.534  1.00  0.00     0.198 A 
ATOM     84  F   UNL A   1      43.632  31.745  26.988  1.00  0.00    -0.203 F 
ATOM     85  F   UNL A   1      45.659  36.574  28.516  1.00  0.00    -0.200 F 
ATOM     86  C   UNL A   1      44.529  35.256  26.917  1.00  0.00     0.200 A 
ATOM     87  F   UNL A   1      43.409  33.892  25.348  1.00  0.00    -0.200 F 
ATOM     88  F   UNL A   1      44.391  36.320  26.114  1.00  0.00    -0.200 F 
ENDBRANCH  54  78
BRANCH  66  89
ATOM     89  C   UNL A   1      49.136  27.571  29.141  1.00  0.00     0.064 A 
ATOM     90  C   UNL A   1      49.009  26.602  28.133  1.00  0.00     0.173 A 
ATOM     91  C   UNL A   1      50.423  28.040  29.441  1.00  0.00     0.173 A 
ATOM     92  F   UNL A   1      47.802  26.111  27.815  1.00  0.00    -0.203 F 
ATOM     93  C   UNL A   1      50.127  26.107  27.467  1.00  0.00     0.198 A 
ATOM     94  C   UNL A   1      51.535  27.568  28.748  1.00  0.00     0.198 A 
ATOM     95  F   UNL A   1      50.600  28.971  30.389  1.00  0.00    -0.203 F 
ATOM     96  F   UNL A   1      49.983  25.151  26.539  1.00  0.00    -0.200 F 
ATOM     97  C   UNL A   1      51.388  26.594  27.771  1.00  0.00     0.200 A 
ATOM     98  F   UNL A   1      52.752  28.058  29.024  1.00  0.00    -0.200 F 
ATOM     99  F   UNL A   1      52.462  26.127  27.120  1.00  0.00    -0.200 F 
ENDBRANCH  66  89
ENDBRANCH  40  41
ENDBRANCH  33  35
ENDBRANCH  32  33
ENDBRANCH  31  32
ENDBRANCH  30  31
ENDBRANCH  29  30
ENDBRANCH  28  29
ENDBRANCH  27  28
ENDBRANCH  26  27
ENDBRANCH  25  26
ENDBRANCH   1  25
TORSDOF 25
ENDMDL
MODEL 2
REMARK VINA RESULT:      -6.6      5.775     10.025
REMARK SMILES O=C(/C=C/c1cc(F)cc(COCc2ccco2)c1)OCCOCCOCCOCCOC(=O)c1ccc(-c2c3nc(c(-c4c(F)c(F)c(F)c(F)c4F)c4ccc([nH]4)c(-c4c(F)c(F)c(F)c(F)c4F)c4nc(c(-c5c(F)c(F)c(F)c(F)c5F)c5ccc2[nH]5)C=C4)C=C3)cc1
REMARK SMILES IDX 24 1 23 2 22 3 21 4 20 5 2 6 1 7 3 8 4 9 5 10 6 11 19 12
REMARK SMILES IDX 7 13 10 14 8 15 9 16 11 17 12 18 13 19 14 20 15 21 18 22
REMARK SMILES IDX 16 23 17 24 25 25 26 26 27 27 28 28 29 29 30 30 31 31 32 32
REMARK SMILES IDX 33 33 34 34 35 35 36 36 97 37 37 38 96 39 38 40 39 41 40 42
REMARK SMILES IDX 90 43 41 44 95 45 89 46 91 47 42 48 94 49 88 50 87 51 43 53
REMARK SMILES IDX 75 54 55 55 74 56 56 57 59 58 73 59 92 60 57 61 58 62 72 64
REMARK SMILES IDX 93 65 60 66 44 67 45 68 53 69 46 70 47 71 51 72 54 73 48 74
REMARK SMILES IDX 49 75 52 76 50 77 76 78 77 79 85 80 78 81 79 82 83 83 86 84
REMARK SMILES IDX 80 85 81 86 84 87 82 88 61 89 62 90 70 91 63 92 64 93 68 94
REMARK SMILES IDX 71 95 65 96 66 97 69 98 67 99
REMARK H PARENT 91 52 59 63
REMARK Flexibility Score: inf
ROOT
ATOM      1  C   UNL A   1      33.190  34.019  27.864  1.00  0.00     0.188 C 
ENDROOT
BRANCH   1   2
ATOM      2  O   UNL A   1      32.925  32.622  27.854  1.00  0.00    -0.376 OA
BRANCH   2   3
ATOM      3  C   UNL A   1      33.852  31.572  27.693  1.00  0.00     0.202 C 
BRANCH   3   4
ATOM      4  C   UNL A   1      33.517  30.257  27.006  1.00  0.00     0.261 C 
BRANCH   4   5
ATOM      5  O   UNL A   1      32.152  29.984  26.691  1.00  0.00    -0.460 OA
BRANCH   5   6
ATOM      6  C   UNL A   1      31.691  29.151  25.733  1.00  0.00     0.330 C 
ATOM      7  O   UNL A   1      31.085  29.602  24.767  1.00  0.00    -0.247 OA
BRANCH   6   8
ATOM      8  C   UNL A   1      31.622  27.702  25.996  1.00  0.00     0.094 C 
ATOM      9  C   UNL A   1      30.823  26.781  25.441  1.00  0.00     0.016 C 
BRANCH   9  10
ATOM     10  C   UNL A   1      30.999  25.348  25.726  1.00  0.00    -0.022 A 
ATOM     11  C   UNL A   1      30.069  24.657  26.503  1.00  0.00     0.047 A 
ATOM     12  C   UNL A   1      32.097  24.649  25.193  1.00  0.00     0.014 A 
ATOM     13  C   UNL A   1      30.226  23.293  26.716  1.00  0.00     0.124 A 
ATOM     14  C   UNL A   1      32.254  23.266  25.405  1.00  0.00    -0.019 A 
ATOM     15  F   UNL A   1      29.316  22.636  27.446  1.00  0.00    -0.207 F 
ATOM     16  C   UNL A   1      31.297  22.592  26.170  1.00  0.00     0.045 A 
BRANCH  14  17
ATOM     17  C   UNL A   1      33.401  22.507  24.776  1.00  0.00     0.196 C 
BRANCH  17  18
ATOM     18  O   UNL A   1      33.096  21.161  24.420  1.00  0.00    -0.369 OA
BRANCH  18  19
ATOM     19  C   UNL A   1      33.791  20.145  25.149  1.00  0.00     0.235 C 
BRANCH  19  20
ATOM     20  C   UNL A   1      33.847  18.874  24.378  1.00  0.00     0.129 A 
ATOM     21  C   UNL A   1      34.735  17.817  24.334  1.00  0.00     0.048 A 
ATOM     22  O   UNL A   1      32.766  18.589  23.591  1.00  0.00    -0.467 OA
ATOM     23  C   UNL A   1      34.179  16.850  23.465  1.00  0.00     0.042 A 
ATOM     24  C   UNL A   1      32.972  17.359  23.052  1.00  0.00     0.195 A 
ENDBRANCH  19  20
ENDBRANCH  18  19
ENDBRANCH  17  18
ENDBRANCH  14  17
ENDBRANCH   9  10
ENDBRANCH   6   8
ENDBRANCH   5   6
ENDBRANCH   4   5
ENDBRANCH   3   4
ENDBRANCH   2   3
ENDBRANCH   1   2
BRANCH   1  25
ATOM     25  C   UNL A   1      34.595  34.601  28.059  1.00  0.00     0.188 C 
BRANCH  25  26
ATOM     26  O   UNL A   1      35.673  33.724  28.349  1.00  0.00    -0.377 OA
BRANCH  26  27
ATOM     27  C   UNL A   1      36.161  33.823  29.674  1.00  0.00     0.188 C 
BRANCH  27  28
ATOM     28  C   UNL A   1      35.067  34.248  30.666  1.00  0.00     0.188 C 
BRANCH  28  29
ATOM     29  O   UNL A   1      34.336  33.177  31.219  1.00  0.00    -0.376 OA
BRANCH  29  30
ATOM     30  C   UNL A   1      34.421  32.862  32.600  1.00  0.00     0.202 C 
BRANCH  30  31
ATOM     31  C   UNL A   1      35.718  32.650  33.414  1.00  0.00     0.261 C 
BRANCH  31  32
ATOM     32  O   UNL A   1      36.953  32.439  32.725  1.00  0.00    -0.460 OA
BRANCH  32  33
ATOM     33  C   UNL A   1      37.247  31.187  32.325  1.00  0.00     0.338 C 
ATOM     34  O   UNL A   1      36.477  30.249  32.195  1.00  0.00    -0.246 OA
BRANCH  33  35
ATOM     35  C   UNL A   1      38.638  31.205  31.817  1.00  0.00     0.060 A 
ATOM     36  C   UNL A   1      39.670  31.535  32.709  1.00  0.00     0.016 A 
ATOM     37  C   UNL A   1      38.935  30.845  30.499  1.00  0.00     0.016 A 
ATOM     38  C   UNL A   1      40.991  31.563  32.274  1.00  0.00     0.010 A 
ATOM     39  C   UNL A   1      40.259  30.902  30.053  1.00  0.00     0.010 A 
ATOM     40  C   UNL A   1      41.282  31.312  30.928  1.00  0.00    -0.014 A 
BRANCH  40  41
ATOM     41  C   UNL A   1      42.591  31.749  30.387  1.00  0.00     0.031 A 
ATOM     42  C   UNL A   1      42.698  33.163  29.883  1.00  0.00     0.074 A 
ATOM     43  C   UNL A   1      43.670  30.949  30.399  1.00  0.00     0.049 A 
ATOM     44  N   UNL A   1      43.717  33.784  29.350  1.00  0.00    -0.248 NA
ATOM     45  C   UNL A   1      41.484  33.989  30.001  1.00  0.00     0.031 C 
ATOM     46  C   UNL A   1      43.705  29.586  30.920  1.00  0.00     0.029 A 
ATOM     47  N   UNL A   1      44.949  31.179  29.958  1.00  0.00    -0.354 N 
ATOM     48  C   UNL A   1      43.267  35.067  29.070  1.00  0.00     0.074 A 
ATOM     49  C   UNL A   1      41.874  35.126  29.448  1.00  0.00     0.031 C 
ATOM     50  C   UNL A   1      44.950  29.097  30.768  1.00  0.00     0.029 A 
ATOM     51  C   UNL A   1      45.785  30.102  30.110  1.00  0.00     0.049 A 
ATOM     52  H   UNL A   1      45.241  32.037  29.571  1.00  0.00     0.167 HD
ATOM     53  C   UNL A   1      43.960  36.111  28.559  1.00  0.00     0.037 A 
ATOM     54  C   UNL A   1      47.074  29.945  29.742  1.00  0.00     0.037 A 
ATOM     55  C   UNL A   1      45.345  36.046  28.179  1.00  0.00     0.049 A 
ATOM     56  C   UNL A   1      47.801  31.088  29.084  1.00  0.00     0.074 A 
ATOM     57  C   UNL A   1      46.137  37.043  27.642  1.00  0.00     0.029 A 
ATOM     58  N   UNL A   1      46.143  34.916  28.291  1.00  0.00    -0.354 N 
ATOM     59  N   UNL A   1      47.372  32.298  28.817  1.00  0.00    -0.248 NA
ATOM     60  C   UNL A   1      49.193  30.847  28.679  1.00  0.00     0.031 C 
ATOM     61  C   UNL A   1      47.397  36.501  27.372  1.00  0.00     0.029 A 
ATOM     62  C   UNL A   1      47.413  35.185  27.809  1.00  0.00     0.049 A 
ATOM     63  H   UNL A   1      45.849  34.051  28.658  1.00  0.00     0.167 HD
ATOM     64  C   UNL A   1      48.444  32.970  28.242  1.00  0.00     0.074 A 
ATOM     65  C   UNL A   1      49.549  32.034  28.208  1.00  0.00     0.031 C 
ATOM     66  C   UNL A   1      48.507  34.246  27.788  1.00  0.00     0.037 A 
BRANCH  53  67
ATOM     67  C   UNL A   1      43.224  37.404  28.363  1.00  0.00     0.064 A 
ATOM     68  C   UNL A   1      43.276  38.406  29.343  1.00  0.00     0.173 A 
ATOM     69  C   UNL A   1      42.435  37.639  27.227  1.00  0.00     0.173 A 
ATOM     70  F   UNL A   1      44.016  38.235  30.448  1.00  0.00    -0.203 F 
ATOM     71  C   UNL A   1      42.554  39.589  29.199  1.00  0.00     0.198 A 
ATOM     72  C   UNL A   1      41.743  38.837  27.069  1.00  0.00     0.198 A 
ATOM     73  F   UNL A   1      42.366  36.721  26.250  1.00  0.00    -0.203 F 
ATOM     74  F   UNL A   1      42.595  40.517  30.163  1.00  0.00    -0.200 F 
ATOM     75  C   UNL A   1      41.794  39.805  28.059  1.00  0.00     0.200 A 
ATOM     76  F   UNL A   1      41.034  39.058  25.953  1.00  0.00    -0.200 F 
ATOM     77  F   UNL A   1      41.115  40.952  27.914  1.00  0.00    -0.200 F 
ENDBRANCH  53  67
BRANCH  54  78
ATOM     78  C   UNL A   1      47.756  28.651  30.010  1.00  0.00     0.064 A 
ATOM     79  C   UNL A   1      47.678  27.582  29.104  1.00  0.00     0.173 A 
ATOM     80  C   UNL A   1      48.471  28.445  31.198  1.00  0.00     0.173 A 
ATOM     81  F   UNL A   1      47.007  27.728  27.952  1.00  0.00    -0.203 F 
ATOM     82  C   UNL A   1      48.259  26.349  29.391  1.00  0.00     0.198 A 
ATOM     83  C   UNL A   1      49.076  27.220  31.472  1.00  0.00     0.198 A 
ATOM     84  F   UNL A   1      48.597  29.444  32.085  1.00  0.00    -0.203 F 
ATOM     85  F   UNL A   1      48.129  25.333  28.528  1.00  0.00    -0.200 F 
ATOM     86  C   UNL A   1      48.959  26.170  30.574  1.00  0.00     0.200 A 
ATOM     87  F   UNL A   1      49.771  27.057  32.606  1.00  0.00    -0.200 F 
ATOM     88  F   UNL A   1      49.519  24.984  30.850  1.00  0.00    -0.200 F 
ENDBRANCH  54  78
BRANCH  66  89
ATOM     89  C   UNL A   1      49.819  34.736  27.242  1.00  0.00     0.064 A 
ATOM     90  C   UNL A   1      50.059  34.724  25.858  1.00  0.00     0.173 A 
ATOM     91  C   UNL A   1      50.868  35.130  28.085  1.00  0.00     0.173 A 
ATOM     92  F   UNL A   1      49.095  34.345  25.007  1.00  0.00    -0.203 F 
ATOM     93  C   UNL A   1      51.305  35.071  25.342  1.00  0.00     0.198 A 
ATOM     94  C   UNL A   1      52.102  35.510  27.562  1.00  0.00     0.198 A 
ATOM     95  F   UNL A   1      50.690  35.167  29.414  1.00  0.00    -0.203 F 
ATOM     96  F   UNL A   1      51.522  35.009  24.021  1.00  0.00    -0.200 F 
ATOM     97  C   UNL A   1      52.323  35.469  26.193  1.00  0.00     0.200 A 
ATOM     98  F   UNL A   1      53.078  35.920  28.384  1.00  0.00    -0.200 F 
ATOM     99  F   UNL A   1      53.518  35.816  25.694  1.00  0.00    -0.200 F 
ENDBRANCH  66  89
ENDBRANCH  40  41
ENDBRANCH  33  35
ENDBRANCH  32  33
ENDBRANCH  31  32
ENDBRANCH  30  31
ENDBRANCH  29  30
ENDBRANCH  28  29
ENDBRANCH  27  28
ENDBRANCH  26  27
ENDBRANCH  25  26
ENDBRANCH   1  25
TORSDOF 25
ENDMDL
MODEL 3
REMARK VINA RESULT:      -6.5      6.711     13.791
REMARK SMILES O=C(/C=C/c1cc(F)cc(COCc2ccco2)c1)OCCOCCOCCOCCOC(=O)c1ccc(-c2c3nc(c(-c4c(F)c(F)c(F)c(F)c4F)c4ccc([nH]4)c(-c4c(F)c(F)c(F)c(F)c4F)c4nc(c(-c5c(F)c(F)c(F)c(F)c5F)c5ccc2[nH]5)C=C4)C=C3)cc1
REMARK SMILES IDX 24 1 23 2 22 3 21 4 20 5 2 6 1 7 3 8 4 9 5 10 6 11 19 12
REMARK SMILES IDX 7 13 10 14 8 15 9 16 11 17 12 18 13 19 14 20 15 21 18 22
REMARK SMILES IDX 16 23 17 24 25 25 26 26 27 27 28 28 29 29 30 30 31 31 32 32
REMARK SMILES IDX 33 33 34 34 35 35 36 36 97 37 37 38 96 39 38 40 39 41 40 42
REMARK SMILES IDX 90 43 41 44 95 45 89 46 91 47 42 48 94 49 88 50 87 51 43 53
REMARK SMILES IDX 75 54 55 55 74 56 56 57 59 58 73 59 92 60 57 61 58 62 72 64
REMARK SMILES IDX 93 65 60 66 44 67 45 68 53 69 46 70 47 71 51 72 54 73 48 74
REMARK SMILES IDX 49 75 52 76 50 77 76 78 77 79 85 80 78 81 79 82 83 83 86 84
REMARK SMILES IDX 80 85 81 86 84 87 82 88 61 89 62 90 70 91 63 92 64 93 68 94
REMARK SMILES IDX 71 95 65 96 66 97 69 98 67 99
REMARK H PARENT 91 52 59 63
REMARK Flexibility Score: inf
ROOT
ATOM      1  C   UNL A   1      49.066  20.734  34.116  1.00  0.00     0.188 C 
ENDROOT
BRANCH   1   2
ATOM      2  O   UNL A   1      50.316  20.701  34.792  1.00  0.00    -0.376 OA
BRANCH   2   3
ATOM      3  C   UNL A   1      50.642  19.987  35.963  1.00  0.00     0.202 C 
BRANCH   3   4
ATOM      4  C   UNL A   1      50.682  20.620  37.346  1.00  0.00     0.261 C 
BRANCH   4   5
ATOM      5  O   UNL A   1      49.613  20.343  38.251  1.00  0.00    -0.460 OA
BRANCH   5   6
ATOM      6  C   UNL A   1      49.536  19.317  39.127  1.00  0.00     0.330 C 
ATOM      7  O   UNL A   1      50.533  18.647  39.377  1.00  0.00    -0.247 OA
BRANCH   6   8
ATOM      8  C   UNL A   1      48.217  18.796  39.527  1.00  0.00     0.094 C 
ATOM      9  C   UNL A   1      47.101  18.674  38.796  1.00  0.00     0.016 C 
BRANCH   9  10
ATOM     10  C   UNL A   1      45.912  17.992  39.329  1.00  0.00    -0.022 A 
ATOM     11  C   UNL A   1      45.105  17.212  38.500  1.00  0.00     0.047 A 
ATOM     12  C   UNL A   1      45.588  18.096  40.695  1.00  0.00     0.014 A 
ATOM     13  C   UNL A   1      44.016  16.535  39.037  1.00  0.00     0.124 A 
ATOM     14  C   UNL A   1      44.488  17.406  41.239  1.00  0.00    -0.019 A 
ATOM     15  F   UNL A   1      43.262  15.773  38.235  1.00  0.00    -0.207 F 
ATOM     16  C   UNL A   1      43.707  16.615  40.390  1.00  0.00     0.045 A 
BRANCH  14  17
ATOM     17  C   UNL A   1      44.183  17.470  42.718  1.00  0.00     0.196 C 
BRANCH  17  18
ATOM     18  O   UNL A   1      43.782  16.230  43.295  1.00  0.00    -0.369 OA
BRANCH  18  19
ATOM     19  C   UNL A   1      43.141  15.304  42.412  1.00  0.00     0.235 C 
BRANCH  19  20
ATOM     20  C   UNL A   1      42.834  14.025  43.106  1.00  0.00     0.129 A 
ATOM     21  C   UNL A   1      41.740  13.182  43.127  1.00  0.00     0.048 A 
ATOM     22  O   UNL A   1      43.853  13.460  43.823  1.00  0.00    -0.467 OA
ATOM     23  C   UNL A   1      42.100  12.061  43.909  1.00  0.00     0.042 A 
ATOM     24  C   UNL A   1      43.401  12.269  44.295  1.00  0.00     0.195 A 
ENDBRANCH  19  20
ENDBRANCH  18  19
ENDBRANCH  17  18
ENDBRANCH  14  17
ENDBRANCH   9  10
ENDBRANCH   6   8
ENDBRANCH   5   6
ENDBRANCH   4   5
ENDBRANCH   3   4
ENDBRANCH   2   3
ENDBRANCH   1   2
BRANCH   1  25
ATOM     25  C   UNL A   1      47.741  21.045  34.823  1.00  0.00     0.188 C 
BRANCH  25  26
ATOM     26  O   UNL A   1      46.877  22.027  34.272  1.00  0.00    -0.377 OA
BRANCH  26  27
ATOM     27  C   UNL A   1      45.985  22.605  35.208  1.00  0.00     0.188 C 
BRANCH  27  28
ATOM     28  C   UNL A   1      46.235  22.100  36.637  1.00  0.00     0.188 C 
BRANCH  28  29
ATOM     29  O   UNL A   1      46.646  23.099  37.543  1.00  0.00    -0.376 OA
BRANCH  29  30
ATOM     30  C   UNL A   1      48.016  23.436  37.696  1.00  0.00     0.202 C 
BRANCH  30  31
ATOM     31  C   UNL A   1      48.717  24.698  37.146  1.00  0.00     0.261 C 
BRANCH  31  32
ATOM     32  O   UNL A   1      47.964  25.641  36.378  1.00  0.00    -0.460 OA
BRANCH  32  33
ATOM     33  C   UNL A   1      47.069  26.411  37.025  1.00  0.00     0.338 C 
ATOM     34  O   UNL A   1      47.172  26.890  38.143  1.00  0.00    -0.246 OA
BRANCH  33  35
ATOM     35  C   UNL A   1      46.032  26.798  36.040  1.00  0.00     0.060 A 
ATOM     36  C   UNL A   1      46.277  27.905  35.214  1.00  0.00     0.016 A 
ATOM     37  C   UNL A   1      44.862  26.049  35.885  1.00  0.00     0.016 A 
ATOM     38  C   UNL A   1      45.330  28.303  34.274  1.00  0.00     0.010 A 
ATOM     39  C   UNL A   1      43.897  26.465  34.962  1.00  0.00     0.010 A 
ATOM     40  C   UNL A   1      44.109  27.623  34.192  1.00  0.00    -0.014 A 
BRANCH  40  41
ATOM     41  C   UNL A   1      42.968  28.285  33.517  1.00  0.00     0.031 A 
ATOM     42  C   UNL A   1      42.730  27.955  32.068  1.00  0.00     0.074 A 
ATOM     43  C   UNL A   1      42.126  29.099  34.174  1.00  0.00     0.049 A 
ATOM     44  N   UNL A   1      41.818  28.406  31.248  1.00  0.00    -0.248 NA
ATOM     45  C   UNL A   1      43.652  26.978  31.464  1.00  0.00     0.031 C 
ATOM     46  C   UNL A   1      42.216  29.442  35.590  1.00  0.00     0.029 A 
ATOM     47  N   UNL A   1      41.024  29.784  33.726  1.00  0.00    -0.354 N 
ATOM     48  C   UNL A   1      42.057  27.770  30.038  1.00  0.00     0.074 A 
ATOM     49  C   UNL A   1      43.224  26.937  30.213  1.00  0.00     0.031 C 
ATOM     50  C   UNL A   1      41.207  30.276  35.898  1.00  0.00     0.029 A 
ATOM     51  C   UNL A   1      40.423  30.550  34.693  1.00  0.00     0.049 A 
ATOM     52  H   UNL A   1      40.695  29.730  32.800  1.00  0.00     0.167 HD
ATOM     53  C   UNL A   1      41.353  27.859  28.885  1.00  0.00     0.037 A 
ATOM     54  C   UNL A   1      39.370  31.389  34.605  1.00  0.00     0.037 A 
ATOM     55  C   UNL A   1      40.195  28.693  28.714  1.00  0.00     0.049 A 
ATOM     56  C   UNL A   1      38.659  31.550  33.287  1.00  0.00     0.074 A 
ATOM     57  C   UNL A   1      39.417  28.863  27.584  1.00  0.00     0.029 A 
ATOM     58  N   UNL A   1      39.653  29.504  29.701  1.00  0.00    -0.354 N 
ATOM     59  N   UNL A   1      38.890  30.951  32.143  1.00  0.00    -0.248 NA
ATOM     60  C   UNL A   1      37.539  32.500  33.246  1.00  0.00     0.031 C 
ATOM     61  C   UNL A   1      38.441  29.822  27.868  1.00  0.00     0.029 A 
ATOM     62  C   UNL A   1      38.564  30.196  29.197  1.00  0.00     0.049 A 
ATOM     63  H   UNL A   1      39.992  29.576  30.623  1.00  0.00     0.167 HD
ATOM     64  C   UNL A   1      37.930  31.426  31.257  1.00  0.00     0.074 A 
ATOM     65  C   UNL A   1      37.106  32.358  32.000  1.00  0.00     0.031 C 
ATOM     66  C   UNL A   1      37.747  31.115  29.950  1.00  0.00     0.037 A 
BRANCH  53  67
ATOM     67  C   UNL A   1      41.830  27.047  27.716  1.00  0.00     0.064 A 
ATOM     68  C   UNL A   1      41.370  25.736  27.526  1.00  0.00     0.173 A 
ATOM     69  C   UNL A   1      42.772  27.550  26.805  1.00  0.00     0.173 A 
ATOM     70  F   UNL A   1      40.469  25.206  28.367  1.00  0.00    -0.203 F 
ATOM     71  C   UNL A   1      41.846  24.953  26.476  1.00  0.00     0.198 A 
ATOM     72  C   UNL A   1      43.219  26.777  25.736  1.00  0.00     0.198 A 
ATOM     73  F   UNL A   1      43.229  28.805  26.929  1.00  0.00    -0.203 F 
ATOM     74  F   UNL A   1      41.415  23.693  26.335  1.00  0.00    -0.200 F 
ATOM     75  C   UNL A   1      42.764  25.477  25.579  1.00  0.00     0.200 A 
ATOM     76  F   UNL A   1      44.082  27.295  24.851  1.00  0.00    -0.200 F 
ATOM     77  F   UNL A   1      43.207  24.729  24.558  1.00  0.00    -0.200 F 
ENDBRANCH  53  67
BRANCH  54  78
ATOM     78  C   UNL A   1      38.922  32.126  35.816  1.00  0.00     0.064 A 
ATOM     79  C   UNL A   1      39.286  33.462  36.035  1.00  0.00     0.173 A 
ATOM     80  C   UNL A   1      38.147  31.494  36.799  1.00  0.00     0.173 A 
ATOM     81  F   UNL A   1      40.025  34.114  35.125  1.00  0.00    -0.203 F 
ATOM     82  C   UNL A   1      38.923  34.127  37.205  1.00  0.00     0.198 A 
ATOM     83  C   UNL A   1      37.760  32.168  37.956  1.00  0.00     0.198 A 
ATOM     84  F   UNL A   1      37.751  30.224  36.624  1.00  0.00    -0.203 F 
ATOM     85  F   UNL A   1      39.324  35.389  37.407  1.00  0.00    -0.200 F 
ATOM     86  C   UNL A   1      38.159  33.480  38.162  1.00  0.00     0.200 A 
ATOM     87  F   UNL A   1      37.003  31.547  38.869  1.00  0.00    -0.200 F 
ATOM     88  F   UNL A   1      37.808  34.119  39.287  1.00  0.00    -0.200 F 
ENDBRANCH  54  78
BRANCH  66  89
ATOM     89  C   UNL A   1      36.593  31.754  29.229  1.00  0.00     0.064 A 
ATOM     90  C   UNL A   1      36.596  33.134  28.971  1.00  0.00     0.173 A 
ATOM     91  C   UNL A   1      35.449  31.024  28.875  1.00  0.00     0.173 A 
ATOM     92  F   UNL A   1      37.659  33.882  29.301  1.00  0.00    -0.203 F 
ATOM     93  C   UNL A   1      35.490  33.761  28.403  1.00  0.00     0.198 A 
ATOM     94  C   UNL A   1      34.359  31.649  28.274  1.00  0.00     0.198 A 
ATOM     95  F   UNL A   1      35.397  29.701  29.092  1.00  0.00    -0.203 F 
ATOM     96  F   UNL A   1      35.501  35.087  28.208  1.00  0.00    -0.200 F 
ATOM     97  C   UNL A   1      34.375  33.018  28.050  1.00  0.00     0.200 A 
ATOM     98  F   UNL A   1      33.291  30.925  27.909  1.00  0.00    -0.200 F 
ATOM     99  F   UNL A   1      33.317  33.621  27.490  1.00  0.00    -0.200 F 
ENDBRANCH  66  89
ENDBRANCH  40  41
ENDBRANCH  33  35
ENDBRANCH  32  33
ENDBRANCH  31  32
ENDBRANCH  30  31
ENDBRANCH  29  30
ENDBRANCH  28  29
ENDBRANCH  27  28
ENDBRANCH  26  27
ENDBRANCH  25  26
ENDBRANCH   1  25
TORSDOF 25
ENDMDL
