MODEL 1
REMARK VINA RESULT:     -11.1      0.000      0.000
REMARK SMILES CC(=O)NS(=O)(=O)c1ccc(-c2ccn(C(F)F)c(=O)c2)cc1C(=O)OCCOCCOCCOCCOC(=O)c1ccc(-c2c3nc(c(-c4c(F)c(F)c(F)c(F)c4F)c4ccc([nH]4)c(-c4c(F)c(F)c(F)c(F)c4F)c4nc(c(-c5c(F)c(F)c(F)c(F)c5F)c5ccc2[nH]5)C=C4)C=C3)cc1
REMARK SMILES IDX 32 1 31 2 30 3 29 4 28 5 27 6 26 7 24 8 25 9 23 10 8 11 9 12
REMARK SMILES IDX 10 13 22 14 11 15 5 16 6 17 7 18 4 19 1 20 2 21 3 22 12 24
REMARK SMILES IDX 13 25 21 26 14 27 19 28 15 29 20 30 16 31 17 32 18 33 33 34
REMARK SMILES IDX 34 35 35 36 36 37 37 38 38 39 39 40 40 41 41 42 42 43 103 44
REMARK SMILES IDX 43 45 102 46 44 47 45 48 46 49 96 50 47 51 101 52 95 53
REMARK SMILES IDX 97 54 48 55 100 56 94 57 93 58 49 60 81 61 61 62 80 63 62 64
REMARK SMILES IDX 65 65 79 66 98 67 63 68 64 69 78 71 99 72 66 73 50 74 51 75
REMARK SMILES IDX 59 76 52 77 53 78 57 79 60 80 54 81 55 82 58 83 56 84 82 85
REMARK SMILES IDX 83 86 91 87 84 88 85 89 89 90 92 91 86 92 87 93 90 94 88 95
REMARK SMILES IDX 67 96 68 97 76 98 69 99 70 100 74 101 77 102 71 103 72 104
REMARK SMILES IDX 75 105 73 106
REMARK H PARENT 4 23 97 59 65 70
REMARK Flexibility Score: inf
ROOT
ATOM      1  O   UNL A   1      35.214  23.867  24.191  1.00  0.00    -0.377 OA
ENDROOT
BRANCH   1   2
ATOM      2  C   UNL A   1      34.544  22.842  23.476  1.00  0.00     0.188 C 
BRANCH   2   3
ATOM      3  C   UNL A   1      33.535  23.273  22.405  1.00  0.00     0.188 C 
BRANCH   3   4
ATOM      4  O   UNL A   1      33.294  24.679  22.414  1.00  0.00    -0.376 OA
BRANCH   4   5
ATOM      5  C   UNL A   1      32.633  25.234  21.286  1.00  0.00     0.202 C 
BRANCH   5   6
ATOM      6  C   UNL A   1      31.880  26.537  21.593  1.00  0.00     0.261 C 
BRANCH   6   7
ATOM      7  O   UNL A   1      32.224  27.145  22.851  1.00  0.00    -0.460 OA
BRANCH   7   8
ATOM      8  C   UNL A   1      31.431  28.137  23.276  1.00  0.00     0.339 C 
ATOM      9  O   UNL A   1      30.687  28.796  22.566  1.00  0.00    -0.246 OA
BRANCH   8  10
ATOM     10  C   UNL A   1      31.411  28.265  24.760  1.00  0.00     0.081 A 
ATOM     11  C   UNL A   1      31.035  27.285  25.689  1.00  0.00     0.102 A 
ATOM     12  C   UNL A   1      31.406  27.441  27.034  1.00  0.00     0.024 A 
ATOM     13  C   UNL A   1      31.940  28.643  27.492  1.00  0.00     0.010 A 
ATOM     14  C   UNL A   1      31.936  29.485  25.239  1.00  0.00     0.025 A 
ATOM     15  C   UNL A   1      32.157  29.696  26.603  1.00  0.00    -0.017 A 
BRANCH  11  16
ATOM     16  S   UNL A   1      29.935  25.951  25.288  1.00  0.00     0.264 S 
ATOM     17  O   UNL A   1      29.069  26.419  24.230  1.00  0.00    -0.201 OA
ATOM     18  O   UNL A   1      29.432  25.356  26.502  1.00  0.00    -0.201 OA
BRANCH  16  19
ATOM     19  N   UNL A   1      30.916  24.764  24.598  1.00  0.00    -0.249 N 
ATOM     20  C   UNL A   1      32.527  24.045  26.366  1.00  0.00     0.115 C 
ATOM     21  C   UNL A   1      31.465  23.700  25.354  1.00  0.00     0.230 C 
ATOM     22  O   UNL A   1      31.234  22.545  25.024  1.00  0.00    -0.274 OA
ATOM     23  H   UNL A   1      31.115  24.814  23.635  1.00  0.00     0.183 HD
ENDBRANCH  16  19
ENDBRANCH  11  16
BRANCH  15  24
ATOM     24  C   UNL A   1      32.651  30.992  27.094  1.00  0.00    -0.011 A 
ATOM     25  C   UNL A   1      31.876  32.217  27.037  1.00  0.00     0.027 A 
ATOM     26  C   UNL A   1      33.884  31.019  27.626  1.00  0.00     0.080 A 
ATOM     27  C   UNL A   1      32.390  33.364  27.502  1.00  0.00     0.095 A 
ATOM     28  C   UNL A   1      34.463  32.280  28.154  1.00  0.00     0.255 A 
ATOM     29  N   UNL A   1      33.661  33.404  28.048  1.00  0.00    -0.258 N 
ATOM     30  O   UNL A   1      35.588  32.243  28.641  1.00  0.00    -0.269 OA
BRANCH  29  31
ATOM     31  C   UNL A   1      34.219  34.642  28.528  1.00  0.00     0.451 C 
ATOM     32  F   UNL A   1      33.488  35.702  28.106  1.00  0.00    -0.185 F 
ATOM     33  F   UNL A   1      34.247  34.662  29.883  1.00  0.00    -0.185 F 
ENDBRANCH  29  31
ENDBRANCH  15  24
ENDBRANCH   8  10
ENDBRANCH   7   8
ENDBRANCH   6   7
ENDBRANCH   5   6
ENDBRANCH   4   5
ENDBRANCH   3   4
ENDBRANCH   2   3
ENDBRANCH   1   2
BRANCH   1  34
ATOM     34  C   UNL A   1      36.375  23.468  24.903  1.00  0.00     0.188 C 
BRANCH  34  35
ATOM     35  C   UNL A   1      37.115  22.262  24.282  1.00  0.00     0.188 C 
BRANCH  35  36
ATOM     36  O   UNL A   1      38.042  21.466  25.018  1.00  0.00    -0.376 OA
BRANCH  36  37
ATOM     37  C   UNL A   1      37.963  20.052  25.002  1.00  0.00     0.202 C 
BRANCH  37  38
ATOM     38  C   UNL A   1      39.212  19.250  25.398  1.00  0.00     0.261 C 
BRANCH  38  39
ATOM     39  O   UNL A   1      40.108  19.901  26.307  1.00  0.00    -0.460 OA
BRANCH  39  40
ATOM     40  C   UNL A   1      41.416  19.593  26.147  1.00  0.00     0.338 C 
ATOM     41  O   UNL A   1      41.890  18.541  25.752  1.00  0.00    -0.246 OA
BRANCH  40  42
ATOM     42  C   UNL A   1      42.231  20.799  26.406  1.00  0.00     0.060 A 
ATOM     43  C   UNL A   1      42.274  21.300  27.713  1.00  0.00     0.016 A 
ATOM     44  C   UNL A   1      42.912  21.452  25.376  1.00  0.00     0.016 A 
ATOM     45  C   UNL A   1      42.975  22.471  27.991  1.00  0.00     0.010 A 
ATOM     46  C   UNL A   1      43.588  22.645  25.647  1.00  0.00     0.010 A 
ATOM     47  C   UNL A   1      43.592  23.175  26.950  1.00  0.00    -0.014 A 
BRANCH  47  48
ATOM     48  C   UNL A   1      44.041  24.566  27.189  1.00  0.00     0.031 A 
ATOM     49  C   UNL A   1      43.016  25.573  27.634  1.00  0.00     0.074 A 
ATOM     50  C   UNL A   1      45.329  24.923  27.053  1.00  0.00     0.049 A 
ATOM     51  N   UNL A   1      43.154  26.849  27.888  1.00  0.00    -0.248 NA
ATOM     52  C   UNL A   1      41.646  25.067  27.820  1.00  0.00     0.031 C 
ATOM     53  C   UNL A   1      46.419  24.028  26.675  1.00  0.00     0.029 A 
ATOM     54  N   UNL A   1      45.933  26.145  27.216  1.00  0.00    -0.354 N 
ATOM     55  C   UNL A   1      41.894  27.294  28.262  1.00  0.00     0.074 A 
ATOM     56  C   UNL A   1      40.996  26.164  28.176  1.00  0.00     0.031 C 
ATOM     57  C   UNL A   1      47.562  24.735  26.620  1.00  0.00     0.029 A 
ATOM     58  C   UNL A   1      47.276  26.136  26.932  1.00  0.00     0.049 A 
ATOM     59  H   UNL A   1      45.449  26.951  27.509  1.00  0.00     0.167 HD
ATOM     60  C   UNL A   1      41.520  28.536  28.650  1.00  0.00     0.037 A 
ATOM     61  C   UNL A   1      48.163  27.150  26.909  1.00  0.00     0.037 A 
ATOM     62  C   UNL A   1      42.411  29.662  28.725  1.00  0.00     0.049 A 
ATOM     63  C   UNL A   1      47.703  28.542  27.266  1.00  0.00     0.074 A 
ATOM     64  C   UNL A   1      42.131  30.960  29.113  1.00  0.00     0.029 A 
ATOM     65  N   UNL A   1      43.757  29.623  28.393  1.00  0.00    -0.354 N 
ATOM     66  N   UNL A   1      46.517  28.953  27.643  1.00  0.00    -0.248 NA
ATOM     67  C   UNL A   1      48.710  29.611  27.195  1.00  0.00     0.031 C 
ATOM     68  C   UNL A   1      43.298  31.718  28.969  1.00  0.00     0.029 A 
ATOM     69  C   UNL A   1      44.317  30.881  28.542  1.00  0.00     0.049 A 
ATOM     70  H   UNL A   1      44.242  28.820  28.096  1.00  0.00     0.167 HD
ATOM     71  C   UNL A   1      46.641  30.316  27.881  1.00  0.00     0.074 A 
ATOM     72  C   UNL A   1      48.022  30.662  27.617  1.00  0.00     0.031 C 
ATOM     73  C   UNL A   1      45.696  31.203  28.284  1.00  0.00     0.037 A 
BRANCH  60  74
ATOM     74  C   UNL A   1      40.075  28.745  28.991  1.00  0.00     0.064 A 
ATOM     75  C   UNL A   1      39.595  28.572  30.299  1.00  0.00     0.173 A 
ATOM     76  C   UNL A   1      39.163  29.140  28.002  1.00  0.00     0.173 A 
ATOM     77  F   UNL A   1      40.424  28.176  31.276  1.00  0.00    -0.203 F 
ATOM     78  C   UNL A   1      38.248  28.765  30.597  1.00  0.00     0.198 A 
ATOM     79  C   UNL A   1      37.823  29.360  28.310  1.00  0.00     0.198 A 
ATOM     80  F   UNL A   1      39.571  29.319  26.738  1.00  0.00    -0.203 F 
ATOM     81  F   UNL A   1      37.802  28.551  31.842  1.00  0.00    -0.200 F 
ATOM     82  C   UNL A   1      37.366  29.166  29.605  1.00  0.00     0.200 A 
ATOM     83  F   UNL A   1      36.973  29.756  27.353  1.00  0.00    -0.200 F 
ATOM     84  F   UNL A   1      36.072  29.358  29.895  1.00  0.00    -0.200 F 
ENDBRANCH  60  74
BRANCH  61  85
ATOM     85  C   UNL A   1      49.575  26.897  26.518  1.00  0.00     0.064 A 
ATOM     86  C   UNL A   1      49.982  26.977  25.180  1.00  0.00     0.173 A 
ATOM     87  C   UNL A   1      50.539  26.542  27.474  1.00  0.00     0.173 A 
ATOM     88  F   UNL A   1      49.090  27.282  24.226  1.00  0.00    -0.203 F 
ATOM     89  C   UNL A   1      51.294  26.692  24.808  1.00  0.00     0.198 A 
ATOM     90  C   UNL A   1      51.858  26.285  27.104  1.00  0.00     0.198 A 
ATOM     91  F   UNL A   1      50.199  26.445  28.767  1.00  0.00    -0.203 F 
ATOM     92  F   UNL A   1      51.645  26.727  23.515  1.00  0.00    -0.200 F 
ATOM     93  C   UNL A   1      52.232  26.353  25.771  1.00  0.00     0.200 A 
ATOM     94  F   UNL A   1      52.762  25.964  28.040  1.00  0.00    -0.200 F 
ATOM     95  F   UNL A   1      53.494  26.079  25.414  1.00  0.00    -0.200 F 
ENDBRANCH  61  85
BRANCH  73  96
ATOM     96  C   UNL A   1      46.130  32.625  28.502  1.00  0.00     0.064 A 
ATOM     97  C   UNL A   1      46.048  33.585  27.483  1.00  0.00     0.173 A 
ATOM     98  C   UNL A   1      46.585  33.041  29.763  1.00  0.00     0.173 A 
ATOM     99  F   UNL A   1      45.631  33.235  26.258  1.00  0.00    -0.203 F 
ATOM    100  C   UNL A   1      46.427  34.905  27.712  1.00  0.00     0.198 A 
ATOM    101  C   UNL A   1      46.935  34.367  29.997  1.00  0.00     0.198 A 
ATOM    102  F   UNL A   1      46.674  32.163  30.774  1.00  0.00    -0.203 F 
ATOM    103  F   UNL A   1      46.381  35.796  26.713  1.00  0.00    -0.200 F 
ATOM    104  C   UNL A   1      46.863  35.296  28.971  1.00  0.00     0.200 A 
ATOM    105  F   UNL A   1      47.341  34.747  31.216  1.00  0.00    -0.200 F 
ATOM    106  F   UNL A   1      47.218  36.569  29.191  1.00  0.00    -0.200 F 
ENDBRANCH  73  96
ENDBRANCH  47  48
ENDBRANCH  40  42
ENDBRANCH  39  40
ENDBRANCH  38  39
ENDBRANCH  37  38
ENDBRANCH  36  37
ENDBRANCH  35  36
ENDBRANCH  34  35
ENDBRANCH   1  34
TORSDOF 24
ENDMDL
MODEL 2
REMARK VINA RESULT:      -9.6      5.494     11.156
REMARK SMILES CC(=O)NS(=O)(=O)c1ccc(-c2ccn(C(F)F)c(=O)c2)cc1C(=O)OCCOCCOCCOCCOC(=O)c1ccc(-c2c3nc(c(-c4c(F)c(F)c(F)c(F)c4F)c4ccc([nH]4)c(-c4c(F)c(F)c(F)c(F)c4F)c4nc(c(-c5c(F)c(F)c(F)c(F)c5F)c5ccc2[nH]5)C=C4)C=C3)cc1
REMARK SMILES IDX 32 1 31 2 30 3 29 4 28 5 27 6 26 7 24 8 25 9 23 10 8 11 9 12
REMARK SMILES IDX 10 13 22 14 11 15 5 16 6 17 7 18 4 19 1 20 2 21 3 22 12 24
REMARK SMILES IDX 13 25 21 26 14 27 19 28 15 29 20 30 16 31 17 32 18 33 33 34
REMARK SMILES IDX 34 35 35 36 36 37 37 38 38 39 39 40 40 41 41 42 42 43 103 44
REMARK SMILES IDX 43 45 102 46 44 47 45 48 46 49 96 50 47 51 101 52 95 53
REMARK SMILES IDX 97 54 48 55 100 56 94 57 93 58 49 60 81 61 61 62 80 63 62 64
REMARK SMILES IDX 65 65 79 66 98 67 63 68 64 69 78 71 99 72 66 73 50 74 51 75
REMARK SMILES IDX 59 76 52 77 53 78 57 79 60 80 54 81 55 82 58 83 56 84 82 85
REMARK SMILES IDX 83 86 91 87 84 88 85 89 89 90 92 91 86 92 87 93 90 94 88 95
REMARK SMILES IDX 67 96 68 97 76 98 69 99 70 100 74 101 77 102 71 103 72 104
REMARK SMILES IDX 75 105 73 106
REMARK H PARENT 4 23 97 59 65 70
REMARK Flexibility Score: inf
ROOT
ATOM      1  O   UNL A   1      35.576  33.185  34.118  1.00  0.00    -0.377 OA
ENDROOT
BRANCH   1   2
ATOM      2  C   UNL A   1      36.530  32.324  33.518  1.00  0.00     0.188 C 
BRANCH   2   3
ATOM      3  C   UNL A   1      37.556  32.959  32.573  1.00  0.00     0.188 C 
BRANCH   3   4
ATOM      4  O   UNL A   1      38.791  33.253  33.223  1.00  0.00    -0.376 OA
BRANCH   4   5
ATOM      5  C   UNL A   1      38.896  34.503  33.889  1.00  0.00     0.202 C 
BRANCH   5   6
ATOM      6  C   UNL A   1      40.225  34.693  34.637  1.00  0.00     0.261 C 
BRANCH   6   7
ATOM      7  O   UNL A   1      40.090  34.881  36.057  1.00  0.00    -0.460 OA
BRANCH   7   8
ATOM      8  C   UNL A   1      40.619  33.934  36.842  1.00  0.00     0.339 C 
ATOM      9  O   UNL A   1      41.434  34.130  37.730  1.00  0.00    -0.246 OA
BRANCH   8  10
ATOM     10  C   UNL A   1      39.985  32.601  36.646  1.00  0.00     0.081 A 
ATOM     11  C   UNL A   1      38.639  32.265  36.850  1.00  0.00     0.102 A 
ATOM     12  C   UNL A   1      38.138  31.079  36.288  1.00  0.00     0.024 A 
ATOM     13  C   UNL A   1      38.997  30.137  35.727  1.00  0.00     0.010 A 
ATOM     14  C   UNL A   1      40.847  31.630  36.092  1.00  0.00     0.025 A 
ATOM     15  C   UNL A   1      40.369  30.384  35.676  1.00  0.00    -0.017 A 
BRANCH  11  16
ATOM     16  S   UNL A   1      37.582  33.162  37.958  1.00  0.00     0.264 S 
ATOM     17  O   UNL A   1      36.329  33.375  37.271  1.00  0.00    -0.201 OA
ATOM     18  O   UNL A   1      38.326  34.232  38.576  1.00  0.00    -0.201 OA
BRANCH  16  19
ATOM     19  N   UNL A   1      37.248  32.085  39.214  1.00  0.00    -0.249 N 
ATOM     20  C   UNL A   1      35.812  33.311  40.849  1.00  0.00     0.115 C 
ATOM     21  C   UNL A   1      36.036  32.126  39.946  1.00  0.00     0.230 C 
ATOM     22  O   UNL A   1      35.329  31.128  39.996  1.00  0.00    -0.274 OA
ATOM     23  H   UNL A   1      37.920  31.405  39.447  1.00  0.00     0.183 HD
ENDBRANCH  16  19
ENDBRANCH  11  16
BRANCH  15  24
ATOM     24  C   UNL A   1      41.288  29.361  35.153  1.00  0.00    -0.011 A 
ATOM     25  C   UNL A   1      41.352  28.984  33.753  1.00  0.00     0.027 A 
ATOM     26  C   UNL A   1      42.106  28.761  36.033  1.00  0.00     0.080 A 
ATOM     27  C   UNL A   1      42.213  28.042  33.346  1.00  0.00     0.095 A 
ATOM     28  C   UNL A   1      43.071  27.721  35.595  1.00  0.00     0.255 A 
ATOM     29  N   UNL A   1      43.057  27.413  34.245  1.00  0.00    -0.258 N 
ATOM     30  O   UNL A   1      43.803  27.216  36.439  1.00  0.00    -0.269 OA
BRANCH  29  31
ATOM     31  C   UNL A   1      43.966  26.386  33.807  1.00  0.00     0.451 C 
ATOM     32  F   UNL A   1      43.542  25.160  34.200  1.00  0.00    -0.185 F 
ATOM     33  F   UNL A   1      44.074  26.383  32.456  1.00  0.00    -0.185 F 
ENDBRANCH  29  31
ENDBRANCH  15  24
ENDBRANCH   8  10
ENDBRANCH   7   8
ENDBRANCH   6   7
ENDBRANCH   5   6
ENDBRANCH   4   5
ENDBRANCH   3   4
ENDBRANCH   2   3
ENDBRANCH   1   2
BRANCH   1  34
ATOM     34  C   UNL A   1      34.369  33.371  33.396  1.00  0.00     0.188 C 
BRANCH  34  35
ATOM     35  C   UNL A   1      34.390  34.573  32.426  1.00  0.00     0.188 C 
BRANCH  35  36
ATOM     36  O   UNL A   1      34.254  34.425  31.014  1.00  0.00    -0.376 OA
BRANCH  36  37
ATOM     37  C   UNL A   1      34.468  33.173  30.389  1.00  0.00     0.202 C 
BRANCH  37  38
ATOM     38  C   UNL A   1      35.617  33.051  29.377  1.00  0.00     0.261 C 
BRANCH  38  39
ATOM     39  O   UNL A   1      35.285  32.428  28.130  1.00  0.00    -0.460 OA
BRANCH  39  40
ATOM     40  C   UNL A   1      35.009  31.106  28.200  1.00  0.00     0.338 C 
ATOM     41  O   UNL A   1      33.921  30.566  28.088  1.00  0.00    -0.246 OA
BRANCH  40  42
ATOM     42  C   UNL A   1      36.276  30.353  28.309  1.00  0.00     0.060 A 
ATOM     43  C   UNL A   1      36.587  29.756  29.538  1.00  0.00     0.016 A 
ATOM     44  C   UNL A   1      37.165  30.265  27.236  1.00  0.00     0.016 A 
ATOM     45  C   UNL A   1      37.800  29.092  29.706  1.00  0.00     0.010 A 
ATOM     46  C   UNL A   1      38.398  29.628  27.414  1.00  0.00     0.010 A 
ATOM     47  C   UNL A   1      38.731  29.070  28.661  1.00  0.00    -0.014 A 
BRANCH  47  48
ATOM     48  C   UNL A   1      40.126  28.664  28.949  1.00  0.00     0.031 A 
ATOM     49  C   UNL A   1      40.992  29.614  29.729  1.00  0.00     0.074 A 
ATOM     50  C   UNL A   1      40.605  27.470  28.562  1.00  0.00     0.049 A 
ATOM     51  N   UNL A   1      42.244  29.498  30.090  1.00  0.00    -0.248 NA
ATOM     52  C   UNL A   1      40.353  30.866  30.166  1.00  0.00     0.031 C 
ATOM     53  C   UNL A   1      39.849  26.448  27.842  1.00  0.00     0.029 A 
ATOM     54  N   UNL A   1      41.853  26.921  28.720  1.00  0.00    -0.354 N 
ATOM     55  C   UNL A   1      42.540  30.658  30.792  1.00  0.00     0.074 A 
ATOM     56  C   UNL A   1      41.350  31.479  30.786  1.00  0.00     0.031 C 
ATOM     57  C   UNL A   1      40.655  25.397  27.608  1.00  0.00     0.029 A 
ATOM     58  C   UNL A   1      41.989  25.686  28.136  1.00  0.00     0.049 A 
ATOM     59  H   UNL A   1      42.582  27.370  29.207  1.00  0.00     0.167 HD
ATOM     60  C   UNL A   1      43.701  31.005  31.396  1.00  0.00     0.037 A 
ATOM     61  C   UNL A   1      43.074  24.895  28.026  1.00  0.00     0.037 A 
ATOM     62  C   UNL A   1      44.888  30.193  31.393  1.00  0.00     0.049 A 
ATOM     63  C   UNL A   1      44.379  25.342  28.636  1.00  0.00     0.074 A 
ATOM     64  C   UNL A   1      46.112  30.452  31.981  1.00  0.00     0.029 A 
ATOM     65  N   UNL A   1      44.998  28.965  30.758  1.00  0.00    -0.354 N 
ATOM     66  N   UNL A   1      44.647  26.427  29.321  1.00  0.00    -0.248 NA
ATOM     67  C   UNL A   1      45.533  24.449  28.459  1.00  0.00     0.031 C 
ATOM     68  C   UNL A   1      46.979  29.403  31.660  1.00  0.00     0.029 A 
ATOM     69  C   UNL A   1      46.279  28.465  30.917  1.00  0.00     0.049 A 
ATOM     70  H   UNL A   1      44.273  28.516  30.266  1.00  0.00     0.167 HD
ATOM     71  C   UNL A   1      45.986  26.335  29.679  1.00  0.00     0.074 A 
ATOM     72  C   UNL A   1      46.475  25.080  29.146  1.00  0.00     0.031 C 
ATOM     73  C   UNL A   1      46.744  27.209  30.387  1.00  0.00     0.037 A 
BRANCH  60  74
ATOM     74  C   UNL A   1      43.748  32.338  32.082  1.00  0.00     0.064 A 
ATOM     75  C   UNL A   1      43.666  32.450  33.478  1.00  0.00     0.173 A 
ATOM     76  C   UNL A   1      43.897  33.515  31.335  1.00  0.00     0.173 A 
ATOM     77  F   UNL A   1      43.505  31.355  34.236  1.00  0.00    -0.203 F 
ATOM     78  C   UNL A   1      43.708  33.696  34.099  1.00  0.00     0.198 A 
ATOM     79  C   UNL A   1      43.967  34.757  31.961  1.00  0.00     0.198 A 
ATOM     80  F   UNL A   1      43.980  33.462  29.997  1.00  0.00    -0.203 F 
ATOM     81  F   UNL A   1      43.582  33.784  35.430  1.00  0.00    -0.200 F 
ATOM     82  C   UNL A   1      43.865  34.847  33.341  1.00  0.00     0.200 A 
ATOM     83  F   UNL A   1      44.128  35.866  31.227  1.00  0.00    -0.200 F 
ATOM     84  F   UNL A   1      43.911  36.044  33.940  1.00  0.00    -0.200 F 
ENDBRANCH  60  74
BRANCH  61  85
ATOM     85  C   UNL A   1      42.984  23.604  27.295  1.00  0.00     0.064 A 
ATOM     86  C   UNL A   1      42.491  22.450  27.918  1.00  0.00     0.173 A 
ATOM     87  C   UNL A   1      43.415  23.493  25.964  1.00  0.00     0.173 A 
ATOM     88  F   UNL A   1      42.096  22.499  29.199  1.00  0.00    -0.203 F 
ATOM     89  C   UNL A   1      42.452  21.230  27.247  1.00  0.00     0.198 A 
ATOM     90  C   UNL A   1      43.349  22.278  25.285  1.00  0.00     0.198 A 
ATOM     91  F   UNL A   1      43.901  24.566  25.323  1.00  0.00    -0.203 F 
ATOM     92  F   UNL A   1      42.023  20.131  27.884  1.00  0.00    -0.200 F 
ATOM     93  C   UNL A   1      42.875  21.146  25.929  1.00  0.00     0.200 A 
ATOM     94  F   UNL A   1      43.753  22.204  24.009  1.00  0.00    -0.200 F 
ATOM     95  F   UNL A   1      42.837  19.973  25.284  1.00  0.00    -0.200 F 
ENDBRANCH  61  85
BRANCH  73  96
ATOM     96  C   UNL A   1      48.170  26.825  30.662  1.00  0.00     0.064 A 
ATOM     97  C   UNL A   1      48.513  25.974  31.722  1.00  0.00     0.173 A 
ATOM     98  C   UNL A   1      49.199  27.274  29.819  1.00  0.00     0.173 A 
ATOM     99  F   UNL A   1      47.569  25.528  32.563  1.00  0.00    -0.203 F 
ATOM    100  C   UNL A   1      49.838  25.605  31.943  1.00  0.00     0.198 A 
ATOM    101  C   UNL A   1      50.518  26.880  30.025  1.00  0.00     0.198 A 
ATOM    102  F   UNL A   1      48.922  28.082  28.785  1.00  0.00    -0.203 F 
ATOM    103  F   UNL A   1      50.149  24.827  32.988  1.00  0.00    -0.200 F 
ATOM    104  C   UNL A   1      50.837  26.052  31.090  1.00  0.00     0.200 A 
ATOM    105  F   UNL A   1      51.480  27.300  29.191  1.00  0.00    -0.200 F 
ATOM    106  F   UNL A   1      52.110  25.688  31.299  1.00  0.00    -0.200 F 
ENDBRANCH  73  96
ENDBRANCH  47  48
ENDBRANCH  40  42
ENDBRANCH  39  40
ENDBRANCH  38  39
ENDBRANCH  37  38
ENDBRANCH  36  37
ENDBRANCH  35  36
ENDBRANCH  34  35
ENDBRANCH   1  34
TORSDOF 24
ENDMDL
MODEL 3
REMARK VINA RESULT:      -9.4      3.991      7.395
REMARK SMILES CC(=O)NS(=O)(=O)c1ccc(-c2ccn(C(F)F)c(=O)c2)cc1C(=O)OCCOCCOCCOCCOC(=O)c1ccc(-c2c3nc(c(-c4c(F)c(F)c(F)c(F)c4F)c4ccc([nH]4)c(-c4c(F)c(F)c(F)c(F)c4F)c4nc(c(-c5c(F)c(F)c(F)c(F)c5F)c5ccc2[nH]5)C=C4)C=C3)cc1
REMARK SMILES IDX 32 1 31 2 30 3 29 4 28 5 27 6 26 7 24 8 25 9 23 10 8 11 9 12
REMARK SMILES IDX 10 13 22 14 11 15 5 16 6 17 7 18 4 19 1 20 2 21 3 22 12 24
REMARK SMILES IDX 13 25 21 26 14 27 19 28 15 29 20 30 16 31 17 32 18 33 33 34
REMARK SMILES IDX 34 35 35 36 36 37 37 38 38 39 39 40 40 41 41 42 42 43 103 44
REMARK SMILES IDX 43 45 102 46 44 47 45 48 46 49 96 50 47 51 101 52 95 53
REMARK SMILES IDX 97 54 48 55 100 56 94 57 93 58 49 60 81 61 61 62 80 63 62 64
REMARK SMILES IDX 65 65 79 66 98 67 63 68 64 69 78 71 99 72 66 73 50 74 51 75
REMARK SMILES IDX 59 76 52 77 53 78 57 79 60 80 54 81 55 82 58 83 56 84 82 85
REMARK SMILES IDX 83 86 91 87 84 88 85 89 89 90 92 91 86 92 87 93 90 94 88 95
REMARK SMILES IDX 67 96 68 97 76 98 69 99 70 100 74 101 77 102 71 103 72 104
REMARK SMILES IDX 75 105 73 106
REMARK H PARENT 4 23 97 59 65 70
REMARK Flexibility Score: inf
ROOT
ATOM      1  O   UNL A   1      37.042  21.107  24.631  1.00  0.00    -0.377 OA
ENDROOT
BRANCH   1   2
ATOM      2  C   UNL A   1      37.053  22.487  24.303  1.00  0.00     0.188 C 
BRANCH   2   3
ATOM      3  C   UNL A   1      36.023  22.975  23.278  1.00  0.00     0.188 C 
BRANCH   3   4
ATOM      4  O   UNL A   1      35.209  24.032  23.781  1.00  0.00    -0.376 OA
BRANCH   4   5
ATOM      5  C   UNL A   1      35.414  24.428  25.130  1.00  0.00     0.202 C 
BRANCH   5   6
ATOM      6  C   UNL A   1      34.339  25.389  25.660  1.00  0.00     0.261 C 
BRANCH   6   7
ATOM      7  O   UNL A   1      33.407  24.795  26.581  1.00  0.00    -0.460 OA
BRANCH   7   8
ATOM      8  C   UNL A   1      32.131  24.719  26.180  1.00  0.00     0.339 C 
ATOM      9  O   UNL A   1      31.202  25.343  26.668  1.00  0.00    -0.246 OA
BRANCH   8  10
ATOM     10  C   UNL A   1      31.962  23.906  24.943  1.00  0.00     0.081 A 
ATOM     11  C   UNL A   1      31.692  24.378  23.651  1.00  0.00     0.102 A 
ATOM     12  C   UNL A   1      31.913  23.530  22.554  1.00  0.00     0.024 A 
ATOM     13  C   UNL A   1      32.181  22.176  22.742  1.00  0.00     0.010 A 
ATOM     14  C   UNL A   1      32.217  22.529  25.121  1.00  0.00     0.025 A 
ATOM     15  C   UNL A   1      32.280  21.654  24.032  1.00  0.00    -0.017 A 
BRANCH  11  16
ATOM     16  S   UNL A   1      30.887  25.929  23.343  1.00  0.00     0.264 S 
ATOM     17  O   UNL A   1      29.573  25.852  23.938  1.00  0.00    -0.201 OA
ATOM     18  O   UNL A   1      31.101  26.322  21.972  1.00  0.00    -0.201 OA
BRANCH  16  19
ATOM     19  N   UNL A   1      31.746  27.059  24.256  1.00  0.00    -0.249 N 
ATOM     20  C   UNL A   1      32.290  28.957  22.727  1.00  0.00     0.115 C 
ATOM     21  C   UNL A   1      31.674  28.451  24.006  1.00  0.00     0.230 C 
ATOM     22  O   UNL A   1      31.325  29.207  24.902  1.00  0.00    -0.274 OA
ATOM     23  H   UNL A   1      32.320  26.739  24.989  1.00  0.00     0.183 HD
ENDBRANCH  16  19
ENDBRANCH  11  16
BRANCH  15  24
ATOM     24  C   UNL A   1      32.489  20.213  24.235  1.00  0.00    -0.011 A 
ATOM     25  C   UNL A   1      32.714  19.612  25.537  1.00  0.00     0.027 A 
ATOM     26  C   UNL A   1      32.460  19.427  23.147  1.00  0.00     0.080 A 
ATOM     27  C   UNL A   1      32.900  18.290  25.649  1.00  0.00     0.095 A 
ATOM     28  C   UNL A   1      32.655  17.959  23.255  1.00  0.00     0.255 A 
ATOM     29  N   UNL A   1      32.877  17.472  24.533  1.00  0.00    -0.258 N 
ATOM     30  O   UNL A   1      32.605  17.289  22.230  1.00  0.00    -0.269 OA
BRANCH  29  31
ATOM     31  C   UNL A   1      33.097  16.054  24.654  1.00  0.00     0.451 C 
ATOM     32  F   UNL A   1      34.420  15.764  24.642  1.00  0.00    -0.185 F 
ATOM     33  F   UNL A   1      32.572  15.583  25.811  1.00  0.00    -0.185 F 
ENDBRANCH  29  31
ENDBRANCH  15  24
ENDBRANCH   8  10
ENDBRANCH   7   8
ENDBRANCH   6   7
ENDBRANCH   5   6
ENDBRANCH   4   5
ENDBRANCH   3   4
ENDBRANCH   2   3
ENDBRANCH   1   2
BRANCH   1  34
ATOM     34  C   UNL A   1      38.172  20.631  25.345  1.00  0.00     0.188 C 
BRANCH  34  35
ATOM     35  C   UNL A   1      39.009  21.742  26.018  1.00  0.00     0.188 C 
BRANCH  35  36
ATOM     36  O   UNL A   1      40.198  21.468  26.757  1.00  0.00    -0.376 OA
BRANCH  36  37
ATOM     37  C   UNL A   1      41.429  21.233  26.098  1.00  0.00     0.202 C 
BRANCH  37  38
ATOM     38  C   UNL A   1      42.633  22.110  26.471  1.00  0.00     0.261 C 
BRANCH  38  39
ATOM     39  O   UNL A   1      42.452  23.521  26.301  1.00  0.00    -0.460 OA
BRANCH  39  40
ATOM     40  C   UNL A   1      42.220  24.215  27.439  1.00  0.00     0.338 C 
ATOM     41  O   UNL A   1      41.534  23.877  28.389  1.00  0.00    -0.246 OA
BRANCH  40  42
ATOM     42  C   UNL A   1      43.046  25.440  27.435  1.00  0.00     0.060 A 
ATOM     43  C   UNL A   1      43.251  26.096  26.214  1.00  0.00     0.016 A 
ATOM     44  C   UNL A   1      43.645  25.919  28.603  1.00  0.00     0.016 A 
ATOM     45  C   UNL A   1      44.076  27.217  26.151  1.00  0.00     0.010 A 
ATOM     46  C   UNL A   1      44.500  27.023  28.535  1.00  0.00     0.010 A 
ATOM     47  C   UNL A   1      44.744  27.653  27.301  1.00  0.00    -0.014 A 
BRANCH  47  48
ATOM     48  C   UNL A   1      45.859  28.618  27.164  1.00  0.00     0.031 A 
ATOM     49  C   UNL A   1      45.554  30.081  27.335  1.00  0.00     0.074 A 
ATOM     50  C   UNL A   1      47.117  28.209  26.931  1.00  0.00     0.049 A 
ATOM     51  N   UNL A   1      46.349  31.116  27.244  1.00  0.00    -0.248 NA
ATOM     52  C   UNL A   1      44.158  30.420  27.656  1.00  0.00     0.031 C 
ATOM     53  C   UNL A   1      47.544  26.820  26.793  1.00  0.00     0.029 A 
ATOM     54  N   UNL A   1      48.269  28.937  26.763  1.00  0.00    -0.354 N 
ATOM     55  C   UNL A   1      45.551  32.223  27.495  1.00  0.00     0.074 A 
ATOM     56  C   UNL A   1      44.206  31.742  27.716  1.00  0.00     0.031 C 
ATOM     57  C   UNL A   1      48.866  26.794  26.547  1.00  0.00     0.029 A 
ATOM     58  C   UNL A   1      49.370  28.165  26.483  1.00  0.00     0.049 A 
ATOM     59  H   UNL A   1      48.304  29.919  26.837  1.00  0.00     0.167 HD
ATOM     60  C   UNL A   1      45.911  33.528  27.546  1.00  0.00     0.037 A 
ATOM     61  C   UNL A   1      50.633  28.533  26.188  1.00  0.00     0.037 A 
ATOM     62  C   UNL A   1      47.247  34.007  27.317  1.00  0.00     0.049 A 
ATOM     63  C   UNL A   1      50.990  29.999  26.169  1.00  0.00     0.074 A 
ATOM     64  C   UNL A   1      47.715  35.307  27.352  1.00  0.00     0.029 A 
ATOM     65  N   UNL A   1      48.328  33.198  26.999  1.00  0.00    -0.354 N 
ATOM     66  N   UNL A   1      50.239  31.040  26.433  1.00  0.00    -0.248 NA
ATOM     67  C   UNL A   1      52.376  30.338  25.814  1.00  0.00     0.031 C 
ATOM     68  C   UNL A   1      49.071  35.291  27.006  1.00  0.00     0.029 A 
ATOM     69  C   UNL A   1      49.459  33.975  26.808  1.00  0.00     0.049 A 
ATOM     70  H   UNL A   1      48.296  32.218  26.919  1.00  0.00     0.167 HD
ATOM     71  C   UNL A   1      51.063  32.151  26.304  1.00  0.00     0.074 A 
ATOM     72  C   UNL A   1      52.377  31.657  25.950  1.00  0.00     0.031 C 
ATOM     73  C   UNL A   1      50.760  33.464  26.465  1.00  0.00     0.037 A 
BRANCH  60  74
ATOM     74  C   UNL A   1      44.831  34.529  27.829  1.00  0.00     0.064 A 
ATOM     75  C   UNL A   1      44.579  34.990  29.131  1.00  0.00     0.173 A 
ATOM     76  C   UNL A   1      44.053  35.047  26.785  1.00  0.00     0.173 A 
ATOM     77  F   UNL A   1      45.284  34.511  30.167  1.00  0.00    -0.203 F 
ATOM     78  C   UNL A   1      43.569  35.918  29.377  1.00  0.00     0.198 A 
ATOM     79  C   UNL A   1      43.063  35.995  27.031  1.00  0.00     0.198 A 
ATOM     80  F   UNL A   1      44.254  34.639  25.524  1.00  0.00    -0.203 F 
ATOM     81  F   UNL A   1      43.315  36.311  30.632  1.00  0.00    -0.200 F 
ATOM     82  C   UNL A   1      42.818  36.424  28.327  1.00  0.00     0.200 A 
ATOM     83  F   UNL A   1      42.344  36.490  26.015  1.00  0.00    -0.200 F 
ATOM     84  F   UNL A   1      41.851  37.321  28.565  1.00  0.00    -0.200 F 
ENDBRANCH  60  74
BRANCH  61  85
ATOM     85  C   UNL A   1      51.654  27.502  25.868  1.00  0.00     0.064 A 
ATOM     86  C   UNL A   1      51.894  27.105  24.546  1.00  0.00     0.173 A 
ATOM     87  C   UNL A   1      52.390  26.872  26.883  1.00  0.00     0.173 A 
ATOM     88  F   UNL A   1      51.193  27.656  23.544  1.00  0.00    -0.203 F 
ATOM     89  C   UNL A   1      52.817  26.103  24.252  1.00  0.00     0.198 A 
ATOM     90  C   UNL A   1      53.334  25.890  26.585  1.00  0.00     0.198 A 
ATOM     91  F   UNL A   1      52.194  27.210  28.166  1.00  0.00    -0.203 F 
ATOM     92  F   UNL A   1      52.991  25.708  22.983  1.00  0.00    -0.200 F 
ATOM     93  C   UNL A   1      53.540  25.501  25.270  1.00  0.00     0.200 A 
ATOM     94  F   UNL A   1      54.035  25.316  27.572  1.00  0.00    -0.200 F 
ATOM     95  F   UNL A   1      54.427  24.539  24.987  1.00  0.00    -0.200 F 
ENDBRANCH  61  85
BRANCH  73  96
ATOM     96  C   UNL A   1      51.875  34.457  26.299  1.00  0.00     0.064 A 
ATOM     97  C   UNL A   1      52.745  34.771  27.354  1.00  0.00     0.173 A 
ATOM     98  C   UNL A   1      52.105  35.061  25.054  1.00  0.00     0.173 A 
ATOM     99  F   UNL A   1      52.559  34.230  28.566  1.00  0.00    -0.203 F 
ATOM    100  C   UNL A   1      53.790  35.672  27.173  1.00  0.00     0.198 A 
ATOM    101  C   UNL A   1      53.169  35.939  24.868  1.00  0.00     0.198 A 
ATOM    102  F   UNL A   1      51.307  34.787  24.011  1.00  0.00    -0.203 F 
ATOM    103  F   UNL A   1      54.584  35.992  28.205  1.00  0.00    -0.200 F 
ATOM    104  C   UNL A   1      54.006  36.249  25.929  1.00  0.00     0.200 A 
ATOM    105  F   UNL A   1      53.385  36.483  23.663  1.00  0.00    -0.200 F 
ATOM    106  F   UNL A   1      55.019  37.109  25.755  1.00  0.00    -0.200 F 
ENDBRANCH  73  96
ENDBRANCH  47  48
ENDBRANCH  40  42
ENDBRANCH  39  40
ENDBRANCH  38  39
ENDBRANCH  37  38
ENDBRANCH  36  37
ENDBRANCH  35  36
ENDBRANCH  34  35
ENDBRANCH   1  34
TORSDOF 24
ENDMDL
