MODEL 1
REMARK VINA RESULT:      -7.7      0.000      0.000
REMARK SMILES COC[C@@H](C)N(C)C(=O)N1CCC(CC(=O)OCCOCCOCCOCCOC(=O)c2ccc(-c3c4nc(c(-c5c(F)c(F)c(F)c(F)c5F)c5ccc([nH]5)c(-c5c(F)c(F)c(F)c(F)c5F)c5nc(c(-c6c(F)c(F)c(F)c(F)c6F)c6ccc3[nH]6)C=C5)C=C4)cc2)CC1
REMARK SMILES IDX 21 1 20 2 19 3 18 4 17 5 15 6 16 7 14 8 13 9 8 10 9 11 10 12
REMARK SMILES IDX 11 13 96 14 12 15 95 16 6 17 7 18 4 19 5 20 3 21 2 22 1 23
REMARK SMILES IDX 22 24 23 25 24 26 25 27 26 28 27 29 28 30 29 31 30 32 31 33
REMARK SMILES IDX 32 34 33 35 94 36 34 37 93 38 35 39 36 40 37 41 87 42 38 43
REMARK SMILES IDX 92 44 86 45 88 46 39 47 91 48 85 49 84 50 40 52 72 53 52 54
REMARK SMILES IDX 71 55 53 56 56 57 70 58 89 59 54 60 55 61 69 63 90 64 57 65
REMARK SMILES IDX 41 66 42 67 50 68 43 69 44 70 48 71 51 72 45 73 46 74 49 75
REMARK SMILES IDX 47 76 73 77 74 78 82 79 75 80 76 81 80 82 83 83 77 84 78 85
REMARK SMILES IDX 81 86 79 87 58 88 59 89 67 90 60 91 61 92 65 93 68 94 62 95
REMARK SMILES IDX 63 96 66 97 64 98
REMARK H PARENT 88 51 56 62
REMARK Flexibility Score: inf
ROOT
ATOM      1  C   UNL A   1      34.847  33.415  29.794  1.00  0.00     0.188 C 
ENDROOT
BRANCH   1   2
ATOM      2  O   UNL A   1      34.892  32.034  29.527  1.00  0.00    -0.376 OA
BRANCH   2   3
ATOM      3  C   UNL A   1      35.777  31.509  28.554  1.00  0.00     0.202 C 
BRANCH   3   4
ATOM      4  C   UNL A   1      37.148  30.862  28.839  1.00  0.00     0.261 C 
BRANCH   4   5
ATOM      5  O   UNL A   1      37.177  29.525  29.355  1.00  0.00    -0.463 OA
BRANCH   5   6
ATOM      6  C   UNL A   1      38.371  29.103  29.835  1.00  0.00     0.306 C 
ATOM      7  O   UNL A   1      38.498  28.208  30.666  1.00  0.00    -0.252 OA
BRANCH   6   8
ATOM      8  C   UNL A   1      39.593  29.780  29.243  1.00  0.00     0.126 C 
BRANCH   8   9
ATOM      9  C   UNL A   1      40.609  29.036  28.369  1.00  0.00     0.003 C 
ATOM     10  C   UNL A   1      42.199  25.406  27.682  1.00  0.00     0.320 C 
ATOM     11  O   UNL A   1      42.482  25.101  28.842  1.00  0.00    -0.248 OA
ATOM     12  N   UNL A   1      42.020  26.728  27.335  1.00  0.00    -0.325 N 
ATOM     13  C   UNL A   1      42.726  27.743  28.108  1.00  0.00     0.121 C 
ATOM     14  C   UNL A   1      40.832  27.189  26.624  1.00  0.00     0.121 C 
ATOM     15  C   UNL A   1      41.797  28.421  29.116  1.00  0.00     0.026 C 
ATOM     16  C   UNL A   1      39.882  27.931  27.570  1.00  0.00     0.026 C 
BRANCH  10  17
ATOM     17  N   UNL A   1      42.093  24.460  26.673  1.00  0.00    -0.323 N 
ATOM     18  C   UNL A   1      43.008  24.367  25.542  1.00  0.00     0.149 C 
BRANCH  17  19
ATOM     19  C   UNL A   1      41.107  23.366  26.816  1.00  0.00     0.109 C 
ATOM     20  C   UNL A   1      39.785  23.903  27.368  1.00  0.00     0.033 C 
BRANCH  19  21
ATOM     21  C   UNL A   1      41.681  22.166  27.609  1.00  0.00     0.184 C 
BRANCH  21  22
ATOM     22  O   UNL A   1      40.722  21.136  27.863  1.00  0.00    -0.383 OA
ATOM     23  C   UNL A   1      40.868  20.003  27.017  1.00  0.00     0.194 C 
ENDBRANCH  21  22
ENDBRANCH  19  21
ENDBRANCH  17  19
ENDBRANCH  10  17
ENDBRANCH   8   9
ENDBRANCH   6   8
ENDBRANCH   5   6
ENDBRANCH   4   5
ENDBRANCH   3   4
ENDBRANCH   2   3
ENDBRANCH   1   2
BRANCH   1  24
ATOM     24  C   UNL A   1      33.761  34.198  29.049  1.00  0.00     0.188 C 
BRANCH  24  25
ATOM     25  O   UNL A   1      32.759  34.860  29.805  1.00  0.00    -0.377 OA
BRANCH  25  26
ATOM     26  C   UNL A   1      33.105  35.956  30.650  1.00  0.00     0.188 C 
BRANCH  26  27
ATOM     27  C   UNL A   1      33.132  35.808  32.185  1.00  0.00     0.188 C 
BRANCH  27  28
ATOM     28  O   UNL A   1      34.390  36.043  32.786  1.00  0.00    -0.376 OA
BRANCH  28  29
ATOM     29  C   UNL A   1      34.941  35.031  33.615  1.00  0.00     0.202 C 
BRANCH  29  30
ATOM     30  C   UNL A   1      36.152  34.252  33.081  1.00  0.00     0.261 C 
BRANCH  30  31
ATOM     31  O   UNL A   1      36.314  32.909  33.571  1.00  0.00    -0.460 OA
BRANCH  31  32
ATOM     32  C   UNL A   1      37.010  32.723  34.716  1.00  0.00     0.338 C 
ATOM     33  O   UNL A   1      36.637  32.920  35.851  1.00  0.00    -0.246 OA
BRANCH  32  34
ATOM     34  C   UNL A   1      38.278  32.058  34.349  1.00  0.00     0.060 A 
ATOM     35  C   UNL A   1      39.455  32.393  35.032  1.00  0.00     0.016 A 
ATOM     36  C   UNL A   1      38.297  31.100  33.334  1.00  0.00     0.016 A 
ATOM     37  C   UNL A   1      40.661  31.777  34.691  1.00  0.00     0.010 A 
ATOM     38  C   UNL A   1      39.508  30.503  32.978  1.00  0.00     0.010 A 
ATOM     39  C   UNL A   1      40.700  30.852  33.639  1.00  0.00    -0.014 A 
BRANCH  39  40
ATOM     40  C   UNL A   1      41.996  30.357  33.113  1.00  0.00     0.031 A 
ATOM     41  C   UNL A   1      42.620  31.081  31.952  1.00  0.00     0.074 A 
ATOM     42  C   UNL A   1      42.600  29.278  33.642  1.00  0.00     0.049 A 
ATOM     43  N   UNL A   1      43.660  30.757  31.228  1.00  0.00    -0.248 NA
ATOM     44  C   UNL A   1      41.980  32.346  31.554  1.00  0.00     0.031 C 
ATOM     45  C   UNL A   1      42.130  28.528  34.804  1.00  0.00     0.029 A 
ATOM     46  N   UNL A   1      43.737  28.613  33.248  1.00  0.00    -0.354 N 
ATOM     47  C   UNL A   1      43.799  31.773  30.292  1.00  0.00     0.074 A 
ATOM     48  C   UNL A   1      42.718  32.708  30.515  1.00  0.00     0.031 C 
ATOM     49  C   UNL A   1      42.958  27.489  35.015  1.00  0.00     0.029 A 
ATOM     50  C   UNL A   1      43.985  27.474  33.976  1.00  0.00     0.049 A 
ATOM     51  H   UNL A   1      44.318  28.924  32.517  1.00  0.00     0.167 HD
ATOM     52  C   UNL A   1      44.749  31.916  29.339  1.00  0.00     0.037 A 
ATOM     53  C   UNL A   1      44.910  26.509  33.790  1.00  0.00     0.037 A 
ATOM     54  C   UNL A   1      45.815  30.976  29.113  1.00  0.00     0.049 A 
ATOM     55  C   UNL A   1      45.874  26.627  32.633  1.00  0.00     0.074 A 
ATOM     56  C   UNL A   1      46.820  31.025  28.162  1.00  0.00     0.029 A 
ATOM     57  N   UNL A   1      46.009  29.814  29.842  1.00  0.00    -0.354 N 
ATOM     58  N   UNL A   1      46.012  27.595  31.759  1.00  0.00    -0.248 NA
ATOM     59  C   UNL A   1      46.810  25.509  32.430  1.00  0.00     0.031 C 
ATOM     60  C   UNL A   1      47.591  29.866  28.284  1.00  0.00     0.029 A 
ATOM     61  C   UNL A   1      47.102  29.124  29.346  1.00  0.00     0.049 A 
ATOM     62  H   UNL A   1      45.452  29.522  30.601  1.00  0.00     0.167 HD
ATOM     63  C   UNL A   1      47.065  27.220  30.933  1.00  0.00     0.074 A 
ATOM     64  C   UNL A   1      47.545  25.945  31.418  1.00  0.00     0.031 C 
ATOM     65  C   UNL A   1      47.584  27.868  29.861  1.00  0.00     0.037 A 
BRANCH  52  66
ATOM     66  C   UNL A   1      44.680  33.129  28.460  1.00  0.00     0.064 A 
ATOM     67  C   UNL A   1      45.145  34.378  28.898  1.00  0.00     0.173 A 
ATOM     68  C   UNL A   1      44.205  33.030  27.143  1.00  0.00     0.173 A 
ATOM     69  F   UNL A   1      45.596  34.528  30.152  1.00  0.00    -0.203 F 
ATOM     70  C   UNL A   1      45.123  35.486  28.055  1.00  0.00     0.198 A 
ATOM     71  C   UNL A   1      44.214  34.132  26.293  1.00  0.00     0.198 A 
ATOM     72  F   UNL A   1      43.754  31.857  26.672  1.00  0.00    -0.203 F 
ATOM     73  F   UNL A   1      45.539  36.677  28.506  1.00  0.00    -0.200 F 
ATOM     74  C   UNL A   1      44.668  35.360  26.751  1.00  0.00     0.200 A 
ATOM     75  F   UNL A   1      43.787  34.006  25.028  1.00  0.00    -0.200 F 
ATOM     76  F   UNL A   1      44.665  36.424  25.935  1.00  0.00    -0.200 F 
ENDBRANCH  52  66
BRANCH  53  77
ATOM     77  C   UNL A   1      44.956  25.316  34.680  1.00  0.00     0.064 A 
ATOM     78  C   UNL A   1      45.615  25.362  35.918  1.00  0.00     0.173 A 
ATOM     79  C   UNL A   1      44.416  24.084  34.280  1.00  0.00     0.173 A 
ATOM     80  F   UNL A   1      46.175  26.507  36.334  1.00  0.00    -0.203 F 
ATOM     81  C   UNL A   1      45.767  24.218  36.698  1.00  0.00     0.198 A 
ATOM     82  C   UNL A   1      44.535  22.949  35.079  1.00  0.00     0.198 A 
ATOM     83  F   UNL A   1      43.781  23.977  33.103  1.00  0.00    -0.203 F 
ATOM     84  F   UNL A   1      46.470  24.277  37.838  1.00  0.00    -0.200 F 
ATOM     85  C   UNL A   1      45.224  23.013  36.281  1.00  0.00     0.200 A 
ATOM     86  F   UNL A   1      44.000  21.789  34.677  1.00  0.00    -0.200 F 
ATOM     87  F   UNL A   1      45.382  21.910  37.025  1.00  0.00    -0.200 F 
ENDBRANCH  53  77
BRANCH  65  88
ATOM     88  C   UNL A   1      48.759  27.240  29.165  1.00  0.00     0.064 A 
ATOM     89  C   UNL A   1      50.068  27.398  29.644  1.00  0.00     0.173 A 
ATOM     90  C   UNL A   1      48.564  26.414  28.048  1.00  0.00     0.173 A 
ATOM     91  F   UNL A   1      50.310  28.190  30.700  1.00  0.00    -0.203 F 
ATOM     92  C   UNL A   1      51.140  26.767  29.017  1.00  0.00     0.198 A 
ATOM     93  C   UNL A   1      49.633  25.757  27.445  1.00  0.00     0.198 A 
ATOM     94  F   UNL A   1      47.331  26.223  27.555  1.00  0.00    -0.203 F 
ATOM     95  F   UNL A   1      52.386  26.964  29.467  1.00  0.00    -0.200 F 
ATOM     96  C   UNL A   1      50.920  25.938  27.927  1.00  0.00     0.200 A 
ATOM     97  F   UNL A   1      49.416  24.943  26.403  1.00  0.00    -0.200 F 
ATOM     98  F   UNL A   1      51.951  25.316  27.338  1.00  0.00    -0.200 F 
ENDBRANCH  65  88
ENDBRANCH  39  40
ENDBRANCH  32  34
ENDBRANCH  31  32
ENDBRANCH  30  31
ENDBRANCH  29  30
ENDBRANCH  28  29
ENDBRANCH  27  28
ENDBRANCH  26  27
ENDBRANCH  25  26
ENDBRANCH  24  25
ENDBRANCH   1  24
TORSDOF 25
ENDMDL
MODEL 2
REMARK VINA RESULT:      -7.6      4.133      9.627
REMARK SMILES COC[C@@H](C)N(C)C(=O)N1CCC(CC(=O)OCCOCCOCCOCCOC(=O)c2ccc(-c3c4nc(c(-c5c(F)c(F)c(F)c(F)c5F)c5ccc([nH]5)c(-c5c(F)c(F)c(F)c(F)c5F)c5nc(c(-c6c(F)c(F)c(F)c(F)c6F)c6ccc3[nH]6)C=C5)C=C4)cc2)CC1
REMARK SMILES IDX 21 1 20 2 19 3 18 4 17 5 15 6 16 7 14 8 13 9 8 10 9 11 10 12
REMARK SMILES IDX 11 13 96 14 12 15 95 16 6 17 7 18 4 19 5 20 3 21 2 22 1 23
REMARK SMILES IDX 22 24 23 25 24 26 25 27 26 28 27 29 28 30 29 31 30 32 31 33
REMARK SMILES IDX 32 34 33 35 94 36 34 37 93 38 35 39 36 40 37 41 87 42 38 43
REMARK SMILES IDX 92 44 86 45 88 46 39 47 91 48 85 49 84 50 40 52 72 53 52 54
REMARK SMILES IDX 71 55 53 56 56 57 70 58 89 59 54 60 55 61 69 63 90 64 57 65
REMARK SMILES IDX 41 66 42 67 50 68 43 69 44 70 48 71 51 72 45 73 46 74 49 75
REMARK SMILES IDX 47 76 73 77 74 78 82 79 75 80 76 81 80 82 83 83 77 84 78 85
REMARK SMILES IDX 81 86 79 87 58 88 59 89 67 90 60 91 61 92 65 93 68 94 62 95
REMARK SMILES IDX 63 96 66 97 64 98
REMARK H PARENT 88 51 56 62
REMARK Flexibility Score: inf
ROOT
ATOM      1  C   UNL A   1      33.237  36.925  29.702  1.00  0.00     0.188 C 
ENDROOT
BRANCH   1   2
ATOM      2  O   UNL A   1      32.758  37.192  30.998  1.00  0.00    -0.376 OA
BRANCH   2   3
ATOM      3  C   UNL A   1      33.646  37.542  32.044  1.00  0.00     0.202 C 
BRANCH   3   4
ATOM      4  C   UNL A   1      33.828  36.771  33.368  1.00  0.00     0.261 C 
BRANCH   4   5
ATOM      5  O   UNL A   1      34.963  35.905  33.503  1.00  0.00    -0.463 OA
BRANCH   5   6
ATOM      6  C   UNL A   1      34.757  34.608  33.176  1.00  0.00     0.306 C 
ATOM      7  O   UNL A   1      33.695  34.172  32.737  1.00  0.00    -0.252 OA
BRANCH   6   8
ATOM      8  C   UNL A   1      35.954  33.691  33.338  1.00  0.00     0.126 C 
BRANCH   8   9
ATOM      9  C   UNL A   1      36.999  33.882  34.442  1.00  0.00     0.003 C 
ATOM     10  C   UNL A   1      40.798  33.021  35.446  1.00  0.00     0.320 C 
ATOM     11  O   UNL A   1      40.785  31.812  35.216  1.00  0.00    -0.248 OA
ATOM     12  N   UNL A   1      39.618  33.700  35.665  1.00  0.00    -0.325 N 
ATOM     13  C   UNL A   1      38.491  32.958  36.215  1.00  0.00     0.121 C 
ATOM     14  C   UNL A   1      39.278  34.917  34.937  1.00  0.00     0.121 C 
ATOM     15  C   UNL A   1      37.477  32.598  35.128  1.00  0.00     0.026 C 
ATOM     16  C   UNL A   1      38.219  34.635  33.865  1.00  0.00     0.026 C 
BRANCH  10  17
ATOM     17  N   UNL A   1      41.979  33.744  35.541  1.00  0.00    -0.323 N 
ATOM     18  C   UNL A   1      42.436  34.403  36.759  1.00  0.00     0.149 C 
BRANCH  17  19
ATOM     19  C   UNL A   1      42.928  33.720  34.408  1.00  0.00     0.109 C 
ATOM     20  C   UNL A   1      42.198  33.985  33.089  1.00  0.00     0.033 C 
BRANCH  19  21
ATOM     21  C   UNL A   1      43.794  32.435  34.402  1.00  0.00     0.184 C 
BRANCH  21  22
ATOM     22  O   UNL A   1      43.887  31.813  33.117  1.00  0.00    -0.383 OA
ATOM     23  C   UNL A   1      45.061  32.170  32.397  1.00  0.00     0.194 C 
ENDBRANCH  21  22
ENDBRANCH  19  21
ENDBRANCH  17  19
ENDBRANCH  10  17
ENDBRANCH   8   9
ENDBRANCH   6   8
ENDBRANCH   5   6
ENDBRANCH   4   5
ENDBRANCH   3   4
ENDBRANCH   2   3
ENDBRANCH   1   2
BRANCH   1  24
ATOM     24  C   UNL A   1      33.369  35.442  29.337  1.00  0.00     0.188 C 
BRANCH  24  25
ATOM     25  O   UNL A   1      34.666  34.868  29.280  1.00  0.00    -0.377 OA
BRANCH  25  26
ATOM     26  C   UNL A   1      35.021  34.008  28.199  1.00  0.00     0.188 C 
BRANCH  26  27
ATOM     27  C   UNL A   1      34.624  32.517  28.198  1.00  0.00     0.188 C 
BRANCH  27  28
ATOM     28  O   UNL A   1      34.626  31.897  29.468  1.00  0.00    -0.376 OA
BRANCH  28  29
ATOM     29  C   UNL A   1      35.868  31.738  30.139  1.00  0.00     0.202 C 
BRANCH  29  30
ATOM     30  C   UNL A   1      35.883  30.897  31.424  1.00  0.00     0.261 C 
BRANCH  30  31
ATOM     31  O   UNL A   1      36.524  29.612  31.340  1.00  0.00    -0.460 OA
BRANCH  31  32
ATOM     32  C   UNL A   1      37.528  29.338  32.203  1.00  0.00     0.338 C 
ATOM     33  O   UNL A   1      37.467  28.711  33.238  1.00  0.00    -0.246 OA
BRANCH  32  34
ATOM     34  C   UNL A   1      38.782  29.798  31.569  1.00  0.00     0.060 A 
ATOM     35  C   UNL A   1      39.798  30.343  32.366  1.00  0.00     0.016 A 
ATOM     36  C   UNL A   1      38.950  29.683  30.189  1.00  0.00     0.016 A 
ATOM     37  C   UNL A   1      40.984  30.787  31.779  1.00  0.00     0.010 A 
ATOM     38  C   UNL A   1      40.127  30.150  29.601  1.00  0.00     0.010 A 
ATOM     39  C   UNL A   1      41.142  30.723  30.389  1.00  0.00    -0.014 A 
BRANCH  39  40
ATOM     40  C   UNL A   1      42.290  31.390  29.725  1.00  0.00     0.031 A 
ATOM     41  C   UNL A   1      43.475  30.553  29.333  1.00  0.00     0.074 A 
ATOM     42  C   UNL A   1      42.288  32.714  29.489  1.00  0.00     0.049 A 
ATOM     43  N   UNL A   1      44.645  30.923  28.881  1.00  0.00    -0.248 NA
ATOM     44  C   UNL A   1      43.317  29.095  29.470  1.00  0.00     0.031 C 
ATOM     45  C   UNL A   1      41.178  33.623  29.765  1.00  0.00     0.029 A 
ATOM     46  N   UNL A   1      43.272  33.529  28.979  1.00  0.00    -0.354 N 
ATOM     47  C   UNL A   1      45.361  29.750  28.681  1.00  0.00     0.074 A 
ATOM     48  C   UNL A   1      44.508  28.656  29.092  1.00  0.00     0.031 C 
ATOM     49  C   UNL A   1      41.551  34.875  29.446  1.00  0.00     0.029 A 
ATOM     50  C   UNL A   1      42.939  34.862  28.989  1.00  0.00     0.049 A 
ATOM     51  H   UNL A   1      44.131  33.188  28.639  1.00  0.00     0.167 HD
ATOM     52  C   UNL A   1      46.613  29.601  28.189  1.00  0.00     0.037 A 
ATOM     53  C   UNL A   1      43.691  35.946  28.706  1.00  0.00     0.037 A 
ATOM     54  C   UNL A   1      47.462  30.693  27.793  1.00  0.00     0.049 A 
ATOM     55  C   UNL A   1      45.131  35.755  28.289  1.00  0.00     0.074 A 
ATOM     56  C   UNL A   1      48.752  30.645  27.296  1.00  0.00     0.029 A 
ATOM     57  N   UNL A   1      47.106  32.030  27.857  1.00  0.00    -0.354 N 
ATOM     58  N   UNL A   1      45.799  34.645  28.087  1.00  0.00    -0.248 NA
ATOM     59  C   UNL A   1      45.926  36.974  28.068  1.00  0.00     0.031 C 
ATOM     60  C   UNL A   1      49.195  31.956  27.107  1.00  0.00     0.029 A 
ATOM     61  C   UNL A   1      48.162  32.819  27.433  1.00  0.00     0.049 A 
ATOM     62  H   UNL A   1      46.232  32.370  28.160  1.00  0.00     0.167 HD
ATOM     63  C   UNL A   1      47.072  35.031  27.685  1.00  0.00     0.074 A 
ATOM     64  C   UNL A   1      47.081  36.477  27.652  1.00  0.00     0.031 C 
ATOM     65  C   UNL A   1      48.143  34.258  27.378  1.00  0.00     0.037 A 
BRANCH  52  66
ATOM     66  C   UNL A   1      47.149  28.206  28.057  1.00  0.00     0.064 A 
ATOM     67  C   UNL A   1      47.020  27.483  26.861  1.00  0.00     0.173 A 
ATOM     68  C   UNL A   1      47.857  27.610  29.112  1.00  0.00     0.173 A 
ATOM     69  F   UNL A   1      46.342  28.003  25.828  1.00  0.00    -0.203 F 
ATOM     70  C   UNL A   1      47.568  26.209  26.733  1.00  0.00     0.198 A 
ATOM     71  C   UNL A   1      48.429  26.349  28.969  1.00  0.00     0.198 A 
ATOM     72  F   UNL A   1      48.013  28.261  30.275  1.00  0.00    -0.203 F 
ATOM     73  F   UNL A   1      47.402  25.523  25.594  1.00  0.00    -0.200 F 
ATOM     74  C   UNL A   1      48.280  25.648  27.782  1.00  0.00     0.200 A 
ATOM     75  F   UNL A   1      49.130  25.814  29.979  1.00  0.00    -0.200 F 
ATOM     76  F   UNL A   1      48.821  24.429  27.650  1.00  0.00    -0.200 F 
ENDBRANCH  52  66
BRANCH  53  77
ATOM     77  C   UNL A   1      43.131  37.319  28.845  1.00  0.00     0.064 A 
ATOM     78  C   UNL A   1      42.330  37.879  27.838  1.00  0.00     0.173 A 
ATOM     79  C   UNL A   1      43.449  38.130  29.945  1.00  0.00     0.173 A 
ATOM     80  F   UNL A   1      42.022  37.157  26.751  1.00  0.00    -0.203 F 
ATOM     81  C   UNL A   1      41.906  39.205  27.906  1.00  0.00     0.198 A 
ATOM     82  C   UNL A   1      42.992  39.444  30.031  1.00  0.00     0.198 A 
ATOM     83  F   UNL A   1      44.216  37.651  30.936  1.00  0.00    -0.203 F 
ATOM     84  F   UNL A   1      41.209  39.735  26.892  1.00  0.00    -0.200 F 
ATOM     85  C   UNL A   1      42.234  39.985  29.004  1.00  0.00     0.200 A 
ATOM     86  F   UNL A   1      43.302  40.191  31.098  1.00  0.00    -0.200 F 
ATOM     87  F   UNL A   1      41.836  41.263  29.063  1.00  0.00    -0.200 F 
ENDBRANCH  53  77
BRANCH  65  88
ATOM     88  C   UNL A   1      49.401  34.950  26.933  1.00  0.00     0.064 A 
ATOM     89  C   UNL A   1      50.438  35.241  27.832  1.00  0.00     0.173 A 
ATOM     90  C   UNL A   1      49.599  35.261  25.579  1.00  0.00     0.173 A 
ATOM     91  F   UNL A   1      50.293  34.976  29.139  1.00  0.00    -0.203 F 
ATOM     92  C   UNL A   1      51.619  35.834  27.393  1.00  0.00     0.198 A 
ATOM     93  C   UNL A   1      50.794  35.823  25.139  1.00  0.00     0.198 A 
ATOM     94  F   UNL A   1      48.642  34.996  24.678  1.00  0.00    -0.203 F 
ATOM     95  F   UNL A   1      52.580  36.140  28.276  1.00  0.00    -0.200 F 
ATOM     96  C   UNL A   1      51.801  36.114  26.047  1.00  0.00     0.200 A 
ATOM     97  F   UNL A   1      50.974  36.076  23.835  1.00  0.00    -0.200 F 
ATOM     98  F   UNL A   1      52.946  36.667  25.624  1.00  0.00    -0.200 F 
ENDBRANCH  65  88
ENDBRANCH  39  40
ENDBRANCH  32  34
ENDBRANCH  31  32
ENDBRANCH  30  31
ENDBRANCH  29  30
ENDBRANCH  28  29
ENDBRANCH  27  28
ENDBRANCH  26  27
ENDBRANCH  25  26
ENDBRANCH  24  25
ENDBRANCH   1  24
TORSDOF 25
ENDMDL
MODEL 3
REMARK VINA RESULT:      -7.5      0.748      2.015
REMARK SMILES COC[C@@H](C)N(C)C(=O)N1CCC(CC(=O)OCCOCCOCCOCCOC(=O)c2ccc(-c3c4nc(c(-c5c(F)c(F)c(F)c(F)c5F)c5ccc([nH]5)c(-c5c(F)c(F)c(F)c(F)c5F)c5nc(c(-c6c(F)c(F)c(F)c(F)c6F)c6ccc3[nH]6)C=C5)C=C4)cc2)CC1
REMARK SMILES IDX 21 1 20 2 19 3 18 4 17 5 15 6 16 7 14 8 13 9 8 10 9 11 10 12
REMARK SMILES IDX 11 13 96 14 12 15 95 16 6 17 7 18 4 19 5 20 3 21 2 22 1 23
REMARK SMILES IDX 22 24 23 25 24 26 25 27 26 28 27 29 28 30 29 31 30 32 31 33
REMARK SMILES IDX 32 34 33 35 94 36 34 37 93 38 35 39 36 40 37 41 87 42 38 43
REMARK SMILES IDX 92 44 86 45 88 46 39 47 91 48 85 49 84 50 40 52 72 53 52 54
REMARK SMILES IDX 71 55 53 56 56 57 70 58 89 59 54 60 55 61 69 63 90 64 57 65
REMARK SMILES IDX 41 66 42 67 50 68 43 69 44 70 48 71 51 72 45 73 46 74 49 75
REMARK SMILES IDX 47 76 73 77 74 78 82 79 75 80 76 81 80 82 83 83 77 84 78 85
REMARK SMILES IDX 81 86 79 87 58 88 59 89 67 90 60 91 61 92 65 93 68 94 62 95
REMARK SMILES IDX 63 96 66 97 64 98
REMARK H PARENT 88 51 56 62
REMARK Flexibility Score: inf
ROOT
ATOM      1  C   UNL A   1      35.117  33.222  29.957  1.00  0.00     0.188 C 
ENDROOT
BRANCH   1   2
ATOM      2  O   UNL A   1      35.283  31.890  29.532  1.00  0.00    -0.376 OA
BRANCH   2   3
ATOM      3  C   UNL A   1      36.327  31.535  28.644  1.00  0.00     0.202 C 
BRANCH   3   4
ATOM      4  C   UNL A   1      37.660  30.868  29.040  1.00  0.00     0.261 C 
BRANCH   4   5
ATOM      5  O   UNL A   1      37.661  29.463  29.330  1.00  0.00    -0.463 OA
BRANCH   5   6
ATOM      6  C   UNL A   1      38.814  28.965  29.835  1.00  0.00     0.306 C 
ATOM      7  O   UNL A   1      38.873  27.973  30.557  1.00  0.00    -0.252 OA
BRANCH   6   8
ATOM      8  C   UNL A   1      40.080  29.687  29.417  1.00  0.00     0.126 C 
BRANCH   8   9
ATOM      9  C   UNL A   1      41.164  29.027  28.557  1.00  0.00     0.003 C 
ATOM     10  C   UNL A   1      42.805  25.471  27.641  1.00  0.00     0.320 C 
ATOM     11  O   UNL A   1      42.992  25.049  28.782  1.00  0.00    -0.248 OA
ATOM     12  N   UNL A   1      42.655  26.822  27.415  1.00  0.00    -0.325 N 
ATOM     13  C   UNL A   1      43.295  27.748  28.341  1.00  0.00     0.121 C 
ATOM     14  C   UNL A   1      41.529  27.362  26.660  1.00  0.00     0.121 C 
ATOM     15  C   UNL A   1      42.287  28.330  29.334  1.00  0.00     0.026 C 
ATOM     16  C   UNL A   1      40.505  28.013  27.595  1.00  0.00     0.026 C 
BRANCH  10  17
ATOM     17  N   UNL A   1      42.781  24.631  26.536  1.00  0.00    -0.323 N 
ATOM     18  C   UNL A   1      43.734  24.705  25.435  1.00  0.00     0.149 C 
BRANCH  17  19
ATOM     19  C   UNL A   1      41.853  23.480  26.529  1.00  0.00     0.109 C 
ATOM     20  C   UNL A   1      40.457  23.913  26.981  1.00  0.00     0.033 C 
BRANCH  19  21
ATOM     21  C   UNL A   1      42.422  22.270  27.311  1.00  0.00     0.184 C 
BRANCH  21  22
ATOM     22  O   UNL A   1      41.414  21.447  27.905  1.00  0.00    -0.383 OA
ATOM     23  C   UNL A   1      41.170  20.242  27.189  1.00  0.00     0.194 C 
ENDBRANCH  21  22
ENDBRANCH  19  21
ENDBRANCH  17  19
ENDBRANCH  10  17
ENDBRANCH   8   9
ENDBRANCH   6   8
ENDBRANCH   5   6
ENDBRANCH   4   5
ENDBRANCH   3   4
ENDBRANCH   2   3
ENDBRANCH   1   2
BRANCH   1  24
ATOM     24  C   UNL A   1      34.019  34.013  29.237  1.00  0.00     0.188 C 
BRANCH  24  25
ATOM     25  O   UNL A   1      33.075  34.731  30.018  1.00  0.00    -0.377 OA
BRANCH  25  26
ATOM     26  C   UNL A   1      33.517  35.723  30.943  1.00  0.00     0.188 C 
BRANCH  26  27
ATOM     27  C   UNL A   1      33.428  35.495  32.466  1.00  0.00     0.188 C 
BRANCH  27  28
ATOM     28  O   UNL A   1      34.627  35.730  33.177  1.00  0.00    -0.376 OA
BRANCH  28  29
ATOM     29  C   UNL A   1      35.135  34.694  34.005  1.00  0.00     0.202 C 
BRANCH  29  30
ATOM     30  C   UNL A   1      36.397  33.957  33.533  1.00  0.00     0.261 C 
BRANCH  30  31
ATOM     31  O   UNL A   1      36.586  32.624  34.042  1.00  0.00    -0.460 OA
BRANCH  31  32
ATOM     32  C   UNL A   1      37.402  32.454  35.107  1.00  0.00     0.338 C 
ATOM     33  O   UNL A   1      37.141  32.626  36.277  1.00  0.00    -0.246 OA
BRANCH  32  34
ATOM     34  C   UNL A   1      38.649  31.840  34.603  1.00  0.00     0.060 A 
ATOM     35  C   UNL A   1      39.879  32.224  35.156  1.00  0.00     0.016 A 
ATOM     36  C   UNL A   1      38.597  30.883  33.589  1.00  0.00     0.016 A 
ATOM     37  C   UNL A   1      41.065  31.657  34.685  1.00  0.00     0.010 A 
ATOM     38  C   UNL A   1      39.785  30.335  33.103  1.00  0.00     0.010 A 
ATOM     39  C   UNL A   1      41.027  30.733  33.633  1.00  0.00    -0.014 A 
BRANCH  39  40
ATOM     40  C   UNL A   1      42.278  30.290  32.968  1.00  0.00     0.031 A 
ATOM     41  C   UNL A   1      42.814  31.115  31.831  1.00  0.00     0.074 A 
ATOM     42  C   UNL A   1      42.916  29.171  33.353  1.00  0.00     0.049 A 
ATOM     43  N   UNL A   1      43.794  30.859  31.005  1.00  0.00    -0.248 NA
ATOM     44  C   UNL A   1      42.150  32.408  31.595  1.00  0.00     0.031 C 
ATOM     45  C   UNL A   1      42.533  28.320  34.477  1.00  0.00     0.029 A 
ATOM     46  N   UNL A   1      44.018  28.546  32.817  1.00  0.00    -0.354 N 
ATOM     47  C   UNL A   1      43.865  31.954  30.153  1.00  0.00     0.074 A 
ATOM     48  C   UNL A   1      42.808  32.862  30.539  1.00  0.00     0.031 C 
ATOM     49  C   UNL A   1      43.371  27.269  34.533  1.00  0.00     0.029 A 
ATOM     50  C   UNL A   1      44.317  27.349  33.421  1.00  0.00     0.049 A 
ATOM     51  H   UNL A   1      44.542  28.922  32.073  1.00  0.00     0.167 HD
ATOM     52  C   UNL A   1      44.741  32.183  29.147  1.00  0.00     0.037 A 
ATOM     53  C   UNL A   1      45.221  26.407  33.081  1.00  0.00     0.037 A 
ATOM     54  C   UNL A   1      45.784  31.270  28.759  1.00  0.00     0.049 A 
ATOM     55  C   UNL A   1      46.095  26.629  31.869  1.00  0.00     0.074 A 
ATOM     56  C   UNL A   1      46.713  31.405  27.743  1.00  0.00     0.029 A 
ATOM     57  N   UNL A   1      46.028  30.049  29.367  1.00  0.00    -0.354 N 
ATOM     58  N   UNL A   1      46.170  27.671  31.075  1.00  0.00    -0.248 NA
ATOM     59  C   UNL A   1      47.008  25.536  31.498  1.00  0.00     0.031 C 
ATOM     60  C   UNL A   1      47.488  30.242  27.704  1.00  0.00     0.029 A 
ATOM     61  C   UNL A   1      47.078  29.408  28.730  1.00  0.00     0.049 A 
ATOM     62  H   UNL A   1      45.530  29.690  30.137  1.00  0.00     0.167 HD
ATOM     63  C   UNL A   1      47.155  27.373  30.142  1.00  0.00     0.074 A 
ATOM     64  C   UNL A   1      47.666  26.061  30.475  1.00  0.00     0.031 C 
ATOM     65  C   UNL A   1      47.594  28.113  29.095  1.00  0.00     0.037 A 
BRANCH  52  66
ATOM     66  C   UNL A   1      44.609  33.468  28.385  1.00  0.00     0.064 A 
ATOM     67  C   UNL A   1      43.925  33.527  27.162  1.00  0.00     0.173 A 
ATOM     68  C   UNL A   1      45.114  34.666  28.914  1.00  0.00     0.173 A 
ATOM     69  F   UNL A   1      43.436  32.408  26.608  1.00  0.00    -0.203 F 
ATOM     70  C   UNL A   1      43.764  34.736  26.490  1.00  0.00     0.198 A 
ATOM     71  C   UNL A   1      44.924  35.877  28.255  1.00  0.00     0.198 A 
ATOM     72  F   UNL A   1      45.771  34.666  30.084  1.00  0.00    -0.203 F 
ATOM     73  F   UNL A   1      43.138  34.762  25.306  1.00  0.00    -0.200 F 
ATOM     74  C   UNL A   1      44.254  35.910  27.041  1.00  0.00     0.200 A 
ATOM     75  F   UNL A   1      45.385  37.014  28.796  1.00  0.00    -0.200 F 
ATOM     76  F   UNL A   1      44.081  37.075  26.401  1.00  0.00    -0.200 F 
ENDBRANCH  52  66
BRANCH  53  77
ATOM     77  C   UNL A   1      45.331  25.140  33.857  1.00  0.00     0.064 A 
ATOM     78  C   UNL A   1      44.578  24.010  33.506  1.00  0.00     0.173 A 
ATOM     79  C   UNL A   1      46.125  25.056  35.011  1.00  0.00     0.173 A 
ATOM     80  F   UNL A   1      43.779  24.048  32.429  1.00  0.00    -0.203 F 
ATOM     81  C   UNL A   1      44.582  22.863  34.298  1.00  0.00     0.198 A 
ATOM     82  C   UNL A   1      46.159  23.895  35.781  1.00  0.00     0.198 A 
ATOM     83  F   UNL A   1      46.861  26.107  35.400  1.00  0.00    -0.203 F 
ATOM     84  F   UNL A   1      43.792  21.829  33.979  1.00  0.00    -0.200 F 
ATOM     85  C   UNL A   1      45.376  22.805  35.433  1.00  0.00     0.200 A 
ATOM     86  F   UNL A   1      46.935  23.839  36.872  1.00  0.00    -0.200 F 
ATOM     87  F   UNL A   1      45.371  21.707  36.201  1.00  0.00    -0.200 F 
ENDBRANCH  53  77
BRANCH  65  88
ATOM     88  C   UNL A   1      48.710  27.553  28.259  1.00  0.00     0.064 A 
ATOM     89  C   UNL A   1      48.458  26.790  27.110  1.00  0.00     0.173 A 
ATOM     90  C   UNL A   1      50.047  27.844  28.575  1.00  0.00     0.173 A 
ATOM     91  F   UNL A   1      47.198  26.472  26.774  1.00  0.00    -0.203 F 
ATOM     92  C   UNL A   1      49.504  26.323  26.318  1.00  0.00     0.198 A 
ATOM     93  C   UNL A   1      51.087  27.405  27.761  1.00  0.00     0.198 A 
ATOM     94  F   UNL A   1      50.342  28.578  29.658  1.00  0.00    -0.203 F 
ATOM     95  F   UNL A   1      49.241  25.561  25.248  1.00  0.00    -0.200 F 
ATOM     96  C   UNL A   1      50.816  26.640  26.637  1.00  0.00     0.200 A 
ATOM     97  F   UNL A   1      52.353  27.728  28.062  1.00  0.00    -0.200 F 
ATOM     98  F   UNL A   1      51.819  26.206  25.862  1.00  0.00    -0.200 F 
ENDBRANCH  65  88
ENDBRANCH  39  40
ENDBRANCH  32  34
ENDBRANCH  31  32
ENDBRANCH  30  31
ENDBRANCH  29  30
ENDBRANCH  28  29
ENDBRANCH  27  28
ENDBRANCH  26  27
ENDBRANCH  25  26
ENDBRANCH  24  25
ENDBRANCH   1  24
TORSDOF 25
ENDMDL
