MODEL 1
REMARK VINA RESULT:     -11.3      0.000      0.000
REMARK SMILES Cc1cc(C)n(C)c(=O)c1C(=O)[NH+]1CCC2(CC1)C[NH2+][C@@H](C(=O)OCCOCCOCCOCCOC(=O)c1ccc(-c3c4nc(c(-c5c(F)c(F)c(F)c(F)c5F)c5ccc([nH]5)c(-c5c(F)c(F)c(F)c(F)c5F)c5nc(c(-c6c(F)c(F)c(F)c(F)c6F)c6ccc3[nH]6)C=C5)C=C4)cc1)C2
REMARK SMILES IDX 30 1 29 2 28 3 27 4 26 5 25 6 24 7 22 8 23 9 21 10 13 11
REMARK SMILES IDX 14 12 18 13 15 15 17 16 16 17 19 18 102 19 20 20 11 23 12 24
REMARK SMILES IDX 10 25 1 26 2 27 3 28 4 29 8 30 5 31 6 32 9 33 7 34 31 35
REMARK SMILES IDX 32 36 33 37 34 38 35 39 36 40 37 41 38 42 39 43 40 44 101 45
REMARK SMILES IDX 41 46 100 47 42 48 43 49 44 50 94 51 45 52 99 53 93 54 95 55
REMARK SMILES IDX 46 56 98 57 92 58 91 59 47 61 79 62 59 63 78 64 60 65 63 66
REMARK SMILES IDX 77 67 96 68 61 69 62 70 76 72 97 73 64 74 48 75 49 76 57 77
REMARK SMILES IDX 50 78 51 79 55 80 58 81 52 82 53 83 56 84 54 85 80 86 81 87
REMARK SMILES IDX 89 88 82 89 83 90 87 91 90 92 84 93 85 94 88 95 86 96 65 97
REMARK SMILES IDX 66 98 74 99 67 100 68 101 72 102 75 103 69 104 70 105 73 106
REMARK SMILES IDX 71 107
REMARK H PARENT 13 14 20 21 20 22 95 60 63 71
REMARK Flexibility Score: inf
ROOT
ATOM      1  O   UNL A   1      35.367  18.984  24.627  1.00  0.00    -0.377 OA
ENDROOT
BRANCH   1   2
ATOM      2  C   UNL A   1      35.141  17.621  24.350  1.00  0.00     0.188 C 
BRANCH   2   3
ATOM      3  C   UNL A   1      33.840  17.060  24.944  1.00  0.00     0.188 C 
BRANCH   3   4
ATOM      4  O   UNL A   1      32.575  17.413  24.394  1.00  0.00    -0.376 OA
BRANCH   4   5
ATOM      5  C   UNL A   1      32.470  18.407  23.383  1.00  0.00     0.202 C 
BRANCH   5   6
ATOM      6  C   UNL A   1      32.440  19.904  23.733  1.00  0.00     0.261 C 
BRANCH   6   7
ATOM      7  O   UNL A   1      32.150  20.205  25.103  1.00  0.00    -0.459 OA
BRANCH   7   8
ATOM      8  C   UNL A   1      33.107  20.881  25.786  1.00  0.00     0.364 C 
ATOM      9  O   UNL A   1      33.607  20.509  26.844  1.00  0.00    -0.245 OA
BRANCH   8  10
ATOM     10  C   UNL A   1      33.529  22.186  25.103  1.00  0.00     0.294 C 
ATOM     11  N   UNL A   1      32.258  27.248  24.402  1.00  0.00    -0.267 N 
ATOM     12  C   UNL A   1      32.087  26.169  23.444  1.00  0.00     0.271 C 
ATOM     13  C   UNL A   1      32.168  26.818  25.792  1.00  0.00     0.271 C 
ATOM     14  H   UNL A   1      31.495  26.786  23.986  1.00  0.00     0.357 HD
ATOM     15  C   UNL A   1      33.286  25.240  23.565  1.00  0.00     0.075 C 
ATOM     16  C   UNL A   1      33.121  25.648  26.129  1.00  0.00     0.075 C 
ATOM     17  C   UNL A   1      33.451  24.638  24.982  1.00  0.00     0.036 C 
ATOM     18  C   UNL A   1      34.883  24.060  25.120  1.00  0.00     0.268 C 
ATOM     19  C   UNL A   1      32.579  23.375  25.123  1.00  0.00     0.090 C 
ATOM     20  N   UNL A   1      34.726  22.752  25.746  1.00  0.00    -0.334 N 
ATOM     21  H   UNL A   1      34.584  22.846  26.752  1.00  0.00     0.347 HD
ATOM     22  H   UNL A   1      35.549  22.161  25.629  1.00  0.00     0.347 HD
BRANCH  11  23
ATOM     23  C   UNL A   1      32.222  28.550  23.912  1.00  0.00     0.350 C 
ATOM     24  O   UNL A   1      33.284  29.090  23.587  1.00  0.00    -0.225 OA
BRANCH  23  25
ATOM     25  C   UNL A   1      30.954  29.385  23.932  1.00  0.00     0.147 A 
ATOM     26  C   UNL A   1      31.538  30.914  25.909  1.00  0.00     0.045 C 
ATOM     27  C   UNL A   1      30.695  30.402  24.788  1.00  0.00    -0.027 A 
ATOM     28  C   UNL A   1      29.529  31.245  24.623  1.00  0.00     0.026 A 
ATOM     29  C   UNL A   1      28.806  31.245  23.498  1.00  0.00     0.018 A 
ATOM     30  C   UNL A   1      30.017  29.263  22.730  1.00  0.00     0.267 A 
ATOM     31  C   UNL A   1      27.713  32.268  23.352  1.00  0.00     0.064 C 
ATOM     32  N   UNL A   1      29.082  30.300  22.522  1.00  0.00    -0.315 N 
ATOM     33  O   UNL A   1      30.085  28.301  21.965  1.00  0.00    -0.268 OA
ATOM     34  C   UNL A   1      28.359  30.323  21.256  1.00  0.00     0.153 C 
ENDBRANCH  23  25
ENDBRANCH  11  23
ENDBRANCH   8  10
ENDBRANCH   7   8
ENDBRANCH   6   7
ENDBRANCH   5   6
ENDBRANCH   4   5
ENDBRANCH   3   4
ENDBRANCH   2   3
ENDBRANCH   1   2
BRANCH   1  35
ATOM     35  C   UNL A   1      36.718  19.319  24.915  1.00  0.00     0.188 C 
BRANCH  35  36
ATOM     36  C   UNL A   1      37.180  20.755  24.577  1.00  0.00     0.188 C 
BRANCH  36  37
ATOM     37  O   UNL A   1      37.873  21.426  25.624  1.00  0.00    -0.376 OA
BRANCH  37  38
ATOM     38  C   UNL A   1      39.278  21.242  25.759  1.00  0.00     0.202 C 
BRANCH  38  39
ATOM     39  C   UNL A   1      39.811  19.847  26.137  1.00  0.00     0.261 C 
BRANCH  39  40
ATOM     40  O   UNL A   1      40.926  19.355  25.377  1.00  0.00    -0.460 OA
BRANCH  40  41
ATOM     41  C   UNL A   1      42.088  19.144  26.024  1.00  0.00     0.338 C 
ATOM     42  O   UNL A   1      42.655  18.077  26.194  1.00  0.00    -0.246 OA
BRANCH  41  43
ATOM     43  C   UNL A   1      42.690  20.464  26.309  1.00  0.00     0.060 A 
ATOM     44  C   UNL A   1      42.630  20.961  27.619  1.00  0.00     0.016 A 
ATOM     45  C   UNL A   1      43.325  21.197  25.304  1.00  0.00     0.016 A 
ATOM     46  C   UNL A   1      43.174  22.207  27.922  1.00  0.00     0.010 A 
ATOM     47  C   UNL A   1      43.834  22.466  25.599  1.00  0.00     0.010 A 
ATOM     48  C   UNL A   1      43.724  22.989  26.899  1.00  0.00    -0.014 A 
BRANCH  48  49
ATOM     49  C   UNL A   1      43.922  24.439  27.132  1.00  0.00     0.031 A 
ATOM     50  C   UNL A   1      45.289  25.006  26.866  1.00  0.00     0.074 A 
ATOM     51  C   UNL A   1      42.918  25.244  27.511  1.00  0.00     0.049 A 
ATOM     52  N   UNL A   1      45.735  26.225  27.024  1.00  0.00    -0.248 NA
ATOM     53  C   UNL A   1      46.291  24.060  26.344  1.00  0.00     0.031 C 
ATOM     54  C   UNL A   1      41.534  24.831  27.714  1.00  0.00     0.029 A 
ATOM     55  N   UNL A   1      42.918  26.589  27.786  1.00  0.00    -0.354 N 
ATOM     56  C   UNL A   1      47.061  26.193  26.615  1.00  0.00     0.074 A 
ATOM     57  C   UNL A   1      47.364  24.827  26.249  1.00  0.00     0.031 C 
ATOM     58  C   UNL A   1      40.812  25.906  28.081  1.00  0.00     0.029 A 
ATOM     59  C   UNL A   1      41.693  27.070  28.173  1.00  0.00     0.049 A 
ATOM     60  H   UNL A   1      43.720  27.155  27.711  1.00  0.00     0.167 HD
ATOM     61  C   UNL A   1      47.945  27.214  26.534  1.00  0.00     0.037 A 
ATOM     62  C   UNL A   1      41.335  28.308  28.570  1.00  0.00     0.037 A 
ATOM     63  C   UNL A   1      47.650  28.566  26.925  1.00  0.00     0.049 A 
ATOM     64  C   UNL A   1      42.371  29.402  28.610  1.00  0.00     0.074 A 
ATOM     65  C   UNL A   1      48.483  29.669  26.916  1.00  0.00     0.029 A 
ATOM     66  N   UNL A   1      46.420  28.997  27.403  1.00  0.00    -0.354 N 
ATOM     67  N   UNL A   1      43.628  29.367  28.242  1.00  0.00    -0.248 NA
ATOM     68  C   UNL A   1      41.934  30.708  29.126  1.00  0.00     0.031 C 
ATOM     69  C   UNL A   1      47.776  30.754  27.445  1.00  0.00     0.029 A 
ATOM     70  C   UNL A   1      46.481  30.343  27.723  1.00  0.00     0.049 A 
ATOM     71  H   UNL A   1      45.622  28.428  27.503  1.00  0.00     0.167 HD
ATOM     72  C   UNL A   1      44.129  30.646  28.457  1.00  0.00     0.074 A 
ATOM     73  C   UNL A   1      43.031  31.438  28.976  1.00  0.00     0.031 C 
ATOM     74  C   UNL A   1      45.382  31.120  28.243  1.00  0.00     0.037 A 
BRANCH  61  75
ATOM     75  C   UNL A   1      49.321  26.887  26.029  1.00  0.00     0.064 A 
ATOM     76  C   UNL A   1      50.344  26.467  26.897  1.00  0.00     0.173 A 
ATOM     77  C   UNL A   1      49.628  27.001  24.665  1.00  0.00     0.173 A 
ATOM     78  F   UNL A   1      50.110  26.363  28.214  1.00  0.00    -0.203 F 
ATOM     79  C   UNL A   1      51.627  26.211  26.422  1.00  0.00     0.198 A 
ATOM     80  C   UNL A   1      50.903  26.709  24.189  1.00  0.00     0.198 A 
ATOM     81  F   UNL A   1      48.690  27.399  23.792  1.00  0.00    -0.203 F 
ATOM     82  F   UNL A   1      52.601  25.877  27.279  1.00  0.00    -0.200 F 
ATOM     83  C   UNL A   1      51.904  26.326  25.068  1.00  0.00     0.200 A 
ATOM     84  F   UNL A   1      51.167  26.808  22.879  1.00  0.00    -0.200 F 
ATOM     85  F   UNL A   1      53.140  26.077  24.613  1.00  0.00    -0.200 F 
ENDBRANCH  61  75
BRANCH  62  86
ATOM     86  C   UNL A   1      39.920  28.576  28.936  1.00  0.00     0.064 A 
ATOM     87  C   UNL A   1      39.464  28.348  30.242  1.00  0.00     0.173 A 
ATOM     88  C   UNL A   1      39.007  29.099  28.008  1.00  0.00     0.173 A 
ATOM     89  F   UNL A   1      40.292  27.822  31.156  1.00  0.00    -0.203 F 
ATOM     90  C   UNL A   1      38.153  28.643  30.609  1.00  0.00     0.198 A 
ATOM     91  C   UNL A   1      37.703  29.417  28.383  1.00  0.00     0.198 A 
ATOM     92  F   UNL A   1      39.391  29.326  26.743  1.00  0.00    -0.203 F 
ATOM     93  F   UNL A   1      37.738  28.398  31.859  1.00  0.00    -0.200 F 
ATOM     94  C   UNL A   1      37.277  29.188  29.682  1.00  0.00     0.200 A 
ATOM     95  F   UNL A   1      36.863  29.954  27.487  1.00  0.00    -0.200 F 
ATOM     96  F   UNL A   1      36.023  29.493  30.041  1.00  0.00    -0.200 F 
ENDBRANCH  62  86
BRANCH  74  97
ATOM     97  C   UNL A   1      45.644  32.568  28.552  1.00  0.00     0.064 A 
ATOM     98  C   UNL A   1      46.056  32.986  29.827  1.00  0.00     0.173 A 
ATOM     99  C   UNL A   1      45.554  33.540  27.543  1.00  0.00     0.173 A 
ATOM    100  F   UNL A   1      46.149  32.100  30.830  1.00  0.00    -0.203 F 
ATOM    101  C   UNL A   1      46.346  34.323  30.084  1.00  0.00     0.198 A 
ATOM    102  C   UNL A   1      45.878  34.871  27.795  1.00  0.00     0.198 A 
ATOM    103  F   UNL A   1      45.175  33.195  26.302  1.00  0.00    -0.203 F 
ATOM    104  F   UNL A   1      46.697  34.705  31.319  1.00  0.00    -0.200 F 
ATOM    105  C   UNL A   1      46.268  35.262  29.066  1.00  0.00     0.200 A 
ATOM    106  F   UNL A   1      45.822  35.772  26.805  1.00  0.00    -0.200 F 
ATOM    107  F   UNL A   1      46.566  36.545  29.312  1.00  0.00    -0.200 F 
ENDBRANCH  74  97
ENDBRANCH  48  49
ENDBRANCH  41  43
ENDBRANCH  40  41
ENDBRANCH  39  40
ENDBRANCH  38  39
ENDBRANCH  37  38
ENDBRANCH  36  37
ENDBRANCH  35  36
ENDBRANCH   1  35
TORSDOF 22
ENDMDL
MODEL 2
REMARK VINA RESULT:     -11.1      2.682      7.979
REMARK SMILES Cc1cc(C)n(C)c(=O)c1C(=O)[NH+]1CCC2(CC1)C[NH2+][C@@H](C(=O)OCCOCCOCCOCCOC(=O)c1ccc(-c3c4nc(c(-c5c(F)c(F)c(F)c(F)c5F)c5ccc([nH]5)c(-c5c(F)c(F)c(F)c(F)c5F)c5nc(c(-c6c(F)c(F)c(F)c(F)c6F)c6ccc3[nH]6)C=C5)C=C4)cc1)C2
REMARK SMILES IDX 30 1 29 2 28 3 27 4 26 5 25 6 24 7 22 8 23 9 21 10 13 11
REMARK SMILES IDX 14 12 18 13 15 15 17 16 16 17 19 18 102 19 20 20 11 23 12 24
REMARK SMILES IDX 10 25 1 26 2 27 3 28 4 29 8 30 5 31 6 32 9 33 7 34 31 35
REMARK SMILES IDX 32 36 33 37 34 38 35 39 36 40 37 41 38 42 39 43 40 44 101 45
REMARK SMILES IDX 41 46 100 47 42 48 43 49 44 50 94 51 45 52 99 53 93 54 95 55
REMARK SMILES IDX 46 56 98 57 92 58 91 59 47 61 79 62 59 63 78 64 60 65 63 66
REMARK SMILES IDX 77 67 96 68 61 69 62 70 76 72 97 73 64 74 48 75 49 76 57 77
REMARK SMILES IDX 50 78 51 79 55 80 58 81 52 82 53 83 56 84 54 85 80 86 81 87
REMARK SMILES IDX 89 88 82 89 83 90 87 91 90 92 84 93 85 94 88 95 86 96 65 97
REMARK SMILES IDX 66 98 74 99 67 100 68 101 72 102 75 103 69 104 70 105 73 106
REMARK SMILES IDX 71 107
REMARK H PARENT 13 14 20 21 20 22 95 60 63 71
REMARK Flexibility Score: inf
ROOT
ATOM      1  O   UNL A   1      34.937  21.736  24.391  1.00  0.00    -0.377 OA
ENDROOT
BRANCH   1   2
ATOM      2  C   UNL A   1      33.898  22.322  23.640  1.00  0.00     0.188 C 
BRANCH   2   3
ATOM      3  C   UNL A   1      32.501  21.761  23.944  1.00  0.00     0.188 C 
BRANCH   3   4
ATOM      4  O   UNL A   1      32.061  21.586  25.288  1.00  0.00    -0.376 OA
BRANCH   4   5
ATOM      5  C   UNL A   1      31.292  22.587  25.940  1.00  0.00     0.202 C 
BRANCH   5   6
ATOM      6  C   UNL A   1      31.925  23.911  26.399  1.00  0.00     0.261 C 
BRANCH   6   7
ATOM      7  O   UNL A   1      31.839  24.987  25.457  1.00  0.00    -0.459 OA
BRANCH   7   8
ATOM      8  C   UNL A   1      30.961  25.978  25.754  1.00  0.00     0.364 C 
ATOM      9  O   UNL A   1      29.810  25.800  26.144  1.00  0.00    -0.245 OA
BRANCH   8  10
ATOM     10  C   UNL A   1      31.546  27.381  25.560  1.00  0.00     0.294 C 
ATOM     11  N   UNL A   1      34.005  31.356  27.986  1.00  0.00    -0.267 N 
ATOM     12  C   UNL A   1      32.601  31.302  27.612  1.00  0.00     0.271 C 
ATOM     13  C   UNL A   1      34.583  30.052  28.285  1.00  0.00     0.271 C 
ATOM     14  H   UNL A   1      33.146  31.325  28.465  1.00  0.00     0.357 HD
ATOM     15  C   UNL A   1      32.502  30.596  26.268  1.00  0.00     0.075 C 
ATOM     16  C   UNL A   1      34.371  29.019  27.155  1.00  0.00     0.075 C 
ATOM     17  C   UNL A   1      33.077  29.159  26.289  1.00  0.00     0.036 C 
ATOM     18  C   UNL A   1      33.308  28.687  24.830  1.00  0.00     0.268 C 
ATOM     19  C   UNL A   1      32.003  28.168  26.780  1.00  0.00     0.090 C 
ATOM     20  N   UNL A   1      32.781  27.328  24.762  1.00  0.00    -0.334 N 
ATOM     21  H   UNL A   1      33.442  26.663  25.164  1.00  0.00     0.347 HD
ATOM     22  H   UNL A   1      32.615  27.021  23.804  1.00  0.00     0.347 HD
BRANCH  11  23
ATOM     23  C   UNL A   1      34.544  32.609  28.264  1.00  0.00     0.350 C 
ATOM     24  O   UNL A   1      35.338  33.104  27.459  1.00  0.00    -0.225 OA
BRANCH  23  25
ATOM     25  C   UNL A   1      34.330  33.301  29.599  1.00  0.00     0.147 A 
ATOM     26  C   UNL A   1      36.061  32.002  30.981  1.00  0.00     0.045 C 
ATOM     27  C   UNL A   1      35.006  33.032  30.742  1.00  0.00    -0.027 A 
ATOM     28  C   UNL A   1      34.846  33.857  31.921  1.00  0.00     0.026 A 
ATOM     29  C   UNL A   1      34.251  35.053  31.876  1.00  0.00     0.018 A 
ATOM     30  C   UNL A   1      33.495  34.582  29.598  1.00  0.00     0.267 A 
ATOM     31  C   UNL A   1      34.275  35.910  33.112  1.00  0.00     0.064 C 
ATOM     32  N   UNL A   1      33.628  35.449  30.703  1.00  0.00    -0.315 N 
ATOM     33  O   UNL A   1      32.744  34.850  28.660  1.00  0.00    -0.268 OA
ATOM     34  C   UNL A   1      33.035  36.777  30.601  1.00  0.00     0.153 C 
ENDBRANCH  23  25
ENDBRANCH  11  23
ENDBRANCH   8  10
ENDBRANCH   7   8
ENDBRANCH   6   7
ENDBRANCH   5   6
ENDBRANCH   4   5
ENDBRANCH   3   4
ENDBRANCH   2   3
ENDBRANCH   1   2
BRANCH   1  35
ATOM     35  C   UNL A   1      36.067  22.571  24.600  1.00  0.00     0.188 C 
BRANCH  35  36
ATOM     36  C   UNL A   1      36.873  22.361  25.903  1.00  0.00     0.188 C 
BRANCH  36  37
ATOM     37  O   UNL A   1      38.274  22.581  25.786  1.00  0.00    -0.376 OA
BRANCH  37  38
ATOM     38  C   UNL A   1      39.157  21.467  25.794  1.00  0.00     0.202 C 
BRANCH  38  39
ATOM     39  C   UNL A   1      40.205  21.357  26.919  1.00  0.00     0.261 C 
BRANCH  39  40
ATOM     40  O   UNL A   1      40.983  20.151  26.959  1.00  0.00    -0.460 OA
BRANCH  40  41
ATOM     41  C   UNL A   1      42.049  20.060  26.140  1.00  0.00     0.338 C 
ATOM     42  O   UNL A   1      42.252  19.214  25.285  1.00  0.00    -0.246 OA
BRANCH  41  43
ATOM     43  C   UNL A   1      42.841  21.299  26.295  1.00  0.00     0.060 A 
ATOM     44  C   UNL A   1      43.401  21.585  27.550  1.00  0.00     0.016 A 
ATOM     45  C   UNL A   1      43.050  22.160  25.216  1.00  0.00     0.016 A 
ATOM     46  C   UNL A   1      44.143  22.749  27.737  1.00  0.00     0.010 A 
ATOM     47  C   UNL A   1      43.759  23.348  25.414  1.00  0.00     0.010 A 
ATOM     48  C   UNL A   1      44.272  23.663  26.685  1.00  0.00    -0.014 A 
BRANCH  48  49
ATOM     49  C   UNL A   1      44.693  25.052  26.988  1.00  0.00     0.031 A 
ATOM     50  C   UNL A   1      43.659  25.983  27.558  1.00  0.00     0.074 A 
ATOM     51  C   UNL A   1      45.958  25.466  26.821  1.00  0.00     0.049 A 
ATOM     52  N   UNL A   1      43.756  27.249  27.873  1.00  0.00    -0.248 NA
ATOM     53  C   UNL A   1      42.331  25.399  27.809  1.00  0.00     0.031 C 
ATOM     54  C   UNL A   1      47.066  24.636  26.361  1.00  0.00     0.029 A 
ATOM     55  N   UNL A   1      46.520  26.701  27.030  1.00  0.00    -0.354 N 
ATOM     56  C   UNL A   1      42.508  27.607  28.366  1.00  0.00     0.074 A 
ATOM     57  C   UNL A   1      41.657  26.442  28.261  1.00  0.00     0.031 C 
ATOM     58  C   UNL A   1      48.182  25.387  26.324  1.00  0.00     0.029 A 
ATOM     59  C   UNL A   1      47.855  26.756  26.722  1.00  0.00     0.049 A 
ATOM     60  H   UNL A   1      46.013  27.474  27.369  1.00  0.00     0.167 HD
ATOM     61  C   UNL A   1      42.110  28.795  28.876  1.00  0.00     0.037 A 
ATOM     62  C   UNL A   1      48.708  27.800  26.748  1.00  0.00     0.037 A 
ATOM     63  C   UNL A   1      42.951  29.959  28.952  1.00  0.00     0.049 A 
ATOM     64  C   UNL A   1      48.208  29.154  27.184  1.00  0.00     0.074 A 
ATOM     65  C   UNL A   1      42.637  31.222  29.417  1.00  0.00     0.029 A 
ATOM     66  N   UNL A   1      44.277  30.002  28.541  1.00  0.00    -0.354 N 
ATOM     67  N   UNL A   1      47.025  29.497  27.630  1.00  0.00    -0.248 NA
ATOM     68  C   UNL A   1      49.167  30.267  27.114  1.00  0.00     0.031 C 
ATOM     69  C   UNL A   1      43.754  32.044  29.235  1.00  0.00     0.029 A 
ATOM     70  C   UNL A   1      44.786  31.278  28.715  1.00  0.00     0.049 A 
ATOM     71  H   UNL A   1      44.780  29.237  28.178  1.00  0.00     0.167 HD
ATOM     72  C   UNL A   1      47.099  30.855  27.918  1.00  0.00     0.074 A 
ATOM     73  C   UNL A   1      48.452  31.270  27.608  1.00  0.00     0.031 C 
ATOM     74  C   UNL A   1      46.135  31.681  28.397  1.00  0.00     0.037 A 
BRANCH  61  75
ATOM     75  C   UNL A   1      40.692  28.890  29.360  1.00  0.00     0.064 A 
ATOM     76  C   UNL A   1      40.359  28.677  30.708  1.00  0.00     0.173 A 
ATOM     77  C   UNL A   1      39.651  29.189  28.469  1.00  0.00     0.173 A 
ATOM     78  F   UNL A   1      41.314  28.367  31.598  1.00  0.00    -0.203 F 
ATOM     79  C   UNL A   1      39.035  28.722  31.136  1.00  0.00     0.198 A 
ATOM     80  C   UNL A   1      38.332  29.269  28.907  1.00  0.00     0.198 A 
ATOM     81  F   UNL A   1      39.912  29.401  27.170  1.00  0.00    -0.203 F 
ATOM     82  F   UNL A   1      38.736  28.450  32.413  1.00  0.00    -0.200 F 
ATOM     83  C   UNL A   1      38.023  29.025  30.237  1.00  0.00     0.200 A 
ATOM     84  F   UNL A   1      37.357  29.574  28.040  1.00  0.00    -0.200 F 
ATOM     85  F   UNL A   1      36.750  29.071  30.650  1.00  0.00    -0.200 F 
ENDBRANCH  61  75
BRANCH  62  86
ATOM     86  C   UNL A   1      50.129  27.591  26.369  1.00  0.00     0.064 A 
ATOM     87  C   UNL A   1      50.528  27.658  25.027  1.00  0.00     0.173 A 
ATOM     88  C   UNL A   1      51.121  27.362  27.335  1.00  0.00     0.173 A 
ATOM     89  F   UNL A   1      49.612  27.846  24.066  1.00  0.00    -0.203 F 
ATOM     90  C   UNL A   1      51.866  27.513  24.665  1.00  0.00     0.198 A 
ATOM     91  C   UNL A   1      52.462  27.243  26.974  1.00  0.00     0.198 A 
ATOM     92  F   UNL A   1      50.790  27.282  28.632  1.00  0.00    -0.203 F 
ATOM     93  F   UNL A   1      52.218  27.561  23.374  1.00  0.00    -0.200 F 
ATOM     94  C   UNL A   1      52.833  27.318  25.640  1.00  0.00     0.200 A 
ATOM     95  F   UNL A   1      53.394  27.066  27.920  1.00  0.00    -0.200 F 
ATOM     96  F   UNL A   1      54.122  27.202  25.295  1.00  0.00    -0.200 F 
ENDBRANCH  62  86
BRANCH  74  97
ATOM     97  C   UNL A   1      46.501  33.119  28.634  1.00  0.00     0.064 A 
ATOM     98  C   UNL A   1      46.414  34.078  27.613  1.00  0.00     0.173 A 
ATOM     99  C   UNL A   1      46.872  33.560  29.914  1.00  0.00     0.173 A 
ATOM    100  F   UNL A   1      46.074  33.711  26.369  1.00  0.00    -0.203 F 
ATOM    101  C   UNL A   1      46.706  35.417  27.861  1.00  0.00     0.198 A 
ATOM    102  C   UNL A   1      47.129  34.904  30.167  1.00  0.00     0.198 A 
ATOM    103  F   UNL A   1      46.960  32.687  30.931  1.00  0.00    -0.203 F 
ATOM    104  F   UNL A   1      46.657  36.308  26.861  1.00  0.00    -0.200 F 
ATOM    105  C   UNL A   1      47.052  35.831  29.139  1.00  0.00     0.200 A 
ATOM    106  F   UNL A   1      47.443  35.305  31.406  1.00  0.00    -0.200 F 
ATOM    107  F   UNL A   1      47.314  37.123  29.378  1.00  0.00    -0.200 F 
ENDBRANCH  74  97
ENDBRANCH  48  49
ENDBRANCH  41  43
ENDBRANCH  40  41
ENDBRANCH  39  40
ENDBRANCH  38  39
ENDBRANCH  37  38
ENDBRANCH  36  37
ENDBRANCH  35  36
ENDBRANCH   1  35
TORSDOF 22
ENDMDL
MODEL 3
REMARK VINA RESULT:     -11.0      4.741      7.352
REMARK SMILES Cc1cc(C)n(C)c(=O)c1C(=O)[NH+]1CCC2(CC1)C[NH2+][C@@H](C(=O)OCCOCCOCCOCCOC(=O)c1ccc(-c3c4nc(c(-c5c(F)c(F)c(F)c(F)c5F)c5ccc([nH]5)c(-c5c(F)c(F)c(F)c(F)c5F)c5nc(c(-c6c(F)c(F)c(F)c(F)c6F)c6ccc3[nH]6)C=C5)C=C4)cc1)C2
REMARK SMILES IDX 30 1 29 2 28 3 27 4 26 5 25 6 24 7 22 8 23 9 21 10 13 11
REMARK SMILES IDX 14 12 18 13 15 15 17 16 16 17 19 18 102 19 20 20 11 23 12 24
REMARK SMILES IDX 10 25 1 26 2 27 3 28 4 29 8 30 5 31 6 32 9 33 7 34 31 35
REMARK SMILES IDX 32 36 33 37 34 38 35 39 36 40 37 41 38 42 39 43 40 44 101 45
REMARK SMILES IDX 41 46 100 47 42 48 43 49 44 50 94 51 45 52 99 53 93 54 95 55
REMARK SMILES IDX 46 56 98 57 92 58 91 59 47 61 79 62 59 63 78 64 60 65 63 66
REMARK SMILES IDX 77 67 96 68 61 69 62 70 76 72 97 73 64 74 48 75 49 76 57 77
REMARK SMILES IDX 50 78 51 79 55 80 58 81 52 82 53 83 56 84 54 85 80 86 81 87
REMARK SMILES IDX 89 88 82 89 83 90 87 91 90 92 84 93 85 94 88 95 86 96 65 97
REMARK SMILES IDX 66 98 74 99 67 100 68 101 72 102 75 103 69 104 70 105 73 106
REMARK SMILES IDX 71 107
REMARK H PARENT 13 14 20 21 20 22 95 60 63 71
REMARK Flexibility Score: inf
ROOT
ATOM      1  O   UNL A   1      35.322  22.186  26.131  1.00  0.00    -0.377 OA
ENDROOT
BRANCH   1   2
ATOM      2  C   UNL A   1      34.146  21.506  26.507  1.00  0.00     0.188 C 
BRANCH   2   3
ATOM      3  C   UNL A   1      33.127  21.325  25.372  1.00  0.00     0.188 C 
BRANCH   3   4
ATOM      4  O   UNL A   1      33.457  21.680  24.032  1.00  0.00    -0.376 OA
BRANCH   4   5
ATOM      5  C   UNL A   1      32.911  22.846  23.430  1.00  0.00     0.202 C 
BRANCH   5   6
ATOM      6  C   UNL A   1      31.947  23.766  24.197  1.00  0.00     0.261 C 
BRANCH   6   7
ATOM      7  O   UNL A   1      32.563  24.631  25.158  1.00  0.00    -0.459 OA
BRANCH   7   8
ATOM      8  C   UNL A   1      31.750  25.529  25.768  1.00  0.00     0.364 C 
ATOM      9  O   UNL A   1      30.753  25.240  26.423  1.00  0.00    -0.245 OA
BRANCH   8  10
ATOM     10  C   UNL A   1      32.199  26.982  25.570  1.00  0.00     0.294 C 
ATOM     11  N   UNL A   1      34.372  31.146  27.950  1.00  0.00    -0.267 N 
ATOM     12  C   UNL A   1      32.967  30.967  27.625  1.00  0.00     0.271 C 
ATOM     13  C   UNL A   1      35.076  29.897  28.215  1.00  0.00     0.271 C 
ATOM     14  H   UNL A   1      33.537  31.033  28.459  1.00  0.00     0.357 HD
ATOM     15  C   UNL A   1      32.884  30.265  26.277  1.00  0.00     0.075 C 
ATOM     16  C   UNL A   1      34.919  28.858  27.082  1.00  0.00     0.075 C 
ATOM     17  C   UNL A   1      33.587  28.886  26.264  1.00  0.00     0.036 C 
ATOM     18  C   UNL A   1      33.809  28.448  24.793  1.00  0.00     0.268 C 
ATOM     19  C   UNL A   1      32.626  27.798  26.781  1.00  0.00     0.090 C 
ATOM     20  N   UNL A   1      33.404  27.047  24.728  1.00  0.00    -0.334 N 
ATOM     21  H   UNL A   1      34.137  26.442  25.100  1.00  0.00     0.347 HD
ATOM     22  H   UNL A   1      33.233  26.733  23.774  1.00  0.00     0.347 HD
BRANCH  11  23
ATOM     23  C   UNL A   1      34.806  32.440  28.223  1.00  0.00     0.350 C 
ATOM     24  O   UNL A   1      35.643  32.954  27.475  1.00  0.00    -0.225 OA
BRANCH  23  25
ATOM     25  C   UNL A   1      34.422  33.167  29.499  1.00  0.00     0.147 A 
ATOM     26  C   UNL A   1      36.083  32.034  31.095  1.00  0.00     0.045 C 
ATOM     27  C   UNL A   1      34.997  32.985  30.712  1.00  0.00    -0.027 A 
ATOM     28  C   UNL A   1      34.674  33.842  31.833  1.00  0.00     0.026 A 
ATOM     29  C   UNL A   1      34.017  34.996  31.680  1.00  0.00     0.018 A 
ATOM     30  C   UNL A   1      33.517  34.392  29.362  1.00  0.00     0.267 A 
ATOM     31  C   UNL A   1      33.869  35.899  32.873  1.00  0.00     0.064 C 
ATOM     32  N   UNL A   1      33.489  35.307  30.436  1.00  0.00    -0.315 N 
ATOM     33  O   UNL A   1      32.846  34.576  28.347  1.00  0.00    -0.268 OA
ATOM     34  C   UNL A   1      32.831  36.590  30.221  1.00  0.00     0.153 C 
ENDBRANCH  23  25
ENDBRANCH  11  23
ENDBRANCH   8  10
ENDBRANCH   7   8
ENDBRANCH   6   7
ENDBRANCH   5   6
ENDBRANCH   4   5
ENDBRANCH   3   4
ENDBRANCH   2   3
ENDBRANCH   1   2
BRANCH   1  35
ATOM     35  C   UNL A   1      36.384  21.348  25.697  1.00  0.00     0.188 C 
BRANCH  35  36
ATOM     36  C   UNL A   1      37.719  22.032  25.320  1.00  0.00     0.188 C 
BRANCH  36  37
ATOM     37  O   UNL A   1      38.371  22.708  26.388  1.00  0.00    -0.376 OA
BRANCH  37  38
ATOM     38  C   UNL A   1      38.490  24.125  26.346  1.00  0.00     0.202 C 
BRANCH  38  39
ATOM     39  C   UNL A   1      39.160  24.850  27.530  1.00  0.00     0.261 C 
BRANCH  39  40
ATOM     40  O   UNL A   1      40.573  25.086  27.424  1.00  0.00    -0.460 OA
BRANCH  40  41
ATOM     41  C   UNL A   1      40.981  26.188  26.765  1.00  0.00     0.338 C 
ATOM     42  O   UNL A   1      41.091  26.328  25.558  1.00  0.00    -0.246 OA
BRANCH  41  43
ATOM     43  C   UNL A   1      41.063  27.292  27.745  1.00  0.00     0.060 A 
ATOM     44  C   UNL A   1      40.300  28.447  27.520  1.00  0.00     0.016 A 
ATOM     45  C   UNL A   1      41.864  27.185  28.885  1.00  0.00     0.016 A 
ATOM     46  C   UNL A   1      40.361  29.513  28.416  1.00  0.00     0.010 A 
ATOM     47  C   UNL A   1      41.957  28.270  29.761  1.00  0.00     0.010 A 
ATOM     48  C   UNL A   1      41.236  29.451  29.506  1.00  0.00    -0.014 A 
BRANCH  48  49
ATOM     49  C   UNL A   1      41.602  30.705  30.206  1.00  0.00     0.031 A 
ATOM     50  C   UNL A   1      42.785  31.473  29.684  1.00  0.00     0.074 A 
ATOM     51  C   UNL A   1      40.884  31.184  31.233  1.00  0.00     0.049 A 
ATOM     52  N   UNL A   1      43.333  32.572  30.133  1.00  0.00    -0.248 NA
ATOM     53  C   UNL A   1      43.435  30.922  28.483  1.00  0.00     0.031 C 
ATOM     54  C   UNL A   1      39.671  30.579  31.771  1.00  0.00     0.029 A 
ATOM     55  N   UNL A   1      41.078  32.304  32.002  1.00  0.00    -0.354 N 
ATOM     56  C   UNL A   1      44.383  32.846  29.268  1.00  0.00     0.074 A 
ATOM     57  C   UNL A   1      44.429  31.774  28.297  1.00  0.00     0.031 C 
ATOM     58  C   UNL A   1      39.223  31.339  32.788  1.00  0.00     0.029 A 
ATOM     59  C   UNL A   1      40.141  32.460  32.991  1.00  0.00     0.049 A 
ATOM     60  H   UNL A   1      41.819  32.936  31.857  1.00  0.00     0.167 HD
ATOM     61  C   UNL A   1      45.226  33.905  29.269  1.00  0.00     0.037 A 
ATOM     62  C   UNL A   1      40.048  33.397  33.957  1.00  0.00     0.037 A 
ATOM     63  C   UNL A   1      45.195  34.954  30.251  1.00  0.00     0.049 A 
ATOM     64  C   UNL A   1      41.082  34.491  34.029  1.00  0.00     0.074 A 
ATOM     65  C   UNL A   1      46.026  36.054  30.365  1.00  0.00     0.029 A 
ATOM     66  N   UNL A   1      44.286  35.028  31.298  1.00  0.00    -0.354 N 
ATOM     67  N   UNL A   1      42.086  34.738  33.224  1.00  0.00    -0.248 NA
ATOM     68  C   UNL A   1      40.970  35.434  35.152  1.00  0.00     0.031 C 
ATOM     69  C   UNL A   1      45.656  36.761  31.514  1.00  0.00     0.029 A 
ATOM     70  C   UNL A   1      44.554  36.139  32.081  1.00  0.00     0.049 A 
ATOM     71  H   UNL A   1      43.559  34.384  31.460  1.00  0.00     0.167 HD
ATOM     72  C   UNL A   1      42.711  35.875  33.722  1.00  0.00     0.074 A 
ATOM     73  C   UNL A   1      41.961  36.277  34.896  1.00  0.00     0.031 C 
ATOM     74  C   UNL A   1      43.803  36.526  33.251  1.00  0.00     0.037 A 
BRANCH  61  75
ATOM     75  C   UNL A   1      46.265  33.952  28.186  1.00  0.00     0.064 A 
ATOM     76  C   UNL A   1      47.522  33.344  28.345  1.00  0.00     0.173 A 
ATOM     77  C   UNL A   1      46.008  34.617  26.978  1.00  0.00     0.173 A 
ATOM     78  F   UNL A   1      47.826  32.714  29.489  1.00  0.00    -0.203 F 
ATOM     79  C   UNL A   1      48.493  33.434  27.351  1.00  0.00     0.198 A 
ATOM     80  C   UNL A   1      46.969  34.673  25.972  1.00  0.00     0.198 A 
ATOM     81  F   UNL A   1      44.825  35.215  26.773  1.00  0.00    -0.203 F 
ATOM     82  F   UNL A   1      49.707  32.904  27.554  1.00  0.00    -0.200 F 
ATOM     83  C   UNL A   1      48.214  34.092  26.163  1.00  0.00     0.200 A 
ATOM     84  F   UNL A   1      46.694  35.299  24.819  1.00  0.00    -0.200 F 
ATOM     85  F   UNL A   1      49.149  34.176  25.207  1.00  0.00    -0.200 F 
ENDBRANCH  61  75
BRANCH  62  86
ATOM     86  C   UNL A   1      38.915  33.346  34.916  1.00  0.00     0.064 A 
ATOM     87  C   UNL A   1      39.081  32.783  36.189  1.00  0.00     0.173 A 
ATOM     88  C   UNL A   1      37.660  33.891  34.601  1.00  0.00     0.173 A 
ATOM     89  F   UNL A   1      40.252  32.226  36.526  1.00  0.00    -0.203 F 
ATOM     90  C   UNL A   1      38.039  32.776  37.114  1.00  0.00     0.198 A 
ATOM     91  C   UNL A   1      36.627  33.905  35.536  1.00  0.00     0.198 A 
ATOM     92  F   UNL A   1      37.448  34.433  33.393  1.00  0.00    -0.203 F 
ATOM     93  F   UNL A   1      38.218  32.214  38.317  1.00  0.00    -0.200 F 
ATOM     94  C   UNL A   1      36.817  33.347  36.791  1.00  0.00     0.200 A 
ATOM     95  F   UNL A   1      35.452  34.468  35.224  1.00  0.00    -0.200 F 
ATOM     96  F   UNL A   1      35.823  33.361  37.689  1.00  0.00    -0.200 F 
ENDBRANCH  62  86
BRANCH  74  97
ATOM     97  C   UNL A   1      44.258  37.755  33.988  1.00  0.00     0.064 A 
ATOM     98  C   UNL A   1      45.131  37.675  35.083  1.00  0.00     0.173 A 
ATOM     99  C   UNL A   1      43.875  39.033  33.549  1.00  0.00     0.173 A 
ATOM    100  F   UNL A   1      45.522  36.480  35.550  1.00  0.00    -0.203 F 
ATOM    101  C   UNL A   1      45.586  38.826  35.723  1.00  0.00     0.198 A 
ATOM    102  C   UNL A   1      44.358  40.182  34.170  1.00  0.00     0.198 A 
ATOM    103  F   UNL A   1      43.049  39.168  32.500  1.00  0.00    -0.203 F 
ATOM    104  F   UNL A   1      46.386  38.723  36.793  1.00  0.00    -0.200 F 
ATOM    105  C   UNL A   1      45.208  40.078  35.259  1.00  0.00     0.200 A 
ATOM    106  F   UNL A   1      44.008  41.390  33.707  1.00  0.00    -0.200 F 
ATOM    107  F   UNL A   1      45.661  41.183  35.866  1.00  0.00    -0.200 F 
ENDBRANCH  74  97
ENDBRANCH  48  49
ENDBRANCH  41  43
ENDBRANCH  40  41
ENDBRANCH  39  40
ENDBRANCH  38  39
ENDBRANCH  37  38
ENDBRANCH  36  37
ENDBRANCH  35  36
ENDBRANCH   1  35
TORSDOF 22
ENDMDL
