MODEL 1
REMARK VINA RESULT:     -11.5      0.000      0.000
REMARK SMILES CC1(C)S[C@H]2[C@@H](NC(=O)[C@H](NN3CCNC3=O)c3ccccc3)C(=O)N2[C@H]1C(=O)OCCOCCOCCOCCOC(=O)c1ccc(-c2c3nc(c(-c4c(F)c(F)c(F)c(F)c4F)c4ccc([nH]4)c(-c4c(F)c(F)c(F)c(F)c4F)c4nc(c(-c5c(F)c(F)c(F)c(F)c5F)c5ccc2[nH]5)C=C4)C=C3)cc1
REMARK SMILES IDX 35 1 34 2 33 3 32 4 31 5 30 6 28 7 29 8 27 9 1 10 2 11 3 12
REMARK SMILES IDX 4 13 5 14 26 15 6 16 24 17 25 18 7 19 8 20 9 22 10 23 18 24
REMARK SMILES IDX 19 25 23 26 20 27 22 28 21 29 11 30 12 32 13 33 16 34 14 35
REMARK SMILES IDX 15 36 17 37 36 39 37 40 38 41 39 42 40 43 41 44 42 45 43 46
REMARK SMILES IDX 44 47 45 48 46 49 107 50 47 51 106 52 48 53 49 54 50 55
REMARK SMILES IDX 100 56 51 57 105 58 99 59 101 60 52 61 104 62 98 63 97 64
REMARK SMILES IDX 53 66 85 67 65 68 84 69 66 70 69 71 83 72 102 73 67 74 68 75
REMARK SMILES IDX 82 77 103 78 70 79 54 80 55 81 63 82 56 83 57 84 61 85 64 86
REMARK SMILES IDX 58 87 59 88 62 89 60 90 86 91 87 92 95 93 88 94 89 95 93 96
REMARK SMILES IDX 96 97 90 98 91 99 94 100 92 101 71 102 72 103 80 104 73 105
REMARK SMILES IDX 74 106 78 107 81 108 75 109 76 110 79 111 77 112
REMARK H PARENT 7 21 11 31 15 38 101 65 69 76
REMARK Flexibility Score: inf
ROOT
ATOM      1  C   UNL A   1      33.884  34.373  28.518  1.00  0.00     0.188 C 
ENDROOT
BRANCH   1   2
ATOM      2  C   UNL A   1      33.794  32.918  28.090  1.00  0.00     0.188 C 
BRANCH   2   3
ATOM      3  O   UNL A   1      34.906  32.282  27.510  1.00  0.00    -0.376 OA
BRANCH   3   4
ATOM      4  C   UNL A   1      35.142  30.886  27.581  1.00  0.00     0.202 C 
BRANCH   4   5
ATOM      5  C   UNL A   1      34.114  29.756  27.362  1.00  0.00     0.261 C 
BRANCH   5   6
ATOM      6  O   UNL A   1      33.633  29.534  26.029  1.00  0.00    -0.462 OA
BRANCH   6   7
ATOM      7  C   UNL A   1      32.293  29.632  25.884  1.00  0.00     0.330 C 
ATOM      8  O   UNL A   1      31.585  30.337  26.607  1.00  0.00    -0.250 OA
BRANCH   7   9
ATOM      9  C   UNL A   1      31.664  28.794  24.758  1.00  0.00     0.212 C 
ATOM     10  C   UNL A   1      31.749  29.338  22.161  1.00  0.00     0.026 C 
ATOM     11  C   UNL A   1      32.262  28.402  23.307  1.00  0.00     0.044 C 
ATOM     12  C   UNL A   1      33.781  28.189  23.104  1.00  0.00     0.026 C 
ATOM     13  S   UNL A   1      31.540  26.817  22.673  1.00  0.00    -0.125 SA
ATOM     14  C   UNL A   1      30.696  26.200  24.310  1.00  0.00     0.176 C 
ATOM     15  N   UNL A   1      30.947  27.686  25.445  1.00  0.00    -0.311 N 
ATOM     16  C   UNL A   1      31.428  24.925  26.154  1.00  0.00     0.205 C 
ATOM     17  C   UNL A   1      31.475  26.914  26.864  1.00  0.00     0.250 C 
ATOM     18  O   UNL A   1      31.793  27.545  27.853  1.00  0.00    -0.272 OA
BRANCH  16  19
ATOM     19  N   UNL A   1      32.959  24.237  26.457  1.00  0.00    -0.340 N 
ATOM     20  C   UNL A   1      33.149  22.851  26.641  1.00  0.00     0.244 C 
ATOM     21  H   UNL A   1      33.742  24.831  26.507  1.00  0.00     0.164 HD
ATOM     22  O   UNL A   1      33.406  22.431  27.768  1.00  0.00    -0.273 OA
BRANCH  20  23
ATOM     23  C   UNL A   1      33.215  21.985  25.351  1.00  0.00     0.194 C 
BRANCH  23  24
ATOM     24  C   UNL A   1      34.495  21.698  24.575  1.00  0.00    -0.020 A 
ATOM     25  C   UNL A   1      35.356  20.754  25.208  1.00  0.00     0.006 A 
ATOM     26  C   UNL A   1      35.050  22.627  23.694  1.00  0.00     0.006 A 
ATOM     27  C   UNL A   1      36.738  20.876  25.115  1.00  0.00     0.000 A 
ATOM     28  C   UNL A   1      36.441  22.713  23.573  1.00  0.00     0.000 A 
ATOM     29  C   UNL A   1      37.278  21.872  24.313  1.00  0.00     0.000 A 
ENDBRANCH  23  24
BRANCH  23  30
ATOM     30  N   UNL A   1      32.790  20.606  25.608  1.00  0.00    -0.213 NA
ATOM     31  H   UNL A   1      31.960  20.626  26.202  1.00  0.00     0.149 HD
BRANCH  30  32
ATOM     32  N   UNL A   1      32.492  19.918  24.469  1.00  0.00    -0.257 N 
ATOM     33  C   UNL A   1      32.287  20.454  23.023  1.00  0.00     0.163 C 
ATOM     34  C   UNL A   1      32.525  18.202  24.795  1.00  0.00     0.331 C 
ATOM     35  C   UNL A   1      31.994  19.209  21.922  1.00  0.00     0.141 C 
ATOM     36  N   UNL A   1      32.162  17.695  22.802  1.00  0.00    -0.335 N 
ATOM     37  O   UNL A   1      32.839  17.699  25.874  1.00  0.00    -0.247 OA
ATOM     38  H   UNL A   1      32.097  16.787  22.428  1.00  0.00     0.165 HD
ENDBRANCH  30  32
ENDBRANCH  23  30
ENDBRANCH  20  23
ENDBRANCH  16  19
ENDBRANCH   7   9
ENDBRANCH   6   7
ENDBRANCH   5   6
ENDBRANCH   4   5
ENDBRANCH   3   4
ENDBRANCH   2   3
ENDBRANCH   1   2
BRANCH   1  39
ATOM     39  O   UNL A   1      32.805  34.949  29.209  1.00  0.00    -0.377 OA
BRANCH  39  40
ATOM     40  C   UNL A   1      32.963  36.146  29.941  1.00  0.00     0.188 C 
BRANCH  40  41
ATOM     41  C   UNL A   1      32.626  36.150  31.434  1.00  0.00     0.188 C 
BRANCH  41  42
ATOM     42  O   UNL A   1      32.830  34.931  32.112  1.00  0.00    -0.376 OA
BRANCH  42  43
ATOM     43  C   UNL A   1      34.104  34.431  32.466  1.00  0.00     0.202 C 
BRANCH  43  44
ATOM     44  C   UNL A   1      34.590  32.978  32.316  1.00  0.00     0.261 C 
BRANCH  44  45
ATOM     45  O   UNL A   1      35.905  32.724  31.831  1.00  0.00    -0.460 OA
BRANCH  45  46
ATOM     46  C   UNL A   1      36.803  32.198  32.689  1.00  0.00     0.338 C 
ATOM     47  O   UNL A   1      36.618  31.872  33.844  1.00  0.00    -0.246 OA
BRANCH  46  48
ATOM     48  C   UNL A   1      38.041  31.953  31.919  1.00  0.00     0.060 A 
ATOM     49  C   UNL A   1      38.090  32.248  30.549  1.00  0.00     0.016 A 
ATOM     50  C   UNL A   1      39.160  31.436  32.572  1.00  0.00     0.016 A 
ATOM     51  C   UNL A   1      39.256  32.009  29.822  1.00  0.00     0.010 A 
ATOM     52  C   UNL A   1      40.315  31.168  31.837  1.00  0.00     0.010 A 
ATOM     53  C   UNL A   1      40.360  31.431  30.456  1.00  0.00    -0.014 A 
BRANCH  53  54
ATOM     54  C   UNL A   1      41.521  30.959  29.671  1.00  0.00     0.031 A 
ATOM     55  C   UNL A   1      41.487  29.569  29.108  1.00  0.00     0.074 A 
ATOM     56  C   UNL A   1      42.603  31.739  29.504  1.00  0.00     0.049 A 
ATOM     57  N   UNL A   1      42.441  28.878  28.541  1.00  0.00    -0.248 NA
ATOM     58  C   UNL A   1      40.203  28.856  29.212  1.00  0.00     0.031 C 
ATOM     59  C   UNL A   1      42.726  33.121  29.961  1.00  0.00     0.029 A 
ATOM     60  N   UNL A   1      43.819  31.461  28.930  1.00  0.00    -0.354 N 
ATOM     61  C   UNL A   1      41.881  27.643  28.243  1.00  0.00     0.074 A 
ATOM     62  C   UNL A   1      40.512  27.671  28.709  1.00  0.00     0.031 C 
ATOM     63  C   UNL A   1      43.964  33.562  29.680  1.00  0.00     0.029 A 
ATOM     64  C   UNL A   1      44.732  32.477  29.073  1.00  0.00     0.049 A 
ATOM     65  H   UNL A   1      44.016  30.618  28.462  1.00  0.00     0.167 HD
ATOM     66  C   UNL A   1      42.467  26.582  27.640  1.00  0.00     0.037 A 
ATOM     67  C   UNL A   1      46.050  32.504  28.793  1.00  0.00     0.037 A 
ATOM     68  C   UNL A   1      43.832  26.569  27.187  1.00  0.00     0.049 A 
ATOM     69  C   UNL A   1      46.700  31.277  28.201  1.00  0.00     0.074 A 
ATOM     70  C   UNL A   1      44.512  25.558  26.532  1.00  0.00     0.029 A 
ATOM     71  N   UNL A   1      44.734  27.610  27.362  1.00  0.00    -0.354 N 
ATOM     72  N   UNL A   1      46.162  30.123  27.885  1.00  0.00    -0.248 NA
ATOM     73  C   UNL A   1      48.143  31.354  27.927  1.00  0.00     0.031 C 
ATOM     74  C   UNL A   1      45.845  25.951  26.390  1.00  0.00     0.029 A 
ATOM     75  C   UNL A   1      45.977  27.243  26.872  1.00  0.00     0.049 A 
ATOM     76  H   UNL A   1      44.522  28.479  27.772  1.00  0.00     0.167 HD
ATOM     77  C   UNL A   1      47.189  29.353  27.350  1.00  0.00     0.074 A 
ATOM     78  C   UNL A   1      48.378  30.178  27.366  1.00  0.00     0.031 C 
ATOM     79  C   UNL A   1      47.152  28.078  26.890  1.00  0.00     0.037 A 
BRANCH  66  80
ATOM     80  C   UNL A   1      41.654  25.329  27.478  1.00  0.00     0.064 A 
ATOM     81  C   UNL A   1      41.911  24.171  28.225  1.00  0.00     0.173 A 
ATOM     82  C   UNL A   1      40.563  25.310  26.593  1.00  0.00     0.173 A 
ATOM     83  F   UNL A   1      42.947  24.129  29.076  1.00  0.00    -0.203 F 
ATOM     84  C   UNL A   1      41.125  23.031  28.071  1.00  0.00     0.198 A 
ATOM     85  C   UNL A   1      39.756  24.184  26.472  1.00  0.00     0.198 A 
ATOM     86  F   UNL A   1      40.269  26.393  25.858  1.00  0.00    -0.203 F 
ATOM     87  F   UNL A   1      41.420  21.918  28.758  1.00  0.00    -0.200 F 
ATOM     88  C   UNL A   1      40.042  23.042  27.205  1.00  0.00     0.200 A 
ATOM     89  F   UNL A   1      38.699  24.204  25.649  1.00  0.00    -0.200 F 
ATOM     90  F   UNL A   1      39.277  21.951  27.071  1.00  0.00    -0.200 F 
ENDBRANCH  66  80
BRANCH  67  91
ATOM     91  C   UNL A   1      46.856  33.715  29.107  1.00  0.00     0.064 A 
ATOM     92  C   UNL A   1      47.052  34.724  28.154  1.00  0.00     0.173 A 
ATOM     93  C   UNL A   1      47.480  33.872  30.355  1.00  0.00     0.173 A 
ATOM     94  F   UNL A   1      46.498  34.612  26.937  1.00  0.00    -0.203 F 
ATOM     95  C   UNL A   1      47.864  35.824  28.424  1.00  0.00     0.198 A 
ATOM     96  C   UNL A   1      48.256  34.993  30.638  1.00  0.00     0.198 A 
ATOM     97  F   UNL A   1      47.329  32.937  31.306  1.00  0.00    -0.203 F 
ATOM     98  F   UNL A   1      48.087  36.737  27.469  1.00  0.00    -0.200 F 
ATOM     99  C   UNL A   1      48.460  35.961  29.668  1.00  0.00     0.200 A 
ATOM    100  F   UNL A   1      48.813  35.129  31.850  1.00  0.00    -0.200 F 
ATOM    101  F   UNL A   1      49.240  37.019  29.926  1.00  0.00    -0.200 F 
ENDBRANCH  67  91
BRANCH  79 102
ATOM    102  C   UNL A   1      48.422  27.501  26.327  1.00  0.00     0.064 A 
ATOM    103  C   UNL A   1      49.411  26.944  27.152  1.00  0.00     0.173 A 
ATOM    104  C   UNL A   1      48.620  27.444  24.938  1.00  0.00     0.173 A 
ATOM    105  F   UNL A   1      49.278  26.981  28.486  1.00  0.00    -0.203 F 
ATOM    106  C   UNL A   1      50.562  26.380  26.607  1.00  0.00     0.198 A 
ATOM    107  C   UNL A   1      49.751  26.841  24.396  1.00  0.00     0.198 A 
ATOM    108  F   UNL A   1      47.700  27.951  24.101  1.00  0.00    -0.203 F 
ATOM    109  F   UNL A   1      51.518  25.902  27.416  1.00  0.00    -0.200 F 
ATOM    110  C   UNL A   1      50.726  26.318  25.231  1.00  0.00     0.200 A 
ATOM    111  F   UNL A   1      49.894  26.762  23.067  1.00  0.00    -0.200 F 
ATOM    112  F   UNL A   1      51.825  25.757  24.710  1.00  0.00    -0.200 F 
ENDBRANCH  79 102
ENDBRANCH  53  54
ENDBRANCH  46  48
ENDBRANCH  45  46
ENDBRANCH  44  45
ENDBRANCH  43  44
ENDBRANCH  42  43
ENDBRANCH  41  42
ENDBRANCH  40  41
ENDBRANCH  39  40
ENDBRANCH   1  39
TORSDOF 25
ENDMDL
MODEL 2
REMARK VINA RESULT:     -11.1      1.164      2.100
REMARK SMILES CC1(C)S[C@H]2[C@@H](NC(=O)[C@H](NN3CCNC3=O)c3ccccc3)C(=O)N2[C@H]1C(=O)OCCOCCOCCOCCOC(=O)c1ccc(-c2c3nc(c(-c4c(F)c(F)c(F)c(F)c4F)c4ccc([nH]4)c(-c4c(F)c(F)c(F)c(F)c4F)c4nc(c(-c5c(F)c(F)c(F)c(F)c5F)c5ccc2[nH]5)C=C4)C=C3)cc1
REMARK SMILES IDX 35 1 34 2 33 3 32 4 31 5 30 6 28 7 29 8 27 9 1 10 2 11 3 12
REMARK SMILES IDX 4 13 5 14 26 15 6 16 24 17 25 18 7 19 8 20 9 22 10 23 18 24
REMARK SMILES IDX 19 25 23 26 20 27 22 28 21 29 11 30 12 32 13 33 16 34 14 35
REMARK SMILES IDX 15 36 17 37 36 39 37 40 38 41 39 42 40 43 41 44 42 45 43 46
REMARK SMILES IDX 44 47 45 48 46 49 107 50 47 51 106 52 48 53 49 54 50 55
REMARK SMILES IDX 100 56 51 57 105 58 99 59 101 60 52 61 104 62 98 63 97 64
REMARK SMILES IDX 53 66 85 67 65 68 84 69 66 70 69 71 83 72 102 73 67 74 68 75
REMARK SMILES IDX 82 77 103 78 70 79 54 80 55 81 63 82 56 83 57 84 61 85 64 86
REMARK SMILES IDX 58 87 59 88 62 89 60 90 86 91 87 92 95 93 88 94 89 95 93 96
REMARK SMILES IDX 96 97 90 98 91 99 94 100 92 101 71 102 72 103 80 104 73 105
REMARK SMILES IDX 74 106 78 107 81 108 75 109 76 110 79 111 77 112
REMARK H PARENT 7 21 11 31 15 38 101 65 69 76
REMARK Flexibility Score: inf
ROOT
ATOM      1  C   UNL A   1      33.767  34.329  28.586  1.00  0.00     0.188 C 
ENDROOT
BRANCH   1   2
ATOM      2  C   UNL A   1      33.834  32.881  28.132  1.00  0.00     0.188 C 
BRANCH   2   3
ATOM      3  O   UNL A   1      35.080  32.253  27.952  1.00  0.00    -0.376 OA
BRANCH   3   4
ATOM      4  C   UNL A   1      35.239  30.861  27.741  1.00  0.00     0.202 C 
BRANCH   4   5
ATOM      5  C   UNL A   1      34.121  29.817  27.539  1.00  0.00     0.261 C 
BRANCH   5   6
ATOM      6  O   UNL A   1      33.759  29.472  26.194  1.00  0.00    -0.462 OA
BRANCH   6   7
ATOM      7  C   UNL A   1      32.471  29.724  25.869  1.00  0.00     0.330 C 
ATOM      8  O   UNL A   1      31.799  30.606  26.409  1.00  0.00    -0.250 OA
BRANCH   7   9
ATOM      9  C   UNL A   1      31.855  28.832  24.778  1.00  0.00     0.212 C 
ATOM     10  C   UNL A   1      32.356  28.962  22.174  1.00  0.00     0.026 C 
ATOM     11  C   UNL A   1      32.554  28.141  23.494  1.00  0.00     0.044 C 
ATOM     12  C   UNL A   1      34.027  27.673  23.546  1.00  0.00     0.026 C 
ATOM     13  S   UNL A   1      31.657  26.608  22.966  1.00  0.00    -0.125 SA
ATOM     14  C   UNL A   1      30.522  26.378  24.524  1.00  0.00     0.176 C 
ATOM     15  N   UNL A   1      30.879  27.961  25.486  1.00  0.00    -0.311 N 
ATOM     16  C   UNL A   1      30.788  25.296  26.603  1.00  0.00     0.205 C 
ATOM     17  C   UNL A   1      31.085  27.338  27.054  1.00  0.00     0.250 C 
ATOM     18  O   UNL A   1      31.379  28.055  27.991  1.00  0.00    -0.272 OA
BRANCH  16  19
ATOM     19  N   UNL A   1      32.129  24.437  27.215  1.00  0.00    -0.340 N 
ATOM     20  C   UNL A   1      32.211  23.029  27.183  1.00  0.00     0.244 C 
ATOM     21  H   UNL A   1      32.875  24.944  27.607  1.00  0.00     0.164 HD
ATOM     22  O   UNL A   1      32.094  22.403  28.236  1.00  0.00    -0.273 OA
BRANCH  20  23
ATOM     23  C   UNL A   1      32.646  22.391  25.833  1.00  0.00     0.194 C 
BRANCH  23  24
ATOM     24  C   UNL A   1      32.811  23.168  24.532  1.00  0.00    -0.020 A 
ATOM     25  C   UNL A   1      31.956  22.724  23.481  1.00  0.00     0.006 A 
ATOM     26  C   UNL A   1      34.004  23.812  24.201  1.00  0.00     0.006 A 
ATOM     27  C   UNL A   1      32.384  22.744  22.158  1.00  0.00     0.000 A 
ATOM     28  C   UNL A   1      34.405  23.866  22.862  1.00  0.00     0.000 A 
ATOM     29  C   UNL A   1      33.621  23.297  21.854  1.00  0.00     0.000 A 
ENDBRANCH  23  24
BRANCH  23  30
ATOM     30  N   UNL A   1      33.988  21.809  25.923  1.00  0.00    -0.213 NA
ATOM     31  H   UNL A   1      34.305  21.871  26.891  1.00  0.00     0.149 HD
BRANCH  30  32
ATOM     32  N   UNL A   1      34.030  20.502  25.534  1.00  0.00    -0.257 N 
ATOM     33  C   UNL A   1      32.856  19.504  25.317  1.00  0.00     0.163 C 
ATOM     34  C   UNL A   1      35.669  20.067  25.114  1.00  0.00     0.331 C 
ATOM     35  C   UNL A   1      33.396  18.001  24.770  1.00  0.00     0.141 C 
ATOM     36  N   UNL A   1      35.129  18.144  24.507  1.00  0.00    -0.335 N 
ATOM     37  O   UNL A   1      36.621  20.848  25.106  1.00  0.00    -0.247 OA
ATOM     38  H   UNL A   1      35.728  17.451  24.145  1.00  0.00     0.165 HD
ENDBRANCH  30  32
ENDBRANCH  23  30
ENDBRANCH  20  23
ENDBRANCH  16  19
ENDBRANCH   7   9
ENDBRANCH   6   7
ENDBRANCH   5   6
ENDBRANCH   4   5
ENDBRANCH   3   4
ENDBRANCH   2   3
ENDBRANCH   1   2
BRANCH   1  39
ATOM     39  O   UNL A   1      33.473  34.610  29.930  1.00  0.00    -0.377 OA
BRANCH  39  40
ATOM     40  C   UNL A   1      32.889  35.840  30.308  1.00  0.00     0.188 C 
BRANCH  40  41
ATOM     41  C   UNL A   1      33.074  36.336  31.744  1.00  0.00     0.188 C 
BRANCH  41  42
ATOM     42  O   UNL A   1      33.872  35.524  32.575  1.00  0.00    -0.376 OA
BRANCH  42  43
ATOM     43  C   UNL A   1      35.285  35.560  32.589  1.00  0.00     0.202 C 
BRANCH  43  44
ATOM     44  C   UNL A   1      36.221  34.487  33.174  1.00  0.00     0.261 C 
BRANCH  44  45
ATOM     45  O   UNL A   1      36.922  33.612  32.296  1.00  0.00    -0.460 OA
BRANCH  45  46
ATOM     46  C   UNL A   1      36.821  32.285  32.515  1.00  0.00     0.338 C 
ATOM     47  O   UNL A   1      35.940  31.699  33.110  1.00  0.00    -0.246 OA
BRANCH  46  48
ATOM     48  C   UNL A   1      37.922  31.640  31.768  1.00  0.00     0.060 A 
ATOM     49  C   UNL A   1      38.996  31.058  32.456  1.00  0.00     0.016 A 
ATOM     50  C   UNL A   1      37.874  31.609  30.374  1.00  0.00     0.016 A 
ATOM     51  C   UNL A   1      40.038  30.458  31.750  1.00  0.00     0.010 A 
ATOM     52  C   UNL A   1      38.933  31.036  29.669  1.00  0.00     0.010 A 
ATOM     53  C   UNL A   1      40.029  30.480  30.353  1.00  0.00    -0.014 A 
BRANCH  53  54
ATOM     54  C   UNL A   1      41.219  30.057  29.582  1.00  0.00     0.031 A 
ATOM     55  C   UNL A   1      41.251  28.666  29.023  1.00  0.00     0.074 A 
ATOM     56  C   UNL A   1      42.268  30.882  29.427  1.00  0.00     0.049 A 
ATOM     57  N   UNL A   1      42.242  28.015  28.468  1.00  0.00    -0.248 NA
ATOM     58  C   UNL A   1      39.999  27.898  29.113  1.00  0.00     0.031 C 
ATOM     59  C   UNL A   1      42.325  32.269  29.882  1.00  0.00     0.029 A 
ATOM     60  N   UNL A   1      43.502  30.657  28.868  1.00  0.00    -0.354 N 
ATOM     61  C   UNL A   1      41.740  26.756  28.167  1.00  0.00     0.074 A 
ATOM     62  C   UNL A   1      40.365  26.726  28.616  1.00  0.00     0.031 C 
ATOM     63  C   UNL A   1      43.546  32.763  29.615  1.00  0.00     0.029 A 
ATOM     64  C   UNL A   1      44.368  31.711  29.020  1.00  0.00     0.049 A 
ATOM     65  H   UNL A   1      43.741  29.822  28.405  1.00  0.00     0.167 HD
ATOM     66  C   UNL A   1      42.378  25.721  27.573  1.00  0.00     0.037 A 
ATOM     67  C   UNL A   1      45.687  31.795  28.755  1.00  0.00     0.037 A 
ATOM     68  C   UNL A   1      43.748  25.766  27.136  1.00  0.00     0.049 A 
ATOM     69  C   UNL A   1      46.397  30.596  28.174  1.00  0.00     0.074 A 
ATOM     70  C   UNL A   1      44.479  24.785  26.492  1.00  0.00     0.029 A 
ATOM     71  N   UNL A   1      44.602  26.845  27.320  1.00  0.00    -0.354 N 
ATOM     72  N   UNL A   1      45.913  29.419  27.854  1.00  0.00    -0.248 NA
ATOM     73  C   UNL A   1      47.838  30.735  27.917  1.00  0.00     0.031 C 
ATOM     74  C   UNL A   1      45.795  25.234  26.366  1.00  0.00     0.029 A 
ATOM     75  C   UNL A   1      45.865  26.532  26.846  1.00  0.00     0.049 A 
ATOM     76  H   UNL A   1      44.347  27.705  27.726  1.00  0.00     0.167 HD
ATOM     77  C   UNL A   1      46.979  28.693  27.334  1.00  0.00     0.074 A 
ATOM     78  C   UNL A   1      48.131  29.569  27.362  1.00  0.00     0.031 C 
ATOM     79  C   UNL A   1      47.003  27.417  26.876  1.00  0.00     0.037 A 
BRANCH  66  80
ATOM     80  C   UNL A   1      41.622  24.434  27.404  1.00  0.00     0.064 A 
ATOM     81  C   UNL A   1      40.494  24.334  26.577  1.00  0.00     0.173 A 
ATOM     82  C   UNL A   1      42.071  23.267  28.043  1.00  0.00     0.173 A 
ATOM     83  F   UNL A   1      40.014  25.420  25.951  1.00  0.00    -0.203 F 
ATOM     84  C   UNL A   1      39.827  23.121  26.420  1.00  0.00     0.198 A 
ATOM     85  C   UNL A   1      41.427  22.049  27.851  1.00  0.00     0.198 A 
ATOM     86  F   UNL A   1      43.150  23.305  28.841  1.00  0.00    -0.203 F 
ATOM     87  F   UNL A   1      38.720  23.060  25.665  1.00  0.00    -0.200 F 
ATOM     88  C   UNL A   1      40.300  21.978  27.046  1.00  0.00     0.200 A 
ATOM     89  F   UNL A   1      41.899  20.943  28.443  1.00  0.00    -0.200 F 
ATOM     90  F   UNL A   1      39.668  20.809  26.880  1.00  0.00    -0.200 F 
ENDBRANCH  66  80
BRANCH  67  91
ATOM     91  C   UNL A   1      46.436  33.040  29.076  1.00  0.00     0.064 A 
ATOM     92  C   UNL A   1      46.602  34.054  28.123  1.00  0.00     0.173 A 
ATOM     93  C   UNL A   1      47.035  33.227  30.332  1.00  0.00     0.173 A 
ATOM     94  F   UNL A   1      46.070  33.915  26.899  1.00  0.00    -0.203 F 
ATOM     95  C   UNL A   1      47.362  35.188  28.400  1.00  0.00     0.198 A 
ATOM     96  C   UNL A   1      47.759  34.381  30.623  1.00  0.00     0.198 A 
ATOM     97  F   UNL A   1      46.911  32.290  31.284  1.00  0.00    -0.203 F 
ATOM     98  F   UNL A   1      47.559  36.107  27.445  1.00  0.00    -0.200 F 
ATOM     99  C   UNL A   1      47.935  35.354  29.652  1.00  0.00     0.200 A 
ATOM    100  F   UNL A   1      48.292  34.544  31.841  1.00  0.00    -0.200 F 
ATOM    101  F   UNL A   1      48.665  36.446  29.917  1.00  0.00    -0.200 F 
ENDBRANCH  67  91
BRANCH  79 102
ATOM    102  C   UNL A   1      48.303  26.894  26.330  1.00  0.00     0.064 A 
ATOM    103  C   UNL A   1      48.710  27.152  25.012  1.00  0.00     0.173 A 
ATOM    104  C   UNL A   1      49.184  26.180  27.159  1.00  0.00     0.173 A 
ATOM    105  F   UNL A   1      47.903  27.821  24.175  1.00  0.00    -0.203 F 
ATOM    106  C   UNL A   1      49.936  26.692  24.538  1.00  0.00     0.198 A 
ATOM    107  C   UNL A   1      50.426  25.759  26.694  1.00  0.00     0.198 A 
ATOM    108  F   UNL A   1      48.852  25.915  28.432  1.00  0.00    -0.203 F 
ATOM    109  F   UNL A   1      50.280  26.905  23.261  1.00  0.00    -0.200 F 
ATOM    110  C   UNL A   1      50.797  26.005  25.382  1.00  0.00     0.200 A 
ATOM    111  F   UNL A   1      51.265  25.118  27.519  1.00  0.00    -0.200 F 
ATOM    112  F   UNL A   1      51.984  25.581  24.929  1.00  0.00    -0.200 F 
ENDBRANCH  79 102
ENDBRANCH  53  54
ENDBRANCH  46  48
ENDBRANCH  45  46
ENDBRANCH  44  45
ENDBRANCH  43  44
ENDBRANCH  42  43
ENDBRANCH  41  42
ENDBRANCH  40  41
ENDBRANCH  39  40
ENDBRANCH   1  39
TORSDOF 25
ENDMDL
MODEL 3
REMARK VINA RESULT:     -10.7      3.609      9.799
REMARK SMILES CC1(C)S[C@H]2[C@@H](NC(=O)[C@H](NN3CCNC3=O)c3ccccc3)C(=O)N2[C@H]1C(=O)OCCOCCOCCOCCOC(=O)c1ccc(-c2c3nc(c(-c4c(F)c(F)c(F)c(F)c4F)c4ccc([nH]4)c(-c4c(F)c(F)c(F)c(F)c4F)c4nc(c(-c5c(F)c(F)c(F)c(F)c5F)c5ccc2[nH]5)C=C4)C=C3)cc1
REMARK SMILES IDX 35 1 34 2 33 3 32 4 31 5 30 6 28 7 29 8 27 9 1 10 2 11 3 12
REMARK SMILES IDX 4 13 5 14 26 15 6 16 24 17 25 18 7 19 8 20 9 22 10 23 18 24
REMARK SMILES IDX 19 25 23 26 20 27 22 28 21 29 11 30 12 32 13 33 16 34 14 35
REMARK SMILES IDX 15 36 17 37 36 39 37 40 38 41 39 42 40 43 41 44 42 45 43 46
REMARK SMILES IDX 44 47 45 48 46 49 107 50 47 51 106 52 48 53 49 54 50 55
REMARK SMILES IDX 100 56 51 57 105 58 99 59 101 60 52 61 104 62 98 63 97 64
REMARK SMILES IDX 53 66 85 67 65 68 84 69 66 70 69 71 83 72 102 73 67 74 68 75
REMARK SMILES IDX 82 77 103 78 70 79 54 80 55 81 63 82 56 83 57 84 61 85 64 86
REMARK SMILES IDX 58 87 59 88 62 89 60 90 86 91 87 92 95 93 88 94 89 95 93 96
REMARK SMILES IDX 96 97 90 98 91 99 94 100 92 101 71 102 72 103 80 104 73 105
REMARK SMILES IDX 74 106 78 107 81 108 75 109 76 110 79 111 77 112
REMARK H PARENT 7 21 11 31 15 38 101 65 69 76
REMARK Flexibility Score: inf
ROOT
ATOM      1  C   UNL A   1      34.047  21.713  27.324  1.00  0.00     0.188 C 
ENDROOT
BRANCH   1   2
ATOM      2  C   UNL A   1      33.123  22.836  26.884  1.00  0.00     0.188 C 
BRANCH   2   3
ATOM      3  O   UNL A   1      31.988  23.158  27.650  1.00  0.00    -0.376 OA
BRANCH   3   4
ATOM      4  C   UNL A   1      30.656  22.953  27.211  1.00  0.00     0.202 C 
BRANCH   4   5
ATOM      5  C   UNL A   1      29.903  23.747  26.123  1.00  0.00     0.261 C 
BRANCH   5   6
ATOM      6  O   UNL A   1      29.716  25.155  26.326  1.00  0.00    -0.462 OA
BRANCH   6   7
ATOM      7  C   UNL A   1      30.131  25.938  25.306  1.00  0.00     0.330 C 
ATOM      8  O   UNL A   1      29.436  26.828  24.812  1.00  0.00    -0.250 OA
BRANCH   7   9
ATOM      9  C   UNL A   1      31.541  25.656  24.759  1.00  0.00     0.212 C 
ATOM     10  C   UNL A   1      32.124  24.553  22.416  1.00  0.00     0.026 C 
ATOM     11  C   UNL A   1      32.129  25.868  23.268  1.00  0.00     0.044 C 
ATOM     12  C   UNL A   1      31.622  27.019  22.368  1.00  0.00     0.026 C 
ATOM     13  S   UNL A   1      33.962  26.142  23.286  1.00  0.00    -0.125 SA
ATOM     14  C   UNL A   1      34.198  26.445  25.190  1.00  0.00     0.176 C 
ATOM     15  N   UNL A   1      32.473  26.056  25.848  1.00  0.00    -0.311 N 
ATOM     16  C   UNL A   1      34.075  28.350  26.576  1.00  0.00     0.205 C 
ATOM     17  C   UNL A   1      32.235  27.365  26.905  1.00  0.00     0.250 C 
ATOM     18  O   UNL A   1      31.194  27.510  27.515  1.00  0.00    -0.272 OA
BRANCH  16  19
ATOM     19  N   UNL A   1      33.723  29.968  26.167  1.00  0.00    -0.340 N 
ATOM     20  C   UNL A   1      33.442  30.955  27.136  1.00  0.00     0.244 C 
ATOM     21  H   UNL A   1      33.715  30.223  25.217  1.00  0.00     0.164 HD
ATOM     22  O   UNL A   1      32.288  31.366  27.247  1.00  0.00    -0.273 OA
BRANCH  20  23
ATOM     23  C   UNL A   1      34.668  31.590  27.851  1.00  0.00     0.194 C 
BRANCH  23  24
ATOM     24  C   UNL A   1      34.674  32.987  28.462  1.00  0.00    -0.020 A 
ATOM     25  C   UNL A   1      35.113  33.024  29.817  1.00  0.00     0.006 A 
ATOM     26  C   UNL A   1      33.832  34.000  28.000  1.00  0.00     0.006 A 
ATOM     27  C   UNL A   1      34.560  33.925  30.721  1.00  0.00     0.000 A 
ATOM     28  C   UNL A   1      33.316  34.930  28.909  1.00  0.00     0.000 A 
ATOM     29  C   UNL A   1      33.645  34.865  30.267  1.00  0.00     0.000 A 
ENDBRANCH  23  24
BRANCH  23  30
ATOM     30  N   UNL A   1      35.056  30.821  29.036  1.00  0.00    -0.213 NA
ATOM     31  H   UNL A   1      34.330  30.130  29.228  1.00  0.00     0.149 HD
BRANCH  30  32
ATOM     32  N   UNL A   1      36.245  30.171  28.885  1.00  0.00    -0.257 N 
ATOM     33  C   UNL A   1      37.159  30.075  27.629  1.00  0.00     0.163 C 
ATOM     34  C   UNL A   1      36.767  29.535  30.426  1.00  0.00     0.331 C 
ATOM     35  C   UNL A   1      38.573  29.208  27.940  1.00  0.00     0.141 C 
ATOM     36  N   UNL A   1      38.573  28.825  29.656  1.00  0.00    -0.335 N 
ATOM     37  O   UNL A   1      36.178  29.711  31.493  1.00  0.00    -0.247 OA
ATOM     38  H   UNL A   1      39.286  28.365  30.156  1.00  0.00     0.165 HD
ENDBRANCH  30  32
ENDBRANCH  23  30
ENDBRANCH  20  23
ENDBRANCH  16  19
ENDBRANCH   7   9
ENDBRANCH   6   7
ENDBRANCH   5   6
ENDBRANCH   4   5
ENDBRANCH   3   4
ENDBRANCH   2   3
ENDBRANCH   1   2
BRANCH   1  39
ATOM     39  O   UNL A   1      35.202  21.447  26.570  1.00  0.00    -0.377 OA
BRANCH  39  40
ATOM     40  C   UNL A   1      35.661  22.357  25.592  1.00  0.00     0.188 C 
BRANCH  40  41
ATOM     41  C   UNL A   1      37.163  22.627  25.481  1.00  0.00     0.188 C 
BRANCH  41  42
ATOM     42  O   UNL A   1      37.592  23.896  25.919  1.00  0.00    -0.376 OA
BRANCH  42  43
ATOM     43  C   UNL A   1      38.632  24.096  26.856  1.00  0.00     0.202 C 
BRANCH  43  44
ATOM     44  C   UNL A   1      40.085  24.491  26.538  1.00  0.00     0.261 C 
BRANCH  44  45
ATOM     45  O   UNL A   1      41.152  23.657  26.978  1.00  0.00    -0.460 OA
BRANCH  45  46
ATOM     46  C   UNL A   1      42.202  23.485  26.148  1.00  0.00     0.338 C 
ATOM     47  O   UNL A   1      42.356  22.608  25.324  1.00  0.00    -0.246 OA
BRANCH  46  48
ATOM     48  C   UNL A   1      43.085  24.658  26.324  1.00  0.00     0.060 A 
ATOM     49  C   UNL A   1      43.496  25.405  25.211  1.00  0.00     0.016 A 
ATOM     50  C   UNL A   1      43.495  25.017  27.609  1.00  0.00     0.016 A 
ATOM     51  C   UNL A   1      44.336  26.506  25.378  1.00  0.00     0.010 A 
ATOM     52  C   UNL A   1      44.360  26.099  27.770  1.00  0.00     0.010 A 
ATOM     53  C   UNL A   1      44.802  26.833  26.654  1.00  0.00    -0.014 A 
BRANCH  53  54
ATOM     54  C   UNL A   1      45.865  27.847  26.834  1.00  0.00     0.031 A 
ATOM     55  C   UNL A   1      45.462  29.271  27.075  1.00  0.00     0.074 A 
ATOM     56  C   UNL A   1      47.162  27.509  26.737  1.00  0.00     0.049 A 
ATOM     57  N   UNL A   1      46.197  30.353  27.091  1.00  0.00    -0.248 NA
ATOM     58  C   UNL A   1      44.030  29.510  27.318  1.00  0.00     0.031 C 
ATOM     59  C   UNL A   1      47.670  26.151  26.557  1.00  0.00     0.029 A 
ATOM     60  N   UNL A   1      48.288  28.295  26.744  1.00  0.00    -0.354 N 
ATOM     61  C   UNL A   1      45.317  31.401  27.320  1.00  0.00     0.074 A 
ATOM     62  C   UNL A   1      43.991  30.830  27.418  1.00  0.00     0.031 C 
ATOM     63  C   UNL A   1      49.007  26.200  26.436  1.00  0.00     0.029 A 
ATOM     64  C   UNL A   1      49.440  27.596  26.477  1.00  0.00     0.049 A 
ATOM     65  H   UNL A   1      48.271  29.263  26.923  1.00  0.00     0.167 HD
ATOM     66  C   UNL A   1      45.596  32.720  27.431  1.00  0.00     0.037 A 
ATOM     67  C   UNL A   1      50.690  28.042  26.243  1.00  0.00     0.037 A 
ATOM     68  C   UNL A   1      46.922  33.271  27.327  1.00  0.00     0.049 A 
ATOM     69  C   UNL A   1      50.960  29.526  26.287  1.00  0.00     0.074 A 
ATOM     70  C   UNL A   1      47.318  34.589  27.460  1.00  0.00     0.029 A 
ATOM     71  N   UNL A   1      48.064  32.537  27.041  1.00  0.00    -0.354 N 
ATOM     72  N   UNL A   1      50.135  30.514  26.540  1.00  0.00    -0.248 NA
ATOM     73  C   UNL A   1      52.337  29.961  26.009  1.00  0.00     0.031 C 
ATOM     74  C   UNL A   1      48.681  34.666  27.167  1.00  0.00     0.029 A 
ATOM     75  C   UNL A   1      49.156  33.383  26.944  1.00  0.00     0.049 A 
ATOM     76  H   UNL A   1      48.094  31.560  26.925  1.00  0.00     0.167 HD
ATOM     77  C   UNL A   1      50.895  31.676  26.483  1.00  0.00     0.074 A 
ATOM     78  C   UNL A   1      52.253  31.270  26.190  1.00  0.00     0.031 C 
ATOM     79  C   UNL A   1      50.505  32.963  26.656  1.00  0.00     0.037 A 
BRANCH  66  80
ATOM     80  C   UNL A   1      44.448  33.667  27.629  1.00  0.00     0.064 A 
ATOM     81  C   UNL A   1      43.865  34.367  26.563  1.00  0.00     0.173 A 
ATOM     82  C   UNL A   1      43.889  33.836  28.907  1.00  0.00     0.173 A 
ATOM     83  F   UNL A   1      44.365  34.252  25.323  1.00  0.00    -0.203 F 
ATOM     84  C   UNL A   1      42.784  35.220  26.773  1.00  0.00     0.198 A 
ATOM     85  C   UNL A   1      42.785  34.657  29.106  1.00  0.00     0.198 A 
ATOM     86  F   UNL A   1      44.405  33.187  29.962  1.00  0.00    -0.203 F 
ATOM     87  F   UNL A   1      42.274  35.918  25.747  1.00  0.00    -0.200 F 
ATOM     88  C   UNL A   1      42.237  35.356  28.040  1.00  0.00     0.200 A 
ATOM     89  F   UNL A   1      42.248  34.771  30.328  1.00  0.00    -0.200 F 
ATOM     90  F   UNL A   1      41.188  36.164  28.237  1.00  0.00    -0.200 F 
ENDBRANCH  66  80
BRANCH  67  91
ATOM     91  C   UNL A   1      51.774  27.082  25.901  1.00  0.00     0.064 A 
ATOM     92  C   UNL A   1      52.558  26.486  26.900  1.00  0.00     0.173 A 
ATOM     93  C   UNL A   1      52.075  26.766  24.567  1.00  0.00     0.173 A 
ATOM     94  F   UNL A   1      52.328  26.772  28.190  1.00  0.00    -0.203 F 
ATOM     95  C   UNL A   1      53.618  25.642  26.577  1.00  0.00     0.198 A 
ATOM     96  C   UNL A   1      53.108  25.888  24.247  1.00  0.00     0.198 A 
ATOM     97  F   UNL A   1      51.359  27.307  23.569  1.00  0.00    -0.203 F 
ATOM     98  F   UNL A   1      54.392  25.143  27.550  1.00  0.00    -0.200 F 
ATOM     99  C   UNL A   1      53.889  25.338  25.252  1.00  0.00     0.200 A 
ATOM    100  F   UNL A   1      53.350  25.583  22.965  1.00  0.00    -0.200 F 
ATOM    101  F   UNL A   1      54.908  24.525  24.943  1.00  0.00    -0.200 F 
ENDBRANCH  67  91
BRANCH  79 102
ATOM    102  C   UNL A   1      51.560  34.031  26.572  1.00  0.00     0.064 A 
ATOM    103  C   UNL A   1      51.909  34.634  25.354  1.00  0.00     0.173 A 
ATOM    104  C   UNL A   1      52.185  34.504  27.738  1.00  0.00     0.173 A 
ATOM    105  F   UNL A   1      51.352  34.214  24.209  1.00  0.00    -0.203 F 
ATOM    106  C   UNL A   1      52.862  35.649  25.304  1.00  0.00     0.198 A 
ATOM    107  C   UNL A   1      53.105  35.547  27.689  1.00  0.00     0.198 A 
ATOM    108  F   UNL A   1      51.881  33.972  28.932  1.00  0.00    -0.203 F 
ATOM    109  F   UNL A   1      53.217  36.174  24.123  1.00  0.00    -0.200 F 
ATOM    110  C   UNL A   1      53.451  36.112  26.472  1.00  0.00     0.200 A 
ATOM    111  F   UNL A   1      53.653  36.007  28.822  1.00  0.00    -0.200 F 
ATOM    112  F   UNL A   1      54.352  37.101  26.423  1.00  0.00    -0.200 F 
ENDBRANCH  79 102
ENDBRANCH  53  54
ENDBRANCH  46  48
ENDBRANCH  45  46
ENDBRANCH  44  45
ENDBRANCH  43  44
ENDBRANCH  42  43
ENDBRANCH  41  42
ENDBRANCH  40  41
ENDBRANCH  39  40
ENDBRANCH   1  39
TORSDOF 25
ENDMDL
