MODEL 1
REMARK VINA RESULT:     -10.7      0.000      0.000
REMARK SMILES Cc1c(Cl)ccc2c1C=C(C(=O)OCCOCCOCCOCCOC(=O)c1ccc(-c3c4nc(c(-c5c(F)c(F)c(F)c(F)c5F)c5ccc([nH]5)c(-c5c(F)c(F)c(F)c(F)c5F)c5nc(c(-c6c(F)c(F)c(F)c(F)c6F)c6ccc3[nH]6)C=C5)C=C4)cc1)[C@@H](C(F)(F)F)O2
REMARK SMILES IDX 20 1 19 2 18 3 17 4 16 5 15 6 14 7 13 8 11 9 12 10 10 11
REMARK SMILES IDX 1 12 2 13 3 14 8 15 4 16 5 17 7 18 9 19 6 20 96 21 91 22
REMARK SMILES IDX 92 23 93 24 94 25 95 26 21 27 22 28 23 29 24 30 25 31 26 32
REMARK SMILES IDX 27 33 28 34 29 35 90 36 30 37 89 38 31 39 32 40 33 41 83 42
REMARK SMILES IDX 34 43 88 44 82 45 84 46 35 47 87 48 81 49 80 50 36 52 68 53
REMARK SMILES IDX 48 54 67 55 49 56 52 57 66 58 85 59 50 60 51 61 65 63 86 64
REMARK SMILES IDX 53 65 37 66 38 67 46 68 39 69 40 70 44 71 47 72 41 73 42 74
REMARK SMILES IDX 45 75 43 76 69 77 70 78 78 79 71 80 72 81 76 82 79 83 73 84
REMARK SMILES IDX 74 85 77 86 75 87 54 88 55 89 63 90 56 91 57 92 61 93 64 94
REMARK SMILES IDX 58 95 59 96 62 97 60 98
REMARK H PARENT 84 51 52 62
REMARK Flexibility Score: inf
ROOT
ATOM      1  C   UNL A   1      33.855  35.157  29.894  1.00  0.00     0.188 C 
ENDROOT
BRANCH   1   2
ATOM      2  O   UNL A   1      33.460  35.085  28.523  1.00  0.00    -0.377 OA
BRANCH   2   3
ATOM      3  C   UNL A   1      33.361  33.801  27.928  1.00  0.00     0.188 C 
BRANCH   3   4
ATOM      4  C   UNL A   1      34.214  32.732  28.634  1.00  0.00     0.188 C 
BRANCH   4   5
ATOM      5  O   UNL A   1      34.809  31.807  27.727  1.00  0.00    -0.376 OA
BRANCH   5   6
ATOM      6  C   UNL A   1      34.662  30.422  28.012  1.00  0.00     0.202 C 
BRANCH   6   7
ATOM      7  C   UNL A   1      34.897  29.436  26.858  1.00  0.00     0.261 C 
BRANCH   7   8
ATOM      8  O   UNL A   1      34.169  28.202  26.948  1.00  0.00    -0.460 OA
BRANCH   8   9
ATOM      9  C   UNL A   1      33.097  28.046  26.147  1.00  0.00     0.338 C 
ATOM     10  O   UNL A   1      32.146  28.799  26.048  1.00  0.00    -0.246 OA
BRANCH   9  11
ATOM     11  C   UNL A   1      33.354  26.879  25.272  1.00  0.00     0.087 C 
ATOM     12  C   UNL A   1      34.451  23.036  27.073  1.00  0.00     0.047 C 
ATOM     13  C   UNL A   1      34.417  23.318  25.590  1.00  0.00    -0.021 A 
ATOM     14  C   UNL A   1      34.778  22.283  24.697  1.00  0.00     0.044 A 
ATOM     15  C   UNL A   1      34.014  24.564  25.049  1.00  0.00     0.022 A 
ATOM     16  Cl  UNL A   1      35.372  20.757  25.261  1.00  0.00    -0.084 Cl
ATOM     17  C   UNL A   1      34.681  22.452  23.317  1.00  0.00     0.024 A 
ATOM     18  C   UNL A   1      33.858  24.693  23.660  1.00  0.00     0.128 A 
ATOM     19  C   UNL A   1      33.800  25.761  25.863  1.00  0.00     0.027 C 
ATOM     20  C   UNL A   1      34.193  23.646  22.801  1.00  0.00     0.048 A 
ATOM     21  O   UNL A   1      33.394  25.811  23.031  1.00  0.00    -0.475 OA
ATOM     22  C   UNL A   1      33.020  26.974  23.810  1.00  0.00     0.316 C 
BRANCH  22  23
ATOM     23  C   UNL A   1      33.660  28.198  23.138  1.00  0.00     0.430 C 
ATOM     24  F   UNL A   1      32.838  29.275  23.193  1.00  0.00    -0.167 F 
ATOM     25  F   UNL A   1      34.817  28.569  23.734  1.00  0.00    -0.167 F 
ATOM     26  F   UNL A   1      33.937  27.966  21.834  1.00  0.00    -0.167 F 
ENDBRANCH  22  23
ENDBRANCH   9  11
ENDBRANCH   8   9
ENDBRANCH   7   8
ENDBRANCH   6   7
ENDBRANCH   5   6
ENDBRANCH   4   5
ENDBRANCH   3   4
ENDBRANCH   2   3
ENDBRANCH   1   2
BRANCH   1  27
ATOM     27  C   UNL A   1      32.903  35.652  31.010  1.00  0.00     0.188 C 
BRANCH  27  28
ATOM     28  O   UNL A   1      32.959  34.882  32.207  1.00  0.00    -0.376 OA
BRANCH  28  29
ATOM     29  C   UNL A   1      34.251  34.554  32.696  1.00  0.00     0.202 C 
BRANCH  29  30
ATOM     30  C   UNL A   1      34.533  33.048  32.752  1.00  0.00     0.261 C 
BRANCH  30  31
ATOM     31  O   UNL A   1      35.807  32.642  32.228  1.00  0.00    -0.460 OA
BRANCH  31  32
ATOM     32  C   UNL A   1      36.682  32.062  33.077  1.00  0.00     0.338 C 
ATOM     33  O   UNL A   1      36.566  31.908  34.279  1.00  0.00    -0.246 OA
BRANCH  32  34
ATOM     34  C   UNL A   1      37.754  31.479  32.250  1.00  0.00     0.060 A 
ATOM     35  C   UNL A   1      38.846  30.861  32.873  1.00  0.00     0.016 A 
ATOM     36  C   UNL A   1      37.650  31.510  30.858  1.00  0.00     0.016 A 
ATOM     37  C   UNL A   1      39.843  30.272  32.096  1.00  0.00     0.010 A 
ATOM     38  C   UNL A   1      38.664  30.946  30.082  1.00  0.00     0.010 A 
ATOM     39  C   UNL A   1      39.772  30.342  30.698  1.00  0.00    -0.014 A 
BRANCH  39  40
ATOM     40  C   UNL A   1      40.949  29.963  29.884  1.00  0.00     0.031 A 
ATOM     41  C   UNL A   1      40.991  28.577  29.309  1.00  0.00     0.074 A 
ATOM     42  C   UNL A   1      41.950  30.829  29.653  1.00  0.00     0.049 A 
ATOM     43  N   UNL A   1      41.902  28.018  28.554  1.00  0.00    -0.248 NA
ATOM     44  C   UNL A   1      39.849  27.703  29.623  1.00  0.00     0.031 C 
ATOM     45  C   UNL A   1      42.005  32.207  30.136  1.00  0.00     0.029 A 
ATOM     46  N   UNL A   1      43.120  30.669  28.951  1.00  0.00    -0.354 N 
ATOM     47  C   UNL A   1      41.431  26.741  28.285  1.00  0.00     0.074 A 
ATOM     48  C   UNL A   1      40.179  26.587  28.992  1.00  0.00     0.031 C 
ATOM     49  C   UNL A   1      43.153  32.769  29.717  1.00  0.00     0.029 A 
ATOM     50  C   UNL A   1      43.921  31.784  28.955  1.00  0.00     0.049 A 
ATOM     51  H   UNL A   1      43.360  29.835  28.488  1.00  0.00     0.167 HD
ATOM     52  C   UNL A   1      41.986  25.788  27.503  1.00  0.00     0.037 A 
ATOM     53  C   UNL A   1      45.139  31.978  28.410  1.00  0.00     0.037 A 
ATOM     54  C   UNL A   1      43.244  25.934  26.825  1.00  0.00     0.049 A 
ATOM     55  C   UNL A   1      45.789  30.861  27.630  1.00  0.00     0.074 A 
ATOM     56  C   UNL A   1      43.892  25.025  26.009  1.00  0.00     0.029 A 
ATOM     57  N   UNL A   1      44.052  27.058  26.897  1.00  0.00    -0.354 N 
ATOM     58  N   UNL A   1      45.317  29.672  27.340  1.00  0.00    -0.248 NA
ATOM     59  C   UNL A   1      47.138  31.111  27.101  1.00  0.00     0.031 C 
ATOM     60  C   UNL A   1      45.116  25.578  25.630  1.00  0.00     0.029 A 
ATOM     61  C   UNL A   1      45.207  26.855  26.163  1.00  0.00     0.049 A 
ATOM     62  H   UNL A   1      43.837  27.880  27.396  1.00  0.00     0.167 HD
ATOM     63  C   UNL A   1      46.290  29.049  26.569  1.00  0.00     0.074 A 
ATOM     64  C   UNL A   1      47.382  29.989  26.434  1.00  0.00     0.031 C 
ATOM     65  C   UNL A   1      46.277  27.810  26.021  1.00  0.00     0.037 A 
BRANCH  52  66
ATOM     66  C   UNL A   1      41.238  24.501  27.340  1.00  0.00     0.064 A 
ATOM     67  C   UNL A   1      40.090  24.422  26.538  1.00  0.00     0.173 A 
ATOM     68  C   UNL A   1      41.704  23.323  27.942  1.00  0.00     0.173 A 
ATOM     69  F   UNL A   1      39.596  25.525  25.955  1.00  0.00    -0.203 F 
ATOM     70  C   UNL A   1      39.428  23.212  26.354  1.00  0.00     0.198 A 
ATOM     71  C   UNL A   1      41.055  22.109  27.733  1.00  0.00     0.198 A 
ATOM     72  F   UNL A   1      42.798  23.346  28.717  1.00  0.00    -0.203 F 
ATOM     73  F   UNL A   1      38.314  23.166  25.611  1.00  0.00    -0.200 F 
ATOM     74  C   UNL A   1      39.917  22.056  26.943  1.00  0.00     0.200 A 
ATOM     75  F   UNL A   1      41.535  20.991  28.294  1.00  0.00    -0.200 F 
ATOM     76  F   UNL A   1      39.288  20.888  26.752  1.00  0.00    -0.200 F 
ENDBRANCH  52  66
BRANCH  53  77
ATOM     77  C   UNL A   1      45.818  33.292  28.562  1.00  0.00     0.064 A 
ATOM     78  C   UNL A   1      46.593  33.574  29.696  1.00  0.00     0.173 A 
ATOM     79  C   UNL A   1      45.709  34.290  27.583  1.00  0.00     0.173 A 
ATOM     80  F   UNL A   1      46.707  32.662  30.672  1.00  0.00    -0.203 F 
ATOM     81  C   UNL A   1      47.228  34.805  29.847  1.00  0.00     0.198 A 
ATOM     82  C   UNL A   1      46.363  35.513  27.723  1.00  0.00     0.198 A 
ATOM     83  F   UNL A   1      44.973  34.073  26.483  1.00  0.00    -0.203 F 
ATOM     84  F   UNL A   1      47.934  35.061  30.957  1.00  0.00    -0.200 F 
ATOM     85  C   UNL A   1      47.119  35.771  28.857  1.00  0.00     0.200 A 
ATOM     86  F   UNL A   1      46.260  36.440  26.762  1.00  0.00    -0.200 F 
ATOM     87  F   UNL A   1      47.734  36.953  29.001  1.00  0.00    -0.200 F 
ENDBRANCH  53  77
BRANCH  65  88
ATOM     88  C   UNL A   1      47.454  27.385  25.193  1.00  0.00     0.064 A 
ATOM     89  C   UNL A   1      47.549  27.713  23.833  1.00  0.00     0.173 A 
ATOM     90  C   UNL A   1      48.557  26.763  25.800  1.00  0.00     0.173 A 
ATOM     91  F   UNL A   1      46.517  28.299  23.207  1.00  0.00    -0.203 F 
ATOM     92  C   UNL A   1      48.708  27.438  23.112  1.00  0.00     0.198 A 
ATOM     93  C   UNL A   1      49.723  26.515  25.083  1.00  0.00     0.198 A 
ATOM     94  F   UNL A   1      48.519  26.441  27.101  1.00  0.00    -0.203 F 
ATOM     95  F   UNL A   1      48.774  27.749  21.810  1.00  0.00    -0.200 F 
ATOM     96  C   UNL A   1      49.798  26.853  23.740  1.00  0.00     0.200 A 
ATOM     97  F   UNL A   1      50.783  25.969  25.695  1.00  0.00    -0.200 F 
ATOM     98  F   UNL A   1      50.924  26.621  23.052  1.00  0.00    -0.200 F 
ENDBRANCH  65  88
ENDBRANCH  39  40
ENDBRANCH  32  34
ENDBRANCH  31  32
ENDBRANCH  30  31
ENDBRANCH  29  30
ENDBRANCH  28  29
ENDBRANCH  27  28
ENDBRANCH   1  27
TORSDOF 21
ENDMDL
MODEL 2
REMARK VINA RESULT:     -10.6      5.637     11.014
REMARK SMILES Cc1c(Cl)ccc2c1C=C(C(=O)OCCOCCOCCOCCOC(=O)c1ccc(-c3c4nc(c(-c5c(F)c(F)c(F)c(F)c5F)c5ccc([nH]5)c(-c5c(F)c(F)c(F)c(F)c5F)c5nc(c(-c6c(F)c(F)c(F)c(F)c6F)c6ccc3[nH]6)C=C5)C=C4)cc1)[C@@H](C(F)(F)F)O2
REMARK SMILES IDX 20 1 19 2 18 3 17 4 16 5 15 6 14 7 13 8 11 9 12 10 10 11
REMARK SMILES IDX 1 12 2 13 3 14 8 15 4 16 5 17 7 18 9 19 6 20 96 21 91 22
REMARK SMILES IDX 92 23 93 24 94 25 95 26 21 27 22 28 23 29 24 30 25 31 26 32
REMARK SMILES IDX 27 33 28 34 29 35 90 36 30 37 89 38 31 39 32 40 33 41 83 42
REMARK SMILES IDX 34 43 88 44 82 45 84 46 35 47 87 48 81 49 80 50 36 52 68 53
REMARK SMILES IDX 48 54 67 55 49 56 52 57 66 58 85 59 50 60 51 61 65 63 86 64
REMARK SMILES IDX 53 65 37 66 38 67 46 68 39 69 40 70 44 71 47 72 41 73 42 74
REMARK SMILES IDX 45 75 43 76 69 77 70 78 78 79 71 80 72 81 76 82 79 83 73 84
REMARK SMILES IDX 74 85 77 86 75 87 54 88 55 89 63 90 56 91 57 92 61 93 64 94
REMARK SMILES IDX 58 95 59 96 62 97 60 98
REMARK H PARENT 84 51 52 62
REMARK Flexibility Score: inf
ROOT
ATOM      1  C   UNL A   1      43.515  19.958  25.755  1.00  0.00     0.188 C 
ENDROOT
BRANCH   1   2
ATOM      2  O   UNL A   1      42.190  19.787  25.246  1.00  0.00    -0.377 OA
BRANCH   2   3
ATOM      3  C   UNL A   1      41.149  19.536  26.175  1.00  0.00     0.188 C 
BRANCH   3   4
ATOM      4  C   UNL A   1      41.102  20.552  27.330  1.00  0.00     0.188 C 
BRANCH   4   5
ATOM      5  O   UNL A   1      40.013  21.466  27.223  1.00  0.00    -0.376 OA
BRANCH   5   6
ATOM      6  C   UNL A   1      39.471  21.691  25.929  1.00  0.00     0.202 C 
BRANCH   6   7
ATOM      7  C   UNL A   1      37.959  21.483  25.752  1.00  0.00     0.261 C 
BRANCH   7   8
ATOM      8  O   UNL A   1      37.191  22.683  25.576  1.00  0.00    -0.460 OA
BRANCH   8   9
ATOM      9  C   UNL A   1      36.517  22.833  24.420  1.00  0.00     0.338 C 
ATOM     10  O   UNL A   1      36.923  22.576  23.301  1.00  0.00    -0.246 OA
BRANCH   9  11
ATOM     11  C   UNL A   1      35.123  23.206  24.755  1.00  0.00     0.087 C 
ATOM     12  C   UNL A   1      34.176  27.382  25.691  1.00  0.00     0.047 C 
ATOM     13  C   UNL A   1      33.203  26.232  25.790  1.00  0.00    -0.021 A 
ATOM     14  C   UNL A   1      31.886  26.497  26.230  1.00  0.00     0.044 A 
ATOM     15  C   UNL A   1      33.541  24.902  25.436  1.00  0.00     0.022 A 
ATOM     16  Cl  UNL A   1      31.404  28.068  26.774  1.00  0.00    -0.084 Cl
ATOM     17  C   UNL A   1      30.918  25.494  26.257  1.00  0.00     0.024 A 
ATOM     18  C   UNL A   1      32.535  23.922  25.404  1.00  0.00     0.128 A 
ATOM     19  C   UNL A   1      34.908  24.469  25.148  1.00  0.00     0.027 C 
ATOM     20  C   UNL A   1      31.235  24.216  25.816  1.00  0.00     0.048 A 
ATOM     21  O   UNL A   1      32.719  22.633  24.997  1.00  0.00    -0.475 OA
ATOM     22  C   UNL A   1      34.028  22.197  24.554  1.00  0.00     0.316 C 
BRANCH  22  23
ATOM     23  C   UNL A   1      34.323  20.860  25.249  1.00  0.00     0.430 C 
ATOM     24  F   UNL A   1      33.225  20.065  25.274  1.00  0.00    -0.167 F 
ATOM     25  F   UNL A   1      35.293  20.154  24.622  1.00  0.00    -0.167 F 
ATOM     26  F   UNL A   1      34.722  21.039  26.531  1.00  0.00    -0.167 F 
ENDBRANCH  22  23
ENDBRANCH   9  11
ENDBRANCH   8   9
ENDBRANCH   7   8
ENDBRANCH   6   7
ENDBRANCH   5   6
ENDBRANCH   4   5
ENDBRANCH   3   4
ENDBRANCH   2   3
ENDBRANCH   1   2
BRANCH   1  27
ATOM     27  C   UNL A   1      44.704  20.382  24.859  1.00  0.00     0.188 C 
BRANCH  27  28
ATOM     28  O   UNL A   1      45.843  20.838  25.582  1.00  0.00    -0.376 OA
BRANCH  28  29
ATOM     29  C   UNL A   1      46.319  22.140  25.270  1.00  0.00     0.202 C 
BRANCH  29  30
ATOM     30  C   UNL A   1      45.390  22.940  24.350  1.00  0.00     0.261 C 
BRANCH  30  31
ATOM     31  O   UNL A   1      44.642  23.985  24.991  1.00  0.00    -0.460 OA
BRANCH  31  32
ATOM     32  C   UNL A   1      43.311  23.809  25.137  1.00  0.00     0.338 C 
ATOM     33  O   UNL A   1      42.610  22.955  24.625  1.00  0.00    -0.246 OA
BRANCH  32  34
ATOM     34  C   UNL A   1      42.871  24.746  26.187  1.00  0.00     0.060 A 
ATOM     35  C   UNL A   1      43.490  25.997  26.297  1.00  0.00     0.016 A 
ATOM     36  C   UNL A   1      41.814  24.396  27.030  1.00  0.00     0.016 A 
ATOM     37  C   UNL A   1      43.051  26.904  27.262  1.00  0.00     0.010 A 
ATOM     38  C   UNL A   1      41.396  25.292  28.014  1.00  0.00     0.010 A 
ATOM     39  C   UNL A   1      42.025  26.541  28.146  1.00  0.00    -0.014 A 
BRANCH  39  40
ATOM     40  C   UNL A   1      41.745  27.384  29.330  1.00  0.00     0.031 A 
ATOM     41  C   UNL A   1      40.569  28.314  29.271  1.00  0.00     0.074 A 
ATOM     42  C   UNL A   1      42.510  27.318  30.433  1.00  0.00     0.049 A 
ATOM     43  N   UNL A   1      40.114  29.136  30.182  1.00  0.00    -0.248 NA
ATOM     44  C   UNL A   1      39.798  28.315  28.017  1.00  0.00     0.031 C 
ATOM     45  C   UNL A   1      43.659  26.434  30.615  1.00  0.00     0.029 A 
ATOM     46  N   UNL A   1      42.431  28.018  31.612  1.00  0.00    -0.354 N 
ATOM     47  C   UNL A   1      38.993  29.730  29.619  1.00  0.00     0.074 A 
ATOM     48  C   UNL A   1      38.860  29.214  28.275  1.00  0.00     0.031 C 
ATOM     49  C   UNL A   1      44.181  26.646  31.837  1.00  0.00     0.029 A 
ATOM     50  C   UNL A   1      43.416  27.694  32.513  1.00  0.00     0.049 A 
ATOM     51  H   UNL A   1      41.733  28.688  31.796  1.00  0.00     0.167 HD
ATOM     52  C   UNL A   1      38.140  30.615  30.182  1.00  0.00     0.037 A 
ATOM     53  C   UNL A   1      43.670  28.195  33.738  1.00  0.00     0.037 A 
ATOM     54  C   UNL A   1      38.290  31.148  31.508  1.00  0.00     0.049 A 
ATOM     55  C   UNL A   1      42.765  29.263  34.304  1.00  0.00     0.074 A 
ATOM     56  C   UNL A   1      37.479  32.052  32.169  1.00  0.00     0.029 A 
ATOM     57  N   UNL A   1      39.332  30.837  32.369  1.00  0.00    -0.354 N 
ATOM     58  N   UNL A   1      41.680  29.786  33.787  1.00  0.00    -0.248 NA
ATOM     59  C   UNL A   1      43.118  29.809  35.623  1.00  0.00     0.031 C 
ATOM     60  C   UNL A   1      38.057  32.328  33.409  1.00  0.00     0.029 A 
ATOM     61  C   UNL A   1      39.199  31.553  33.545  1.00  0.00     0.049 A 
ATOM     62  H   UNL A   1      40.058  30.201  32.173  1.00  0.00     0.167 HD
ATOM     63  C   UNL A   1      41.203  30.692  34.725  1.00  0.00     0.074 A 
ATOM     64  C   UNL A   1      42.116  30.650  35.848  1.00  0.00     0.031 C 
ATOM     65  C   UNL A   1      40.106  31.484  34.663  1.00  0.00     0.037 A 
BRANCH  52  66
ATOM     66  C   UNL A   1      36.969  31.066  29.366  1.00  0.00     0.064 A 
ATOM     67  C   UNL A   1      36.925  32.349  28.800  1.00  0.00     0.173 A 
ATOM     68  C   UNL A   1      35.906  30.191  29.095  1.00  0.00     0.173 A 
ATOM     69  F   UNL A   1      37.910  33.228  29.044  1.00  0.00    -0.203 F 
ATOM     70  C   UNL A   1      35.855  32.744  28.003  1.00  0.00     0.198 A 
ATOM     71  C   UNL A   1      34.851  30.579  28.275  1.00  0.00     0.198 A 
ATOM     72  F   UNL A   1      35.901  28.953  29.611  1.00  0.00    -0.203 F 
ATOM     73  F   UNL A   1      35.818  33.985  27.501  1.00  0.00    -0.200 F 
ATOM     74  C   UNL A   1      34.825  31.856  27.733  1.00  0.00     0.200 A 
ATOM     75  F   UNL A   1      33.862  29.717  28.005  1.00  0.00    -0.200 F 
ATOM     76  F   UNL A   1      33.803  32.232  26.952  1.00  0.00    -0.200 F 
ENDBRANCH  52  66
BRANCH  53  77
ATOM     77  C   UNL A   1      44.819  27.679  34.526  1.00  0.00     0.064 A 
ATOM     78  C   UNL A   1      46.079  28.289  34.446  1.00  0.00     0.173 A 
ATOM     79  C   UNL A   1      44.686  26.570  35.374  1.00  0.00     0.173 A 
ATOM     80  F   UNL A   1      46.264  29.336  33.628  1.00  0.00    -0.203 F 
ATOM     81  C   UNL A   1      47.162  27.807  35.178  1.00  0.00     0.198 A 
ATOM     82  C   UNL A   1      45.764  26.103  36.125  1.00  0.00     0.198 A 
ATOM     83  F   UNL A   1      43.504  25.946  35.483  1.00  0.00    -0.203 F 
ATOM     84  F   UNL A   1      48.364  28.387  35.055  1.00  0.00    -0.200 F 
ATOM     85  C   UNL A   1      47.002  26.718  36.023  1.00  0.00     0.200 A 
ATOM     86  F   UNL A   1      45.602  25.055  36.946  1.00  0.00    -0.200 F 
ATOM     87  F   UNL A   1      48.042  26.258  36.731  1.00  0.00    -0.200 F 
ENDBRANCH  53  77
BRANCH  65  88
ATOM     88  C   UNL A   1      39.790  32.358  35.842  1.00  0.00     0.064 A 
ATOM     89  C   UNL A   1      40.352  33.634  35.979  1.00  0.00     0.173 A 
ATOM     90  C   UNL A   1      38.811  31.965  36.769  1.00  0.00     0.173 A 
ATOM     91  F   UNL A   1      41.298  34.050  35.124  1.00  0.00    -0.203 F 
ATOM     92  C   UNL A   1      39.942  34.488  37.000  1.00  0.00     0.198 A 
ATOM     93  C   UNL A   1      38.384  32.832  37.770  1.00  0.00     0.198 A 
ATOM     94  F   UNL A   1      38.234  30.758  36.672  1.00  0.00    -0.203 F 
ATOM     95  F   UNL A   1      40.501  35.700  37.121  1.00  0.00    -0.200 F 
ATOM     96  C   UNL A   1      38.950  34.093  37.884  1.00  0.00     0.200 A 
ATOM     97  F   UNL A   1      37.411  32.456  38.611  1.00  0.00    -0.200 F 
ATOM     98  F   UNL A   1      38.533  34.929  38.844  1.00  0.00    -0.200 F 
ENDBRANCH  65  88
ENDBRANCH  39  40
ENDBRANCH  32  34
ENDBRANCH  31  32
ENDBRANCH  30  31
ENDBRANCH  29  30
ENDBRANCH  28  29
ENDBRANCH  27  28
ENDBRANCH   1  27
TORSDOF 21
ENDMDL
MODEL 3
REMARK VINA RESULT:     -10.4      1.034      2.008
REMARK SMILES Cc1c(Cl)ccc2c1C=C(C(=O)OCCOCCOCCOCCOC(=O)c1ccc(-c3c4nc(c(-c5c(F)c(F)c(F)c(F)c5F)c5ccc([nH]5)c(-c5c(F)c(F)c(F)c(F)c5F)c5nc(c(-c6c(F)c(F)c(F)c(F)c6F)c6ccc3[nH]6)C=C5)C=C4)cc1)[C@@H](C(F)(F)F)O2
REMARK SMILES IDX 20 1 19 2 18 3 17 4 16 5 15 6 14 7 13 8 11 9 12 10 10 11
REMARK SMILES IDX 1 12 2 13 3 14 8 15 4 16 5 17 7 18 9 19 6 20 96 21 91 22
REMARK SMILES IDX 92 23 93 24 94 25 95 26 21 27 22 28 23 29 24 30 25 31 26 32
REMARK SMILES IDX 27 33 28 34 29 35 90 36 30 37 89 38 31 39 32 40 33 41 83 42
REMARK SMILES IDX 34 43 88 44 82 45 84 46 35 47 87 48 81 49 80 50 36 52 68 53
REMARK SMILES IDX 48 54 67 55 49 56 52 57 66 58 85 59 50 60 51 61 65 63 86 64
REMARK SMILES IDX 53 65 37 66 38 67 46 68 39 69 40 70 44 71 47 72 41 73 42 74
REMARK SMILES IDX 45 75 43 76 69 77 70 78 78 79 71 80 72 81 76 82 79 83 73 84
REMARK SMILES IDX 74 85 77 86 75 87 54 88 55 89 63 90 56 91 57 92 61 93 64 94
REMARK SMILES IDX 58 95 59 96 62 97 60 98
REMARK H PARENT 84 51 52 62
REMARK Flexibility Score: inf
ROOT
ATOM      1  C   UNL A   1      33.655  33.504  28.164  1.00  0.00     0.188 C 
ENDROOT
BRANCH   1   2
ATOM      2  O   UNL A   1      34.781  32.917  27.510  1.00  0.00    -0.377 OA
BRANCH   2   3
ATOM      3  C   UNL A   1      35.111  31.575  27.831  1.00  0.00     0.188 C 
BRANCH   3   4
ATOM      4  C   UNL A   1      33.920  30.608  27.711  1.00  0.00     0.188 C 
BRANCH   4   5
ATOM      5  O   UNL A   1      33.295  30.651  26.430  1.00  0.00    -0.376 OA
BRANCH   5   6
ATOM      6  C   UNL A   1      31.937  30.240  26.348  1.00  0.00     0.202 C 
BRANCH   6   7
ATOM      7  C   UNL A   1      31.565  29.254  25.231  1.00  0.00     0.261 C 
BRANCH   7   8
ATOM      8  O   UNL A   1      31.854  27.875  25.507  1.00  0.00    -0.460 OA
BRANCH   8   9
ATOM      9  C   UNL A   1      32.989  27.357  24.999  1.00  0.00     0.338 C 
ATOM     10  O   UNL A   1      34.100  27.852  25.045  1.00  0.00    -0.246 OA
BRANCH   9  11
ATOM     11  C   UNL A   1      32.684  25.989  24.519  1.00  0.00     0.087 C 
ATOM     12  C   UNL A   1      33.619  22.555  27.078  1.00  0.00     0.047 C 
ATOM     13  C   UNL A   1      33.101  22.463  25.663  1.00  0.00    -0.021 A 
ATOM     14  C   UNL A   1      32.910  21.183  25.095  1.00  0.00     0.044 A 
ATOM     15  C   UNL A   1      32.771  23.601  24.886  1.00  0.00     0.022 A 
ATOM     16  Cl  UNL A   1      33.371  19.736  25.927  1.00  0.00    -0.084 Cl
ATOM     17  C   UNL A   1      32.351  21.030  23.827  1.00  0.00     0.024 A 
ATOM     18  C   UNL A   1      32.146  23.426  23.640  1.00  0.00     0.128 A 
ATOM     19  C   UNL A   1      33.096  24.970  25.287  1.00  0.00     0.027 C 
ATOM     20  C   UNL A   1      31.942  22.150  23.114  1.00  0.00     0.048 A 
ATOM     21  O   UNL A   1      31.704  24.441  22.843  1.00  0.00    -0.475 OA
ATOM     22  C   UNL A   1      31.866  25.816  23.272  1.00  0.00     0.316 C 
BRANCH  22  23
ATOM     23  C   UNL A   1      32.435  26.601  22.080  1.00  0.00     0.430 C 
ATOM     24  F   UNL A   1      32.283  27.937  22.254  1.00  0.00    -0.167 F 
ATOM     25  F   UNL A   1      33.759  26.385  21.904  1.00  0.00    -0.167 F 
ATOM     26  F   UNL A   1      31.816  26.271  20.922  1.00  0.00    -0.167 F 
ENDBRANCH  22  23
ENDBRANCH   9  11
ENDBRANCH   8   9
ENDBRANCH   7   8
ENDBRANCH   6   7
ENDBRANCH   5   6
ENDBRANCH   4   5
ENDBRANCH   3   4
ENDBRANCH   2   3
ENDBRANCH   1   2
BRANCH   1  27
ATOM     27  C   UNL A   1      33.791  34.673  29.170  1.00  0.00     0.188 C 
BRANCH  27  28
ATOM     28  O   UNL A   1      33.495  34.318  30.518  1.00  0.00    -0.376 OA
BRANCH  28  29
ATOM     29  C   UNL A   1      34.596  34.207  31.407  1.00  0.00     0.202 C 
BRANCH  29  30
ATOM     30  C   UNL A   1      34.441  33.101  32.458  1.00  0.00     0.261 C 
BRANCH  30  31
ATOM     31  O   UNL A   1      35.361  32.005  32.336  1.00  0.00    -0.460 OA
BRANCH  31  32
ATOM     32  C   UNL A   1      36.461  32.015  33.118  1.00  0.00     0.338 C 
ATOM     33  O   UNL A   1      36.532  32.278  34.305  1.00  0.00    -0.246 OA
BRANCH  32  34
ATOM     34  C   UNL A   1      37.565  31.472  32.306  1.00  0.00     0.060 A 
ATOM     35  C   UNL A   1      38.694  30.942  32.944  1.00  0.00     0.016 A 
ATOM     36  C   UNL A   1      37.457  31.451  30.913  1.00  0.00     0.016 A 
ATOM     37  C   UNL A   1      39.724  30.390  32.182  1.00  0.00     0.010 A 
ATOM     38  C   UNL A   1      38.501  30.926  30.152  1.00  0.00     0.010 A 
ATOM     39  C   UNL A   1      39.646  30.410  30.782  1.00  0.00    -0.014 A 
BRANCH  39  40
ATOM     40  C   UNL A   1      40.842  30.078  29.976  1.00  0.00     0.031 A 
ATOM     41  C   UNL A   1      40.949  28.691  29.413  1.00  0.00     0.074 A 
ATOM     42  C   UNL A   1      41.804  30.987  29.741  1.00  0.00     0.049 A 
ATOM     43  N   UNL A   1      41.887  28.167  28.667  1.00  0.00    -0.248 NA
ATOM     44  C   UNL A   1      39.846  27.769  29.731  1.00  0.00     0.031 C 
ATOM     45  C   UNL A   1      41.794  32.370  30.212  1.00  0.00     0.029 A 
ATOM     46  N   UNL A   1      42.982  30.874  29.045  1.00  0.00    -0.354 N 
ATOM     47  C   UNL A   1      41.475  26.868  28.408  1.00  0.00     0.074 A 
ATOM     48  C   UNL A   1      40.229  26.663  29.111  1.00  0.00     0.031 C 
ATOM     49  C   UNL A   1      42.917  32.980  29.792  1.00  0.00     0.029 A 
ATOM     50  C   UNL A   1      43.732  32.024  29.041  1.00  0.00     0.049 A 
ATOM     51  H   UNL A   1      43.262  30.047  28.590  1.00  0.00     0.167 HD
ATOM     52  C   UNL A   1      42.076  25.934  27.636  1.00  0.00     0.037 A 
ATOM     53  C   UNL A   1      44.942  32.268  28.499  1.00  0.00     0.037 A 
ATOM     54  C   UNL A   1      43.328  26.131  26.961  1.00  0.00     0.049 A 
ATOM     55  C   UNL A   1      45.645  31.175  27.732  1.00  0.00     0.074 A 
ATOM     56  C   UNL A   1      44.020  25.245  26.156  1.00  0.00     0.029 A 
ATOM     57  N   UNL A   1      44.085  27.291  27.026  1.00  0.00    -0.354 N 
ATOM     58  N   UNL A   1      45.229  29.963  27.450  1.00  0.00    -0.248 NA
ATOM     59  C   UNL A   1      46.984  31.481  27.205  1.00  0.00     0.031 C 
ATOM     60  C   UNL A   1      45.220  25.849  25.776  1.00  0.00     0.029 A 
ATOM     61  C   UNL A   1      45.251  27.133  26.298  1.00  0.00     0.049 A 
ATOM     62  H   UNL A   1      43.831  28.106  27.517  1.00  0.00     0.167 HD
ATOM     63  C   UNL A   1      46.232  29.378  26.689  1.00  0.00     0.074 A 
ATOM     64  C   UNL A   1      47.280  30.366  26.549  1.00  0.00     0.031 C 
ATOM     65  C   UNL A   1      46.277  28.135  26.152  1.00  0.00     0.037 A 
BRANCH  52  66
ATOM     66  C   UNL A   1      41.388  24.613  27.482  1.00  0.00     0.064 A 
ATOM     67  C   UNL A   1      40.239  24.478  26.688  1.00  0.00     0.173 A 
ATOM     68  C   UNL A   1      41.912  23.460  28.084  1.00  0.00     0.173 A 
ATOM     69  F   UNL A   1      39.691  25.555  26.105  1.00  0.00    -0.203 F 
ATOM     70  C   UNL A   1      39.633  23.238  26.512  1.00  0.00     0.198 A 
ATOM     71  C   UNL A   1      41.319  22.217  27.884  1.00  0.00     0.198 A 
ATOM     72  F   UNL A   1      43.009  23.536  28.852  1.00  0.00    -0.203 F 
ATOM     73  F   UNL A   1      38.517  23.137  25.777  1.00  0.00    -0.200 F 
ATOM     74  C   UNL A   1      40.179  22.108  27.101  1.00  0.00     0.200 A 
ATOM     75  F   UNL A   1      41.853  21.123  28.444  1.00  0.00    -0.200 F 
ATOM     76  F   UNL A   1      39.604  20.911  26.918  1.00  0.00    -0.200 F 
ENDBRANCH  52  66
BRANCH  53  77
ATOM     77  C   UNL A   1      45.560  33.612  28.642  1.00  0.00     0.064 A 
ATOM     78  C   UNL A   1      45.348  34.609  27.679  1.00  0.00     0.173 A 
ATOM     79  C   UNL A   1      46.374  33.930  29.740  1.00  0.00     0.173 A 
ATOM     80  F   UNL A   1      44.600  34.345  26.598  1.00  0.00    -0.203 F 
ATOM     81  C   UNL A   1      45.929  35.869  27.805  1.00  0.00     0.198 A 
ATOM     82  C   UNL A   1      46.936  35.199  29.878  1.00  0.00     0.198 A 
ATOM     83  F   UNL A   1      46.615  33.011  30.686  1.00  0.00    -0.203 F 
ATOM     84  F   UNL A   1      45.739  36.791  26.852  1.00  0.00    -0.200 F 
ATOM     85  C   UNL A   1      46.717  36.165  28.908  1.00  0.00     0.200 A 
ATOM     86  F   UNL A   1      47.690  35.482  30.949  1.00  0.00    -0.200 F 
ATOM     87  F   UNL A   1      47.271  37.379  29.032  1.00  0.00    -0.200 F 
ENDBRANCH  53  77
BRANCH  65  88
ATOM     88  C   UNL A   1      47.475  27.757  25.331  1.00  0.00     0.064 A 
ATOM     89  C   UNL A   1      48.593  27.140  25.908  1.00  0.00     0.173 A 
ATOM     90  C   UNL A   1      47.445  27.891  23.933  1.00  0.00     0.173 A 
ATOM     91  F   UNL A   1      48.672  26.998  27.240  1.00  0.00    -0.203 F 
ATOM     92  C   UNL A   1      49.635  26.666  25.116  1.00  0.00     0.198 A 
ATOM     93  C   UNL A   1      48.475  27.392  23.143  1.00  0.00     0.198 A 
ATOM     94  F   UNL A   1      46.391  28.464  23.332  1.00  0.00    -0.203 F 
ATOM     95  F   UNL A   1      50.701  26.089  25.689  1.00  0.00    -0.200 F 
ATOM     96  C   UNL A   1      49.569  26.779  23.735  1.00  0.00     0.200 A 
ATOM     97  F   UNL A   1      48.400  27.484  21.808  1.00  0.00    -0.200 F 
ATOM     98  F   UNL A   1      50.558  26.292  22.973  1.00  0.00    -0.200 F 
ENDBRANCH  65  88
ENDBRANCH  39  40
ENDBRANCH  32  34
ENDBRANCH  31  32
ENDBRANCH  30  31
ENDBRANCH  29  30
ENDBRANCH  28  29
ENDBRANCH  27  28
ENDBRANCH   1  27
TORSDOF 21
ENDMDL
