MODEL 1
REMARK VINA RESULT:      -9.6      0.000      0.000
REMARK SMILES COc1cccc([C@@H]2CN(C(=O)c3cnn(C)c3)C[C@H]2C(=O)OCCOCCOCCOCCOC(=O)c2ccc(-c3c4nc(c(-c5c(F)c(F)c(F)c(F)c5F)c5ccc([nH]5)c(-c5c(F)c(F)c(F)c(F)c5F)c5nc(c(-c6c(F)c(F)c(F)c(F)c6F)c6ccc3[nH]6)C=C5)C=C4)cc2)c1OC
REMARK SMILES IDX 29 1 28 2 27 3 26 4 25 5 24 6 23 7 21 8 22 9 20 10 8 11 9 12
REMARK SMILES IDX 10 13 19 14 7 15 3 16 4 17 101 18 5 19 6 20 2 21 1 22 102 23
REMARK SMILES IDX 103 24 11 25 12 26 13 27 14 28 18 29 15 30 16 31 17 32 30 33
REMARK SMILES IDX 31 34 32 35 33 36 34 37 35 38 36 39 37 40 38 41 39 42 100 43
REMARK SMILES IDX 40 44 99 45 41 46 42 47 43 48 93 49 44 50 98 51 92 52 94 53
REMARK SMILES IDX 45 54 97 55 91 56 90 57 46 59 78 60 58 61 77 62 59 63 62 64
REMARK SMILES IDX 76 65 95 66 60 67 61 68 75 70 96 71 63 72 47 73 48 74 56 75
REMARK SMILES IDX 49 76 50 77 54 78 57 79 51 80 52 81 55 82 53 83 79 84 80 85
REMARK SMILES IDX 88 86 81 87 82 88 86 89 89 90 83 91 84 92 87 93 85 94 64 95
REMARK SMILES IDX 65 96 73 97 66 98 67 99 71 100 74 101 68 102 69 103 72 104
REMARK SMILES IDX 70 105
REMARK H PARENT 94 58 62 69
REMARK Flexibility Score: inf
ROOT
ATOM      1  O   UNL A   1      39.307  29.221  27.796  1.00  0.00    -0.377 OA
ENDROOT
BRANCH   1   2
ATOM      2  C   UNL A   1      38.128  29.484  28.529  1.00  0.00     0.188 C 
BRANCH   2   3
ATOM      3  C   UNL A   1      36.978  30.154  27.771  1.00  0.00     0.188 C 
BRANCH   3   4
ATOM      4  O   UNL A   1      35.927  29.371  27.237  1.00  0.00    -0.376 OA
BRANCH   4   5
ATOM      5  C   UNL A   1      34.620  29.426  27.784  1.00  0.00     0.202 C 
BRANCH   5   6
ATOM      6  C   UNL A   1      33.404  28.706  27.162  1.00  0.00     0.261 C 
BRANCH   6   7
ATOM      7  O   UNL A   1      33.317  28.624  25.722  1.00  0.00    -0.463 OA
BRANCH   7   8
ATOM      8  C   UNL A   1      32.278  29.280  25.161  1.00  0.00     0.311 C 
ATOM      9  O   UNL A   1      31.832  30.339  25.597  1.00  0.00    -0.252 OA
BRANCH   8  10
ATOM     10  C   UNL A   1      31.605  28.590  23.988  1.00  0.00     0.128 C 
ATOM     11  C   UNL A   1      31.066  27.125  24.005  1.00  0.00     0.059 C 
ATOM     12  C   UNL A   1      29.821  27.213  23.120  1.00  0.00     0.129 C 
ATOM     13  N   UNL A   1      29.307  28.544  23.352  1.00  0.00    -0.337 N 
ATOM     14  C   UNL A   1      30.380  29.451  23.680  1.00  0.00     0.135 C 
BRANCH  11  15
ATOM     15  C   UNL A   1      31.901  25.939  23.483  1.00  0.00     0.004 A 
ATOM     16  C   UNL A   1      33.270  23.935  23.753  1.00  0.00     0.161 A 
ATOM     17  C   UNL A   1      33.386  23.815  22.364  1.00  0.00     0.050 A 
ATOM     18  C   UNL A   1      32.577  25.021  24.324  1.00  0.00     0.164 A 
ATOM     19  C   UNL A   1      32.810  24.768  21.533  1.00  0.00     0.004 A 
ATOM     20  C   UNL A   1      32.067  25.813  22.085  1.00  0.00     0.008 A 
BRANCH  16  21
ATOM     21  O   UNL A   1      33.977  23.032  24.502  1.00  0.00    -0.493 OA
ATOM     22  C   UNL A   1      35.213  22.674  23.880  1.00  0.00     0.278 C 
ENDBRANCH  16  21
BRANCH  18  23
ATOM     23  O   UNL A   1      32.546  25.361  25.646  1.00  0.00    -0.493 OA
ATOM     24  C   UNL A   1      31.754  24.634  26.565  1.00  0.00     0.278 C 
ENDBRANCH  18  23
ENDBRANCH  11  15
BRANCH  13  25
ATOM     25  C   UNL A   1      28.051  29.032  23.051  1.00  0.00     0.257 C 
ATOM     26  O   UNL A   1      27.029  28.416  23.344  1.00  0.00    -0.269 OA
BRANCH  25  27
ATOM     27  C   UNL A   1      27.982  30.333  22.423  1.00  0.00     0.077 A 
ATOM     28  C   UNL A   1      27.853  31.582  23.068  1.00  0.00     0.149 A 
ATOM     29  C   UNL A   1      27.983  30.650  21.078  1.00  0.00     0.122 A 
ATOM     30  N   UNL A   1      27.869  32.606  22.210  1.00  0.00    -0.181 NA
ATOM     31  N   UNL A   1      27.962  32.010  21.009  1.00  0.00    -0.275 N 
ATOM     32  C   UNL A   1      28.063  32.818  19.819  1.00  0.00     0.173 C 
ENDBRANCH  25  27
ENDBRANCH  13  25
ENDBRANCH   8  10
ENDBRANCH   7   8
ENDBRANCH   6   7
ENDBRANCH   5   6
ENDBRANCH   4   5
ENDBRANCH   3   4
ENDBRANCH   2   3
ENDBRANCH   1   2
BRANCH   1  33
ATOM     33  C   UNL A   1      39.928  27.956  27.957  1.00  0.00     0.188 C 
BRANCH  33  34
ATOM     34  C   UNL A   1      40.922  27.480  26.884  1.00  0.00     0.188 C 
BRANCH  34  35
ATOM     35  O   UNL A   1      40.743  26.124  26.505  1.00  0.00    -0.376 OA
BRANCH  35  36
ATOM     36  C   UNL A   1      39.835  25.313  27.230  1.00  0.00     0.202 C 
BRANCH  36  37
ATOM     37  C   UNL A   1      40.287  23.923  27.703  1.00  0.00     0.261 C 
BRANCH  37  38
ATOM     38  O   UNL A   1      41.650  23.550  27.454  1.00  0.00    -0.460 OA
BRANCH  38  39
ATOM     39  C   UNL A   1      42.524  23.591  28.478  1.00  0.00     0.338 C 
ATOM     40  O   UNL A   1      42.581  22.829  29.429  1.00  0.00    -0.246 OA
BRANCH  39  41
ATOM     41  C   UNL A   1      43.543  24.609  28.142  1.00  0.00     0.060 A 
ATOM     42  C   UNL A   1      44.131  25.348  29.177  1.00  0.00     0.016 A 
ATOM     43  C   UNL A   1      43.946  24.808  26.819  1.00  0.00     0.016 A 
ATOM     44  C   UNL A   1      45.119  26.291  28.892  1.00  0.00     0.010 A 
ATOM     45  C   UNL A   1      44.914  25.775  26.532  1.00  0.00     0.010 A 
ATOM     46  C   UNL A   1      45.494  26.533  27.564  1.00  0.00    -0.014 A 
BRANCH  46  47
ATOM     47  C   UNL A   1      46.388  27.671  27.239  1.00  0.00     0.031 A 
ATOM     48  C   UNL A   1      47.856  27.407  27.060  1.00  0.00     0.074 A 
ATOM     49  C   UNL A   1      45.902  28.918  27.105  1.00  0.00     0.049 A 
ATOM     50  N   UNL A   1      48.836  28.250  26.861  1.00  0.00    -0.248 NA
ATOM     51  C   UNL A   1      48.273  25.997  27.115  1.00  0.00     0.031 C 
ATOM     52  C   UNL A   1      44.493  29.289  27.204  1.00  0.00     0.029 A 
ATOM     53  N   UNL A   1      46.550  30.105  26.870  1.00  0.00    -0.354 N 
ATOM     54  C   UNL A   1      49.987  27.475  26.774  1.00  0.00     0.074 A 
ATOM     55  C   UNL A   1      49.586  26.099  26.967  1.00  0.00     0.031 C 
ATOM     56  C   UNL A   1      44.384  30.621  27.054  1.00  0.00     0.029 A 
ATOM     57  C   UNL A   1      45.717  31.198  26.891  1.00  0.00     0.049 A 
ATOM     58  H   UNL A   1      47.519  30.169  26.704  1.00  0.00     0.167 HD
ATOM     59  C   UNL A   1      51.259  27.880  26.552  1.00  0.00     0.037 A 
ATOM     60  C   UNL A   1      46.007  32.512  26.823  1.00  0.00     0.037 A 
ATOM     61  C   UNL A   1      51.649  29.254  26.369  1.00  0.00     0.049 A 
ATOM     62  C   UNL A   1      47.445  32.944  26.675  1.00  0.00     0.074 A 
ATOM     63  C   UNL A   1      52.909  29.766  26.113  1.00  0.00     0.029 A 
ATOM     64  N   UNL A   1      50.785  30.337  26.440  1.00  0.00    -0.354 N 
ATOM     65  N   UNL A   1      48.524  32.207  26.563  1.00  0.00    -0.248 NA
ATOM     66  C   UNL A   1      47.705  34.391  26.648  1.00  0.00     0.031 C 
ATOM     67  C   UNL A   1      52.818  31.162  26.100  1.00  0.00     0.029 A 
ATOM     68  C   UNL A   1      51.491  31.519  26.278  1.00  0.00     0.049 A 
ATOM     69  H   UNL A   1      49.812  30.276  26.584  1.00  0.00     0.167 HD
ATOM     70  C   UNL A   1      49.584  33.098  26.432  1.00  0.00     0.074 A 
ATOM     71  C   UNL A   1      49.015  34.429  26.454  1.00  0.00     0.031 C 
ATOM     72  C   UNL A   1      50.910  32.837  26.308  1.00  0.00     0.037 A 
BRANCH  59  73
ATOM     73  C   UNL A   1      52.332  26.829  26.533  1.00  0.00     0.064 A 
ATOM     74  C   UNL A   1      53.206  26.642  27.614  1.00  0.00     0.173 A 
ATOM     75  C   UNL A   1      52.460  25.971  25.430  1.00  0.00     0.173 A 
ATOM     76  F   UNL A   1      53.137  27.444  28.687  1.00  0.00    -0.203 F 
ATOM     77  C   UNL A   1      54.186  25.651  27.579  1.00  0.00     0.198 A 
ATOM     78  C   UNL A   1      53.418  24.961  25.413  1.00  0.00     0.198 A 
ATOM     79  F   UNL A   1      51.648  26.104  24.371  1.00  0.00    -0.203 F 
ATOM     80  F   UNL A   1      55.043  25.523  28.602  1.00  0.00    -0.200 F 
ATOM     81  C   UNL A   1      54.285  24.807  26.484  1.00  0.00     0.200 A 
ATOM     82  F   UNL A   1      53.503  24.138  24.359  1.00  0.00    -0.200 F 
ATOM     83  F   UNL A   1      55.222  23.850  26.456  1.00  0.00    -0.200 F 
ENDBRANCH  59  73
BRANCH  60  84
ATOM     84  C   UNL A   1      44.919  33.523  26.934  1.00  0.00     0.064 A 
ATOM     85  C   UNL A   1      44.610  34.124  28.163  1.00  0.00     0.173 A 
ATOM     86  C   UNL A   1      44.148  33.887  25.821  1.00  0.00     0.173 A 
ATOM     87  F   UNL A   1      45.297  33.788  29.264  1.00  0.00    -0.203 F 
ATOM     88  C   UNL A   1      43.560  35.033  28.276  1.00  0.00     0.198 A 
ATOM     89  C   UNL A   1      43.120  34.821  25.927  1.00  0.00     0.198 A 
ATOM     90  F   UNL A   1      44.397  33.337  24.622  1.00  0.00    -0.203 F 
ATOM     91  F   UNL A   1      43.251  35.550  29.473  1.00  0.00    -0.200 F 
ATOM     92  C   UNL A   1      42.819  35.386  27.156  1.00  0.00     0.200 A 
ATOM     93  F   UNL A   1      42.416  35.166  24.840  1.00  0.00    -0.200 F 
ATOM     94  F   UNL A   1      41.812  36.263  27.266  1.00  0.00    -0.200 F 
ENDBRANCH  60  84
BRANCH  72  95
ATOM     95  C   UNL A   1      51.837  34.012  26.169  1.00  0.00     0.064 A 
ATOM     96  C   UNL A   1      52.429  34.618  27.287  1.00  0.00     0.173 A 
ATOM     97  C   UNL A   1      52.175  34.508  24.900  1.00  0.00     0.173 A 
ATOM     98  F   UNL A   1      52.130  34.193  28.524  1.00  0.00    -0.203 F 
ATOM     99  C   UNL A   1      53.303  35.693  27.142  1.00  0.00     0.198 A 
ATOM    100  C   UNL A   1      53.078  35.559  24.756  1.00  0.00     0.198 A 
ATOM    101  F   UNL A   1      51.645  33.961  23.796  1.00  0.00    -0.203 F 
ATOM    102  F   UNL A   1      53.817  36.288  28.227  1.00  0.00    -0.200 F 
ATOM    103  C   UNL A   1      53.633  36.156  25.877  1.00  0.00     0.200 A 
ATOM    104  F   UNL A   1      53.410  35.992  23.532  1.00  0.00    -0.200 F 
ATOM    105  F   UNL A   1      54.485  37.182  25.739  1.00  0.00    -0.200 F 
ENDBRANCH  72  95
ENDBRANCH  46  47
ENDBRANCH  39  41
ENDBRANCH  38  39
ENDBRANCH  37  38
ENDBRANCH  36  37
ENDBRANCH  35  36
ENDBRANCH  34  35
ENDBRANCH  33  34
ENDBRANCH   1  33
TORSDOF 25
ENDMDL
MODEL 2
REMARK VINA RESULT:      -9.1      2.158      4.482
REMARK SMILES COc1cccc([C@@H]2CN(C(=O)c3cnn(C)c3)C[C@H]2C(=O)OCCOCCOCCOCCOC(=O)c2ccc(-c3c4nc(c(-c5c(F)c(F)c(F)c(F)c5F)c5ccc([nH]5)c(-c5c(F)c(F)c(F)c(F)c5F)c5nc(c(-c6c(F)c(F)c(F)c(F)c6F)c6ccc3[nH]6)C=C5)C=C4)cc2)c1OC
REMARK SMILES IDX 29 1 28 2 27 3 26 4 25 5 24 6 23 7 21 8 22 9 20 10 8 11 9 12
REMARK SMILES IDX 10 13 19 14 7 15 3 16 4 17 101 18 5 19 6 20 2 21 1 22 102 23
REMARK SMILES IDX 103 24 11 25 12 26 13 27 14 28 18 29 15 30 16 31 17 32 30 33
REMARK SMILES IDX 31 34 32 35 33 36 34 37 35 38 36 39 37 40 38 41 39 42 100 43
REMARK SMILES IDX 40 44 99 45 41 46 42 47 43 48 93 49 44 50 98 51 92 52 94 53
REMARK SMILES IDX 45 54 97 55 91 56 90 57 46 59 78 60 58 61 77 62 59 63 62 64
REMARK SMILES IDX 76 65 95 66 60 67 61 68 75 70 96 71 63 72 47 73 48 74 56 75
REMARK SMILES IDX 49 76 50 77 54 78 57 79 51 80 52 81 55 82 53 83 79 84 80 85
REMARK SMILES IDX 88 86 81 87 82 88 86 89 89 90 83 91 84 92 87 93 85 94 64 95
REMARK SMILES IDX 65 96 73 97 66 98 67 99 71 100 74 101 68 102 69 103 72 104
REMARK SMILES IDX 70 105
REMARK H PARENT 94 58 62 69
REMARK Flexibility Score: inf
ROOT
ATOM      1  O   UNL A   1      39.048  29.242  28.123  1.00  0.00    -0.377 OA
ENDROOT
BRANCH   1   2
ATOM      2  C   UNL A   1      37.811  29.293  28.806  1.00  0.00     0.188 C 
BRANCH   2   3
ATOM      3  C   UNL A   1      36.651  29.983  28.082  1.00  0.00     0.188 C 
BRANCH   3   4
ATOM      4  O   UNL A   1      35.721  29.219  27.340  1.00  0.00    -0.376 OA
BRANCH   4   5
ATOM      5  C   UNL A   1      34.451  29.746  26.990  1.00  0.00     0.202 C 
BRANCH   5   6
ATOM      6  C   UNL A   1      33.140  28.934  27.068  1.00  0.00     0.261 C 
BRANCH   6   7
ATOM      7  O   UNL A   1      33.228  27.498  27.201  1.00  0.00    -0.463 OA
BRANCH   7   8
ATOM      8  C   UNL A   1      33.065  26.795  26.059  1.00  0.00     0.311 C 
ATOM      9  O   UNL A   1      33.940  26.683  25.203  1.00  0.00    -0.252 OA
BRANCH   8  10
ATOM     10  C   UNL A   1      31.685  26.206  25.826  1.00  0.00     0.128 C 
ATOM     11  C   UNL A   1      31.055  25.937  24.423  1.00  0.00     0.059 C 
ATOM     12  C   UNL A   1      30.246  24.660  24.656  1.00  0.00     0.129 C 
ATOM     13  N   UNL A   1      31.002  23.928  25.646  1.00  0.00    -0.337 N 
ATOM     14  C   UNL A   1      31.727  24.836  26.503  1.00  0.00     0.135 C 
BRANCH  11  15
ATOM     15  C   UNL A   1      30.110  26.947  23.742  1.00  0.00     0.004 A 
ATOM     16  C   UNL A   1      29.604  28.819  22.258  1.00  0.00     0.161 A 
ATOM     17  C   UNL A   1      28.245  28.712  22.570  1.00  0.00     0.050 A 
ATOM     18  C   UNL A   1      30.551  27.979  22.878  1.00  0.00     0.164 A 
ATOM     19  C   UNL A   1      27.816  27.767  23.494  1.00  0.00     0.004 A 
ATOM     20  C   UNL A   1      28.736  26.887  24.066  1.00  0.00     0.008 A 
BRANCH  16  21
ATOM     21  O   UNL A   1      29.960  29.861  21.443  1.00  0.00    -0.493 OA
ATOM     22  C   UNL A   1      28.971  30.893  21.432  1.00  0.00     0.278 C 
ENDBRANCH  16  21
BRANCH  18  23
ATOM     23  O   UNL A   1      31.909  28.097  22.811  1.00  0.00    -0.493 OA
ATOM     24  C   UNL A   1      32.576  29.192  23.409  1.00  0.00     0.278 C 
ENDBRANCH  18  23
ENDBRANCH  11  15
BRANCH  13  25
ATOM     25  C   UNL A   1      30.890  22.594  25.983  1.00  0.00     0.257 C 
ATOM     26  O   UNL A   1      29.836  22.115  26.393  1.00  0.00    -0.269 OA
BRANCH  25  27
ATOM     27  C   UNL A   1      32.056  21.762  25.780  1.00  0.00     0.077 A 
ATOM     28  C   UNL A   1      33.284  21.837  26.471  1.00  0.00     0.149 A 
ATOM     29  C   UNL A   1      32.253  20.752  24.858  1.00  0.00     0.122 A 
ATOM     30  N   UNL A   1      34.148  20.894  26.086  1.00  0.00    -0.181 NA
ATOM     31  N   UNL A   1      33.489  20.241  25.113  1.00  0.00    -0.275 N 
ATOM     32  C   UNL A   1      34.100  19.097  24.483  1.00  0.00     0.173 C 
ENDBRANCH  25  27
ENDBRANCH  13  25
ENDBRANCH   8  10
ENDBRANCH   7   8
ENDBRANCH   6   7
ENDBRANCH   5   6
ENDBRANCH   4   5
ENDBRANCH   3   4
ENDBRANCH   2   3
ENDBRANCH   1   2
BRANCH   1  33
ATOM     33  C   UNL A   1      39.716  27.993  28.038  1.00  0.00     0.188 C 
BRANCH  33  34
ATOM     34  C   UNL A   1      40.715  27.768  26.892  1.00  0.00     0.188 C 
BRANCH  34  35
ATOM     35  O   UNL A   1      40.552  26.523  26.231  1.00  0.00    -0.376 OA
BRANCH  35  36
ATOM     36  C   UNL A   1      39.938  25.446  26.919  1.00  0.00     0.202 C 
BRANCH  36  37
ATOM     37  C   UNL A   1      40.652  24.086  26.968  1.00  0.00     0.261 C 
BRANCH  37  38
ATOM     38  O   UNL A   1      41.868  23.950  26.219  1.00  0.00    -0.460 OA
BRANCH  38  39
ATOM     39  C   UNL A   1      43.000  23.645  26.882  1.00  0.00     0.338 C 
ATOM     40  O   UNL A   1      43.302  22.567  27.368  1.00  0.00    -0.246 OA
BRANCH  39  41
ATOM     41  C   UNL A   1      43.913  24.800  26.742  1.00  0.00     0.060 A 
ATOM     42  C   UNL A   1      44.735  25.149  27.821  1.00  0.00     0.016 A 
ATOM     43  C   UNL A   1      43.987  25.511  25.541  1.00  0.00     0.016 A 
ATOM     44  C   UNL A   1      45.630  26.214  27.704  1.00  0.00     0.010 A 
ATOM     45  C   UNL A   1      44.863  26.596  25.436  1.00  0.00     0.010 A 
ATOM     46  C   UNL A   1      45.677  26.964  26.522  1.00  0.00    -0.014 A 
BRANCH  46  47
ATOM     47  C   UNL A   1      46.472  28.215  26.465  1.00  0.00     0.031 A 
ATOM     48  C   UNL A   1      47.951  28.119  26.220  1.00  0.00     0.074 A 
ATOM     49  C   UNL A   1      45.888  29.415  26.628  1.00  0.00     0.049 A 
ATOM     50  N   UNL A   1      48.858  29.061  26.216  1.00  0.00    -0.248 NA
ATOM     51  C   UNL A   1      48.477  26.773  25.942  1.00  0.00     0.031 C 
ATOM     52  C   UNL A   1      44.458  29.638  26.820  1.00  0.00     0.029 A 
ATOM     53  N   UNL A   1      46.436  30.673  26.672  1.00  0.00    -0.354 N 
ATOM     54  C   UNL A   1      50.062  28.424  25.944  1.00  0.00     0.074 A 
ATOM     55  C   UNL A   1      49.775  27.012  25.813  1.00  0.00     0.031 C 
ATOM     56  C   UNL A   1      44.242  30.955  26.985  1.00  0.00     0.029 A 
ATOM     57  C   UNL A   1      45.523  31.660  26.952  1.00  0.00     0.049 A 
ATOM     58  H   UNL A   1      47.393  30.852  26.519  1.00  0.00     0.167 HD
ATOM     59  C   UNL A   1      51.294  28.971  25.813  1.00  0.00     0.037 A 
ATOM     60  C   UNL A   1      45.708  32.973  27.190  1.00  0.00     0.037 A 
ATOM     61  C   UNL A   1      51.572  30.377  25.953  1.00  0.00     0.049 A 
ATOM     62  C   UNL A   1      47.104  33.543  27.138  1.00  0.00     0.074 A 
ATOM     63  C   UNL A   1      52.781  31.034  25.815  1.00  0.00     0.029 A 
ATOM     64  N   UNL A   1      50.628  31.340  26.280  1.00  0.00    -0.354 N 
ATOM     65  N   UNL A   1      48.234  32.942  26.849  1.00  0.00    -0.248 NA
ATOM     66  C   UNL A   1      47.251  34.973  27.447  1.00  0.00     0.031 C 
ATOM     67  C   UNL A   1      52.583  32.383  26.128  1.00  0.00     0.029 A 
ATOM     68  C   UNL A   1      51.237  32.580  26.393  1.00  0.00     0.049 A 
ATOM     69  H   UNL A   1      49.667  31.168  26.412  1.00  0.00     0.167 HD
ATOM     70  C   UNL A   1      49.218  33.921  26.923  1.00  0.00     0.074 A 
ATOM     71  C   UNL A   1      48.549  35.160  27.258  1.00  0.00     0.031 C 
ATOM     72  C   UNL A   1      50.557  33.804  26.733  1.00  0.00     0.037 A 
BRANCH  59  73
ATOM     73  C   UNL A   1      52.443  28.043  25.544  1.00  0.00     0.064 A 
ATOM     74  C   UNL A   1      52.904  27.791  24.242  1.00  0.00     0.173 A 
ATOM     75  C   UNL A   1      53.117  27.426  26.609  1.00  0.00     0.173 A 
ATOM     76  F   UNL A   1      52.286  28.343  23.188  1.00  0.00    -0.203 F 
ATOM     77  C   UNL A   1      53.981  26.935  24.017  1.00  0.00     0.198 A 
ATOM     78  C   UNL A   1      54.214  26.598  26.382  1.00  0.00     0.198 A 
ATOM     79  F   UNL A   1      52.720  27.634  27.873  1.00  0.00    -0.203 F 
ATOM     80  F   UNL A   1      54.372  26.671  22.763  1.00  0.00    -0.200 F 
ATOM     81  C   UNL A   1      54.640  26.348  25.087  1.00  0.00     0.200 A 
ATOM     82  F   UNL A   1      54.857  26.042  27.418  1.00  0.00    -0.200 F 
ATOM     83  F   UNL A   1      55.680  25.533  24.869  1.00  0.00    -0.200 F 
ENDBRANCH  59  73
BRANCH  60  84
ATOM     84  C   UNL A   1      44.549  33.839  27.541  1.00  0.00     0.064 A 
ATOM     85  C   UNL A   1      43.926  34.645  26.576  1.00  0.00     0.173 A 
ATOM     86  C   UNL A   1      44.058  33.902  28.854  1.00  0.00     0.173 A 
ATOM     87  F   UNL A   1      44.377  34.645  25.313  1.00  0.00    -0.203 F 
ATOM     88  C   UNL A   1      42.873  35.492  26.916  1.00  0.00     0.198 A 
ATOM     89  C   UNL A   1      42.984  34.723  29.186  1.00  0.00     0.198 A 
ATOM     90  F   UNL A   1      44.621  33.157  29.818  1.00  0.00    -0.203 F 
ATOM     91  F   UNL A   1      42.333  36.291  25.985  1.00  0.00    -0.200 F 
ATOM     92  C   UNL A   1      42.398  35.526  28.219  1.00  0.00     0.200 A 
ATOM     93  F   UNL A   1      42.522  34.743  30.443  1.00  0.00    -0.200 F 
ATOM     94  F   UNL A   1      41.383  36.338  28.543  1.00  0.00    -0.200 F 
ENDBRANCH  60  84
BRANCH  72  95
ATOM     95  C   UNL A   1      51.387  35.051  26.866  1.00  0.00     0.064 A 
ATOM     96  C   UNL A   1      51.577  35.926  25.787  1.00  0.00     0.173 A 
ATOM     97  C   UNL A   1      51.958  35.398  28.100  1.00  0.00     0.173 A 
ATOM     98  F   UNL A   1      51.064  35.636  24.582  1.00  0.00    -0.203 F 
ATOM     99  C   UNL A   1      52.331  37.089  25.931  1.00  0.00     0.198 A 
ATOM    100  C   UNL A   1      52.681  36.579  28.251  1.00  0.00     0.198 A 
ATOM    101  F   UNL A   1      51.800  34.601  29.168  1.00  0.00    -0.203 F 
ATOM    102  F   UNL A   1      52.542  37.884  24.873  1.00  0.00    -0.200 F 
ATOM    103  C   UNL A   1      52.874  37.419  27.164  1.00  0.00     0.200 A 
ATOM    104  F   UNL A   1      53.188  36.905  29.447  1.00  0.00    -0.200 F 
ATOM    105  F   UNL A   1      53.589  38.544  27.304  1.00  0.00    -0.200 F 
ENDBRANCH  72  95
ENDBRANCH  46  47
ENDBRANCH  39  41
ENDBRANCH  38  39
ENDBRANCH  37  38
ENDBRANCH  36  37
ENDBRANCH  35  36
ENDBRANCH  34  35
ENDBRANCH  33  34
ENDBRANCH   1  33
TORSDOF 25
ENDMDL
MODEL 3
REMARK VINA RESULT:      -8.8      6.281     11.794
REMARK SMILES COc1cccc([C@@H]2CN(C(=O)c3cnn(C)c3)C[C@H]2C(=O)OCCOCCOCCOCCOC(=O)c2ccc(-c3c4nc(c(-c5c(F)c(F)c(F)c(F)c5F)c5ccc([nH]5)c(-c5c(F)c(F)c(F)c(F)c5F)c5nc(c(-c6c(F)c(F)c(F)c(F)c6F)c6ccc3[nH]6)C=C5)C=C4)cc2)c1OC
REMARK SMILES IDX 29 1 28 2 27 3 26 4 25 5 24 6 23 7 21 8 22 9 20 10 8 11 9 12
REMARK SMILES IDX 10 13 19 14 7 15 3 16 4 17 101 18 5 19 6 20 2 21 1 22 102 23
REMARK SMILES IDX 103 24 11 25 12 26 13 27 14 28 18 29 15 30 16 31 17 32 30 33
REMARK SMILES IDX 31 34 32 35 33 36 34 37 35 38 36 39 37 40 38 41 39 42 100 43
REMARK SMILES IDX 40 44 99 45 41 46 42 47 43 48 93 49 44 50 98 51 92 52 94 53
REMARK SMILES IDX 45 54 97 55 91 56 90 57 46 59 78 60 58 61 77 62 59 63 62 64
REMARK SMILES IDX 76 65 95 66 60 67 61 68 75 70 96 71 63 72 47 73 48 74 56 75
REMARK SMILES IDX 49 76 50 77 54 78 57 79 51 80 52 81 55 82 53 83 79 84 80 85
REMARK SMILES IDX 88 86 81 87 82 88 86 89 89 90 83 91 84 92 87 93 85 94 64 95
REMARK SMILES IDX 65 96 73 97 66 98 67 99 71 100 74 101 68 102 69 103 72 104
REMARK SMILES IDX 70 105
REMARK H PARENT 94 58 62 69
REMARK Flexibility Score: inf
ROOT
ATOM      1  O   UNL A   1      45.501  24.572  28.558  1.00  0.00    -0.377 OA
ENDROOT
BRANCH   1   2
ATOM      2  C   UNL A   1      46.393  25.122  27.609  1.00  0.00     0.188 C 
BRANCH   2   3
ATOM      3  C   UNL A   1      46.993  26.492  27.939  1.00  0.00     0.188 C 
BRANCH   3   4
ATOM      4  O   UNL A   1      46.352  27.674  27.499  1.00  0.00    -0.376 OA
BRANCH   4   5
ATOM      5  C   UNL A   1      47.026  28.612  26.677  1.00  0.00     0.202 C 
BRANCH   5   6
ATOM      6  C   UNL A   1      46.305  29.728  25.888  1.00  0.00     0.261 C 
BRANCH   6   7
ATOM      7  O   UNL A   1      45.183  30.392  26.510  1.00  0.00    -0.463 OA
BRANCH   7   8
ATOM      8  C   UNL A   1      45.202  31.742  26.460  1.00  0.00     0.311 C 
ATOM      9  O   UNL A   1      45.276  32.378  25.410  1.00  0.00    -0.252 OA
BRANCH   8  10
ATOM     10  C   UNL A   1      45.219  32.462  27.796  1.00  0.00     0.128 C 
ATOM     11  C   UNL A   1      46.259  33.552  28.209  1.00  0.00     0.059 C 
ATOM     12  C   UNL A   1      45.425  34.508  29.062  1.00  0.00     0.129 C 
ATOM     13  N   UNL A   1      44.105  34.458  28.475  1.00  0.00    -0.337 N 
ATOM     14  C   UNL A   1      43.865  33.166  27.877  1.00  0.00     0.135 C 
BRANCH  11  15
ATOM     15  C   UNL A   1      47.522  33.211  29.025  1.00  0.00     0.004 A 
ATOM     16  C   UNL A   1      49.846  32.504  29.275  1.00  0.00     0.161 A 
ATOM     17  C   UNL A   1      49.748  32.640  30.663  1.00  0.00     0.050 A 
ATOM     18  C   UNL A   1      48.726  32.734  28.451  1.00  0.00     0.164 A 
ATOM     19  C   UNL A   1      48.542  33.013  31.243  1.00  0.00     0.004 A 
ATOM     20  C   UNL A   1      47.442  33.305  30.433  1.00  0.00     0.008 A 
BRANCH  16  21
ATOM     21  O   UNL A   1      51.028  32.006  28.795  1.00  0.00    -0.493 OA
ATOM     22  C   UNL A   1      51.814  31.408  29.828  1.00  0.00     0.278 C 
ENDBRANCH  16  21
BRANCH  18  23
ATOM     23  O   UNL A   1      48.628  32.460  27.117  1.00  0.00    -0.493 OA
ATOM     24  C   UNL A   1      49.322  33.238  26.162  1.00  0.00     0.278 C 
ENDBRANCH  18  23
ENDBRANCH  11  15
BRANCH  13  25
ATOM     25  C   UNL A   1      43.062  35.345  28.655  1.00  0.00     0.257 C 
ATOM     26  O   UNL A   1      42.179  35.146  29.486  1.00  0.00    -0.269 OA
BRANCH  25  27
ATOM     27  C   UNL A   1      43.079  36.554  27.861  1.00  0.00     0.077 A 
ATOM     28  C   UNL A   1      42.027  37.068  27.074  1.00  0.00     0.149 A 
ATOM     29  C   UNL A   1      44.115  37.445  27.658  1.00  0.00     0.122 A 
ATOM     30  N   UNL A   1      42.339  38.233  26.500  1.00  0.00    -0.181 NA
ATOM     31  N   UNL A   1      43.610  38.444  26.883  1.00  0.00    -0.275 N 
ATOM     32  C   UNL A   1      44.279  39.660  26.492  1.00  0.00     0.173 C 
ENDBRANCH  25  27
ENDBRANCH  13  25
ENDBRANCH   8  10
ENDBRANCH   7   8
ENDBRANCH   6   7
ENDBRANCH   5   6
ENDBRANCH   4   5
ENDBRANCH   3   4
ENDBRANCH   2   3
ENDBRANCH   1   2
BRANCH   1  33
ATOM     33  C   UNL A   1      44.334  23.921  28.082  1.00  0.00     0.188 C 
BRANCH  33  34
ATOM     34  C   UNL A   1      43.682  22.840  28.960  1.00  0.00     0.188 C 
BRANCH  34  35
ATOM     35  O   UNL A   1      42.264  22.888  28.963  1.00  0.00    -0.376 OA
BRANCH  35  36
ATOM     36  C   UNL A   1      41.537  22.031  28.100  1.00  0.00     0.202 C 
BRANCH  36  37
ATOM     37  C   UNL A   1      41.831  22.063  26.592  1.00  0.00     0.261 C 
BRANCH  37  38
ATOM     38  O   UNL A   1      40.985  22.879  25.770  1.00  0.00    -0.460 OA
BRANCH  38  39
ATOM     39  C   UNL A   1      39.784  23.251  26.255  1.00  0.00     0.338 C 
ATOM     40  O   UNL A   1      38.761  22.587  26.277  1.00  0.00    -0.246 OA
BRANCH  39  41
ATOM     41  C   UNL A   1      39.973  24.545  26.946  1.00  0.00     0.060 A 
ATOM     42  C   UNL A   1      40.716  25.550  26.314  1.00  0.00     0.016 A 
ATOM     43  C   UNL A   1      39.388  24.781  28.194  1.00  0.00     0.016 A 
ATOM     44  C   UNL A   1      40.881  26.792  26.929  1.00  0.00     0.010 A 
ATOM     45  C   UNL A   1      39.580  26.015  28.822  1.00  0.00     0.010 A 
ATOM     46  C   UNL A   1      40.341  27.021  28.201  1.00  0.00    -0.014 A 
BRANCH  46  47
ATOM     47  C   UNL A   1      40.685  28.258  28.944  1.00  0.00     0.031 A 
ATOM     48  C   UNL A   1      42.058  28.382  29.541  1.00  0.00     0.074 A 
ATOM     49  C   UNL A   1      39.792  29.254  29.084  1.00  0.00     0.049 A 
ATOM     50  N   UNL A   1      42.554  29.324  30.301  1.00  0.00    -0.248 NA
ATOM     51  C   UNL A   1      42.999  27.293  29.238  1.00  0.00     0.031 C 
ATOM     52  C   UNL A   1      38.451  29.270  28.508  1.00  0.00     0.029 A 
ATOM     53  N   UNL A   1      39.880  30.438  29.772  1.00  0.00    -0.354 N 
ATOM     54  C   UNL A   1      43.861  28.938  30.574  1.00  0.00     0.074 A 
ATOM     55  C   UNL A   1      44.073  27.666  29.919  1.00  0.00     0.031 C 
ATOM     56  C   UNL A   1      37.830  30.402  28.886  1.00  0.00     0.029 A 
ATOM     57  C   UNL A   1      38.716  31.166  29.763  1.00  0.00     0.049 A 
ATOM     58  H   UNL A   1      40.700  30.739  30.229  1.00  0.00     0.167 HD
ATOM     59  C   UNL A   1      44.796  29.590  31.304  1.00  0.00     0.037 A 
ATOM     60  C   UNL A   1      38.393  32.299  30.418  1.00  0.00     0.037 A 
ATOM     61  C   UNL A   1      44.573  30.853  31.959  1.00  0.00     0.049 A 
ATOM     62  C   UNL A   1      39.421  32.955  31.306  1.00  0.00     0.074 A 
ATOM     63  C   UNL A   1      45.464  31.608  32.701  1.00  0.00     0.029 A 
ATOM     64  N   UNL A   1      43.367  31.539  31.963  1.00  0.00    -0.354 N 
ATOM     65  N   UNL A   1      40.664  32.603  31.536  1.00  0.00    -0.248 NA
ATOM     66  C   UNL A   1      39.001  34.164  32.029  1.00  0.00     0.031 C 
ATOM     67  C   UNL A   1      44.777  32.714  33.214  1.00  0.00     0.029 A 
ATOM     68  C   UNL A   1      43.477  32.686  32.734  1.00  0.00     0.049 A 
ATOM     69  H   UNL A   1      42.552  31.253  31.489  1.00  0.00     0.167 HD
ATOM     70  C   UNL A   1      41.176  33.555  32.410  1.00  0.00     0.074 A 
ATOM     71  C   UNL A   1      40.118  34.513  32.650  1.00  0.00     0.031 C 
ATOM     72  C   UNL A   1      42.411  33.628  32.967  1.00  0.00     0.037 A 
BRANCH  59  73
ATOM     73  C   UNL A   1      46.136  28.932  31.468  1.00  0.00     0.064 A 
ATOM     74  C   UNL A   1      46.376  27.976  32.466  1.00  0.00     0.173 A 
ATOM     75  C   UNL A   1      47.184  29.237  30.586  1.00  0.00     0.173 A 
ATOM     76  F   UNL A   1      45.413  27.660  33.344  1.00  0.00    -0.203 F 
ATOM     77  C   UNL A   1      47.624  27.369  32.591  1.00  0.00     0.198 A 
ATOM     78  C   UNL A   1      48.420  28.604  30.693  1.00  0.00     0.198 A 
ATOM     79  F   UNL A   1      47.008  30.141  29.611  1.00  0.00    -0.203 F 
ATOM     80  F   UNL A   1      47.846  26.496  33.584  1.00  0.00    -0.200 F 
ATOM     81  C   UNL A   1      48.641  27.677  31.700  1.00  0.00     0.200 A 
ATOM     82  F   UNL A   1      49.396  28.892  29.822  1.00  0.00    -0.200 F 
ATOM     83  F   UNL A   1      49.837  27.085  31.816  1.00  0.00    -0.200 F 
ENDBRANCH  59  73
BRANCH  60  84
ATOM     84  C   UNL A   1      37.023  32.868  30.295  1.00  0.00     0.064 A 
ATOM     85  C   UNL A   1      36.055  32.652  31.287  1.00  0.00     0.173 A 
ATOM     86  C   UNL A   1      36.644  33.616  29.170  1.00  0.00     0.173 A 
ATOM     87  F   UNL A   1      36.357  31.918  32.367  1.00  0.00    -0.203 F 
ATOM     88  C   UNL A   1      34.759  33.144  31.148  1.00  0.00     0.198 A 
ATOM     89  C   UNL A   1      35.358  34.137  29.048  1.00  0.00     0.198 A 
ATOM     90  F   UNL A   1      37.530  33.848  28.189  1.00  0.00    -0.203 F 
ATOM     91  F   UNL A   1      33.839  32.875  32.084  1.00  0.00    -0.200 F 
ATOM     92  C   UNL A   1      34.413  33.892  30.031  1.00  0.00     0.200 A 
ATOM     93  F   UNL A   1      35.034  34.868  27.973  1.00  0.00    -0.200 F 
ATOM     94  F   UNL A   1      33.167  34.367  29.901  1.00  0.00    -0.200 F 
ENDBRANCH  60  84
BRANCH  72  95
ATOM     95  C   UNL A   1      42.694  34.791  33.877  1.00  0.00     0.064 A 
ATOM     96  C   UNL A   1      42.441  34.725  35.255  1.00  0.00     0.173 A 
ATOM     97  C   UNL A   1      43.268  35.968  33.372  1.00  0.00     0.173 A 
ATOM     98  F   UNL A   1      41.881  33.628  35.788  1.00  0.00    -0.203 F 
ATOM     99  C   UNL A   1      42.728  35.803  36.089  1.00  0.00     0.198 A 
ATOM    100  C   UNL A   1      43.588  37.030  34.214  1.00  0.00     0.198 A 
ATOM    101  F   UNL A   1      43.538  36.082  32.063  1.00  0.00    -0.203 F 
ATOM    102  F   UNL A   1      42.431  35.735  37.394  1.00  0.00    -0.200 F 
ATOM    103  C   UNL A   1      43.309  36.950  35.570  1.00  0.00     0.200 A 
ATOM    104  F   UNL A   1      44.166  38.130  33.713  1.00  0.00    -0.200 F 
ATOM    105  F   UNL A   1      43.596  37.981  36.377  1.00  0.00    -0.200 F 
ENDBRANCH  72  95
ENDBRANCH  46  47
ENDBRANCH  39  41
ENDBRANCH  38  39
ENDBRANCH  37  38
ENDBRANCH  36  37
ENDBRANCH  35  36
ENDBRANCH  34  35
ENDBRANCH  33  34
ENDBRANCH   1  33
TORSDOF 25
ENDMDL
