MODEL 1
REMARK VINA RESULT:      -8.4      0.000      0.000
REMARK SMILES CC(=O)N[C@@H](C(=O)N(CC(=O)OCCOCCOCCOCCOC(=O)c1ccc(-c2c3nc(c(-c4c(F)c(F)c(F)c(F)c4F)c4ccc([nH]4)c(-c4c(F)c(F)c(F)c(F)c4F)c4nc(c(-c5c(F)c(F)c(F)c(F)c5F)c5ccc2[nH]5)C=C4)C=C3)cc1)C(C)(C)C)C(C)C
REMARK SMILES IDX 17 1 16 2 15 3 14 4 13 5 12 6 10 7 11 8 9 9 8 10 6 11 7 12
REMARK SMILES IDX 5 13 4 14 1 15 2 16 3 17 94 19 95 20 96 21 90 22 91 23 92 24
REMARK SMILES IDX 93 25 18 26 19 27 20 28 21 29 22 30 23 31 24 32 25 33 26 34
REMARK SMILES IDX 27 35 28 36 89 37 29 38 88 39 30 40 31 41 32 42 82 43 33 44
REMARK SMILES IDX 87 45 81 46 83 47 34 48 86 49 80 50 79 51 35 53 67 54 47 55
REMARK SMILES IDX 66 56 48 57 51 58 65 59 84 60 49 61 50 62 64 64 85 65 52 66
REMARK SMILES IDX 36 67 37 68 45 69 38 70 39 71 43 72 46 73 40 74 41 75 44 76
REMARK SMILES IDX 42 77 68 78 69 79 77 80 70 81 71 82 75 83 78 84 72 85 73 86
REMARK SMILES IDX 76 87 74 88 53 89 54 90 62 91 55 92 56 93 60 94 63 95 57 96
REMARK SMILES IDX 58 97 61 98 59 99
REMARK H PARENT 4 18 83 52 51 63
REMARK Flexibility Score: inf
ROOT
ATOM      1  C   UNL A   1      38.489  23.758  26.027  1.00  0.00     0.188 C 
ENDROOT
BRANCH   1   2
ATOM      2  C   UNL A   1      38.369  22.240  25.807  1.00  0.00     0.188 C 
BRANCH   2   3
ATOM      3  O   UNL A   1      37.634  21.731  24.700  1.00  0.00    -0.376 OA
BRANCH   3   4
ATOM      4  C   UNL A   1      36.732  20.654  24.901  1.00  0.00     0.202 C 
BRANCH   4   5
ATOM      5  C   UNL A   1      35.285  20.994  25.315  1.00  0.00     0.261 C 
BRANCH   5   6
ATOM      6  O   UNL A   1      34.222  20.306  24.603  1.00  0.00    -0.462 OA
BRANCH   6   7
ATOM      7  C   UNL A   1      33.176  21.058  24.175  1.00  0.00     0.325 C 
ATOM      8  O   UNL A   1      32.161  20.587  23.667  1.00  0.00    -0.250 OA
BRANCH   7   9
ATOM      9  C   UNL A   1      33.291  22.597  24.413  1.00  0.00     0.242 C 
BRANCH   9  10
ATOM     10  N   UNL A   1      32.191  23.542  24.767  1.00  0.00    -0.325 N 
BRANCH  10  11
ATOM     11  C   UNL A   1      31.503  24.272  23.779  1.00  0.00     0.246 C 
ATOM     12  O   UNL A   1      30.574  23.765  23.142  1.00  0.00    -0.272 OA
BRANCH  11  13
ATOM     13  C   UNL A   1      31.931  25.735  23.458  1.00  0.00     0.174 C 
BRANCH  13  14
ATOM     14  N   UNL A   1      30.729  26.444  23.022  1.00  0.00    -0.344 N 
ATOM     15  C   UNL A   1      31.003  28.442  24.448  1.00  0.00     0.114 C 
ATOM     16  C   UNL A   1      30.259  27.667  23.395  1.00  0.00     0.217 C 
ATOM     17  O   UNL A   1      29.225  28.092  22.885  1.00  0.00    -0.275 OA
ATOM     18  H   UNL A   1      30.177  25.966  22.361  1.00  0.00     0.164 HD
ENDBRANCH  13  14
BRANCH  13  19
ATOM     19  C   UNL A   1      33.028  25.750  22.348  1.00  0.00     0.015 C 
ATOM     20  C   UNL A   1      32.450  25.641  20.934  1.00  0.00     0.010 C 
ATOM     21  C   UNL A   1      33.889  27.022  22.419  1.00  0.00     0.010 C 
ENDBRANCH  13  19
ENDBRANCH  11  13
ENDBRANCH  10  11
BRANCH  10  22
ATOM     22  C   UNL A   1      31.597  23.574  26.172  1.00  0.00     0.035 C 
ATOM     23  C   UNL A   1      31.006  24.968  26.516  1.00  0.00     0.034 C 
ATOM     24  C   UNL A   1      30.438  22.545  26.276  1.00  0.00     0.034 C 
ATOM     25  C   UNL A   1      32.572  23.157  27.301  1.00  0.00     0.034 C 
ENDBRANCH  10  22
ENDBRANCH   9  10
ENDBRANCH   7   9
ENDBRANCH   6   7
ENDBRANCH   5   6
ENDBRANCH   4   5
ENDBRANCH   3   4
ENDBRANCH   2   3
ENDBRANCH   1   2
BRANCH   1  26
ATOM     26  O   UNL A   1      38.957  24.113  27.310  1.00  0.00    -0.377 OA
BRANCH  26  27
ATOM     27  C   UNL A   1      40.358  24.246  27.424  1.00  0.00     0.188 C 
BRANCH  27  28
ATOM     28  C   UNL A   1      40.912  25.613  26.985  1.00  0.00     0.188 C 
BRANCH  28  29
ATOM     29  O   UNL A   1      41.309  25.627  25.625  1.00  0.00    -0.376 OA
BRANCH  29  30
ATOM     30  C   UNL A   1      42.659  25.521  25.223  1.00  0.00     0.202 C 
BRANCH  30  31
ATOM     31  C   UNL A   1      43.434  24.192  25.136  1.00  0.00     0.261 C 
BRANCH  31  32
ATOM     32  O   UNL A   1      43.635  23.454  26.340  1.00  0.00    -0.460 OA
BRANCH  32  33
ATOM     33  C   UNL A   1      44.807  23.662  26.974  1.00  0.00     0.338 C 
ATOM     34  O   UNL A   1      45.915  23.290  26.611  1.00  0.00    -0.246 OA
BRANCH  33  35
ATOM     35  C   UNL A   1      44.587  24.594  28.096  1.00  0.00     0.060 A 
ATOM     36  C   UNL A   1      43.774  24.163  29.152  1.00  0.00     0.016 A 
ATOM     37  C   UNL A   1      45.150  25.872  28.109  1.00  0.00     0.016 A 
ATOM     38  C   UNL A   1      43.491  25.018  30.212  1.00  0.00     0.010 A 
ATOM     39  C   UNL A   1      44.829  26.748  29.153  1.00  0.00     0.010 A 
ATOM     40  C   UNL A   1      43.967  26.333  30.185  1.00  0.00    -0.014 A 
BRANCH  40  41
ATOM     41  C   UNL A   1      43.335  27.326  31.085  1.00  0.00     0.031 A 
ATOM     42  C   UNL A   1      43.983  27.569  32.420  1.00  0.00     0.074 A 
ATOM     43  C   UNL A   1      42.267  28.045  30.704  1.00  0.00     0.049 A 
ATOM     44  N   UNL A   1      43.632  28.379  33.386  1.00  0.00    -0.248 NA
ATOM     45  C   UNL A   1      45.201  26.790  32.702  1.00  0.00     0.031 C 
ATOM     46  C   UNL A   1      41.599  27.948  29.410  1.00  0.00     0.029 A 
ATOM     47  N   UNL A   1      41.560  29.008  31.381  1.00  0.00    -0.354 N 
ATOM     48  C   UNL A   1      44.583  28.207  34.383  1.00  0.00     0.074 A 
ATOM     49  C   UNL A   1      45.504  27.191  33.926  1.00  0.00     0.031 C 
ATOM     50  C   UNL A   1      40.568  28.811  29.388  1.00  0.00     0.029 A 
ATOM     51  C   UNL A   1      40.486  29.495  30.678  1.00  0.00     0.049 A 
ATOM     52  H   UNL A   1      41.798  29.316  32.284  1.00  0.00     0.167 HD
ATOM     53  C   UNL A   1      44.684  28.846  35.572  1.00  0.00     0.037 A 
ATOM     54  C   UNL A   1      39.540  30.379  31.051  1.00  0.00     0.037 A 
ATOM     55  C   UNL A   1      43.755  29.844  36.029  1.00  0.00     0.049 A 
ATOM     56  C   UNL A   1      39.615  31.002  32.424  1.00  0.00     0.074 A 
ATOM     57  C   UNL A   1      43.756  30.545  37.221  1.00  0.00     0.029 A 
ATOM     58  N   UNL A   1      42.648  30.274  35.311  1.00  0.00    -0.354 N 
ATOM     59  N   UNL A   1      40.519  30.844  33.361  1.00  0.00    -0.248 NA
ATOM     60  C   UNL A   1      38.538  31.933  32.787  1.00  0.00     0.031 C 
ATOM     61  C   UNL A   1      42.616  31.353  37.251  1.00  0.00     0.029 A 
ATOM     62  C   UNL A   1      41.944  31.213  36.046  1.00  0.00     0.049 A 
ATOM     63  H   UNL A   1      42.399  29.958  34.412  1.00  0.00     0.167 HD
ATOM     64  C   UNL A   1      40.144  31.684  34.404  1.00  0.00     0.074 A 
ATOM     65  C   UNL A   1      38.934  32.355  33.980  1.00  0.00     0.031 C 
ATOM     66  C   UNL A   1      40.749  31.886  35.601  1.00  0.00     0.037 A 
BRANCH  53  67
ATOM     67  C   UNL A   1      45.819  28.449  36.472  1.00  0.00     0.064 A 
ATOM     68  C   UNL A   1      47.083  29.052  36.383  1.00  0.00     0.173 A 
ATOM     69  C   UNL A   1      45.636  27.454  37.443  1.00  0.00     0.173 A 
ATOM     70  F   UNL A   1      47.318  29.996  35.458  1.00  0.00    -0.203 F 
ATOM     71  C   UNL A   1      48.130  28.649  37.208  1.00  0.00     0.198 A 
ATOM     72  C   UNL A   1      46.675  27.078  38.291  1.00  0.00     0.198 A 
ATOM     73  F   UNL A   1      44.449  26.843  37.572  1.00  0.00    -0.203 F 
ATOM     74  F   UNL A   1      49.344  29.196  37.062  1.00  0.00    -0.200 F 
ATOM     75  C   UNL A   1      47.923  27.668  38.165  1.00  0.00     0.200 A 
ATOM     76  F   UNL A   1      46.470  26.137  39.223  1.00  0.00    -0.200 F 
ATOM     77  F   UNL A   1      48.931  27.283  38.961  1.00  0.00    -0.200 F 
ENDBRANCH  53  67
BRANCH  54  78
ATOM     78  C   UNL A   1      38.434  30.727  30.120  1.00  0.00     0.064 A 
ATOM     79  C   UNL A   1      38.370  31.985  29.506  1.00  0.00     0.173 A 
ATOM     80  C   UNL A   1      37.397  29.819  29.852  1.00  0.00     0.173 A 
ATOM     81  F   UNL A   1      39.322  32.898  29.752  1.00  0.00    -0.203 F 
ATOM     82  C   UNL A   1      37.303  32.332  28.680  1.00  0.00     0.198 A 
ATOM     83  C   UNL A   1      36.346  30.157  29.000  1.00  0.00     0.198 A 
ATOM     84  F   UNL A   1      37.404  28.604  30.419  1.00  0.00    -0.203 F 
ATOM     85  F   UNL A   1      37.239  33.563  28.153  1.00  0.00    -0.200 F 
ATOM     86  C   UNL A   1      36.294  31.416  28.423  1.00  0.00     0.200 A 
ATOM     87  F   UNL A   1      35.379  29.265  28.749  1.00  0.00    -0.200 F 
ATOM     88  F   UNL A   1      35.267  31.751  27.632  1.00  0.00    -0.200 F 
ENDBRANCH  54  78
BRANCH  66  89
ATOM     89  C   UNL A   1      40.154  32.921  36.514  1.00  0.00     0.064 A 
ATOM     90  C   UNL A   1      39.044  32.648  37.327  1.00  0.00     0.173 A 
ATOM     91  C   UNL A   1      40.735  34.196  36.608  1.00  0.00     0.173 A 
ATOM     92  F   UNL A   1      38.444  31.450  37.271  1.00  0.00    -0.203 F 
ATOM     93  C   UNL A   1      38.519  33.622  38.173  1.00  0.00     0.198 A 
ATOM     94  C   UNL A   1      40.231  35.154  37.481  1.00  0.00     0.198 A 
ATOM     95  F   UNL A   1      41.806  34.507  35.862  1.00  0.00    -0.203 F 
ATOM     96  F   UNL A   1      37.424  33.356  38.899  1.00  0.00    -0.200 F 
ATOM     97  C   UNL A   1      39.117  34.870  38.255  1.00  0.00     0.200 A 
ATOM     98  F   UNL A   1      40.824  36.352  37.574  1.00  0.00    -0.200 F 
ATOM     99  F   UNL A   1      38.616  35.804  39.077  1.00  0.00    -0.200 F 
ENDBRANCH  66  89
ENDBRANCH  40  41
ENDBRANCH  33  35
ENDBRANCH  32  33
ENDBRANCH  31  32
ENDBRANCH  30  31
ENDBRANCH  29  30
ENDBRANCH  28  29
ENDBRANCH  27  28
ENDBRANCH  26  27
ENDBRANCH   1  26
TORSDOF 26
ENDMDL
MODEL 2
REMARK VINA RESULT:      -7.9      5.021      8.832
REMARK SMILES CC(=O)N[C@@H](C(=O)N(CC(=O)OCCOCCOCCOCCOC(=O)c1ccc(-c2c3nc(c(-c4c(F)c(F)c(F)c(F)c4F)c4ccc([nH]4)c(-c4c(F)c(F)c(F)c(F)c4F)c4nc(c(-c5c(F)c(F)c(F)c(F)c5F)c5ccc2[nH]5)C=C4)C=C3)cc1)C(C)(C)C)C(C)C
REMARK SMILES IDX 17 1 16 2 15 3 14 4 13 5 12 6 10 7 11 8 9 9 8 10 6 11 7 12
REMARK SMILES IDX 5 13 4 14 1 15 2 16 3 17 94 19 95 20 96 21 90 22 91 23 92 24
REMARK SMILES IDX 93 25 18 26 19 27 20 28 21 29 22 30 23 31 24 32 25 33 26 34
REMARK SMILES IDX 27 35 28 36 89 37 29 38 88 39 30 40 31 41 32 42 82 43 33 44
REMARK SMILES IDX 87 45 81 46 83 47 34 48 86 49 80 50 79 51 35 53 67 54 47 55
REMARK SMILES IDX 66 56 48 57 51 58 65 59 84 60 49 61 50 62 64 64 85 65 52 66
REMARK SMILES IDX 36 67 37 68 45 69 38 70 39 71 43 72 46 73 40 74 41 75 44 76
REMARK SMILES IDX 42 77 68 78 69 79 77 80 70 81 71 82 75 83 78 84 72 85 73 86
REMARK SMILES IDX 76 87 74 88 53 89 54 90 62 91 55 92 56 93 60 94 63 95 57 96
REMARK SMILES IDX 58 97 61 98 59 99
REMARK H PARENT 4 18 83 52 51 63
REMARK Flexibility Score: inf
ROOT
ATOM      1  C   UNL A   1      42.310  21.322  26.231  1.00  0.00     0.188 C 
ENDROOT
BRANCH   1   2
ATOM      2  C   UNL A   1      41.412  22.155  27.163  1.00  0.00     0.188 C 
BRANCH   2   3
ATOM      3  O   UNL A   1      41.396  23.574  27.062  1.00  0.00    -0.376 OA
BRANCH   3   4
ATOM      4  C   UNL A   1      41.112  24.348  28.218  1.00  0.00     0.202 C 
BRANCH   4   5
ATOM      5  C   UNL A   1      40.384  25.694  28.023  1.00  0.00     0.261 C 
BRANCH   5   6
ATOM      6  O   UNL A   1      41.019  26.870  28.589  1.00  0.00    -0.462 OA
BRANCH   6   7
ATOM      7  C   UNL A   1      40.389  28.060  28.416  1.00  0.00     0.325 C 
ATOM      8  O   UNL A   1      40.403  28.693  27.362  1.00  0.00    -0.250 OA
BRANCH   7   9
ATOM      9  C   UNL A   1      39.566  28.586  29.634  1.00  0.00     0.242 C 
BRANCH   9  10
ATOM     10  N   UNL A   1      39.955  29.666  30.589  1.00  0.00    -0.325 N 
BRANCH  10  11
ATOM     11  C   UNL A   1      40.185  30.985  30.153  1.00  0.00     0.246 C 
ATOM     12  O   UNL A   1      41.274  31.318  29.674  1.00  0.00    -0.272 OA
BRANCH  11  13
ATOM     13  C   UNL A   1      39.065  32.057  30.301  1.00  0.00     0.174 C 
BRANCH  13  14
ATOM     14  N   UNL A   1      38.093  31.804  29.239  1.00  0.00    -0.344 N 
ATOM     15  C   UNL A   1      36.101  31.565  30.681  1.00  0.00     0.114 C 
ATOM     16  C   UNL A   1      36.748  31.602  29.323  1.00  0.00     0.217 C 
ATOM     17  O   UNL A   1      36.104  31.425  28.292  1.00  0.00    -0.275 OA
ATOM     18  H   UNL A   1      38.464  31.775  28.327  1.00  0.00     0.164 HD
ENDBRANCH  13  14
BRANCH  13  19
ATOM     19  C   UNL A   1      39.666  33.492  30.185  1.00  0.00     0.015 C 
ATOM     20  C   UNL A   1      38.731  34.476  29.475  1.00  0.00     0.010 C 
ATOM     21  C   UNL A   1      40.015  34.073  31.566  1.00  0.00     0.010 C 
ENDBRANCH  13  19
ENDBRANCH  11  13
ENDBRANCH  10  11
BRANCH  10  22
ATOM     22  C   UNL A   1      39.877  29.454  32.098  1.00  0.00     0.035 C 
ATOM     23  C   UNL A   1      38.409  29.329  32.588  1.00  0.00     0.034 C 
ATOM     24  C   UNL A   1      40.603  28.135  32.481  1.00  0.00     0.034 C 
ATOM     25  C   UNL A   1      40.592  30.537  32.944  1.00  0.00     0.034 C 
ENDBRANCH  10  22
ENDBRANCH   9  10
ENDBRANCH   7   9
ENDBRANCH   6   7
ENDBRANCH   5   6
ENDBRANCH   4   5
ENDBRANCH   3   4
ENDBRANCH   2   3
ENDBRANCH   1   2
BRANCH   1  26
ATOM     26  O   UNL A   1      42.820  22.048  25.132  1.00  0.00    -0.377 OA
BRANCH  26  27
ATOM     27  C   UNL A   1      44.159  22.473  25.262  1.00  0.00     0.188 C 
BRANCH  27  28
ATOM     28  C   UNL A   1      44.980  22.420  23.961  1.00  0.00     0.188 C 
BRANCH  28  29
ATOM     29  O   UNL A   1      45.759  23.587  23.762  1.00  0.00    -0.376 OA
BRANCH  29  30
ATOM     30  C   UNL A   1      46.468  24.219  24.807  1.00  0.00     0.202 C 
BRANCH  30  31
ATOM     31  C   UNL A   1      45.991  25.496  25.527  1.00  0.00     0.261 C 
BRANCH  31  32
ATOM     32  O   UNL A   1      45.526  26.581  24.726  1.00  0.00    -0.460 OA
BRANCH  32  33
ATOM     33  C   UNL A   1      46.117  27.774  24.942  1.00  0.00     0.338 C 
ATOM     34  O   UNL A   1      46.670  28.481  24.111  1.00  0.00    -0.246 OA
BRANCH  33  35
ATOM     35  C   UNL A   1      45.823  28.212  26.320  1.00  0.00     0.060 A 
ATOM     36  C   UNL A   1      44.478  28.349  26.687  1.00  0.00     0.016 A 
ATOM     37  C   UNL A   1      46.841  28.500  27.232  1.00  0.00     0.016 A 
ATOM     38  C   UNL A   1      44.143  28.807  27.957  1.00  0.00     0.010 A 
ATOM     39  C   UNL A   1      46.504  29.002  28.493  1.00  0.00     0.010 A 
ATOM     40  C   UNL A   1      45.154  29.194  28.842  1.00  0.00    -0.014 A 
BRANCH  40  41
ATOM     41  C   UNL A   1      44.787  30.043  30.000  1.00  0.00     0.031 A 
ATOM     42  C   UNL A   1      44.604  31.515  29.755  1.00  0.00     0.074 A 
ATOM     43  C   UNL A   1      44.549  29.518  31.212  1.00  0.00     0.049 A 
ATOM     44  N   UNL A   1      44.286  32.469  30.591  1.00  0.00    -0.248 NA
ATOM     45  C   UNL A   1      44.803  31.972  28.369  1.00  0.00     0.031 C 
ATOM     46  C   UNL A   1      44.626  28.100  31.551  1.00  0.00     0.029 A 
ATOM     47  N   UNL A   1      44.190  30.130  32.388  1.00  0.00    -0.354 N 
ATOM     48  C   UNL A   1      44.248  33.633  29.835  1.00  0.00     0.074 A 
ATOM     49  C   UNL A   1      44.610  33.276  28.481  1.00  0.00     0.031 C 
ATOM     50  C   UNL A   1      44.331  27.949  32.855  1.00  0.00     0.029 A 
ATOM     51  C   UNL A   1      44.079  29.263  33.446  1.00  0.00     0.049 A 
ATOM     52  H   UNL A   1      44.029  31.098  32.464  1.00  0.00     0.167 HD
ATOM     53  C   UNL A   1      43.929  34.888  30.231  1.00  0.00     0.037 A 
ATOM     54  C   UNL A   1      43.822  29.515  34.744  1.00  0.00     0.037 A 
ATOM     55  C   UNL A   1      43.586  35.239  31.582  1.00  0.00     0.049 A 
ATOM     56  C   UNL A   1      43.573  30.937  35.183  1.00  0.00     0.074 A 
ATOM     57  C   UNL A   1      43.259  36.481  32.096  1.00  0.00     0.029 A 
ATOM     58  N   UNL A   1      43.536  34.342  32.640  1.00  0.00    -0.354 N 
ATOM     59  N   UNL A   1      43.529  32.034  34.464  1.00  0.00    -0.248 NA
ATOM     60  C   UNL A   1      43.331  31.154  36.616  1.00  0.00     0.031 C 
ATOM     61  C   UNL A   1      43.073  36.346  33.475  1.00  0.00     0.029 A 
ATOM     62  C   UNL A   1      43.209  35.008  33.809  1.00  0.00     0.049 A 
ATOM     63  H   UNL A   1      43.709  33.375  32.569  1.00  0.00     0.167 HD
ATOM     64  C   UNL A   1      43.214  33.061  35.348  1.00  0.00     0.074 A 
ATOM     65  C   UNL A   1      43.070  32.453  36.654  1.00  0.00     0.031 C 
ATOM     66  C   UNL A   1      43.052  34.384  35.100  1.00  0.00     0.037 A 
BRANCH  53  67
ATOM     67  C   UNL A   1      43.981  35.972  29.193  1.00  0.00     0.064 A 
ATOM     68  C   UNL A   1      45.148  36.716  28.955  1.00  0.00     0.173 A 
ATOM     69  C   UNL A   1      42.848  36.268  28.422  1.00  0.00     0.173 A 
ATOM     70  F   UNL A   1      46.255  36.487  29.678  1.00  0.00    -0.203 F 
ATOM     71  C   UNL A   1      45.166  37.736  28.008  1.00  0.00     0.198 A 
ATOM     72  C   UNL A   1      42.881  37.266  27.451  1.00  0.00     0.198 A 
ATOM     73  F   UNL A   1      41.706  35.590  28.608  1.00  0.00    -0.203 F 
ATOM     74  F   UNL A   1      46.273  38.473  27.842  1.00  0.00    -0.200 F 
ATOM     75  C   UNL A   1      44.036  38.006  27.253  1.00  0.00     0.200 A 
ATOM     76  F   UNL A   1      41.790  37.517  26.714  1.00  0.00    -0.200 F 
ATOM     77  F   UNL A   1      44.057  38.986  26.339  1.00  0.00    -0.200 F 
ENDBRANCH  53  67
BRANCH  54  78
ATOM     78  C   UNL A   1      43.793  28.401  35.730  1.00  0.00     0.064 A 
ATOM     79  C   UNL A   1      44.972  27.913  36.308  1.00  0.00     0.173 A 
ATOM     80  C   UNL A   1      42.587  27.776  36.086  1.00  0.00     0.173 A 
ATOM     81  F   UNL A   1      46.154  28.457  35.979  1.00  0.00    -0.203 F 
ATOM     82  C   UNL A   1      44.951  26.831  37.186  1.00  0.00     0.198 A 
ATOM     83  C   UNL A   1      42.564  26.715  36.988  1.00  0.00     0.198 A 
ATOM     84  F   UNL A   1      41.430  28.198  35.556  1.00  0.00    -0.203 F 
ATOM     85  F   UNL A   1      46.101  26.349  37.679  1.00  0.00    -0.200 F 
ATOM     86  C   UNL A   1      43.747  26.236  37.530  1.00  0.00     0.200 A 
ATOM     87  F   UNL A   1      41.397  26.149  37.324  1.00  0.00    -0.200 F 
ATOM     88  F   UNL A   1      43.728  25.194  38.372  1.00  0.00    -0.200 F 
ENDBRANCH  54  78
BRANCH  66  89
ATOM     89  C   UNL A   1      42.636  35.261  36.248  1.00  0.00     0.064 A 
ATOM     90  C   UNL A   1      43.571  35.890  37.083  1.00  0.00     0.173 A 
ATOM     91  C   UNL A   1      41.274  35.508  36.488  1.00  0.00     0.173 A 
ATOM     92  F   UNL A   1      44.884  35.681  36.904  1.00  0.00    -0.203 F 
ATOM     93  C   UNL A   1      43.158  36.706  38.133  1.00  0.00     0.198 A 
ATOM     94  C   UNL A   1      40.867  36.353  37.514  1.00  0.00     0.198 A 
ATOM     95  F   UNL A   1      40.337  34.941  35.713  1.00  0.00    -0.203 F 
ATOM     96  F   UNL A   1      44.068  37.252  38.952  1.00  0.00    -0.200 F 
ATOM     97  C   UNL A   1      41.808  36.943  38.343  1.00  0.00     0.200 A 
ATOM     98  F   UNL A   1      39.562  36.597  37.702  1.00  0.00    -0.200 F 
ATOM     99  F   UNL A   1      41.413  37.737  39.349  1.00  0.00    -0.200 F 
ENDBRANCH  66  89
ENDBRANCH  40  41
ENDBRANCH  33  35
ENDBRANCH  32  33
ENDBRANCH  31  32
ENDBRANCH  30  31
ENDBRANCH  29  30
ENDBRANCH  28  29
ENDBRANCH  27  28
ENDBRANCH  26  27
ENDBRANCH   1  26
TORSDOF 26
ENDMDL
MODEL 3
REMARK VINA RESULT:      -7.8      6.702     13.728
REMARK SMILES CC(=O)N[C@@H](C(=O)N(CC(=O)OCCOCCOCCOCCOC(=O)c1ccc(-c2c3nc(c(-c4c(F)c(F)c(F)c(F)c4F)c4ccc([nH]4)c(-c4c(F)c(F)c(F)c(F)c4F)c4nc(c(-c5c(F)c(F)c(F)c(F)c5F)c5ccc2[nH]5)C=C4)C=C3)cc1)C(C)(C)C)C(C)C
REMARK SMILES IDX 17 1 16 2 15 3 14 4 13 5 12 6 10 7 11 8 9 9 8 10 6 11 7 12
REMARK SMILES IDX 5 13 4 14 1 15 2 16 3 17 94 19 95 20 96 21 90 22 91 23 92 24
REMARK SMILES IDX 93 25 18 26 19 27 20 28 21 29 22 30 23 31 24 32 25 33 26 34
REMARK SMILES IDX 27 35 28 36 89 37 29 38 88 39 30 40 31 41 32 42 82 43 33 44
REMARK SMILES IDX 87 45 81 46 83 47 34 48 86 49 80 50 79 51 35 53 67 54 47 55
REMARK SMILES IDX 66 56 48 57 51 58 65 59 84 60 49 61 50 62 64 64 85 65 52 66
REMARK SMILES IDX 36 67 37 68 45 69 38 70 39 71 43 72 46 73 40 74 41 75 44 76
REMARK SMILES IDX 42 77 68 78 69 79 77 80 70 81 71 82 75 83 78 84 72 85 73 86
REMARK SMILES IDX 76 87 74 88 53 89 54 90 62 91 55 92 56 93 60 94 63 95 57 96
REMARK SMILES IDX 58 97 61 98 59 99
REMARK H PARENT 4 18 83 52 51 63
REMARK Flexibility Score: inf
ROOT
ATOM      1  C   UNL A   1      30.110  37.537  36.835  1.00  0.00     0.188 C 
ENDROOT
BRANCH   1   2
ATOM      2  C   UNL A   1      31.024  37.399  38.065  1.00  0.00     0.188 C 
BRANCH   2   3
ATOM      3  O   UNL A   1      30.887  36.284  38.939  1.00  0.00    -0.376 OA
BRANCH   3   4
ATOM      4  C   UNL A   1      31.842  36.090  39.970  1.00  0.00     0.202 C 
BRANCH   4   5
ATOM      5  C   UNL A   1      32.560  34.725  40.040  1.00  0.00     0.261 C 
BRANCH   5   6
ATOM      6  O   UNL A   1      33.185  34.378  41.303  1.00  0.00    -0.462 OA
BRANCH   6   7
ATOM      7  C   UNL A   1      32.400  33.787  42.241  1.00  0.00     0.325 C 
ATOM      8  O   UNL A   1      31.246  33.419  42.031  1.00  0.00    -0.250 OA
BRANCH   7   9
ATOM      9  C   UNL A   1      33.063  33.531  43.631  1.00  0.00     0.242 C 
BRANCH   9  10
ATOM     10  N   UNL A   1      33.723  32.278  44.102  1.00  0.00    -0.325 N 
BRANCH  10  11
ATOM     11  C   UNL A   1      34.810  31.714  43.406  1.00  0.00     0.246 C 
ATOM     12  O   UNL A   1      34.631  30.979  42.429  1.00  0.00    -0.272 OA
BRANCH  11  13
ATOM     13  C   UNL A   1      36.266  31.992  43.885  1.00  0.00     0.174 C 
BRANCH  13  14
ATOM     14  N   UNL A   1      36.712  33.207  43.205  1.00  0.00    -0.344 N 
ATOM     15  C   UNL A   1      36.978  34.618  45.215  1.00  0.00     0.114 C 
ATOM     16  C   UNL A   1      37.076  34.411  43.728  1.00  0.00     0.217 C 
ATOM     17  O   UNL A   1      37.444  35.305  42.971  1.00  0.00    -0.275 OA
ATOM     18  H   UNL A   1      36.757  33.145  42.223  1.00  0.00     0.164 HD
ENDBRANCH  13  14
BRANCH  13  19
ATOM     19  C   UNL A   1      37.191  30.783  43.546  1.00  0.00     0.015 C 
ATOM     20  C   UNL A   1      38.446  31.190  42.767  1.00  0.00     0.010 C 
ATOM     21  C   UNL A   1      37.635  30.035  44.814  1.00  0.00     0.010 C 
ENDBRANCH  13  19
ENDBRANCH  11  13
ENDBRANCH  10  11
BRANCH  10  22
ATOM     22  C   UNL A   1      33.422  31.693  45.478  1.00  0.00     0.035 C 
ATOM     23  C   UNL A   1      31.954  31.955  45.908  1.00  0.00     0.034 C 
ATOM     24  C   UNL A   1      33.625  30.153  45.449  1.00  0.00     0.034 C 
ATOM     25  C   UNL A   1      34.364  32.175  46.610  1.00  0.00     0.034 C 
ENDBRANCH  10  22
ENDBRANCH   9  10
ENDBRANCH   7   9
ENDBRANCH   6   7
ENDBRANCH   5   6
ENDBRANCH   4   5
ENDBRANCH   3   4
ENDBRANCH   2   3
ENDBRANCH   1   2
BRANCH   1  26
ATOM     26  O   UNL A   1      30.684  37.051  35.641  1.00  0.00    -0.377 OA
BRANCH  26  27
ATOM     27  C   UNL A   1      29.820  37.031  34.524  1.00  0.00     0.188 C 
BRANCH  27  28
ATOM     28  C   UNL A   1      30.425  36.405  33.254  1.00  0.00     0.188 C 
BRANCH  28  29
ATOM     29  O   UNL A   1      31.751  36.843  33.011  1.00  0.00    -0.376 OA
BRANCH  29  30
ATOM     30  C   UNL A   1      32.646  36.139  32.175  1.00  0.00     0.202 C 
BRANCH  30  31
ATOM     31  C   UNL A   1      32.508  36.045  30.643  1.00  0.00     0.261 C 
BRANCH  31  32
ATOM     32  O   UNL A   1      33.672  35.723  29.885  1.00  0.00    -0.460 OA
BRANCH  32  33
ATOM     33  C   UNL A   1      33.566  34.662  29.058  1.00  0.00     0.338 C 
ATOM     34  O   UNL A   1      32.736  34.500  28.174  1.00  0.00    -0.246 OA
BRANCH  33  35
ATOM     35  C   UNL A   1      34.743  33.792  29.242  1.00  0.00     0.060 A 
ATOM     36  C   UNL A   1      34.535  32.522  29.796  1.00  0.00     0.016 A 
ATOM     37  C   UNL A   1      36.029  34.213  28.895  1.00  0.00     0.016 A 
ATOM     38  C   UNL A   1      35.613  31.679  30.038  1.00  0.00     0.010 A 
ATOM     39  C   UNL A   1      37.118  33.383  29.180  1.00  0.00     0.010 A 
ATOM     40  C   UNL A   1      36.914  32.131  29.789  1.00  0.00    -0.014 A 
BRANCH  40  41
ATOM     41  C   UNL A   1      38.042  31.405  30.419  1.00  0.00     0.031 A 
ATOM     42  C   UNL A   1      38.342  31.700  31.863  1.00  0.00     0.074 A 
ATOM     43  C   UNL A   1      38.729  30.460  29.759  1.00  0.00     0.049 A 
ATOM     44  N   UNL A   1      39.269  31.207  32.643  1.00  0.00    -0.248 NA
ATOM     45  C   UNL A   1      37.470  32.691  32.517  1.00  0.00     0.031 C 
ATOM     46  C   UNL A   1      38.482  30.038  28.383  1.00  0.00     0.029 A 
ATOM     47  N   UNL A   1      39.782  29.680  30.170  1.00  0.00    -0.354 N 
ATOM     48  C   UNL A   1      39.090  31.824  33.874  1.00  0.00     0.074 A 
ATOM     49  C   UNL A   1      37.993  32.755  33.731  1.00  0.00     0.031 C 
ATOM     50  C   UNL A   1      39.367  29.079  28.058  1.00  0.00     0.029 A 
ATOM     51  C   UNL A   1      40.262  28.846  29.191  1.00  0.00     0.049 A 
ATOM     52  H   UNL A   1      40.157  29.717  31.079  1.00  0.00     0.167 HD
ATOM     53  C   UNL A   1      39.774  31.625  35.025  1.00  0.00     0.037 A 
ATOM     54  C   UNL A   1      41.316  28.007  29.212  1.00  0.00     0.037 A 
ATOM     55  C   UNL A   1      40.875  30.710  35.156  1.00  0.00     0.049 A 
ATOM     56  C   UNL A   1      42.130  27.880  30.478  1.00  0.00     0.074 A 
ATOM     57  C   UNL A   1      41.647  30.440  36.272  1.00  0.00     0.029 A 
ATOM     58  N   UNL A   1      41.368  29.920  34.127  1.00  0.00    -0.354 N 
ATOM     59  N   UNL A   1      41.954  28.458  31.642  1.00  0.00    -0.248 NA
ATOM     60  C   UNL A   1      43.288  26.976  30.430  1.00  0.00     0.031 C 
ATOM     61  C   UNL A   1      42.645  29.534  35.902  1.00  0.00     0.029 A 
ATOM     62  C   UNL A   1      42.451  29.181  34.575  1.00  0.00     0.049 A 
ATOM     63  H   UNL A   1      41.003  29.890  33.213  1.00  0.00     0.167 HD
ATOM     64  C   UNL A   1      42.949  27.958  32.474  1.00  0.00     0.074 A 
ATOM     65  C   UNL A   1      43.719  27.023  31.683  1.00  0.00     0.031 C 
ATOM     66  C   UNL A   1      43.197  28.241  33.778  1.00  0.00     0.037 A 
BRANCH  53  67
ATOM     67  C   UNL A   1      39.371  32.447  36.216  1.00  0.00     0.064 A 
ATOM     68  C   UNL A   1      39.967  33.686  36.498  1.00  0.00     0.173 A 
ATOM     69  C   UNL A   1      38.371  31.990  37.085  1.00  0.00     0.173 A 
ATOM     70  F   UNL A   1      40.944  34.161  35.710  1.00  0.00    -0.203 F 
ATOM     71  C   UNL A   1      39.600  34.419  37.623  1.00  0.00     0.198 A 
ATOM     72  C   UNL A   1      37.981  32.742  38.190  1.00  0.00     0.198 A 
ATOM     73  F   UNL A   1      37.768  30.812  36.864  1.00  0.00    -0.203 F 
ATOM     74  F   UNL A   1      40.226  35.569  37.906  1.00  0.00    -0.200 F 
ATOM     75  C   UNL A   1      38.603  33.949  38.464  1.00  0.00     0.200 A 
ATOM     76  F   UNL A   1      37.008  32.291  38.995  1.00  0.00    -0.200 F 
ATOM     77  F   UNL A   1      38.248  34.658  39.545  1.00  0.00    -0.200 F 
ENDBRANCH  53  67
BRANCH  54  78
ATOM     78  C   UNL A   1      41.674  27.226  27.999  1.00  0.00     0.064 A 
ATOM     79  C   UNL A   1      42.611  27.708  27.075  1.00  0.00     0.173 A 
ATOM     80  C   UNL A   1      41.058  25.996  27.718  1.00  0.00     0.173 A 
ATOM     81  F   UNL A   1      43.207  28.893  27.283  1.00  0.00    -0.203 F 
ATOM     82  C   UNL A   1      42.902  27.005  25.908  1.00  0.00     0.198 A 
ATOM     83  C   UNL A   1      41.374  25.277  26.567  1.00  0.00     0.198 A 
ATOM     84  F   UNL A   1      40.149  25.491  28.565  1.00  0.00    -0.203 F 
ATOM     85  F   UNL A   1      43.760  27.518  25.015  1.00  0.00    -0.200 F 
ATOM     86  C   UNL A   1      42.289  25.787  25.657  1.00  0.00     0.200 A 
ATOM     87  F   UNL A   1      40.784  24.098  26.333  1.00  0.00    -0.200 F 
ATOM     88  F   UNL A   1      42.567  25.112  24.534  1.00  0.00    -0.200 F 
ENDBRANCH  54  78
BRANCH  66  89
ATOM     89  C   UNL A   1      44.307  27.486  34.453  1.00  0.00     0.064 A 
ATOM     90  C   UNL A   1      44.102  26.233  35.050  1.00  0.00     0.173 A 
ATOM     91  C   UNL A   1      45.610  28.009  34.464  1.00  0.00     0.173 A 
ATOM     92  F   UNL A   1      42.876  25.690  35.077  1.00  0.00    -0.203 F 
ATOM     93  C   UNL A   1      45.151  25.550  35.660  1.00  0.00     0.198 A 
ATOM     94  C   UNL A   1      46.663  27.307  35.042  1.00  0.00     0.198 A 
ATOM     95  F   UNL A   1      45.866  29.198  33.898  1.00  0.00    -0.203 F 
ATOM     96  F   UNL A   1      44.920  24.380  36.273  1.00  0.00    -0.200 F 
ATOM     97  C   UNL A   1      46.431  26.083  35.649  1.00  0.00     0.200 A 
ATOM     98  F   UNL A   1      47.903  27.816  35.011  1.00  0.00    -0.200 F 
ATOM     99  F   UNL A   1      47.442  25.419  36.228  1.00  0.00    -0.200 F 
ENDBRANCH  66  89
ENDBRANCH  40  41
ENDBRANCH  33  35
ENDBRANCH  32  33
ENDBRANCH  31  32
ENDBRANCH  30  31
ENDBRANCH  29  30
ENDBRANCH  28  29
ENDBRANCH  27  28
ENDBRANCH  26  27
ENDBRANCH   1  26
TORSDOF 26
ENDMDL
