MODEL 1
REMARK VINA RESULT:     -10.2      0.000      0.000
REMARK SMILES Cc1ccc(C(=O)N2C[C@H](C(=O)OCCOCCOCCOCCOC(=O)c3ccc(-c4c5nc(c(-c6c(F)c(F)c(F)c(F)c6F)c6ccc([nH]6)c(-c6c(F)c(F)c(F)c(F)c6F)c6nc(c(-c7c(F)c(F)c(F)c(F)c7F)c7ccc4[nH]7)C=C6)C=C5)cc3)Oc3ccccc32)o1
REMARK SMILES IDX 19 1 18 2 17 3 16 4 15 5 14 6 13 7 11 8 12 9 10 10 8 11 9 12
REMARK SMILES IDX 97 13 92 14 96 15 91 16 93 17 95 18 94 19 6 20 7 21 5 22
REMARK SMILES IDX 1 23 2 24 3 25 98 26 4 27 20 28 21 29 22 30 23 31 24 32
REMARK SMILES IDX 25 33 26 34 27 35 28 36 29 37 90 38 30 39 89 40 31 41 32 42
REMARK SMILES IDX 33 43 83 44 34 45 88 46 82 47 84 48 35 49 87 50 81 51 80 52
REMARK SMILES IDX 36 54 68 55 48 56 67 57 49 58 52 59 66 60 85 61 50 62 51 63
REMARK SMILES IDX 65 65 86 66 53 67 37 68 38 69 46 70 39 71 40 72 44 73 47 74
REMARK SMILES IDX 41 75 42 76 45 77 43 78 69 79 70 80 78 81 71 82 72 83 76 84
REMARK SMILES IDX 79 85 73 86 74 87 77 88 75 89 54 90 55 91 63 92 56 93 57 94
REMARK SMILES IDX 61 95 64 96 58 97 59 98 62 99 60 100
REMARK H PARENT 84 53 52 64
REMARK Flexibility Score: inf
ROOT
ATOM      1  O   UNL A   1      44.053  18.078  26.124  1.00  0.00    -0.377 OA
ENDROOT
BRANCH   1   2
ATOM      2  C   UNL A   1      42.713  18.524  26.041  1.00  0.00     0.188 C 
BRANCH   2   3
ATOM      3  C   UNL A   1      42.224  19.455  27.157  1.00  0.00     0.188 C 
BRANCH   3   4
ATOM      4  O   UNL A   1      41.849  20.778  26.845  1.00  0.00    -0.376 OA
BRANCH   4   5
ATOM      5  C   UNL A   1      40.506  21.231  26.895  1.00  0.00     0.202 C 
BRANCH   5   6
ATOM      6  C   UNL A   1      39.946  22.478  26.187  1.00  0.00     0.261 C 
BRANCH   6   7
ATOM      7  O   UNL A   1      38.595  22.865  26.480  1.00  0.00    -0.460 OA
BRANCH   7   8
ATOM      8  C   UNL A   1      37.691  22.507  25.538  1.00  0.00     0.349 C 
ATOM      9  O   UNL A   1      37.938  21.710  24.632  1.00  0.00    -0.248 OA
BRANCH   8  10
ATOM     10  C   UNL A   1      36.335  23.178  25.638  1.00  0.00     0.302 C 
ATOM     11  N   UNL A   1      34.345  24.363  24.912  1.00  0.00    -0.298 N 
ATOM     12  C   UNL A   1      35.558  23.668  24.414  1.00  0.00     0.183 C 
ATOM     13  C   UNL A   1      33.669  23.665  25.963  1.00  0.00     0.087 A 
ATOM     14  C   UNL A   1      34.285  22.558  26.569  1.00  0.00     0.144 A 
ATOM     15  C   UNL A   1      32.367  23.994  26.348  1.00  0.00     0.030 A 
ATOM     16  O   UNL A   1      35.570  22.165  26.313  1.00  0.00    -0.475 OA
ATOM     17  C   UNL A   1      33.606  21.767  27.491  1.00  0.00     0.049 A 
ATOM     18  C   UNL A   1      31.682  23.198  27.270  1.00  0.00     0.002 A 
ATOM     19  C   UNL A   1      32.296  22.080  27.832  1.00  0.00     0.004 A 
BRANCH  11  20
ATOM     20  C   UNL A   1      34.036  25.704  24.627  1.00  0.00     0.294 C 
ATOM     21  O   UNL A   1      34.432  26.606  25.371  1.00  0.00    -0.265 OA
BRANCH  20  22
ATOM     22  C   UNL A   1      33.171  25.989  23.491  1.00  0.00     0.192 A 
ATOM     23  C   UNL A   1      30.725  28.370  22.369  1.00  0.00     0.087 C 
ATOM     24  C   UNL A   1      31.619  27.195  22.466  1.00  0.00     0.101 A 
ATOM     25  C   UNL A   1      31.753  26.037  21.737  1.00  0.00     0.046 A 
ATOM     26  O   UNL A   1      32.492  27.187  23.508  1.00  0.00    -0.456 OA
ATOM     27  C   UNL A   1      32.749  25.264  22.390  1.00  0.00     0.056 A 
ENDBRANCH  20  22
ENDBRANCH  11  20
ENDBRANCH   8  10
ENDBRANCH   7   8
ENDBRANCH   6   7
ENDBRANCH   5   6
ENDBRANCH   4   5
ENDBRANCH   3   4
ENDBRANCH   2   3
ENDBRANCH   1   2
BRANCH   1  28
ATOM     28  C   UNL A   1      45.077  18.798  25.442  1.00  0.00     0.188 C 
BRANCH  28  29
ATOM     29  C   UNL A   1      44.927  19.173  23.954  1.00  0.00     0.188 C 
BRANCH  29  30
ATOM     30  O   UNL A   1      44.376  20.456  23.724  1.00  0.00    -0.376 OA
BRANCH  30  31
ATOM     31  C   UNL A   1      45.144  21.605  24.048  1.00  0.00     0.202 C 
BRANCH  31  32
ATOM     32  C   UNL A   1      44.462  22.728  24.845  1.00  0.00     0.261 C 
BRANCH  32  33
ATOM     33  O   UNL A   1      44.518  22.629  26.278  1.00  0.00    -0.460 OA
BRANCH  33  34
ATOM     34  C   UNL A   1      45.366  23.432  26.949  1.00  0.00     0.338 C 
ATOM     35  O   UNL A   1      46.587  23.411  26.930  1.00  0.00    -0.246 OA
BRANCH  34  36
ATOM     36  C   UNL A   1      44.562  24.489  27.591  1.00  0.00     0.060 A 
ATOM     37  C   UNL A   1      44.921  25.833  27.420  1.00  0.00     0.016 A 
ATOM     38  C   UNL A   1      43.463  24.142  28.380  1.00  0.00     0.016 A 
ATOM     39  C   UNL A   1      44.209  26.836  28.079  1.00  0.00     0.010 A 
ATOM     40  C   UNL A   1      42.765  25.144  29.055  1.00  0.00     0.010 A 
ATOM     41  C   UNL A   1      43.162  26.489  28.941  1.00  0.00    -0.014 A 
BRANCH  41  42
ATOM     42  C   UNL A   1      42.626  27.473  29.910  1.00  0.00     0.031 A 
ATOM     43  C   UNL A   1      43.320  27.596  31.239  1.00  0.00     0.074 A 
ATOM     44  C   UNL A   1      41.540  28.216  29.642  1.00  0.00     0.049 A 
ATOM     45  N   UNL A   1      42.958  28.244  32.315  1.00  0.00    -0.248 NA
ATOM     46  C   UNL A   1      44.594  26.870  31.371  1.00  0.00     0.031 C 
ATOM     47  C   UNL A   1      40.820  28.235  28.372  1.00  0.00     0.029 A 
ATOM     48  N   UNL A   1      40.839  29.083  30.444  1.00  0.00    -0.354 N 
ATOM     49  C   UNL A   1      43.948  27.987  33.256  1.00  0.00     0.074 A 
ATOM     50  C   UNL A   1      44.909  27.103  32.635  1.00  0.00     0.031 C 
ATOM     51  C   UNL A   1      39.760  29.056  28.487  1.00  0.00     0.029 A 
ATOM     52  C   UNL A   1      39.703  29.578  29.852  1.00  0.00     0.049 A 
ATOM     53  H   UNL A   1      41.123  29.325  31.354  1.00  0.00     0.167 HD
ATOM     54  C   UNL A   1      44.045  28.451  34.525  1.00  0.00     0.037 A 
ATOM     55  C   UNL A   1      38.715  30.333  30.371  1.00  0.00     0.037 A 
ATOM     56  C   UNL A   1      43.080  29.325  35.135  1.00  0.00     0.049 A 
ATOM     57  C   UNL A   1      38.793  30.760  31.818  1.00  0.00     0.074 A 
ATOM     58  C   UNL A   1      43.084  29.858  36.412  1.00  0.00     0.029 A 
ATOM     59  N   UNL A   1      41.932  29.789  34.509  1.00  0.00    -0.354 N 
ATOM     60  N   UNL A   1      39.728  30.519  32.705  1.00  0.00    -0.248 NA
ATOM     61  C   UNL A   1      37.676  31.566  32.333  1.00  0.00     0.031 C 
ATOM     62  C   UNL A   1      41.905  30.591  36.581  1.00  0.00     0.029 A 
ATOM     63  C   UNL A   1      41.206  30.581  35.384  1.00  0.00     0.049 A 
ATOM     64  H   UNL A   1      41.671  29.586  33.583  1.00  0.00     0.167 HD
ATOM     65  C   UNL A   1      39.336  31.177  33.866  1.00  0.00     0.074 A 
ATOM     66  C   UNL A   1      38.078  31.828  33.570  1.00  0.00     0.031 C 
ATOM     67  C   UNL A   1      39.967  31.244  35.065  1.00  0.00     0.037 A 
BRANCH  54  68
ATOM     68  C   UNL A   1      45.213  27.984  35.345  1.00  0.00     0.064 A 
ATOM     69  C   UNL A   1      46.469  28.606  35.273  1.00  0.00     0.173 A 
ATOM     70  C   UNL A   1      45.069  26.903  36.228  1.00  0.00     0.173 A 
ATOM     71  F   UNL A   1      46.666  29.633  34.433  1.00  0.00    -0.203 F 
ATOM     72  C   UNL A   1      47.543  28.142  36.028  1.00  0.00     0.198 A 
ATOM     73  C   UNL A   1      46.136  26.465  37.009  1.00  0.00     0.198 A 
ATOM     74  F   UNL A   1      43.890  26.271  36.339  1.00  0.00    -0.203 F 
ATOM     75  F   UNL A   1      48.749  28.714  35.895  1.00  0.00    -0.200 F 
ATOM     76  C   UNL A   1      47.374  27.078  36.900  1.00  0.00     0.200 A 
ATOM     77  F   UNL A   1      45.966  25.445  37.861  1.00  0.00    -0.200 F 
ATOM     78  F   UNL A   1      48.408  26.635  37.629  1.00  0.00    -0.200 F 
ENDBRANCH  54  68
BRANCH  55  79
ATOM     79  C   UNL A   1      37.553  30.723  29.529  1.00  0.00     0.064 A 
ATOM     80  C   UNL A   1      36.558  29.792  29.198  1.00  0.00     0.173 A 
ATOM     81  C   UNL A   1      37.421  32.024  29.021  1.00  0.00     0.173 A 
ATOM     82  F   UNL A   1      36.651  28.528  29.637  1.00  0.00    -0.203 F 
ATOM     83  C   UNL A   1      35.487  30.142  28.377  1.00  0.00     0.198 A 
ATOM     84  C   UNL A   1      36.333  32.382  28.226  1.00  0.00     0.198 A 
ATOM     85  F   UNL A   1      38.345  32.953  29.304  1.00  0.00    -0.203 F 
ATOM     86  F   UNL A   1      34.579  29.218  28.035  1.00  0.00    -0.200 F 
ATOM     87  C   UNL A   1      35.372  31.439  27.897  1.00  0.00     0.200 A 
ATOM     88  F   UNL A   1      36.219  33.639  27.776  1.00  0.00    -0.200 F 
ATOM     89  F   UNL A   1      34.340  31.775  27.111  1.00  0.00    -0.200 F 
ENDBRANCH  55  79
BRANCH  67  90
ATOM     90  C   UNL A   1      39.355  32.109  36.131  1.00  0.00     0.064 A 
ATOM     91  C   UNL A   1      38.317  31.654  36.958  1.00  0.00     0.173 A 
ATOM     92  C   UNL A   1      39.872  33.392  36.374  1.00  0.00     0.173 A 
ATOM     93  F   UNL A   1      37.780  30.441  36.762  1.00  0.00    -0.203 F 
ATOM     94  C   UNL A   1      37.807  32.460  37.973  1.00  0.00     0.198 A 
ATOM     95  C   UNL A   1      39.383  34.180  37.412  1.00  0.00     0.198 A 
ATOM     96  F   UNL A   1      40.871  33.873  35.620  1.00  0.00    -0.203 F 
ATOM     97  F   UNL A   1      36.786  32.021  38.723  1.00  0.00    -0.200 F 
ATOM     98  C   UNL A   1      38.347  33.716  38.207  1.00  0.00     0.200 A 
ATOM     99  F   UNL A   1      39.920  35.385  37.647  1.00  0.00    -0.200 F 
ATOM    100  F   UNL A   1      37.865  34.480  39.196  1.00  0.00    -0.200 F 
ENDBRANCH  67  90
ENDBRANCH  41  42
ENDBRANCH  34  36
ENDBRANCH  33  34
ENDBRANCH  32  33
ENDBRANCH  31  32
ENDBRANCH  30  31
ENDBRANCH  29  30
ENDBRANCH  28  29
ENDBRANCH   1  28
TORSDOF 22
ENDMDL
MODEL 2
REMARK VINA RESULT:     -10.1      3.097      7.139
REMARK SMILES Cc1ccc(C(=O)N2C[C@H](C(=O)OCCOCCOCCOCCOC(=O)c3ccc(-c4c5nc(c(-c6c(F)c(F)c(F)c(F)c6F)c6ccc([nH]6)c(-c6c(F)c(F)c(F)c(F)c6F)c6nc(c(-c7c(F)c(F)c(F)c(F)c7F)c7ccc4[nH]7)C=C6)C=C5)cc3)Oc3ccccc32)o1
REMARK SMILES IDX 19 1 18 2 17 3 16 4 15 5 14 6 13 7 11 8 12 9 10 10 8 11 9 12
REMARK SMILES IDX 97 13 92 14 96 15 91 16 93 17 95 18 94 19 6 20 7 21 5 22
REMARK SMILES IDX 1 23 2 24 3 25 98 26 4 27 20 28 21 29 22 30 23 31 24 32
REMARK SMILES IDX 25 33 26 34 27 35 28 36 29 37 90 38 30 39 89 40 31 41 32 42
REMARK SMILES IDX 33 43 83 44 34 45 88 46 82 47 84 48 35 49 87 50 81 51 80 52
REMARK SMILES IDX 36 54 68 55 48 56 67 57 49 58 52 59 66 60 85 61 50 62 51 63
REMARK SMILES IDX 65 65 86 66 53 67 37 68 38 69 46 70 39 71 40 72 44 73 47 74
REMARK SMILES IDX 41 75 42 76 45 77 43 78 69 79 70 80 78 81 71 82 72 83 76 84
REMARK SMILES IDX 79 85 73 86 74 87 77 88 75 89 54 90 55 91 63 92 56 93 57 94
REMARK SMILES IDX 61 95 64 96 58 97 59 98 62 99 60 100
REMARK H PARENT 84 53 52 64
REMARK Flexibility Score: inf
ROOT
ATOM      1  O   UNL A   1      36.361  19.486  24.794  1.00  0.00    -0.377 OA
ENDROOT
BRANCH   1   2
ATOM      2  C   UNL A   1      37.640  20.089  24.856  1.00  0.00     0.188 C 
BRANCH   2   3
ATOM      3  C   UNL A   1      38.790  19.218  25.377  1.00  0.00     0.188 C 
BRANCH   3   4
ATOM      4  O   UNL A   1      39.758  19.784  26.231  1.00  0.00    -0.376 OA
BRANCH   4   5
ATOM      5  C   UNL A   1      41.151  19.565  26.071  1.00  0.00     0.202 C 
BRANCH   5   6
ATOM      6  C   UNL A   1      42.259  20.616  26.266  1.00  0.00     0.261 C 
BRANCH   6   7
ATOM      7  O   UNL A   1      42.280  21.741  25.373  1.00  0.00    -0.460 OA
BRANCH   7   8
ATOM      8  C   UNL A   1      43.521  22.186  25.060  1.00  0.00     0.349 C 
ATOM      9  O   UNL A   1      44.227  21.665  24.196  1.00  0.00    -0.248 OA
BRANCH   8  10
ATOM     10  C   UNL A   1      44.019  23.366  25.870  1.00  0.00     0.302 C 
ATOM     11  N   UNL A   1      45.568  24.741  27.136  1.00  0.00    -0.298 N 
ATOM     12  C   UNL A   1      45.487  23.543  26.263  1.00  0.00     0.183 C 
ATOM     13  C   UNL A   1      44.810  25.857  26.658  1.00  0.00     0.087 A 
ATOM     14  C   UNL A   1      43.917  25.682  25.588  1.00  0.00     0.144 A 
ATOM     15  C   UNL A   1      44.997  27.146  27.164  1.00  0.00     0.030 A 
ATOM     16  O   UNL A   1      43.613  24.467  25.039  1.00  0.00    -0.475 OA
ATOM     17  C   UNL A   1      43.270  26.766  25.001  1.00  0.00     0.049 A 
ATOM     18  C   UNL A   1      44.352  28.236  26.573  1.00  0.00     0.002 A 
ATOM     19  C   UNL A   1      43.499  28.048  25.486  1.00  0.00     0.004 A 
BRANCH  11  20
ATOM     20  C   UNL A   1      46.066  24.723  28.450  1.00  0.00     0.294 C 
ATOM     21  O   UNL A   1      47.253  24.977  28.669  1.00  0.00    -0.265 OA
BRANCH  20  22
ATOM     22  C   UNL A   1      45.172  24.315  29.524  1.00  0.00     0.192 A 
ATOM     23  C   UNL A   1      44.789  24.567  33.089  1.00  0.00     0.087 C 
ATOM     24  C   UNL A   1      44.603  24.211  31.665  1.00  0.00     0.101 A 
ATOM     25  C   UNL A   1      43.782  23.328  31.002  1.00  0.00     0.046 A 
ATOM     26  O   UNL A   1      45.423  24.831  30.776  1.00  0.00    -0.456 OA
ATOM     27  C   UNL A   1      44.142  23.396  29.631  1.00  0.00     0.056 A 
ENDBRANCH  20  22
ENDBRANCH  11  20
ENDBRANCH   8  10
ENDBRANCH   7   8
ENDBRANCH   6   7
ENDBRANCH   5   6
ENDBRANCH   4   5
ENDBRANCH   3   4
ENDBRANCH   2   3
ENDBRANCH   1   2
BRANCH   1  28
ATOM     28  C   UNL A   1      35.198  20.281  25.002  1.00  0.00     0.188 C 
BRANCH  28  29
ATOM     29  C   UNL A   1      35.223  21.489  25.960  1.00  0.00     0.188 C 
BRANCH  29  30
ATOM     30  O   UNL A   1      34.495  22.614  25.505  1.00  0.00    -0.376 OA
BRANCH  30  31
ATOM     31  C   UNL A   1      35.206  23.759  25.055  1.00  0.00     0.202 C 
BRANCH  31  32
ATOM     32  C   UNL A   1      36.741  23.698  25.044  1.00  0.00     0.261 C 
BRANCH  32  33
ATOM     33  O   UNL A   1      37.421  24.359  26.125  1.00  0.00    -0.460 OA
BRANCH  33  34
ATOM     34  C   UNL A   1      38.631  23.903  26.501  1.00  0.00     0.338 C 
ATOM     35  O   UNL A   1      39.200  22.892  26.121  1.00  0.00    -0.246 OA
BRANCH  34  36
ATOM     36  C   UNL A   1      39.257  24.945  27.336  1.00  0.00     0.060 A 
ATOM     37  C   UNL A   1      38.882  25.072  28.681  1.00  0.00     0.016 A 
ATOM     38  C   UNL A   1      40.202  25.809  26.778  1.00  0.00     0.016 A 
ATOM     39  C   UNL A   1      39.416  26.098  29.462  1.00  0.00     0.010 A 
ATOM     40  C   UNL A   1      40.720  26.847  27.554  1.00  0.00     0.010 A 
ATOM     41  C   UNL A   1      40.297  27.020  28.884  1.00  0.00    -0.014 A 
BRANCH  41  42
ATOM     42  C   UNL A   1      40.600  28.301  29.566  1.00  0.00     0.031 A 
ATOM     43  C   UNL A   1      41.949  28.445  30.216  1.00  0.00     0.074 A 
ATOM     44  C   UNL A   1      39.702  29.297  29.639  1.00  0.00     0.049 A 
ATOM     45  N   UNL A   1      42.397  29.380  31.013  1.00  0.00    -0.248 NA
ATOM     46  C   UNL A   1      42.919  27.375  29.935  1.00  0.00     0.031 C 
ATOM     47  C   UNL A   1      38.390  29.303  28.997  1.00  0.00     0.029 A 
ATOM     48  N   UNL A   1      39.757  30.491  30.314  1.00  0.00    -0.354 N 
ATOM     49  C   UNL A   1      43.691  28.998  31.344  1.00  0.00     0.074 A 
ATOM     50  C   UNL A   1      43.947  27.736  30.686  1.00  0.00     0.031 C 
ATOM     51  C   UNL A   1      37.750  30.438  29.331  1.00  0.00     0.029 A 
ATOM     52  C   UNL A   1      38.589  31.211  30.247  1.00  0.00     0.049 A 
ATOM     53  H   UNL A   1      40.554  30.801  30.800  1.00  0.00     0.167 HD
ATOM     54  C   UNL A   1      44.587  29.646  32.127  1.00  0.00     0.037 A 
ATOM     55  C   UNL A   1      38.231  32.343  30.885  1.00  0.00     0.037 A 
ATOM     56  C   UNL A   1      44.321  30.898  32.782  1.00  0.00     0.049 A 
ATOM     57  C   UNL A   1      39.209  33.000  31.830  1.00  0.00     0.074 A 
ATOM     58  C   UNL A   1      45.158  31.643  33.594  1.00  0.00     0.029 A 
ATOM     59  N   UNL A   1      43.119  31.587  32.705  1.00  0.00    -0.354 N 
ATOM     60  N   UNL A   1      40.432  32.640  32.141  1.00  0.00    -0.248 NA
ATOM     61  C   UNL A   1      38.756  34.220  32.512  1.00  0.00     0.031 C 
ATOM     62  C   UNL A   1      44.441  32.748  34.061  1.00  0.00     0.029 A 
ATOM     63  C   UNL A   1      43.183  32.735  33.477  1.00  0.00     0.049 A 
ATOM     64  H   UNL A   1      42.336  31.302  32.181  1.00  0.00     0.167 HD
ATOM     65  C   UNL A   1      40.907  33.610  33.016  1.00  0.00     0.074 A 
ATOM     66  C   UNL A   1      39.841  34.574  33.188  1.00  0.00     0.031 C 
ATOM     67  C   UNL A   1      42.121  33.700  33.616  1.00  0.00     0.037 A 
BRANCH  54  68
ATOM     68  C   UNL A   1      45.918  28.987  32.348  1.00  0.00     0.064 A 
ATOM     69  C   UNL A   1      46.133  28.083  33.400  1.00  0.00     0.173 A 
ATOM     70  C   UNL A   1      46.992  29.255  31.487  1.00  0.00     0.173 A 
ATOM     71  F   UNL A   1      45.145  27.803  34.264  1.00  0.00    -0.203 F 
ATOM     72  C   UNL A   1      47.382  27.500  33.599  1.00  0.00     0.198 A 
ATOM     73  C   UNL A   1      48.229  28.642  31.667  1.00  0.00     0.198 A 
ATOM     74  F   UNL A   1      46.842  30.111  30.464  1.00  0.00    -0.203 F 
ATOM     75  F   UNL A   1      47.580  26.687  34.648  1.00  0.00    -0.200 F 
ATOM     76  C   UNL A   1      48.426  27.773  32.730  1.00  0.00     0.200 A 
ATOM     77  F   UNL A   1      49.232  28.897  30.816  1.00  0.00    -0.200 F 
ATOM     78  F   UNL A   1      49.626  27.208  32.920  1.00  0.00    -0.200 F 
ENDBRANCH  54  68
BRANCH  55  79
ATOM     79  C   UNL A   1      36.879  32.925  30.671  1.00  0.00     0.064 A 
ATOM     80  C   UNL A   1      36.576  33.631  29.498  1.00  0.00     0.173 A 
ATOM     81  C   UNL A   1      35.870  32.805  31.638  1.00  0.00     0.173 A 
ATOM     82  F   UNL A   1      37.514  33.796  28.554  1.00  0.00    -0.203 F 
ATOM     83  C   UNL A   1      35.323  34.212  29.310  1.00  0.00     0.198 A 
ATOM     84  C   UNL A   1      34.607  33.360  31.435  1.00  0.00     0.198 A 
ATOM     85  F   UNL A   1      36.107  32.142  32.779  1.00  0.00    -0.203 F 
ATOM     86  F   UNL A   1      35.078  34.925  28.202  1.00  0.00    -0.200 F 
ATOM     87  C   UNL A   1      34.337  34.070  30.276  1.00  0.00     0.200 A 
ATOM     88  F   UNL A   1      33.654  33.208  32.364  1.00  0.00    -0.200 F 
ATOM     89  F   UNL A   1      33.131  34.625  30.091  1.00  0.00    -0.200 F 
ENDBRANCH  55  79
BRANCH  67  90
ATOM     90  C   UNL A   1      42.401  34.915  34.455  1.00  0.00     0.064 A 
ATOM     91  C   UNL A   1      42.266  34.906  35.851  1.00  0.00     0.173 A 
ATOM     92  C   UNL A   1      42.883  36.087  33.850  1.00  0.00     0.173 A 
ATOM     93  F   UNL A   1      41.798  33.816  36.478  1.00  0.00    -0.203 F 
ATOM     94  C   UNL A   1      42.583  36.032  36.607  1.00  0.00     0.198 A 
ATOM     95  C   UNL A   1      43.233  37.198  34.613  1.00  0.00     0.198 A 
ATOM     96  F   UNL A   1      43.040  36.146  32.520  1.00  0.00    -0.203 F 
ATOM     97  F   UNL A   1      42.407  36.015  37.935  1.00  0.00    -0.200 F 
ATOM     98  C   UNL A   1      43.077  37.172  35.989  1.00  0.00     0.200 A 
ATOM     99  F   UNL A   1      43.728  38.290  34.014  1.00  0.00    -0.200 F 
ATOM    100  F   UNL A   1      43.399  38.247  36.722  1.00  0.00    -0.200 F 
ENDBRANCH  67  90
ENDBRANCH  41  42
ENDBRANCH  34  36
ENDBRANCH  33  34
ENDBRANCH  32  33
ENDBRANCH  31  32
ENDBRANCH  30  31
ENDBRANCH  29  30
ENDBRANCH  28  29
ENDBRANCH   1  28
TORSDOF 22
ENDMDL
MODEL 3
REMARK VINA RESULT:      -9.8      7.055      9.562
REMARK SMILES Cc1ccc(C(=O)N2C[C@H](C(=O)OCCOCCOCCOCCOC(=O)c3ccc(-c4c5nc(c(-c6c(F)c(F)c(F)c(F)c6F)c6ccc([nH]6)c(-c6c(F)c(F)c(F)c(F)c6F)c6nc(c(-c7c(F)c(F)c(F)c(F)c7F)c7ccc4[nH]7)C=C6)C=C5)cc3)Oc3ccccc32)o1
REMARK SMILES IDX 19 1 18 2 17 3 16 4 15 5 14 6 13 7 11 8 12 9 10 10 8 11 9 12
REMARK SMILES IDX 97 13 92 14 96 15 91 16 93 17 95 18 94 19 6 20 7 21 5 22
REMARK SMILES IDX 1 23 2 24 3 25 98 26 4 27 20 28 21 29 22 30 23 31 24 32
REMARK SMILES IDX 25 33 26 34 27 35 28 36 29 37 90 38 30 39 89 40 31 41 32 42
REMARK SMILES IDX 33 43 83 44 34 45 88 46 82 47 84 48 35 49 87 50 81 51 80 52
REMARK SMILES IDX 36 54 68 55 48 56 67 57 49 58 52 59 66 60 85 61 50 62 51 63
REMARK SMILES IDX 65 65 86 66 53 67 37 68 38 69 46 70 39 71 40 72 44 73 47 74
REMARK SMILES IDX 41 75 42 76 45 77 43 78 69 79 70 80 78 81 71 82 72 83 76 84
REMARK SMILES IDX 79 85 73 86 74 87 77 88 75 89 54 90 55 91 63 92 56 93 57 94
REMARK SMILES IDX 61 95 64 96 58 97 59 98 62 99 60 100
REMARK H PARENT 84 53 52 64
REMARK Flexibility Score: inf
ROOT
ATOM      1  O   UNL A   1      44.414  18.071  25.826  1.00  0.00    -0.377 OA
ENDROOT
BRANCH   1   2
ATOM      2  C   UNL A   1      43.093  18.568  25.721  1.00  0.00     0.188 C 
BRANCH   2   3
ATOM      3  C   UNL A   1      42.445  19.085  27.011  1.00  0.00     0.188 C 
BRANCH   3   4
ATOM      4  O   UNL A   1      41.834  20.356  27.020  1.00  0.00    -0.376 OA
BRANCH   4   5
ATOM      5  C   UNL A   1      40.449  20.547  26.784  1.00  0.00     0.202 C 
BRANCH   5   6
ATOM      6  C   UNL A   1      39.794  21.830  26.241  1.00  0.00     0.261 C 
BRANCH   6   7
ATOM      7  O   UNL A   1      38.562  21.697  25.515  1.00  0.00    -0.460 OA
BRANCH   7   8
ATOM      8  C   UNL A   1      37.666  22.688  25.743  1.00  0.00     0.349 C 
ATOM      9  O   UNL A   1      37.992  23.840  26.030  1.00  0.00    -0.248 OA
BRANCH   8  10
ATOM     10  C   UNL A   1      36.207  22.288  25.655  1.00  0.00     0.302 C 
ATOM     11  N   UNL A   1      33.847  22.466  25.115  1.00  0.00    -0.298 N 
ATOM     12  C   UNL A   1      35.168  23.100  24.880  1.00  0.00     0.183 C 
ATOM     13  C   UNL A   1      33.866  21.038  25.015  1.00  0.00     0.087 A 
ATOM     14  C   UNL A   1      35.095  20.364  24.934  1.00  0.00     0.144 A 
ATOM     15  C   UNL A   1      32.690  20.291  24.902  1.00  0.00     0.030 A 
ATOM     16  O   UNL A   1      36.311  20.974  25.077  1.00  0.00    -0.475 OA
ATOM     17  C   UNL A   1      35.156  18.995  24.692  1.00  0.00     0.049 A 
ATOM     18  C   UNL A   1      32.748  18.917  24.655  1.00  0.00     0.002 A 
ATOM     19  C   UNL A   1      33.979  18.272  24.538  1.00  0.00     0.004 A 
BRANCH  11  20
ATOM     20  C   UNL A   1      32.746  23.130  25.682  1.00  0.00     0.294 C 
ATOM     21  O   UNL A   1      32.469  22.972  26.873  1.00  0.00    -0.265 OA
BRANCH  20  22
ATOM     22  C   UNL A   1      31.900  23.934  24.812  1.00  0.00     0.192 A 
ATOM     23  C   UNL A   1      30.817  27.326  24.322  1.00  0.00     0.087 C 
ATOM     24  C   UNL A   1      30.981  25.860  24.208  1.00  0.00     0.101 A 
ATOM     25  C   UNL A   1      30.324  24.880  23.502  1.00  0.00     0.046 A 
ATOM     26  O   UNL A   1      31.952  25.300  24.977  1.00  0.00    -0.456 OA
ATOM     27  C   UNL A   1      30.913  23.646  23.884  1.00  0.00     0.056 A 
ENDBRANCH  20  22
ENDBRANCH  11  20
ENDBRANCH   8  10
ENDBRANCH   7   8
ENDBRANCH   6   7
ENDBRANCH   5   6
ENDBRANCH   4   5
ENDBRANCH   3   4
ENDBRANCH   2   3
ENDBRANCH   1   2
BRANCH   1  28
ATOM     28  C   UNL A   1      45.488  18.798  25.235  1.00  0.00     0.188 C 
BRANCH  28  29
ATOM     29  C   UNL A   1      45.340  19.438  23.840  1.00  0.00     0.188 C 
BRANCH  29  30
ATOM     30  O   UNL A   1      44.662  20.680  23.833  1.00  0.00    -0.376 OA
BRANCH  30  31
ATOM     31  C   UNL A   1      45.204  21.766  24.570  1.00  0.00     0.202 C 
BRANCH  31  32
ATOM     32  C   UNL A   1      44.485  22.194  25.858  1.00  0.00     0.261 C 
BRANCH  32  33
ATOM     33  O   UNL A   1      43.308  23.005  25.702  1.00  0.00    -0.460 OA
BRANCH  33  34
ATOM     34  C   UNL A   1      43.051  23.955  26.622  1.00  0.00     0.338 C 
ATOM     35  O   UNL A   1      42.198  23.938  27.495  1.00  0.00    -0.246 OA
BRANCH  34  36
ATOM     36  C   UNL A   1      44.113  24.973  26.517  1.00  0.00     0.060 A 
ATOM     37  C   UNL A   1      44.830  25.346  27.662  1.00  0.00     0.016 A 
ATOM     38  C   UNL A   1      44.383  25.571  25.284  1.00  0.00     0.016 A 
ATOM     39  C   UNL A   1      45.789  26.357  27.588  1.00  0.00     0.010 A 
ATOM     40  C   UNL A   1      45.327  26.596  25.215  1.00  0.00     0.010 A 
ATOM     41  C   UNL A   1      46.002  27.021  26.374  1.00  0.00    -0.014 A 
BRANCH  41  42
ATOM     42  C   UNL A   1      46.736  28.308  26.338  1.00  0.00     0.031 A 
ATOM     43  C   UNL A   1      48.222  28.260  26.112  1.00  0.00     0.074 A 
ATOM     44  C   UNL A   1      46.118  29.484  26.531  1.00  0.00     0.049 A 
ATOM     45  N   UNL A   1      49.114  29.211  26.206  1.00  0.00    -0.248 NA
ATOM     46  C   UNL A   1      48.777  26.948  25.741  1.00  0.00     0.031 C 
ATOM     47  C   UNL A   1      44.678  29.667  26.696  1.00  0.00     0.029 A 
ATOM     48  N   UNL A   1      46.637  30.750  26.646  1.00  0.00    -0.354 N 
ATOM     49  C   UNL A   1      50.334  28.608  25.928  1.00  0.00     0.074 A 
ATOM     50  C   UNL A   1      50.073  27.206  25.688  1.00  0.00     0.031 C 
ATOM     51  C   UNL A   1      44.430  30.970  26.917  1.00  0.00     0.029 A 
ATOM     52  C   UNL A   1      45.697  31.701  26.957  1.00  0.00     0.049 A 
ATOM     53  H   UNL A   1      47.591  30.956  26.519  1.00  0.00     0.167 HD
ATOM     54  C   UNL A   1      51.562  29.176  25.874  1.00  0.00     0.037 A 
ATOM     55  C   UNL A   1      45.851  33.001  27.276  1.00  0.00     0.037 A 
ATOM     56  C   UNL A   1      51.812  30.571  26.120  1.00  0.00     0.049 A 
ATOM     57  C   UNL A   1      47.240  33.594  27.306  1.00  0.00     0.074 A 
ATOM     58  C   UNL A   1      53.016  31.251  26.089  1.00  0.00     0.029 A 
ATOM     59  N   UNL A   1      50.835  31.499  26.452  1.00  0.00    -0.354 N 
ATOM     60  N   UNL A   1      48.392  33.025  27.041  1.00  0.00    -0.248 NA
ATOM     61  C   UNL A   1      47.349  35.012  27.679  1.00  0.00     0.031 C 
ATOM     62  C   UNL A   1      52.777  32.577  26.465  1.00  0.00     0.029 A 
ATOM     63  C   UNL A   1      51.414  32.741  26.653  1.00  0.00     0.049 A 
ATOM     64  H   UNL A   1      49.874  31.304  26.533  1.00  0.00     0.167 HD
ATOM     65  C   UNL A   1      49.353  34.022  27.172  1.00  0.00     0.074 A 
ATOM     66  C   UNL A   1      48.649  35.232  27.540  1.00  0.00     0.031 C 
ATOM     67  C   UNL A   1      50.695  33.943  26.993  1.00  0.00     0.037 A 
BRANCH  54  68
ATOM     68  C   UNL A   1      52.729  28.278  25.581  1.00  0.00     0.064 A 
ATOM     69  C   UNL A   1      53.187  28.057  24.273  1.00  0.00     0.173 A 
ATOM     70  C   UNL A   1      53.408  27.636  26.628  1.00  0.00     0.173 A 
ATOM     71  F   UNL A   1      52.564  28.631  23.233  1.00  0.00    -0.203 F 
ATOM     72  C   UNL A   1      54.258  27.202  24.023  1.00  0.00     0.198 A 
ATOM     73  C   UNL A   1      54.502  26.812  26.378  1.00  0.00     0.198 A 
ATOM     74  F   UNL A   1      53.014  27.813  27.899  1.00  0.00    -0.203 F 
ATOM     75  F   UNL A   1      54.638  26.959  22.761  1.00  0.00    -0.200 F 
ATOM     76  C   UNL A   1      54.919  26.587  25.075  1.00  0.00     0.200 A 
ATOM     77  F   UNL A   1      55.148  26.230  27.398  1.00  0.00    -0.200 F 
ATOM     78  F   UNL A   1      55.952  25.768  24.833  1.00  0.00    -0.200 F 
ENDBRANCH  54  68
BRANCH  55  79
ATOM     79  C   UNL A   1      44.665  33.834  27.611  1.00  0.00     0.064 A 
ATOM     80  C   UNL A   1      44.069  34.659  26.647  1.00  0.00     0.173 A 
ATOM     81  C   UNL A   1      44.116  33.839  28.902  1.00  0.00     0.173 A 
ATOM     82  F   UNL A   1      44.572  34.710  25.405  1.00  0.00    -0.203 F 
ATOM     83  C   UNL A   1      42.982  35.471  26.966  1.00  0.00     0.198 A 
ATOM     84  C   UNL A   1      43.009  34.628  29.212  1.00  0.00     0.198 A 
ATOM     85  F   UNL A   1      44.649  33.071  29.862  1.00  0.00    -0.203 F 
ATOM     86  F   UNL A   1      42.464  36.288  26.039  1.00  0.00    -0.200 F 
ATOM     87  C   UNL A   1      42.449  35.450  28.247  1.00  0.00     0.200 A 
ATOM     88  F   UNL A   1      42.490  34.593  30.446  1.00  0.00    -0.200 F 
ATOM     89  F   UNL A   1      41.401  36.228  28.551  1.00  0.00    -0.200 F 
ENDBRANCH  55  79
BRANCH  67  90
ATOM     90  C   UNL A   1      51.494  35.210  27.115  1.00  0.00     0.064 A 
ATOM     91  C   UNL A   1      51.698  36.072  26.028  1.00  0.00     0.173 A 
ATOM     92  C   UNL A   1      52.002  35.600  28.366  1.00  0.00     0.173 A 
ATOM     93  F   UNL A   1      51.245  35.743  24.809  1.00  0.00    -0.203 F 
ATOM     94  C   UNL A   1      52.398  37.267  26.185  1.00  0.00     0.198 A 
ATOM     95  C   UNL A   1      52.669  36.811  28.525  1.00  0.00     0.198 A 
ATOM     96  F   UNL A   1      51.826  34.818  29.440  1.00  0.00    -0.203 F 
ATOM     97  F   UNL A   1      52.618  38.055  25.123  1.00  0.00    -0.200 F 
ATOM     98  C   UNL A   1      52.872  37.641  27.433  1.00  0.00     0.200 A 
ATOM     99  F   UNL A   1      53.109  37.178  29.736  1.00  0.00    -0.200 F 
ATOM    100  F   UNL A   1      53.529  38.799  27.583  1.00  0.00    -0.200 F 
ENDBRANCH  67  90
ENDBRANCH  41  42
ENDBRANCH  34  36
ENDBRANCH  33  34
ENDBRANCH  32  33
ENDBRANCH  31  32
ENDBRANCH  30  31
ENDBRANCH  29  30
ENDBRANCH  28  29
ENDBRANCH   1  28
TORSDOF 22
ENDMDL
