MODEL 1
REMARK VINA RESULT:     -10.6      0.000      0.000
REMARK SMILES COc1ccc2c(c1)[C@@](NC=O)(C(=O)OCCOCCOCCOCCOC(=O)c1ccc(-c3c4nc(c(-c5c(F)c(F)c(F)c(F)c5F)c5ccc([nH]5)c(-c5c(F)c(F)c(F)c(F)c5F)c5nc(c(-c6c(F)c(F)c(F)c(F)c6F)c6ccc3[nH]6)C=C5)C=C4)cc1)CCC2
REMARK SMILES IDX 22 1 21 2 20 3 19 4 18 5 17 6 16 7 15 8 13 9 14 10 9 11 3 12
REMARK SMILES IDX 4 13 8 14 5 15 7 16 6 17 95 18 93 19 94 20 2 21 1 22 10 23
REMARK SMILES IDX 11 24 12 26 23 27 24 28 25 29 26 30 27 31 28 32 29 33 30 34
REMARK SMILES IDX 31 35 92 36 32 37 91 38 33 39 34 40 35 41 85 42 36 43 90 44
REMARK SMILES IDX 84 45 86 46 37 47 89 48 83 49 82 50 38 52 70 53 50 54 69 55
REMARK SMILES IDX 51 56 54 57 68 58 87 59 52 60 53 61 67 63 88 64 55 65 39 66
REMARK SMILES IDX 40 67 48 68 41 69 42 70 46 71 49 72 43 73 44 74 47 75 45 76
REMARK SMILES IDX 71 77 72 78 80 79 73 80 74 81 78 82 81 83 75 84 76 85 79 86
REMARK SMILES IDX 77 87 56 88 57 89 65 90 58 91 59 92 63 93 66 94 60 95 61 96
REMARK SMILES IDX 64 97 62 98
REMARK H PARENT 10 25 86 51 54 62
REMARK Flexibility Score: inf
ROOT
ATOM      1  C   UNL A   1      31.807  29.190  22.517  1.00  0.00     0.188 C 
ENDROOT
BRANCH   1   2
ATOM      2  O   UNL A   1      30.572  28.525  22.253  1.00  0.00    -0.377 OA
BRANCH   2   3
ATOM      3  C   UNL A   1      30.412  27.198  22.727  1.00  0.00     0.188 C 
BRANCH   3   4
ATOM      4  C   UNL A   1      29.397  27.050  23.868  1.00  0.00     0.188 C 
BRANCH   4   5
ATOM      5  O   UNL A   1      29.980  26.614  25.081  1.00  0.00    -0.376 OA
BRANCH   5   6
ATOM      6  C   UNL A   1      31.065  25.708  25.114  1.00  0.00     0.202 C 
BRANCH   6   7
ATOM      7  C   UNL A   1      31.003  24.268  25.669  1.00  0.00     0.261 C 
BRANCH   7   8
ATOM      8  O   UNL A   1      31.913  23.283  25.178  1.00  0.00    -0.461 OA
BRANCH   8   9
ATOM      9  C   UNL A   1      33.136  23.272  25.746  1.00  0.00     0.336 C 
ATOM     10  O   UNL A   1      33.290  23.267  26.967  1.00  0.00    -0.249 OA
BRANCH   9  11
ATOM     11  C   UNL A   1      34.332  23.239  24.691  1.00  0.00     0.164 C 
ATOM     12  C   UNL A   1      33.775  19.489  24.457  1.00  0.00     0.119 A 
ATOM     13  C   UNL A   1      35.011  19.004  24.870  1.00  0.00     0.047 A 
ATOM     14  C   UNL A   1      33.643  20.849  24.214  1.00  0.00     0.053 A 
ATOM     15  C   UNL A   1      36.103  19.866  25.003  1.00  0.00     0.008 A 
ATOM     16  C   UNL A   1      34.681  21.755  24.499  1.00  0.00    -0.004 A 
ATOM     17  C   UNL A   1      35.955  21.245  24.805  1.00  0.00    -0.042 A 
ATOM     18  C   UNL A   1      37.154  22.139  24.995  1.00  0.00     0.036 C 
ATOM     19  C   UNL A   1      35.581  24.031  25.210  1.00  0.00     0.046 C 
ATOM     20  C   UNL A   1      36.871  23.563  24.546  1.00  0.00     0.008 C 
BRANCH  12  21
ATOM     21  O   UNL A   1      32.755  18.580  24.383  1.00  0.00    -0.497 OA
ATOM     22  C   UNL A   1      32.860  17.588  23.362  1.00  0.00     0.278 C 
ENDBRANCH  12  21
BRANCH  11  23
ATOM     23  N   UNL A   1      33.932  23.893  23.418  1.00  0.00    -0.339 N 
ATOM     24  C   UNL A   1      34.029  25.199  23.057  1.00  0.00     0.338 C 
ATOM     25  H   UNL A   1      33.541  23.295  22.741  1.00  0.00     0.164 HD
ATOM     26  O   UNL A   1      33.618  25.598  21.975  1.00  0.00    -0.279 OA
ENDBRANCH  11  23
ENDBRANCH   9  11
ENDBRANCH   8   9
ENDBRANCH   7   8
ENDBRANCH   6   7
ENDBRANCH   5   6
ENDBRANCH   4   5
ENDBRANCH   3   4
ENDBRANCH   2   3
ENDBRANCH   1   2
BRANCH   1  27
ATOM     27  C   UNL A   1      32.786  28.689  23.609  1.00  0.00     0.188 C 
BRANCH  27  28
ATOM     28  O   UNL A   1      32.457  29.079  24.930  1.00  0.00    -0.376 OA
BRANCH  28  29
ATOM     29  C   UNL A   1      31.392  29.989  25.145  1.00  0.00     0.202 C 
BRANCH  29  30
ATOM     30  C   UNL A   1      31.569  31.072  26.221  1.00  0.00     0.261 C 
BRANCH  30  31
ATOM     31  O   UNL A   1      32.681  30.913  27.115  1.00  0.00    -0.460 OA
BRANCH  31  32
ATOM     32  C   UNL A   1      33.383  32.014  27.452  1.00  0.00     0.338 C 
ATOM     33  O   UNL A   1      32.975  33.165  27.502  1.00  0.00    -0.246 OA
BRANCH  32  34
ATOM     34  C   UNL A   1      34.697  31.570  27.963  1.00  0.00     0.060 A 
ATOM     35  C   UNL A   1      34.895  30.212  28.250  1.00  0.00     0.016 A 
ATOM     36  C   UNL A   1      35.732  32.490  28.147  1.00  0.00     0.016 A 
ATOM     37  C   UNL A   1      36.117  29.775  28.761  1.00  0.00     0.010 A 
ATOM     38  C   UNL A   1      36.945  32.055  28.688  1.00  0.00     0.010 A 
ATOM     39  C   UNL A   1      37.128  30.704  29.032  1.00  0.00    -0.014 A 
BRANCH  39  40
ATOM     40  C   UNL A   1      38.273  30.309  29.888  1.00  0.00     0.031 A 
ATOM     41  C   UNL A   1      39.258  29.318  29.331  1.00  0.00     0.074 A 
ATOM     42  C   UNL A   1      38.454  30.833  31.113  1.00  0.00     0.049 A 
ATOM     43  N   UNL A   1      40.292  28.756  29.904  1.00  0.00    -0.248 NA
ATOM     44  C   UNL A   1      39.044  28.900  27.935  1.00  0.00     0.031 C 
ATOM     45  C   UNL A   1      37.604  31.843  31.738  1.00  0.00     0.029 A 
ATOM     46  N   UNL A   1      39.417  30.570  32.056  1.00  0.00    -0.354 N 
ATOM     47  C   UNL A   1      40.843  27.918  28.943  1.00  0.00     0.074 A 
ATOM     48  C   UNL A   1      40.015  28.017  27.763  1.00  0.00     0.031 C 
ATOM     49  C   UNL A   1      38.074  32.103  32.971  1.00  0.00     0.029 A 
ATOM     50  C   UNL A   1      39.231  31.250  33.235  1.00  0.00     0.049 A 
ATOM     51  H   UNL A   1      40.170  29.954  31.901  1.00  0.00     0.167 HD
ATOM     52  C   UNL A   1      41.950  27.144  29.036  1.00  0.00     0.037 A 
ATOM     53  C   UNL A   1      39.904  31.163  34.401  1.00  0.00     0.037 A 
ATOM     54  C   UNL A   1      42.771  27.047  30.212  1.00  0.00     0.049 A 
ATOM     55  C   UNL A   1      41.077  30.218  34.506  1.00  0.00     0.074 A 
ATOM     56  C   UNL A   1      43.913  26.293  30.407  1.00  0.00     0.029 A 
ATOM     57  N   UNL A   1      42.531  27.725  31.398  1.00  0.00    -0.354 N 
ATOM     58  N   UNL A   1      41.605  29.439  33.592  1.00  0.00    -0.248 NA
ATOM     59  C   UNL A   1      41.753  30.143  35.810  1.00  0.00     0.031 C 
ATOM     60  C   UNL A   1      44.331  26.467  31.729  1.00  0.00     0.029 A 
ATOM     61  C   UNL A   1      43.492  27.385  32.337  1.00  0.00     0.049 A 
ATOM     62  H   UNL A   1      41.790  28.355  31.550  1.00  0.00     0.167 HD
ATOM     63  C   UNL A   1      42.691  28.817  34.195  1.00  0.00     0.074 A 
ATOM     64  C   UNL A   1      42.757  29.319  35.551  1.00  0.00     0.031 C 
ATOM     65  C   UNL A   1      43.557  27.912  33.676  1.00  0.00     0.037 A 
BRANCH  52  66
ATOM     66  C   UNL A   1      42.326  26.320  27.840  1.00  0.00     0.064 A 
ATOM     67  C   UNL A   1      43.257  26.773  26.893  1.00  0.00     0.173 A 
ATOM     68  C   UNL A   1      41.785  25.037  27.665  1.00  0.00     0.173 A 
ATOM     69  F   UNL A   1      43.791  27.998  27.003  1.00  0.00    -0.203 F 
ATOM     70  C   UNL A   1      43.619  25.978  25.808  1.00  0.00     0.198 A 
ATOM     71  C   UNL A   1      42.173  24.233  26.598  1.00  0.00     0.198 A 
ATOM     72  F   UNL A   1      40.890  24.555  28.542  1.00  0.00    -0.203 F 
ATOM     73  F   UNL A   1      44.479  26.447  24.894  1.00  0.00    -0.200 F 
ATOM     74  C   UNL A   1      43.086  24.706  25.667  1.00  0.00     0.200 A 
ATOM     75  F   UNL A   1      41.666  22.998  26.472  1.00  0.00    -0.200 F 
ATOM     76  F   UNL A   1      43.448  23.937  24.632  1.00  0.00    -0.200 F 
ENDBRANCH  52  66
BRANCH  53  77
ATOM     77  C   UNL A   1      39.478  31.966  35.579  1.00  0.00     0.064 A 
ATOM     78  C   UNL A   1      38.520  31.479  36.482  1.00  0.00     0.173 A 
ATOM     79  C   UNL A   1      39.974  33.260  35.797  1.00  0.00     0.173 A 
ATOM     80  F   UNL A   1      37.994  30.258  36.305  1.00  0.00    -0.203 F 
ATOM     81  C   UNL A   1      38.051  32.268  37.531  1.00  0.00     0.198 A 
ATOM     82  C   UNL A   1      39.531  34.034  36.867  1.00  0.00     0.198 A 
ATOM     83  F   UNL A   1      40.890  33.778  34.964  1.00  0.00    -0.203 F 
ATOM     84  F   UNL A   1      37.085  31.803  38.334  1.00  0.00    -0.200 F 
ATOM     85  C   UNL A   1      38.559  33.543  37.726  1.00  0.00     0.200 A 
ATOM     86  F   UNL A   1      40.035  35.260  37.059  1.00  0.00    -0.200 F 
ATOM     87  F   UNL A   1      38.103  34.303  38.730  1.00  0.00    -0.200 F 
ENDBRANCH  53  77
BRANCH  65  88
ATOM     88  C   UNL A   1      44.688  27.448  34.551  1.00  0.00     0.064 A 
ATOM     89  C   UNL A   1      45.907  28.139  34.618  1.00  0.00     0.173 A 
ATOM     90  C   UNL A   1      44.530  26.318  35.371  1.00  0.00     0.173 A 
ATOM     91  F   UNL A   1      46.116  29.217  33.847  1.00  0.00    -0.203 F 
ATOM     92  C   UNL A   1      46.935  27.698  35.448  1.00  0.00     0.198 A 
ATOM     93  C   UNL A   1      45.545  25.904  36.227  1.00  0.00     0.198 A 
ATOM     94  F   UNL A   1      43.380  25.627  35.356  1.00  0.00    -0.203 F 
ATOM     95  F   UNL A   1      48.110  28.343  35.454  1.00  0.00    -0.200 F 
ATOM     96  C   UNL A   1      46.750  26.588  36.258  1.00  0.00     0.200 A 
ATOM     97  F   UNL A   1      45.356  24.842  37.023  1.00  0.00    -0.200 F 
ATOM     98  F   UNL A   1      47.737  26.172  37.065  1.00  0.00    -0.200 F 
ENDBRANCH  65  88
ENDBRANCH  39  40
ENDBRANCH  32  34
ENDBRANCH  31  32
ENDBRANCH  30  31
ENDBRANCH  29  30
ENDBRANCH  28  29
ENDBRANCH  27  28
ENDBRANCH   1  27
TORSDOF 22
ENDMDL
MODEL 2
REMARK VINA RESULT:     -10.1      4.581      7.756
REMARK SMILES COc1ccc2c(c1)[C@@](NC=O)(C(=O)OCCOCCOCCOCCOC(=O)c1ccc(-c3c4nc(c(-c5c(F)c(F)c(F)c(F)c5F)c5ccc([nH]5)c(-c5c(F)c(F)c(F)c(F)c5F)c5nc(c(-c6c(F)c(F)c(F)c(F)c6F)c6ccc3[nH]6)C=C5)C=C4)cc1)CCC2
REMARK SMILES IDX 22 1 21 2 20 3 19 4 18 5 17 6 16 7 15 8 13 9 14 10 9 11 3 12
REMARK SMILES IDX 4 13 8 14 5 15 7 16 6 17 95 18 93 19 94 20 2 21 1 22 10 23
REMARK SMILES IDX 11 24 12 26 23 27 24 28 25 29 26 30 27 31 28 32 29 33 30 34
REMARK SMILES IDX 31 35 92 36 32 37 91 38 33 39 34 40 35 41 85 42 36 43 90 44
REMARK SMILES IDX 84 45 86 46 37 47 89 48 83 49 82 50 38 52 70 53 50 54 69 55
REMARK SMILES IDX 51 56 54 57 68 58 87 59 52 60 53 61 67 63 88 64 55 65 39 66
REMARK SMILES IDX 40 67 48 68 41 69 42 70 46 71 49 72 43 73 44 74 47 75 45 76
REMARK SMILES IDX 71 77 72 78 80 79 73 80 74 81 78 82 81 83 75 84 76 85 79 86
REMARK SMILES IDX 77 87 56 88 57 89 65 90 58 91 59 92 63 93 66 94 60 95 61 96
REMARK SMILES IDX 64 97 62 98
REMARK H PARENT 10 25 86 51 54 62
REMARK Flexibility Score: inf
ROOT
ATOM      1  C   UNL A   1      34.158  34.292  28.920  1.00  0.00     0.188 C 
ENDROOT
BRANCH   1   2
ATOM      2  O   UNL A   1      34.113  32.872  28.780  1.00  0.00    -0.377 OA
BRANCH   2   3
ATOM      3  C   UNL A   1      34.911  32.274  27.772  1.00  0.00     0.188 C 
BRANCH   3   4
ATOM      4  C   UNL A   1      35.119  30.763  27.940  1.00  0.00     0.188 C 
BRANCH   4   5
ATOM      5  O   UNL A   1      34.363  29.990  27.028  1.00  0.00    -0.376 OA
BRANCH   5   6
ATOM      6  C   UNL A   1      32.965  29.822  27.160  1.00  0.00     0.202 C 
BRANCH   6   7
ATOM      7  C   UNL A   1      32.096  28.897  26.281  1.00  0.00     0.261 C 
BRANCH   7   8
ATOM      8  O   UNL A   1      31.580  29.383  25.040  1.00  0.00    -0.461 OA
BRANCH   8   9
ATOM      9  C   UNL A   1      32.153  28.886  23.925  1.00  0.00     0.336 C 
ATOM     10  O   UNL A   1      33.264  29.251  23.544  1.00  0.00    -0.249 OA
BRANCH   9  11
ATOM     11  C   UNL A   1      31.268  27.784  23.187  1.00  0.00     0.164 C 
ATOM     12  C   UNL A   1      29.046  30.629  22.003  1.00  0.00     0.119 A 
ATOM     13  C   UNL A   1      27.825  30.272  22.564  1.00  0.00     0.047 A 
ATOM     14  C   UNL A   1      30.089  29.714  22.046  1.00  0.00     0.053 A 
ATOM     15  C   UNL A   1      27.647  29.006  23.129  1.00  0.00     0.008 A 
ATOM     16  C   UNL A   1      29.980  28.501  22.753  1.00  0.00    -0.004 A 
ATOM     17  C   UNL A   1      28.714  28.103  23.216  1.00  0.00    -0.042 A 
ATOM     18  C   UNL A   1      28.481  26.762  23.866  1.00  0.00     0.036 C 
ATOM     19  C   UNL A   1      30.929  26.584  24.138  1.00  0.00     0.046 C 
ATOM     20  C   UNL A   1      29.676  25.839  23.694  1.00  0.00     0.008 C 
BRANCH  12  21
ATOM     21  O   UNL A   1      29.141  31.897  21.501  1.00  0.00    -0.497 OA
ATOM     22  C   UNL A   1      27.930  32.652  21.445  1.00  0.00     0.278 C 
ENDBRANCH  12  21
BRANCH  11  23
ATOM     23  N   UNL A   1      32.004  27.201  22.036  1.00  0.00    -0.339 N 
ATOM     24  C   UNL A   1      32.860  26.146  22.010  1.00  0.00     0.338 C 
ATOM     25  H   UNL A   1      31.849  27.640  21.169  1.00  0.00     0.164 HD
ATOM     26  O   UNL A   1      33.424  25.802  20.979  1.00  0.00    -0.279 OA
ENDBRANCH  11  23
ENDBRANCH   9  11
ENDBRANCH   8   9
ENDBRANCH   7   8
ENDBRANCH   6   7
ENDBRANCH   5   6
ENDBRANCH   4   5
ENDBRANCH   3   4
ENDBRANCH   2   3
ENDBRANCH   1   2
BRANCH   1  27
ATOM     27  C   UNL A   1      33.211  35.047  29.886  1.00  0.00     0.188 C 
BRANCH  27  28
ATOM     28  O   UNL A   1      33.863  35.847  30.856  1.00  0.00    -0.376 OA
BRANCH  28  29
ATOM     29  C   UNL A   1      34.493  35.229  31.964  1.00  0.00     0.202 C 
BRANCH  29  30
ATOM     30  C   UNL A   1      34.098  33.786  32.312  1.00  0.00     0.261 C 
BRANCH  30  31
ATOM     31  O   UNL A   1      35.025  32.757  31.932  1.00  0.00    -0.460 OA
BRANCH  31  32
ATOM     32  C   UNL A   1      36.011  32.444  32.796  1.00  0.00     0.338 C 
ATOM     33  O   UNL A   1      35.982  32.526  34.014  1.00  0.00    -0.246 OA
BRANCH  32  34
ATOM     34  C   UNL A   1      37.084  31.775  32.029  1.00  0.00     0.060 A 
ATOM     35  C   UNL A   1      37.937  30.878  32.686  1.00  0.00     0.016 A 
ATOM     36  C   UNL A   1      37.239  32.026  30.664  1.00  0.00     0.016 A 
ATOM     37  C   UNL A   1      38.974  30.258  31.990  1.00  0.00     0.010 A 
ATOM     38  C   UNL A   1      38.298  31.428  29.974  1.00  0.00     0.010 A 
ATOM     39  C   UNL A   1      39.191  30.573  30.644  1.00  0.00    -0.014 A 
BRANCH  39  40
ATOM     40  C   UNL A   1      40.477  30.202  30.005  1.00  0.00     0.031 A 
ATOM     41  C   UNL A   1      40.585  28.836  29.384  1.00  0.00     0.074 A 
ATOM     42  C   UNL A   1      41.512  31.058  29.949  1.00  0.00     0.049 A 
ATOM     43  N   UNL A   1      41.618  28.247  28.837  1.00  0.00    -0.248 NA
ATOM     44  C   UNL A   1      39.358  28.021  29.383  1.00  0.00     0.031 C 
ATOM     45  C   UNL A   1      41.510  32.426  30.461  1.00  0.00     0.029 A 
ATOM     46  N   UNL A   1      42.777  30.889  29.441  1.00  0.00    -0.354 N 
ATOM     47  C   UNL A   1      41.166  26.996  28.436  1.00  0.00     0.074 A 
ATOM     48  C   UNL A   1      39.779  26.894  28.829  1.00  0.00     0.031 C 
ATOM     49  C   UNL A   1      42.724  32.968  30.256  1.00  0.00     0.029 A 
ATOM     50  C   UNL A   1      43.597  31.973  29.637  1.00  0.00     0.049 A 
ATOM     51  H   UNL A   1      43.067  30.069  28.979  1.00  0.00     0.167 HD
ATOM     52  C   UNL A   1      41.847  26.023  27.786  1.00  0.00     0.037 A 
ATOM     53  C   UNL A   1      44.911  32.124  29.372  1.00  0.00     0.037 A 
ATOM     54  C   UNL A   1      43.228  26.127  27.398  1.00  0.00     0.049 A 
ATOM     55  C   UNL A   1      45.671  30.985  28.734  1.00  0.00     0.074 A 
ATOM     56  C   UNL A   1      44.009  25.198  26.735  1.00  0.00     0.029 A 
ATOM     57  N   UNL A   1      44.035  27.227  27.643  1.00  0.00    -0.354 N 
ATOM     58  N   UNL A   1      45.237  29.811  28.343  1.00  0.00    -0.248 NA
ATOM     59  C   UNL A   1      47.107  31.196  28.497  1.00  0.00     0.031 C 
ATOM     60  C   UNL A   1      45.304  25.711  26.632  1.00  0.00     0.029 A 
ATOM     61  C   UNL A   1      45.314  26.989  27.166  1.00  0.00     0.049 A 
ATOM     62  H   UNL A   1      43.743  28.055  28.088  1.00  0.00     0.167 HD
ATOM     63  C   UNL A   1      46.331  29.164  27.781  1.00  0.00     0.074 A 
ATOM     64  C   UNL A   1      47.447  30.081  27.868  1.00  0.00     0.031 C 
ATOM     65  C   UNL A   1      46.408  27.922  27.241  1.00  0.00     0.037 A 
BRANCH  52  66
ATOM     66  C   UNL A   1      41.117  24.749  27.475  1.00  0.00     0.064 A 
ATOM     67  C   UNL A   1      41.398  23.553  28.153  1.00  0.00     0.173 A 
ATOM     68  C   UNL A   1      40.088  24.738  26.522  1.00  0.00     0.173 A 
ATOM     69  F   UNL A   1      42.384  23.506  29.061  1.00  0.00    -0.203 F 
ATOM     70  C   UNL A   1      40.686  22.389  27.874  1.00  0.00     0.198 A 
ATOM     71  C   UNL A   1      39.357  23.581  26.269  1.00  0.00     0.198 A 
ATOM     72  F   UNL A   1      39.779  25.855  25.845  1.00  0.00    -0.203 F 
ATOM     73  F   UNL A   1      40.998  21.248  28.503  1.00  0.00    -0.200 F 
ATOM     74  C   UNL A   1      39.659  22.406  26.942  1.00  0.00     0.200 A 
ATOM     75  F   UNL A   1      38.356  23.604  25.378  1.00  0.00    -0.200 F 
ATOM     76  F   UNL A   1      38.965  21.290  26.687  1.00  0.00    -0.200 F 
ENDBRANCH  52  66
BRANCH  53  77
ATOM     77  C   UNL A   1      45.612  33.387  29.731  1.00  0.00     0.064 A 
ATOM     78  C   UNL A   1      46.006  33.649  31.052  1.00  0.00     0.173 A 
ATOM     79  C   UNL A   1      45.852  34.385  28.774  1.00  0.00     0.173 A 
ATOM     80  F   UNL A   1      45.778  32.739  32.011  1.00  0.00    -0.203 F 
ATOM     81  C   UNL A   1      46.577  34.869  31.406  1.00  0.00     0.198 A 
ATOM     82  C   UNL A   1      46.455  35.591  29.122  1.00  0.00     0.198 A 
ATOM     83  F   UNL A   1      45.493  34.190  27.495  1.00  0.00    -0.203 F 
ATOM     84  F   UNL A   1      46.877  35.118  32.688  1.00  0.00    -0.200 F 
ATOM     85  C   UNL A   1      46.805  35.839  30.441  1.00  0.00     0.200 A 
ATOM     86  F   UNL A   1      46.685  36.519  28.184  1.00  0.00    -0.200 F 
ATOM     87  F   UNL A   1      47.347  37.014  30.783  1.00  0.00    -0.200 F 
ENDBRANCH  53  77
BRANCH  65  88
ATOM     88  C   UNL A   1      47.723  27.501  26.645  1.00  0.00     0.064 A 
ATOM     89  C   UNL A   1      48.703  26.841  27.400  1.00  0.00     0.173 A 
ATOM     90  C   UNL A   1      47.983  27.721  25.282  1.00  0.00     0.173 A 
ATOM     91  F   UNL A   1      48.511  26.616  28.708  1.00  0.00    -0.203 F 
ATOM     92  C   UNL A   1      49.907  26.445  26.821  1.00  0.00     0.198 A 
ATOM     93  C   UNL A   1      49.171  27.290  24.699  1.00  0.00     0.198 A 
ATOM     94  F   UNL A   1      47.075  28.337  24.510  1.00  0.00    -0.203 F 
ATOM     95  F   UNL A   1      50.851  25.865  27.574  1.00  0.00    -0.200 F 
ATOM     96  C   UNL A   1      50.135  26.662  25.470  1.00  0.00     0.200 A 
ATOM     97  F   UNL A   1      49.381  27.484  23.389  1.00  0.00    -0.200 F 
ATOM     98  F   UNL A   1      51.291  26.271  24.913  1.00  0.00    -0.200 F 
ENDBRANCH  65  88
ENDBRANCH  39  40
ENDBRANCH  32  34
ENDBRANCH  31  32
ENDBRANCH  30  31
ENDBRANCH  29  30
ENDBRANCH  28  29
ENDBRANCH  27  28
ENDBRANCH   1  27
TORSDOF 22
ENDMDL
MODEL 3
REMARK VINA RESULT:      -9.6      3.533      7.234
REMARK SMILES COc1ccc2c(c1)[C@@](NC=O)(C(=O)OCCOCCOCCOCCOC(=O)c1ccc(-c3c4nc(c(-c5c(F)c(F)c(F)c(F)c5F)c5ccc([nH]5)c(-c5c(F)c(F)c(F)c(F)c5F)c5nc(c(-c6c(F)c(F)c(F)c(F)c6F)c6ccc3[nH]6)C=C5)C=C4)cc1)CCC2
REMARK SMILES IDX 22 1 21 2 20 3 19 4 18 5 17 6 16 7 15 8 13 9 14 10 9 11 3 12
REMARK SMILES IDX 4 13 8 14 5 15 7 16 6 17 95 18 93 19 94 20 2 21 1 22 10 23
REMARK SMILES IDX 11 24 12 26 23 27 24 28 25 29 26 30 27 31 28 32 29 33 30 34
REMARK SMILES IDX 31 35 92 36 32 37 91 38 33 39 34 40 35 41 85 42 36 43 90 44
REMARK SMILES IDX 84 45 86 46 37 47 89 48 83 49 82 50 38 52 70 53 50 54 69 55
REMARK SMILES IDX 51 56 54 57 68 58 87 59 52 60 53 61 67 63 88 64 55 65 39 66
REMARK SMILES IDX 40 67 48 68 41 69 42 70 46 71 49 72 43 73 44 74 47 75 45 76
REMARK SMILES IDX 71 77 72 78 80 79 73 80 74 81 78 82 81 83 75 84 76 85 79 86
REMARK SMILES IDX 77 87 56 88 57 89 65 90 58 91 59 92 63 93 66 94 60 95 61 96
REMARK SMILES IDX 64 97 62 98
REMARK H PARENT 10 25 86 51 54 62
REMARK Flexibility Score: inf
ROOT
ATOM      1  C   UNL A   1      34.403  19.507  24.446  1.00  0.00     0.188 C 
ENDROOT
BRANCH   1   2
ATOM      2  O   UNL A   1      33.143  19.180  25.032  1.00  0.00    -0.377 OA
BRANCH   2   3
ATOM      3  C   UNL A   1      32.726  19.914  26.172  1.00  0.00     0.188 C 
BRANCH   3   4
ATOM      4  C   UNL A   1      33.531  21.194  26.432  1.00  0.00     0.188 C 
BRANCH   4   5
ATOM      5  O   UNL A   1      32.722  22.302  26.776  1.00  0.00    -0.376 OA
BRANCH   5   6
ATOM      6  C   UNL A   1      31.409  22.463  26.275  1.00  0.00     0.202 C 
BRANCH   6   7
ATOM      7  C   UNL A   1      30.427  23.576  26.698  1.00  0.00     0.261 C 
BRANCH   7   8
ATOM      8  O   UNL A   1      30.868  24.935  26.720  1.00  0.00    -0.461 OA
BRANCH   8   9
ATOM      9  C   UNL A   1      30.322  25.749  25.794  1.00  0.00     0.336 C 
ATOM     10  O   UNL A   1      29.165  25.608  25.402  1.00  0.00    -0.249 OA
BRANCH   9  11
ATOM     11  C   UNL A   1      31.305  26.902  25.297  1.00  0.00     0.164 C 
ATOM     12  C   UNL A   1      33.587  24.148  24.017  1.00  0.00     0.119 A 
ATOM     13  C   UNL A   1      34.745  24.394  24.746  1.00  0.00     0.047 A 
ATOM     14  C   UNL A   1      32.564  25.085  24.060  1.00  0.00     0.053 A 
ATOM     15  C   UNL A   1      34.885  25.577  25.478  1.00  0.00     0.008 A 
ATOM     16  C   UNL A   1      32.618  26.200  24.918  1.00  0.00    -0.004 A 
ATOM     17  C   UNL A   1      33.833  26.498  25.560  1.00  0.00    -0.042 A 
ATOM     18  C   UNL A   1      34.019  27.742  26.391  1.00  0.00     0.036 C 
ATOM     19  C   UNL A   1      31.560  27.967  26.419  1.00  0.00     0.046 C 
ATOM     20  C   UNL A   1      32.869  28.719  26.207  1.00  0.00     0.008 C 
BRANCH  12  21
ATOM     21  O   UNL A   1      33.524  22.953  23.355  1.00  0.00    -0.497 OA
ATOM     22  C   UNL A   1      32.333  22.702  22.608  1.00  0.00     0.278 C 
ENDBRANCH  12  21
BRANCH  11  23
ATOM     23  N   UNL A   1      30.713  27.644  24.154  1.00  0.00    -0.339 N 
ATOM     24  C   UNL A   1      30.754  27.352  22.827  1.00  0.00     0.338 C 
ATOM     25  H   UNL A   1      30.221  28.463  24.391  1.00  0.00     0.164 HD
ATOM     26  O   UNL A   1      30.244  28.087  21.992  1.00  0.00    -0.279 OA
ENDBRANCH  11  23
ENDBRANCH   9  11
ENDBRANCH   8   9
ENDBRANCH   7   8
ENDBRANCH   6   7
ENDBRANCH   5   6
ENDBRANCH   4   5
ENDBRANCH   3   4
ENDBRANCH   2   3
ENDBRANCH   1   2
BRANCH   1  27
ATOM     27  C   UNL A   1      35.668  18.650  24.701  1.00  0.00     0.188 C 
BRANCH  27  28
ATOM     28  O   UNL A   1      36.841  19.390  24.986  1.00  0.00    -0.376 OA
BRANCH  28  29
ATOM     29  C   UNL A   1      36.774  20.803  25.071  1.00  0.00     0.202 C 
BRANCH  29  30
ATOM     30  C   UNL A   1      38.087  21.598  25.012  1.00  0.00     0.261 C 
BRANCH  30  31
ATOM     31  O   UNL A   1      38.366  22.462  26.125  1.00  0.00    -0.460 OA
BRANCH  31  32
ATOM     32  C   UNL A   1      39.656  22.736  26.404  1.00  0.00     0.338 C 
ATOM     33  O   UNL A   1      40.635  22.065  26.116  1.00  0.00    -0.246 OA
BRANCH  32  34
ATOM     34  C   UNL A   1      39.715  24.110  26.946  1.00  0.00     0.060 A 
ATOM     35  C   UNL A   1      40.318  25.120  26.183  1.00  0.00     0.016 A 
ATOM     36  C   UNL A   1      39.166  24.403  28.197  1.00  0.00     0.016 A 
ATOM     37  C   UNL A   1      40.412  26.417  26.686  1.00  0.00     0.010 A 
ATOM     38  C   UNL A   1      39.288  25.696  28.713  1.00  0.00     0.010 A 
ATOM     39  C   UNL A   1      39.945  26.697  27.975  1.00  0.00    -0.014 A 
BRANCH  39  40
ATOM     40  C   UNL A   1      40.353  27.957  28.643  1.00  0.00     0.031 A 
ATOM     41  C   UNL A   1      41.787  28.093  29.074  1.00  0.00     0.074 A 
ATOM     42  C   UNL A   1      39.486  28.967  28.838  1.00  0.00     0.049 A 
ATOM     43  N   UNL A   1      42.371  29.055  29.743  1.00  0.00    -0.248 NA
ATOM     44  C   UNL A   1      42.687  26.988  28.703  1.00  0.00     0.031 C 
ATOM     45  C   UNL A   1      38.088  28.978  28.413  1.00  0.00     0.029 A 
ATOM     46  N   UNL A   1      39.661  30.178  29.460  1.00  0.00    -0.354 N 
ATOM     47  C   UNL A   1      43.698  28.667  29.875  1.00  0.00     0.074 A 
ATOM     48  C   UNL A   1      43.831  27.371  29.250  1.00  0.00     0.031 C 
ATOM     49  C   UNL A   1      37.525  30.136  28.804  1.00  0.00     0.029 A 
ATOM     50  C   UNL A   1      38.511  30.926  29.539  1.00  0.00     0.049 A 
ATOM     51  H   UNL A   1      40.527  30.482  29.815  1.00  0.00     0.167 HD
ATOM     52  C   UNL A   1      44.718  29.340  30.457  1.00  0.00     0.037 A 
ATOM     53  C   UNL A   1      38.282  32.100  30.162  1.00  0.00     0.037 A 
ATOM     54  C   UNL A   1      44.583  30.629  31.080  1.00  0.00     0.049 A 
ATOM     55  C   UNL A   1      39.417  32.783  30.888  1.00  0.00     0.074 A 
ATOM     56  C   UNL A   1      45.555  31.395  31.697  1.00  0.00     0.029 A 
ATOM     57  N   UNL A   1      43.396  31.341  31.169  1.00  0.00    -0.354 N 
ATOM     58  N   UNL A   1      40.673  32.421  30.998  1.00  0.00    -0.248 NA
ATOM     59  C   UNL A   1      39.101  34.044  31.576  1.00  0.00     0.031 C 
ATOM     60  C   UNL A   1      44.946  32.542  32.212  1.00  0.00     0.029 A 
ATOM     61  C   UNL A   1      43.608  32.527  31.854  1.00  0.00     0.049 A 
ATOM     62  H   UNL A   1      42.532  31.048  30.799  1.00  0.00     0.167 HD
ATOM     63  C   UNL A   1      41.301  33.423  31.728  1.00  0.00     0.074 A 
ATOM     64  C   UNL A   1      40.291  34.417  32.023  1.00  0.00     0.031 C 
ATOM     65  C   UNL A   1      42.595  33.516  32.120  1.00  0.00     0.037 A 
BRANCH  52  66
ATOM     66  C   UNL A   1      46.068  28.685  30.471  1.00  0.00     0.064 A 
ATOM     67  C   UNL A   1      47.016  28.924  29.466  1.00  0.00     0.173 A 
ATOM     68  C   UNL A   1      46.436  27.845  31.533  1.00  0.00     0.173 A 
ATOM     69  F   UNL A   1      46.709  29.705  28.419  1.00  0.00    -0.203 F 
ATOM     70  C   UNL A   1      48.276  28.333  29.515  1.00  0.00     0.198 A 
ATOM     71  C   UNL A   1      47.707  27.281  31.596  1.00  0.00     0.198 A 
ATOM     72  F   UNL A   1      45.567  27.582  32.522  1.00  0.00    -0.203 F 
ATOM     73  F   UNL A   1      49.151  28.543  28.522  1.00  0.00    -0.200 F 
ATOM     74  C   UNL A   1      48.625  27.522  30.584  1.00  0.00     0.200 A 
ATOM     75  F   UNL A   1      48.046  26.509  32.638  1.00  0.00    -0.200 F 
ATOM     76  F   UNL A   1      49.843  26.967  30.638  1.00  0.00    -0.200 F 
ENDBRANCH  52  66
BRANCH  53  77
ATOM     77  C   UNL A   1      36.921  32.701  30.162  1.00  0.00     0.064 A 
ATOM     78  C   UNL A   1      36.498  33.541  29.121  1.00  0.00     0.173 A 
ATOM     79  C   UNL A   1      36.035  32.499  31.232  1.00  0.00     0.173 A 
ATOM     80  F   UNL A   1      37.315  33.789  28.087  1.00  0.00    -0.203 F 
ATOM     81  C   UNL A   1      35.260  34.180  29.168  1.00  0.00     0.198 A 
ATOM     82  C   UNL A   1      34.784  33.109  31.260  1.00  0.00     0.198 A 
ATOM     83  F   UNL A   1      36.389  31.708  32.257  1.00  0.00    -0.203 F 
ATOM     84  F   UNL A   1      34.912  35.032  28.193  1.00  0.00    -0.200 F 
ATOM     85  C   UNL A   1      34.402  33.961  30.235  1.00  0.00     0.200 A 
ATOM     86  F   UNL A   1      33.953  32.885  32.287  1.00  0.00    -0.200 F 
ATOM     87  F   UNL A   1      33.216  34.581  30.282  1.00  0.00    -0.200 F 
ENDBRANCH  53  77
BRANCH  65  88
ATOM     88  C   UNL A   1      43.015  34.758  32.856  1.00  0.00     0.064 A 
ATOM     89  C   UNL A   1      43.031  34.822  34.257  1.00  0.00     0.173 A 
ATOM     90  C   UNL A   1      43.453  35.887  32.144  1.00  0.00     0.173 A 
ATOM     91  F   UNL A   1      42.611  33.776  34.985  1.00  0.00    -0.203 F 
ATOM     92  C   UNL A   1      43.439  35.978  34.916  1.00  0.00     0.198 A 
ATOM     93  C   UNL A   1      43.896  37.027  32.807  1.00  0.00     0.198 A 
ATOM     94  F   UNL A   1      43.470  35.877  30.802  1.00  0.00    -0.203 F 
ATOM     95  F   UNL A   1      43.394  36.035  36.254  1.00  0.00    -0.200 F 
ATOM     96  C   UNL A   1      43.880  37.076  34.192  1.00  0.00     0.200 A 
ATOM     97  F   UNL A   1      44.340  38.079  32.105  1.00  0.00    -0.200 F 
ATOM     98  F   UNL A   1      44.283  38.184  34.829  1.00  0.00    -0.200 F 
ENDBRANCH  65  88
ENDBRANCH  39  40
ENDBRANCH  32  34
ENDBRANCH  31  32
ENDBRANCH  30  31
ENDBRANCH  29  30
ENDBRANCH  28  29
ENDBRANCH  27  28
ENDBRANCH   1  27
TORSDOF 22
ENDMDL
