MODEL 1
REMARK VINA RESULT:     -10.3      0.000      0.000
REMARK SMILES CN1CCN(C(=O)N2CCC[C@H]2CC(=O)OCCOCCOCCOCCOC(=O)c2ccc(-c3c4nc(c(-c5c(F)c(F)c(F)c(F)c5F)c5ccc([nH]5)c(-c5c(F)c(F)c(F)c(F)c5F)c5nc(c(-c6c(F)c(F)c(F)c(F)c6F)c6ccc3[nH]6)C=C5)C=C4)cc2)C(C)(C)C1=O
REMARK SMILES IDX 21 1 20 2 19 3 18 4 17 5 16 6 14 7 15 8 13 9 12 10 8 11 9 12
REMARK SMILES IDX 10 13 11 14 6 15 7 16 5 17 1 18 2 19 3 20 97 21 4 22 94 23
REMARK SMILES IDX 98 24 95 25 96 26 22 27 23 28 24 29 25 30 26 31 27 32 28 33
REMARK SMILES IDX 29 34 30 35 31 36 32 37 93 38 33 39 92 40 34 41 35 42 36 43
REMARK SMILES IDX 86 44 37 45 91 46 85 47 87 48 38 49 90 50 84 51 83 52 39 54
REMARK SMILES IDX 71 55 51 56 70 57 52 58 55 59 69 60 88 61 53 62 54 63 68 65
REMARK SMILES IDX 89 66 56 67 40 68 41 69 49 70 42 71 43 72 47 73 50 74 44 75
REMARK SMILES IDX 45 76 48 77 46 78 72 79 73 80 81 81 74 82 75 83 79 84 82 85
REMARK SMILES IDX 76 86 77 87 80 88 78 89 57 90 58 91 66 92 59 93 60 94 64 95
REMARK SMILES IDX 67 96 61 97 62 98 65 99 63 100
REMARK H PARENT 87 53 55 64
REMARK Flexibility Score: inf
ROOT
ATOM      1  C   UNL A   1      34.052  30.004  27.450  1.00  0.00     0.188 C 
ENDROOT
BRANCH   1   2
ATOM      2  C   UNL A   1      33.971  29.154  26.176  1.00  0.00     0.188 C 
BRANCH   2   3
ATOM      3  O   UNL A   1      33.056  29.603  25.177  1.00  0.00    -0.376 OA
BRANCH   3   4
ATOM      4  C   UNL A   1      32.825  28.741  24.053  1.00  0.00     0.202 C 
BRANCH   4   5
ATOM      5  C   UNL A   1      33.806  27.566  23.837  1.00  0.00     0.261 C 
BRANCH   5   6
ATOM      6  O   UNL A   1      33.847  27.102  22.460  1.00  0.00    -0.463 OA
BRANCH   6   7
ATOM      7  C   UNL A   1      32.870  26.252  22.061  1.00  0.00     0.307 C 
ATOM      8  O   UNL A   1      32.114  26.483  21.121  1.00  0.00    -0.252 OA
BRANCH   7   9
ATOM      9  C   UNL A   1      32.919  24.888  22.745  1.00  0.00     0.147 C 
BRANCH   9  10
ATOM     10  C   UNL A   1      31.778  24.329  23.612  1.00  0.00     0.098 C 
ATOM     11  N   UNL A   1      31.669  24.675  25.037  1.00  0.00    -0.321 N 
ATOM     12  C   UNL A   1      30.767  25.796  25.182  1.00  0.00     0.122 C 
ATOM     13  C   UNL A   1      29.728  25.570  24.086  1.00  0.00     0.024 C 
ATOM     14  C   UNL A   1      30.395  24.658  23.052  1.00  0.00     0.027 C 
BRANCH  11  15
ATOM     15  C   UNL A   1      32.281  23.913  26.009  1.00  0.00     0.321 C 
ATOM     16  O   UNL A   1      32.303  24.316  27.177  1.00  0.00    -0.248 OA
BRANCH  15  17
ATOM     17  N   UNL A   1      32.846  22.670  25.676  1.00  0.00    -0.309 N 
ATOM     18  C   UNL A   1      34.201  18.786  24.363  1.00  0.00     0.146 C 
ATOM     19  N   UNL A   1      33.759  20.020  25.002  1.00  0.00    -0.342 N 
ATOM     20  C   UNL A   1      32.325  20.237  25.112  1.00  0.00     0.140 C 
ATOM     21  C   UNL A   1      34.690  21.004  25.317  1.00  0.00     0.247 C 
ATOM     22  C   UNL A   1      31.858  21.584  25.679  1.00  0.00     0.144 C 
ATOM     23  C   UNL A   1      34.184  22.199  26.194  1.00  0.00     0.118 C 
ATOM     24  O   UNL A   1      35.884  20.854  25.047  1.00  0.00    -0.272 OA
ATOM     25  C   UNL A   1      34.046  21.641  27.637  1.00  0.00     0.045 C 
ATOM     26  C   UNL A   1      35.307  23.240  26.252  1.00  0.00     0.045 C 
ENDBRANCH  15  17
ENDBRANCH  11  15
ENDBRANCH   9  10
ENDBRANCH   7   9
ENDBRANCH   6   7
ENDBRANCH   5   6
ENDBRANCH   4   5
ENDBRANCH   3   4
ENDBRANCH   2   3
ENDBRANCH   1   2
BRANCH   1  27
ATOM     27  O   UNL A   1      33.120  31.067  27.416  1.00  0.00    -0.377 OA
BRANCH  27  28
ATOM     28  C   UNL A   1      33.550  32.326  27.890  1.00  0.00     0.188 C 
BRANCH  28  29
ATOM     29  C   UNL A   1      35.019  32.367  28.342  1.00  0.00     0.188 C 
BRANCH  29  30
ATOM     30  O   UNL A   1      35.436  33.488  29.127  1.00  0.00    -0.376 OA
BRANCH  30  31
ATOM     31  C   UNL A   1      34.543  33.994  30.115  1.00  0.00     0.202 C 
BRANCH  31  32
ATOM     32  C   UNL A   1      35.024  33.894  31.564  1.00  0.00     0.261 C 
BRANCH  32  33
ATOM     33  O   UNL A   1      34.870  32.558  32.102  1.00  0.00    -0.460 OA
BRANCH  33  34
ATOM     34  C   UNL A   1      35.840  32.130  32.924  1.00  0.00     0.338 C 
ATOM     35  O   UNL A   1      35.922  32.381  34.138  1.00  0.00    -0.246 OA
BRANCH  34  36
ATOM     36  C   UNL A   1      36.799  31.213  32.275  1.00  0.00     0.060 A 
ATOM     37  C   UNL A   1      38.066  31.092  32.854  1.00  0.00     0.016 A 
ATOM     38  C   UNL A   1      36.555  30.611  31.037  1.00  0.00     0.016 A 
ATOM     39  C   UNL A   1      39.111  30.505  32.142  1.00  0.00     0.010 A 
ATOM     40  C   UNL A   1      37.606  30.031  30.313  1.00  0.00     0.010 A 
ATOM     41  C   UNL A   1      38.907  30.038  30.835  1.00  0.00    -0.014 A 
BRANCH  41  42
ATOM     42  C   UNL A   1      40.079  29.668  30.001  1.00  0.00     0.031 A 
ATOM     43  C   UNL A   1      41.196  30.656  29.783  1.00  0.00     0.074 A 
ATOM     44  C   UNL A   1      40.179  28.435  29.478  1.00  0.00     0.049 A 
ATOM     45  N   UNL A   1      42.363  30.479  29.212  1.00  0.00    -0.248 NA
ATOM     46  C   UNL A   1      40.968  32.026  30.267  1.00  0.00     0.031 C 
ATOM     47  C   UNL A   1      39.166  27.390  29.593  1.00  0.00     0.029 A 
ATOM     48  N   UNL A   1      41.188  27.854  28.752  1.00  0.00    -0.354 N 
ATOM     49  C   UNL A   1      43.013  31.705  29.283  1.00  0.00     0.074 A 
ATOM     50  C   UNL A   1      42.090  32.632  29.904  1.00  0.00     0.031 C 
ATOM     51  C   UNL A   1      39.609  26.288  28.967  1.00  0.00     0.029 A 
ATOM     52  C   UNL A   1      40.933  26.552  28.404  1.00  0.00     0.049 A 
ATOM     53  H   UNL A   1      42.015  28.326  28.504  1.00  0.00     0.167 HD
ATOM     54  C   UNL A   1      44.271  32.024  28.889  1.00  0.00     0.037 A 
ATOM     55  C   UNL A   1      41.686  25.669  27.720  1.00  0.00     0.037 A 
ATOM     56  C   UNL A   1      45.187  31.110  28.253  1.00  0.00     0.049 A 
ATOM     57  C   UNL A   1      43.062  26.057  27.251  1.00  0.00     0.074 A 
ATOM     58  C   UNL A   1      46.498  31.329  27.866  1.00  0.00     0.029 A 
ATOM     59  N   UNL A   1      44.879  29.807  27.892  1.00  0.00    -0.354 N 
ATOM     60  N   UNL A   1      43.709  27.185  27.417  1.00  0.00    -0.248 NA
ATOM     61  C   UNL A   1      43.821  25.037  26.513  1.00  0.00     0.031 C 
ATOM     62  C   UNL A   1      46.965  30.179  27.218  1.00  0.00     0.029 A 
ATOM     63  C   UNL A   1      45.965  29.222  27.255  1.00  0.00     0.049 A 
ATOM     64  H   UNL A   1      44.018  29.362  28.060  1.00  0.00     0.167 HD
ATOM     65  C   UNL A   1      44.957  27.000  26.836  1.00  0.00     0.074 A 
ATOM     66  C   UNL A   1      44.983  25.648  26.322  1.00  0.00     0.031 C 
ATOM     67  C   UNL A   1      45.990  27.874  26.747  1.00  0.00     0.037 A 
BRANCH  54  68
ATOM     68  C   UNL A   1      44.741  33.432  29.132  1.00  0.00     0.064 A 
ATOM     69  C   UNL A   1      45.367  33.798  30.334  1.00  0.00     0.173 A 
ATOM     70  C   UNL A   1      44.612  34.414  28.139  1.00  0.00     0.173 A 
ATOM     71  F   UNL A   1      45.515  32.900  31.319  1.00  0.00    -0.203 F 
ATOM     72  C   UNL A   1      45.816  35.100  30.543  1.00  0.00     0.198 A 
ATOM     73  C   UNL A   1      45.090  35.707  28.338  1.00  0.00     0.198 A 
ATOM     74  F   UNL A   1      44.035  34.117  26.964  1.00  0.00    -0.203 F 
ATOM     75  F   UNL A   1      46.367  35.437  31.718  1.00  0.00    -0.200 F 
ATOM     76  C   UNL A   1      45.683  36.052  29.544  1.00  0.00     0.200 A 
ATOM     77  F   UNL A   1      44.977  36.620  27.364  1.00  0.00    -0.200 F 
ATOM     78  F   UNL A   1      46.121  37.302  29.743  1.00  0.00    -0.200 F 
ENDBRANCH  54  68
BRANCH  55  79
ATOM     79  C   UNL A   1      41.163  24.300  27.481  1.00  0.00     0.064 A 
ATOM     80  C   UNL A   1      40.076  24.087  26.622  1.00  0.00     0.173 A 
ATOM     81  C   UNL A   1      41.743  23.182  28.095  1.00  0.00     0.173 A 
ATOM     82  F   UNL A   1      39.475  25.130  26.030  1.00  0.00    -0.203 F 
ATOM     83  C   UNL A   1      39.581  22.805  26.395  1.00  0.00     0.198 A 
ATOM     84  C   UNL A   1      41.264  21.898  27.847  1.00  0.00     0.198 A 
ATOM     85  F   UNL A   1      42.787  23.335  28.922  1.00  0.00    -0.203 F 
ATOM     86  F   UNL A   1      38.518  22.631  25.598  1.00  0.00    -0.200 F 
ATOM     87  C   UNL A   1      40.181  21.711  27.002  1.00  0.00     0.200 A 
ATOM     88  F   UNL A   1      41.854  20.842  28.423  1.00  0.00    -0.200 F 
ATOM     89  F   UNL A   1      39.710  20.477  26.775  1.00  0.00    -0.200 F 
ENDBRANCH  55  79
BRANCH  67  90
ATOM     90  C   UNL A   1      47.258  27.389  26.098  1.00  0.00     0.064 A 
ATOM     91  C   UNL A   1      47.450  27.456  24.710  1.00  0.00     0.173 A 
ATOM     92  C   UNL A   1      48.310  26.888  26.881  1.00  0.00     0.173 A 
ATOM     93  F   UNL A   1      46.471  27.911  23.914  1.00  0.00    -0.203 F 
ATOM     94  C   UNL A   1      48.638  27.016  24.129  1.00  0.00     0.198 A 
ATOM     95  C   UNL A   1      49.507  26.479  26.299  1.00  0.00     0.198 A 
ATOM     96  F   UNL A   1      48.182  26.809  28.214  1.00  0.00    -0.203 F 
ATOM     97  F   UNL A   1      48.781  27.047  22.797  1.00  0.00    -0.200 F 
ATOM     98  C   UNL A   1      49.668  26.536  24.924  1.00  0.00     0.200 A 
ATOM     99  F   UNL A   1      50.505  26.026  27.071  1.00  0.00    -0.200 F 
ATOM    100  F   UNL A   1      50.812  26.121  24.363  1.00  0.00    -0.200 F 
ENDBRANCH  67  90
ENDBRANCH  41  42
ENDBRANCH  34  36
ENDBRANCH  33  34
ENDBRANCH  32  33
ENDBRANCH  31  32
ENDBRANCH  30  31
ENDBRANCH  29  30
ENDBRANCH  28  29
ENDBRANCH  27  28
ENDBRANCH   1  27
TORSDOF 23
ENDMDL
MODEL 2
REMARK VINA RESULT:     -10.2      5.075      9.330
REMARK SMILES CN1CCN(C(=O)N2CCC[C@H]2CC(=O)OCCOCCOCCOCCOC(=O)c2ccc(-c3c4nc(c(-c5c(F)c(F)c(F)c(F)c5F)c5ccc([nH]5)c(-c5c(F)c(F)c(F)c(F)c5F)c5nc(c(-c6c(F)c(F)c(F)c(F)c6F)c6ccc3[nH]6)C=C5)C=C4)cc2)C(C)(C)C1=O
REMARK SMILES IDX 21 1 20 2 19 3 18 4 17 5 16 6 14 7 15 8 13 9 12 10 8 11 9 12
REMARK SMILES IDX 10 13 11 14 6 15 7 16 5 17 1 18 2 19 3 20 97 21 4 22 94 23
REMARK SMILES IDX 98 24 95 25 96 26 22 27 23 28 24 29 25 30 26 31 27 32 28 33
REMARK SMILES IDX 29 34 30 35 31 36 32 37 93 38 33 39 92 40 34 41 35 42 36 43
REMARK SMILES IDX 86 44 37 45 91 46 85 47 87 48 38 49 90 50 84 51 83 52 39 54
REMARK SMILES IDX 71 55 51 56 70 57 52 58 55 59 69 60 88 61 53 62 54 63 68 65
REMARK SMILES IDX 89 66 56 67 40 68 41 69 49 70 42 71 43 72 47 73 50 74 44 75
REMARK SMILES IDX 45 76 48 77 46 78 72 79 73 80 81 81 74 82 75 83 79 84 82 85
REMARK SMILES IDX 76 86 77 87 80 88 78 89 57 90 58 91 66 92 59 93 60 94 64 95
REMARK SMILES IDX 67 96 61 97 62 98 65 99 63 100
REMARK H PARENT 87 53 55 64
REMARK Flexibility Score: inf
ROOT
ATOM      1  C   UNL A   1      34.944  30.327  27.341  1.00  0.00     0.188 C 
ENDROOT
BRANCH   1   2
ATOM      2  C   UNL A   1      33.574  29.645  27.261  1.00  0.00     0.188 C 
BRANCH   2   3
ATOM      3  O   UNL A   1      32.617  30.254  26.393  1.00  0.00    -0.376 OA
BRANCH   3   4
ATOM      4  C   UNL A   1      32.224  29.525  25.222  1.00  0.00     0.202 C 
BRANCH   4   5
ATOM      5  C   UNL A   1      30.864  29.879  24.579  1.00  0.00     0.261 C 
BRANCH   5   6
ATOM      6  O   UNL A   1      30.674  29.272  23.272  1.00  0.00    -0.463 OA
BRANCH   6   7
ATOM      7  C   UNL A   1      29.884  28.173  23.206  1.00  0.00     0.307 C 
ATOM      8  O   UNL A   1      28.658  28.223  23.148  1.00  0.00    -0.252 OA
BRANCH   7   9
ATOM      9  C   UNL A   1      30.653  26.870  23.001  1.00  0.00     0.147 C 
BRANCH   9  10
ATOM     10  C   UNL A   1      30.796  25.787  24.083  1.00  0.00     0.098 C 
ATOM     11  N   UNL A   1      32.101  25.181  24.382  1.00  0.00    -0.321 N 
ATOM     12  C   UNL A   1      32.703  25.883  25.493  1.00  0.00     0.122 C 
ATOM     13  C   UNL A   1      31.512  26.267  26.369  1.00  0.00     0.024 C 
ATOM     14  C   UNL A   1      30.288  26.245  25.449  1.00  0.00     0.027 C 
BRANCH  11  15
ATOM     15  C   UNL A   1      32.536  24.052  23.721  1.00  0.00     0.321 C 
ATOM     16  O   UNL A   1      31.940  23.668  22.709  1.00  0.00    -0.248 OA
BRANCH  15  17
ATOM     17  N   UNL A   1      33.673  23.363  24.179  1.00  0.00    -0.309 N 
ATOM     18  C   UNL A   1      37.427  21.586  25.359  1.00  0.00     0.146 C 
ATOM     19  N   UNL A   1      36.113  21.997  24.879  1.00  0.00    -0.342 N 
ATOM     20  C   UNL A   1      36.054  22.662  23.586  1.00  0.00     0.140 C 
ATOM     21  C   UNL A   1      35.011  21.905  25.724  1.00  0.00     0.247 C 
ATOM     22  C   UNL A   1      34.689  23.197  23.132  1.00  0.00     0.144 C 
ATOM     23  C   UNL A   1      33.606  22.152  25.079  1.00  0.00     0.118 C 
ATOM     24  O   UNL A   1      35.135  21.496  26.880  1.00  0.00    -0.272 OA
ATOM     25  C   UNL A   1      33.283  20.876  24.255  1.00  0.00     0.045 C 
ATOM     26  C   UNL A   1      32.576  22.192  26.213  1.00  0.00     0.045 C 
ENDBRANCH  15  17
ENDBRANCH  11  15
ENDBRANCH   9  10
ENDBRANCH   7   9
ENDBRANCH   6   7
ENDBRANCH   5   6
ENDBRANCH   4   5
ENDBRANCH   3   4
ENDBRANCH   2   3
ENDBRANCH   1   2
BRANCH   1  27
ATOM     27  O   UNL A   1      34.814  31.705  27.632  1.00  0.00    -0.377 OA
BRANCH  27  28
ATOM     28  C   UNL A   1      35.970  32.395  28.056  1.00  0.00     0.188 C 
BRANCH  28  29
ATOM     29  C   UNL A   1      35.771  33.257  29.314  1.00  0.00     0.188 C 
BRANCH  29  30
ATOM     30  O   UNL A   1      35.526  34.653  29.124  1.00  0.00    -0.376 OA
BRANCH  30  31
ATOM     31  C   UNL A   1      34.433  35.044  28.298  1.00  0.00     0.202 C 
BRANCH  31  32
ATOM     32  C   UNL A   1      33.213  35.610  29.025  1.00  0.00     0.261 C 
BRANCH  32  33
ATOM     33  O   UNL A   1      32.867  34.837  30.200  1.00  0.00    -0.460 OA
BRANCH  33  34
ATOM     34  C   UNL A   1      32.880  35.492  31.371  1.00  0.00     0.338 C 
ATOM     35  O   UNL A   1      32.116  36.420  31.688  1.00  0.00    -0.246 OA
BRANCH  34  36
ATOM     36  C   UNL A   1      33.847  34.942  32.343  1.00  0.00     0.060 A 
ATOM     37  C   UNL A   1      35.069  35.609  32.481  1.00  0.00     0.016 A 
ATOM     38  C   UNL A   1      33.664  33.715  32.984  1.00  0.00     0.016 A 
ATOM     39  C   UNL A   1      36.138  34.990  33.128  1.00  0.00     0.010 A 
ATOM     40  C   UNL A   1      34.740  33.084  33.626  1.00  0.00     0.010 A 
ATOM     41  C   UNL A   1      36.003  33.691  33.640  1.00  0.00    -0.014 A 
BRANCH  41  42
ATOM     42  C   UNL A   1      37.214  32.952  34.079  1.00  0.00     0.031 A 
ATOM     43  C   UNL A   1      37.833  31.911  33.182  1.00  0.00     0.074 A 
ATOM     44  C   UNL A   1      37.797  33.240  35.254  1.00  0.00     0.049 A 
ATOM     45  N   UNL A   1      38.964  31.262  33.319  1.00  0.00    -0.248 NA
ATOM     46  C   UNL A   1      37.077  31.546  31.975  1.00  0.00     0.031 C 
ATOM     47  C   UNL A   1      37.294  34.207  36.225  1.00  0.00     0.029 A 
ATOM     48  N   UNL A   1      38.945  32.750  35.824  1.00  0.00    -0.354 N 
ATOM     49  C   UNL A   1      39.065  30.430  32.212  1.00  0.00     0.074 A 
ATOM     50  C   UNL A   1      37.854  30.614  31.440  1.00  0.00     0.031 C 
ATOM     51  C   UNL A   1      38.137  34.249  37.270  1.00  0.00     0.029 A 
ATOM     52  C   UNL A   1      39.233  33.308  37.042  1.00  0.00     0.049 A 
ATOM     53  H   UNL A   1      39.507  32.063  35.398  1.00  0.00     0.167 HD
ATOM     54  C   UNL A   1      40.081  29.604  31.857  1.00  0.00     0.037 A 
ATOM     55  C   UNL A   1      40.270  33.095  37.876  1.00  0.00     0.037 A 
ATOM     56  C   UNL A   1      41.280  29.402  32.632  1.00  0.00     0.049 A 
ATOM     57  C   UNL A   1      41.367  32.140  37.485  1.00  0.00     0.074 A 
ATOM     58  C   UNL A   1      42.386  28.626  32.328  1.00  0.00     0.029 A 
ATOM     59  N   UNL A   1      41.521  29.965  33.877  1.00  0.00    -0.354 N 
ATOM     60  N   UNL A   1      41.504  31.439  36.386  1.00  0.00    -0.248 NA
ATOM     61  C   UNL A   1      42.464  31.964  38.448  1.00  0.00     0.031 C 
ATOM     62  C   UNL A   1      43.270  28.672  33.413  1.00  0.00     0.029 A 
ATOM     63  C   UNL A   1      42.742  29.525  34.368  1.00  0.00     0.049 A 
ATOM     64  H   UNL A   1      40.915  30.584  34.344  1.00  0.00     0.167 HD
ATOM     65  C   UNL A   1      42.713  30.766  36.510  1.00  0.00     0.074 A 
ATOM     66  C   UNL A   1      43.277  31.150  37.786  1.00  0.00     0.031 C 
ATOM     67  C   UNL A   1      43.304  29.912  35.638  1.00  0.00     0.037 A 
BRANCH  54  68
ATOM     68  C   UNL A   1      39.945  28.846  30.565  1.00  0.00     0.064 A 
ATOM     69  C   UNL A   1      39.361  27.570  30.523  1.00  0.00     0.173 A 
ATOM     70  C   UNL A   1      40.352  29.418  29.351  1.00  0.00     0.173 A 
ATOM     71  F   UNL A   1      38.956  26.975  31.655  1.00  0.00    -0.203 F 
ATOM     72  C   UNL A   1      39.222  26.883  29.319  1.00  0.00     0.198 A 
ATOM     73  C   UNL A   1      40.182  28.743  28.145  1.00  0.00     0.198 A 
ATOM     74  F   UNL A   1      40.901  30.642  29.329  1.00  0.00    -0.203 F 
ATOM     75  F   UNL A   1      38.706  25.646  29.311  1.00  0.00    -0.200 F 
ATOM     76  C   UNL A   1      39.626  27.472  28.130  1.00  0.00     0.200 A 
ATOM     77  F   UNL A   1      40.556  29.321  26.995  1.00  0.00    -0.200 F 
ATOM     78  F   UNL A   1      39.485  26.813  26.972  1.00  0.00    -0.200 F 
ENDBRANCH  54  68
BRANCH  55  79
ATOM     79  C   UNL A   1      40.342  33.847  39.153  1.00  0.00     0.064 A 
ATOM     80  C   UNL A   1      41.074  35.038  39.245  1.00  0.00     0.173 A 
ATOM     81  C   UNL A   1      39.674  33.398  40.301  1.00  0.00     0.173 A 
ATOM     82  F   UNL A   1      41.747  35.495  38.178  1.00  0.00    -0.203 F 
ATOM     83  C   UNL A   1      41.145  35.748  40.441  1.00  0.00     0.198 A 
ATOM     84  C   UNL A   1      39.724  34.121  41.489  1.00  0.00     0.198 A 
ATOM     85  F   UNL A   1      38.958  32.264  40.262  1.00  0.00    -0.203 F 
ATOM     86  F   UNL A   1      41.881  36.865  40.513  1.00  0.00    -0.200 F 
ATOM     87  C   UNL A   1      40.463  35.292  41.561  1.00  0.00     0.200 A 
ATOM     88  F   UNL A   1      39.053  33.686  42.566  1.00  0.00    -0.200 F 
ATOM     89  F   UNL A   1      40.525  35.980  42.709  1.00  0.00    -0.200 F 
ENDBRANCH  55  79
BRANCH  67  90
ATOM     90  C   UNL A   1      44.650  29.356  36.011  1.00  0.00     0.064 A 
ATOM     91  C   UNL A   1      44.783  28.142  36.701  1.00  0.00     0.173 A 
ATOM     92  C   UNL A   1      45.825  30.028  35.637  1.00  0.00     0.173 A 
ATOM     93  F   UNL A   1      43.694  27.467  37.096  1.00  0.00    -0.203 F 
ATOM     94  C   UNL A   1      46.041  27.636  37.025  1.00  0.00     0.198 A 
ATOM     95  C   UNL A   1      47.080  29.503  35.935  1.00  0.00     0.198 A 
ATOM     96  F   UNL A   1      45.756  31.190  34.970  1.00  0.00    -0.203 F 
ATOM     97  F   UNL A   1      46.142  26.497  37.725  1.00  0.00    -0.200 F 
ATOM     98  C   UNL A   1      47.187  28.312  36.634  1.00  0.00     0.200 A 
ATOM     99  F   UNL A   1      48.186  30.153  35.546  1.00  0.00    -0.200 F 
ATOM    100  F   UNL A   1      48.395  27.818  36.940  1.00  0.00    -0.200 F 
ENDBRANCH  67  90
ENDBRANCH  41  42
ENDBRANCH  34  36
ENDBRANCH  33  34
ENDBRANCH  32  33
ENDBRANCH  31  32
ENDBRANCH  30  31
ENDBRANCH  29  30
ENDBRANCH  28  29
ENDBRANCH  27  28
ENDBRANCH   1  27
TORSDOF 23
ENDMDL
MODEL 3
REMARK VINA RESULT:      -9.8      5.414     11.958
REMARK SMILES CN1CCN(C(=O)N2CCC[C@H]2CC(=O)OCCOCCOCCOCCOC(=O)c2ccc(-c3c4nc(c(-c5c(F)c(F)c(F)c(F)c5F)c5ccc([nH]5)c(-c5c(F)c(F)c(F)c(F)c5F)c5nc(c(-c6c(F)c(F)c(F)c(F)c6F)c6ccc3[nH]6)C=C5)C=C4)cc2)C(C)(C)C1=O
REMARK SMILES IDX 21 1 20 2 19 3 18 4 17 5 16 6 14 7 15 8 13 9 12 10 8 11 9 12
REMARK SMILES IDX 10 13 11 14 6 15 7 16 5 17 1 18 2 19 3 20 97 21 4 22 94 23
REMARK SMILES IDX 98 24 95 25 96 26 22 27 23 28 24 29 25 30 26 31 27 32 28 33
REMARK SMILES IDX 29 34 30 35 31 36 32 37 93 38 33 39 92 40 34 41 35 42 36 43
REMARK SMILES IDX 86 44 37 45 91 46 85 47 87 48 38 49 90 50 84 51 83 52 39 54
REMARK SMILES IDX 71 55 51 56 70 57 52 58 55 59 69 60 88 61 53 62 54 63 68 65
REMARK SMILES IDX 89 66 56 67 40 68 41 69 49 70 42 71 43 72 47 73 50 74 44 75
REMARK SMILES IDX 45 76 48 77 46 78 72 79 73 80 81 81 74 82 75 83 79 84 82 85
REMARK SMILES IDX 76 86 77 87 80 88 78 89 57 90 58 91 66 92 59 93 60 94 64 95
REMARK SMILES IDX 67 96 61 97 62 98 65 99 63 100
REMARK H PARENT 87 53 55 64
REMARK Flexibility Score: inf
ROOT
ATOM      1  C   UNL A   1      42.100  23.243  28.835  1.00  0.00     0.188 C 
ENDROOT
BRANCH   1   2
ATOM      2  C   UNL A   1      41.758  23.705  27.414  1.00  0.00     0.188 C 
BRANCH   2   3
ATOM      3  O   UNL A   1      40.371  23.862  27.118  1.00  0.00    -0.376 OA
BRANCH   3   4
ATOM      4  C   UNL A   1      39.680  24.958  27.736  1.00  0.00     0.202 C 
BRANCH   4   5
ATOM      5  C   UNL A   1      40.158  26.389  27.396  1.00  0.00     0.261 C 
BRANCH   5   6
ATOM      6  O   UNL A   1      39.725  27.381  28.367  1.00  0.00    -0.463 OA
BRANCH   6   7
ATOM      7  C   UNL A   1      40.093  28.666  28.148  1.00  0.00     0.307 C 
ATOM      8  O   UNL A   1      40.011  29.218  27.054  1.00  0.00    -0.252 OA
BRANCH   7   9
ATOM      9  C   UNL A   1      40.427  29.439  29.422  1.00  0.00     0.147 C 
BRANCH   9  10
ATOM     10  C   UNL A   1      39.614  30.644  29.924  1.00  0.00     0.098 C 
ATOM     11  N   UNL A   1      38.637  30.499  31.012  1.00  0.00    -0.321 N 
ATOM     12  C   UNL A   1      39.271  30.844  32.265  1.00  0.00     0.122 C 
ATOM     13  C   UNL A   1      40.244  31.959  31.885  1.00  0.00     0.024 C 
ATOM     14  C   UNL A   1      40.497  31.804  30.382  1.00  0.00     0.027 C 
BRANCH  11  15
ATOM     15  C   UNL A   1      37.318  30.189  30.756  1.00  0.00     0.321 C 
ATOM     16  O   UNL A   1      36.894  29.059  31.018  1.00  0.00    -0.248 OA
BRANCH  15  17
ATOM     17  N   UNL A   1      36.456  31.167  30.231  1.00  0.00    -0.309 N 
ATOM     18  C   UNL A   1      33.761  33.885  28.232  1.00  0.00     0.146 C 
ATOM     19  N   UNL A   1      34.803  33.132  28.920  1.00  0.00    -0.342 N 
ATOM     20  C   UNL A   1      35.716  32.354  28.096  1.00  0.00     0.140 C 
ATOM     21  C   UNL A   1      34.783  33.038  30.307  1.00  0.00     0.247 C 
ATOM     22  C   UNL A   1      36.740  31.471  28.823  1.00  0.00     0.144 C 
ATOM     23  C   UNL A   1      36.043  32.406  30.989  1.00  0.00     0.118 C 
ATOM     24  O   UNL A   1      33.885  33.571  30.963  1.00  0.00    -0.272 OA
ATOM     25  C   UNL A   1      37.156  33.488  30.917  1.00  0.00     0.045 C 
ATOM     26  C   UNL A   1      35.725  32.230  32.478  1.00  0.00     0.045 C 
ENDBRANCH  15  17
ENDBRANCH  11  15
ENDBRANCH   9  10
ENDBRANCH   7   9
ENDBRANCH   6   7
ENDBRANCH   5   6
ENDBRANCH   4   5
ENDBRANCH   3   4
ENDBRANCH   2   3
ENDBRANCH   1   2
BRANCH   1  27
ATOM     27  O   UNL A   1      43.290  23.851  29.298  1.00  0.00    -0.377 OA
BRANCH  27  28
ATOM     28  C   UNL A   1      44.502  23.160  29.082  1.00  0.00     0.188 C 
BRANCH  28  29
ATOM     29  C   UNL A   1      45.466  23.857  28.107  1.00  0.00     0.188 C 
BRANCH  29  30
ATOM     30  O   UNL A   1      45.970  23.085  27.014  1.00  0.00    -0.376 OA
BRANCH  30  31
ATOM     31  C   UNL A   1      45.082  22.755  25.949  1.00  0.00     0.202 C 
BRANCH  31  32
ATOM     32  C   UNL A   1      45.318  23.491  24.629  1.00  0.00     0.261 C 
BRANCH  32  33
ATOM     33  O   UNL A   1      44.883  24.871  24.685  1.00  0.00    -0.460 OA
BRANCH  33  34
ATOM     34  C   UNL A   1      45.843  25.793  24.858  1.00  0.00     0.338 C 
ATOM     35  O   UNL A   1      47.013  25.704  24.445  1.00  0.00    -0.246 OA
BRANCH  34  36
ATOM     36  C   UNL A   1      45.366  27.024  25.520  1.00  0.00     0.060 A 
ATOM     37  C   UNL A   1      46.321  27.823  26.156  1.00  0.00     0.016 A 
ATOM     38  C   UNL A   1      44.011  27.322  25.682  1.00  0.00     0.016 A 
ATOM     39  C   UNL A   1      45.924  28.812  27.055  1.00  0.00     0.010 A 
ATOM     40  C   UNL A   1      43.607  28.307  26.593  1.00  0.00     0.010 A 
ATOM     41  C   UNL A   1      44.564  29.011  27.337  1.00  0.00    -0.014 A 
BRANCH  41  42
ATOM     42  C   UNL A   1      44.176  29.872  28.483  1.00  0.00     0.031 A 
ATOM     43  C   UNL A   1      43.934  29.264  29.841  1.00  0.00     0.074 A 
ATOM     44  C   UNL A   1      44.088  31.204  28.333  1.00  0.00     0.049 A 
ATOM     45  N   UNL A   1      43.729  29.855  30.993  1.00  0.00    -0.248 NA
ATOM     46  C   UNL A   1      43.915  27.795  29.911  1.00  0.00     0.031 C 
ATOM     47  C   UNL A   1      44.276  31.921  27.076  1.00  0.00     0.029 A 
ATOM     48  N   UNL A   1      43.825  32.189  29.252  1.00  0.00    -0.354 N 
ATOM     49  C   UNL A   1      43.575  28.837  31.924  1.00  0.00     0.074 A 
ATOM     50  C   UNL A   1      43.655  27.589  31.195  1.00  0.00     0.031 C 
ATOM     51  C   UNL A   1      44.132  33.237  27.302  1.00  0.00     0.029 A 
ATOM     52  C   UNL A   1      43.838  33.452  28.719  1.00  0.00     0.049 A 
ATOM     53  H   UNL A   1      43.644  32.006  30.202  1.00  0.00     0.167 HD
ATOM     54  C   UNL A   1      43.405  28.930  33.267  1.00  0.00     0.037 A 
ATOM     55  C   UNL A   1      43.646  34.649  29.307  1.00  0.00     0.037 A 
ATOM     56  C   UNL A   1      43.305  30.170  33.995  1.00  0.00     0.049 A 
ATOM     57  C   UNL A   1      43.414  34.729  30.793  1.00  0.00     0.074 A 
ATOM     58  C   UNL A   1      43.184  30.364  35.361  1.00  0.00     0.029 A 
ATOM     59  N   UNL A   1      43.293  31.430  33.414  1.00  0.00    -0.354 N 
ATOM     60  N   UNL A   1      43.376  33.766  31.680  1.00  0.00    -0.248 NA
ATOM     61  C   UNL A   1      43.215  36.071  31.359  1.00  0.00     0.031 C 
ATOM     62  C   UNL A   1      43.040  31.735  35.602  1.00  0.00     0.029 A 
ATOM     63  C   UNL A   1      43.132  32.402  34.391  1.00  0.00     0.049 A 
ATOM     64  H   UNL A   1      43.385  31.608  32.450  1.00  0.00     0.167 HD
ATOM     65  C   UNL A   1      43.184  34.385  32.909  1.00  0.00     0.074 A 
ATOM     66  C   UNL A   1      43.123  35.807  32.656  1.00  0.00     0.031 C 
ATOM     67  C   UNL A   1      43.076  33.819  34.137  1.00  0.00     0.037 A 
BRANCH  54  68
ATOM     68  C   UNL A   1      43.313  27.648  34.048  1.00  0.00     0.064 A 
ATOM     69  C   UNL A   1      44.461  27.005  34.538  1.00  0.00     0.173 A 
ATOM     70  C   UNL A   1      42.067  27.082  34.356  1.00  0.00     0.173 A 
ATOM     71  F   UNL A   1      45.678  27.501  34.272  1.00  0.00    -0.203 F 
ATOM     72  C   UNL A   1      44.365  25.828  35.276  1.00  0.00     0.198 A 
ATOM     73  C   UNL A   1      41.972  25.923  35.121  1.00  0.00     0.198 A 
ATOM     74  F   UNL A   1      40.935  27.663  33.927  1.00  0.00    -0.203 F 
ATOM     75  F   UNL A   1      45.477  25.206  35.692  1.00  0.00    -0.200 F 
ATOM     76  C   UNL A   1      43.121  25.291  35.574  1.00  0.00     0.200 A 
ATOM     77  F   UNL A   1      40.769  25.416  35.423  1.00  0.00    -0.200 F 
ATOM     78  F   UNL A   1      43.030  24.162  36.290  1.00  0.00    -0.200 F 
ENDBRANCH  54  68
BRANCH  55  79
ATOM     79  C   UNL A   1      43.718  35.883  28.485  1.00  0.00     0.064 A 
ATOM     80  C   UNL A   1      44.944  36.521  28.253  1.00  0.00     0.173 A 
ATOM     81  C   UNL A   1      42.569  36.440  27.908  1.00  0.00     0.173 A 
ATOM     82  F   UNL A   1      46.067  36.035  28.803  1.00  0.00    -0.203 F 
ATOM     83  C   UNL A   1      45.016  37.679  27.483  1.00  0.00     0.198 A 
ATOM     84  C   UNL A   1      42.646  37.583  27.117  1.00  0.00     0.198 A 
ATOM     85  F   UNL A   1      41.373  35.864  28.099  1.00  0.00    -0.203 F 
ATOM     86  F   UNL A   1      46.195  38.290  27.306  1.00  0.00    -0.200 F 
ATOM     87  C   UNL A   1      43.868  38.205  26.909  1.00  0.00     0.200 A 
ATOM     88  F   UNL A   1      41.537  38.081  26.552  1.00  0.00    -0.200 F 
ATOM     89  F   UNL A   1      43.939  39.314  26.160  1.00  0.00    -0.200 F 
ENDBRANCH  55  79
BRANCH  67  90
ATOM     90  C   UNL A   1      42.915  34.740  35.316  1.00  0.00     0.064 A 
ATOM     91  C   UNL A   1      44.020  35.214  36.039  1.00  0.00     0.173 A 
ATOM     92  C   UNL A   1      41.641  35.184  35.702  1.00  0.00     0.173 A 
ATOM     93  F   UNL A   1      45.259  34.808  35.723  1.00  0.00    -0.203 F 
ATOM     94  C   UNL A   1      43.852  36.078  37.119  1.00  0.00     0.198 A 
ATOM     95  C   UNL A   1      41.480  36.073  36.762  1.00  0.00     0.198 A 
ATOM     96  F   UNL A   1      40.551  34.768  35.041  1.00  0.00    -0.203 F 
ATOM     97  F   UNL A   1      44.918  36.481  37.824  1.00  0.00    -0.200 F 
ATOM     98  C   UNL A   1      42.584  36.513  37.474  1.00  0.00     0.200 A 
ATOM     99  F   UNL A   1      40.254  36.501  37.095  1.00  0.00    -0.200 F 
ATOM    100  F   UNL A   1      42.427  37.351  38.508  1.00  0.00    -0.200 F 
ENDBRANCH  67  90
ENDBRANCH  41  42
ENDBRANCH  34  36
ENDBRANCH  33  34
ENDBRANCH  32  33
ENDBRANCH  31  32
ENDBRANCH  30  31
ENDBRANCH  29  30
ENDBRANCH  28  29
ENDBRANCH  27  28
ENDBRANCH   1  27
TORSDOF 23
ENDMDL
