MODEL 1
REMARK VINA RESULT:      -7.5      0.000      0.000
REMARK SMILES CC(C)(CC(=O)OCCOCCOCCOCCOC(=O)c1ccc(-c2c3nc(c(-c4c(F)c(F)c(F)c(F)c4F)c4ccc([nH]4)c(-c4c(F)c(F)c(F)c(F)c4F)c4nc(c(-c5c(F)c(F)c(F)c(F)c5F)c5ccc2[nH]5)C=C4)C=C3)cc1)Cc1nc([C@@]2(C)CCCO2)no1
REMARK SMILES IDX 12 1 11 2 10 3 9 4 8 5 7 6 5 7 6 8 4 9 2 10 1 11 3 12 85 13
REMARK SMILES IDX 86 14 87 15 96 16 88 17 95 18 89 19 90 20 91 21 94 22 92 23
REMARK SMILES IDX 93 24 13 25 14 26 15 27 16 28 17 29 18 30 19 31 20 32 21 33
REMARK SMILES IDX 22 34 23 35 84 36 24 37 83 38 25 39 26 40 27 41 77 42 28 43
REMARK SMILES IDX 82 44 76 45 78 46 29 47 81 48 75 49 74 50 30 52 62 53 42 54
REMARK SMILES IDX 61 55 43 56 46 57 60 58 79 59 44 60 45 61 59 63 80 64 47 65
REMARK SMILES IDX 31 66 32 67 40 68 33 69 34 70 38 71 41 72 35 73 36 74 39 75
REMARK SMILES IDX 37 76 63 77 64 78 72 79 65 80 66 81 70 82 73 83 67 84 68 85
REMARK SMILES IDX 71 86 69 87 48 88 49 89 57 90 50 91 51 92 55 93 58 94 52 95
REMARK SMILES IDX 53 96 56 97 54 98
REMARK H PARENT 78 51 46 62
REMARK Flexibility Score: inf
ROOT
ATOM      1  C   UNL A   1      45.987  34.564  25.368  1.00  0.00     0.188 C 
ENDROOT
BRANCH   1   2
ATOM      2  C   UNL A   1      45.258  33.289  26.120  1.00  0.00     0.188 C 
BRANCH   2   3
ATOM      3  O   UNL A   1      45.231  31.927  25.770  1.00  0.00    -0.376 OA
BRANCH   3   4
ATOM      4  C   UNL A   1      44.994  30.919  26.740  1.00  0.00     0.202 C 
BRANCH   4   5
ATOM      5  C   UNL A   1      43.590  30.417  27.046  1.00  0.00     0.261 C 
BRANCH   5   6
ATOM      6  O   UNL A   1      43.559  28.987  27.209  1.00  0.00    -0.463 OA
BRANCH   6   7
ATOM      7  C   UNL A   1      43.009  28.297  26.196  1.00  0.00     0.306 C 
ATOM      8  O   UNL A   1      43.611  27.936  25.189  1.00  0.00    -0.252 OA
BRANCH   7   9
ATOM      9  C   UNL A   1      41.542  28.000  26.353  1.00  0.00     0.129 C 
BRANCH   9  10
ATOM     10  C   UNL A   1      40.867  27.394  27.613  1.00  0.00    -0.016 C 
ATOM     11  C   UNL A   1      40.214  28.443  28.524  1.00  0.00     0.012 C 
ATOM     12  C   UNL A   1      39.686  26.557  27.008  1.00  0.00     0.012 C 
BRANCH  10  13
ATOM     13  C   UNL A   1      41.728  26.383  28.432  1.00  0.00     0.107 C 
BRANCH  13  14
ATOM     14  C   UNL A   1      42.230  25.119  27.813  1.00  0.00     0.227 A 
ATOM     15  N   UNL A   1      42.850  24.654  26.443  1.00  0.00    -0.193 NA
ATOM     16  O   UNL A   1      41.887  23.570  28.829  1.00  0.00    -0.339 OA
ATOM     17  C   UNL A   1      43.158  22.828  26.340  1.00  0.00     0.203 A 
ATOM     18  N   UNL A   1      42.547  22.039  27.720  1.00  0.00    -0.059 NA
BRANCH  17  19
ATOM     19  C   UNL A   1      44.330  22.218  25.566  1.00  0.00     0.128 C 
ATOM     20  C   UNL A   1      44.228  20.698  25.357  1.00  0.00     0.051 C 
ATOM     21  C   UNL A   1      44.511  22.855  24.172  1.00  0.00     0.046 C 
ATOM     22  O   UNL A   1      45.593  22.464  26.251  1.00  0.00    -0.367 OA
ATOM     23  C   UNL A   1      46.008  22.864  23.981  1.00  0.00     0.032 C 
ATOM     24  C   UNL A   1      46.460  23.198  25.380  1.00  0.00     0.161 C 
ENDBRANCH  17  19
ENDBRANCH  13  14
ENDBRANCH  10  13
ENDBRANCH   9  10
ENDBRANCH   7   9
ENDBRANCH   6   7
ENDBRANCH   5   6
ENDBRANCH   4   5
ENDBRANCH   3   4
ENDBRANCH   2   3
ENDBRANCH   1   2
BRANCH   1  25
ATOM     25  O   UNL A   1      46.977  36.268  26.082  1.00  0.00    -0.377 OA
BRANCH  25  26
ATOM     26  C   UNL A   1      46.742  37.767  26.110  1.00  0.00     0.188 C 
BRANCH  26  27
ATOM     27  C   UNL A   1      47.657  38.766  25.351  1.00  0.00     0.188 C 
BRANCH  27  28
ATOM     28  O   UNL A   1      47.345  40.127  25.651  1.00  0.00    -0.376 OA
BRANCH  28  29
ATOM     29  C   UNL A   1      46.326  40.648  24.801  1.00  0.00     0.202 C 
BRANCH  29  30
ATOM     30  C   UNL A   1      45.220  41.377  25.579  1.00  0.00     0.261 C 
BRANCH  30  31
ATOM     31  O   UNL A   1      44.219  40.496  26.113  1.00  0.00    -0.460 OA
BRANCH  31  32
ATOM     32  C   UNL A   1      44.083  40.568  27.459  1.00  0.00     0.338 C 
ATOM     33  O   UNL A   1      44.292  41.529  28.180  1.00  0.00    -0.246 OA
BRANCH  32  34
ATOM     34  C   UNL A   1      43.589  39.280  27.973  1.00  0.00     0.060 A 
ATOM     35  C   UNL A   1      43.623  39.040  29.351  1.00  0.00     0.016 A 
ATOM     36  C   UNL A   1      43.255  38.261  27.078  1.00  0.00     0.016 A 
ATOM     37  C   UNL A   1      43.386  37.754  29.839  1.00  0.00     0.010 A 
ATOM     38  C   UNL A   1      43.041  36.968  27.565  1.00  0.00     0.010 A 
ATOM     39  C   UNL A   1      43.168  36.700  28.940  1.00  0.00    -0.014 A 
BRANCH  39  40
ATOM     40  C   UNL A   1      43.380  35.302  29.400  1.00  0.00     0.031 A 
ATOM     41  C   UNL A   1      42.166  34.504  29.802  1.00  0.00     0.074 A 
ATOM     42  C   UNL A   1      44.597  34.733  29.427  1.00  0.00     0.049 A 
ATOM     43  N   UNL A   1      42.081  33.285  30.269  1.00  0.00    -0.248 NA
ATOM     44  C   UNL A   1      40.865  35.180  29.651  1.00  0.00     0.031 C 
ATOM     45  C   UNL A   1      45.841  35.372  29.009  1.00  0.00     0.029 A 
ATOM     46  N   UNL A   1      44.979  33.475  29.827  1.00  0.00    -0.354 N 
ATOM     47  C   UNL A   1      40.725  33.051  30.470  1.00  0.00     0.074 A 
ATOM     48  C   UNL A   1      40.026  34.263  30.103  1.00  0.00     0.031 C 
ATOM     49  C   UNL A   1      46.854  34.503  29.182  1.00  0.00     0.029 A 
ATOM     50  C   UNL A   1      46.333  33.260  29.753  1.00  0.00     0.049 A 
ATOM     51  H   UNL A   1      44.341  32.793  30.138  1.00  0.00     0.167 HD
ATOM     52  C   UNL A   1      40.113  31.927  30.912  1.00  0.00     0.037 A 
ATOM     53  C   UNL A   1      47.063  32.189  30.122  1.00  0.00     0.037 A 
ATOM     54  C   UNL A   1      40.806  30.724  31.287  1.00  0.00     0.049 A 
ATOM     55  C   UNL A   1      46.365  30.975  30.689  1.00  0.00     0.074 A 
ATOM     56  C   UNL A   1      40.280  29.536  31.763  1.00  0.00     0.029 A 
ATOM     57  N   UNL A   1      42.182  30.559  31.235  1.00  0.00    -0.354 N 
ATOM     58  N   UNL A   1      45.084  30.761  30.875  1.00  0.00    -0.248 NA
ATOM     59  C   UNL A   1      47.221  29.849  31.092  1.00  0.00     0.031 C 
ATOM     60  C   UNL A   1      41.342  28.671  32.049  1.00  0.00     0.029 A 
ATOM     61  C   UNL A   1      42.526  29.296  31.690  1.00  0.00     0.049 A 
ATOM     62  H   UNL A   1      42.821  31.239  30.921  1.00  0.00     0.167 HD
ATOM     63  C   UNL A   1      44.979  29.471  31.383  1.00  0.00     0.074 A 
ATOM     64  C   UNL A   1      46.325  28.944  31.458  1.00  0.00     0.031 C 
ATOM     65  C   UNL A   1      43.870  28.782  31.752  1.00  0.00     0.037 A 
BRANCH  52  66
ATOM     66  C   UNL A   1      38.618  31.968  31.053  1.00  0.00     0.064 A 
ATOM     67  C   UNL A   1      37.998  32.413  32.231  1.00  0.00     0.173 A 
ATOM     68  C   UNL A   1      37.796  31.563  29.992  1.00  0.00     0.173 A 
ATOM     69  F   UNL A   1      38.739  32.795  33.282  1.00  0.00    -0.203 F 
ATOM     70  C   UNL A   1      36.610  32.420  32.351  1.00  0.00     0.198 A 
ATOM     71  C   UNL A   1      36.408  31.600  30.104  1.00  0.00     0.198 A 
ATOM     72  F   UNL A   1      38.337  31.130  28.843  1.00  0.00    -0.203 F 
ATOM     73  F   UNL A   1      36.041  32.795  33.505  1.00  0.00    -0.200 F 
ATOM     74  C   UNL A   1      35.817  32.020  31.286  1.00  0.00     0.200 A 
ATOM     75  F   UNL A   1      35.644  31.226  29.068  1.00  0.00    -0.200 F 
ATOM     76  F   UNL A   1      34.482  32.029  31.402  1.00  0.00    -0.200 F 
ENDBRANCH  52  66
BRANCH  53  77
ATOM     77  C   UNL A   1      48.545  32.208  29.985  1.00  0.00     0.064 A 
ATOM     78  C   UNL A   1      49.172  31.791  28.802  1.00  0.00     0.173 A 
ATOM     79  C   UNL A   1      49.367  32.602  31.051  1.00  0.00     0.173 A 
ATOM     80  F   UNL A   1      48.433  31.374  27.764  1.00  0.00    -0.203 F 
ATOM     81  C   UNL A   1      50.561  31.743  28.700  1.00  0.00     0.198 A 
ATOM     82  C   UNL A   1      50.755  32.587  30.937  1.00  0.00     0.198 A 
ATOM     83  F   UNL A   1      48.821  33.003  32.209  1.00  0.00    -0.203 F 
ATOM     84  F   UNL A   1      51.134  31.283  27.579  1.00  0.00    -0.200 F 
ATOM     85  C   UNL A   1      51.352  32.147  29.765  1.00  0.00     0.200 A 
ATOM     86  F   UNL A   1      51.515  32.985  31.966  1.00  0.00    -0.200 F 
ATOM     87  F   UNL A   1      52.688  32.099  29.668  1.00  0.00    -0.200 F 
ENDBRANCH  53  77
BRANCH  65  88
ATOM     88  C   UNL A   1      44.062  27.367  32.226  1.00  0.00     0.064 A 
ATOM     89  C   UNL A   1      44.284  26.308  31.333  1.00  0.00     0.173 A 
ATOM     90  C   UNL A   1      44.040  27.071  33.598  1.00  0.00     0.173 A 
ATOM     91  F   UNL A   1      44.305  26.533  30.010  1.00  0.00    -0.203 F 
ATOM     92  C   UNL A   1      44.431  25.002  31.793  1.00  0.00     0.198 A 
ATOM     93  C   UNL A   1      44.226  25.770  34.056  1.00  0.00     0.198 A 
ATOM     94  F   UNL A   1      43.844  28.047  34.498  1.00  0.00    -0.203 F 
ATOM     95  F   UNL A   1      44.576  23.997  30.916  1.00  0.00    -0.200 F 
ATOM     96  C   UNL A   1      44.407  24.733  33.153  1.00  0.00     0.200 A 
ATOM     97  F   UNL A   1      44.219  25.517  35.373  1.00  0.00    -0.200 F 
ATOM     98  F   UNL A   1      44.550  23.476  33.593  1.00  0.00    -0.200 F 
ENDBRANCH  65  88
ENDBRANCH  39  40
ENDBRANCH  32  34
ENDBRANCH  31  32
ENDBRANCH  30  31
ENDBRANCH  29  30
ENDBRANCH  28  29
ENDBRANCH  27  28
ENDBRANCH  26  27
ENDBRANCH  25  26
ENDBRANCH   1  25
TORSDOF 24
ENDMDL
MODEL 2
REMARK VINA RESULT:      -7.3      4.915     11.591
REMARK SMILES CC(C)(CC(=O)OCCOCCOCCOCCOC(=O)c1ccc(-c2c3nc(c(-c4c(F)c(F)c(F)c(F)c4F)c4ccc([nH]4)c(-c4c(F)c(F)c(F)c(F)c4F)c4nc(c(-c5c(F)c(F)c(F)c(F)c5F)c5ccc2[nH]5)C=C4)C=C3)cc1)Cc1nc([C@@]2(C)CCCO2)no1
REMARK SMILES IDX 12 1 11 2 10 3 9 4 8 5 7 6 5 7 6 8 4 9 2 10 1 11 3 12 85 13
REMARK SMILES IDX 86 14 87 15 96 16 88 17 95 18 89 19 90 20 91 21 94 22 92 23
REMARK SMILES IDX 93 24 13 25 14 26 15 27 16 28 17 29 18 30 19 31 20 32 21 33
REMARK SMILES IDX 22 34 23 35 84 36 24 37 83 38 25 39 26 40 27 41 77 42 28 43
REMARK SMILES IDX 82 44 76 45 78 46 29 47 81 48 75 49 74 50 30 52 62 53 42 54
REMARK SMILES IDX 61 55 43 56 46 57 60 58 79 59 44 60 45 61 59 63 80 64 47 65
REMARK SMILES IDX 31 66 32 67 40 68 33 69 34 70 38 71 41 72 35 73 36 74 39 75
REMARK SMILES IDX 37 76 63 77 64 78 72 79 65 80 66 81 70 82 73 83 67 84 68 85
REMARK SMILES IDX 71 86 69 87 48 88 49 89 57 90 50 91 51 92 55 93 58 94 52 95
REMARK SMILES IDX 53 96 56 97 54 98
REMARK H PARENT 78 51 46 62
REMARK Flexibility Score: inf
ROOT
ATOM      1  C   UNL A   1      40.798  27.906  27.103  1.00  0.00     0.188 C 
ENDROOT
BRANCH   1   2
ATOM      2  C   UNL A   1      41.344  29.014  28.196  1.00  0.00     0.188 C 
BRANCH   2   3
ATOM      3  O   UNL A   1      40.631  29.823  29.098  1.00  0.00    -0.376 OA
BRANCH   3   4
ATOM      4  C   UNL A   1      39.255  29.598  29.364  1.00  0.00     0.202 C 
BRANCH   4   5
ATOM      5  C   UNL A   1      38.212  30.689  29.170  1.00  0.00     0.261 C 
BRANCH   5   6
ATOM      6  O   UNL A   1      38.257  31.664  30.228  1.00  0.00    -0.463 OA
BRANCH   6   7
ATOM      7  C   UNL A   1      37.850  32.901  29.899  1.00  0.00     0.306 C 
ATOM      8  O   UNL A   1      37.976  33.404  28.786  1.00  0.00    -0.252 OA
BRANCH   7   9
ATOM      9  C   UNL A   1      37.231  33.686  31.025  1.00  0.00     0.129 C 
BRANCH   9  10
ATOM     10  C   UNL A   1      35.756  33.592  31.494  1.00  0.00    -0.016 C 
ATOM     11  C   UNL A   1      35.376  32.215  32.057  1.00  0.00     0.012 C 
ATOM     12  C   UNL A   1      35.713  34.580  32.712  1.00  0.00     0.012 C 
BRANCH  10  13
ATOM     13  C   UNL A   1      34.682  34.112  30.488  1.00  0.00     0.107 C 
BRANCH  13  14
ATOM     14  C   UNL A   1      34.164  33.237  29.393  1.00  0.00     0.227 A 
ATOM     15  N   UNL A   1      34.642  31.981  28.575  1.00  0.00    -0.193 NA
ATOM     16  O   UNL A   1      32.579  33.863  28.589  1.00  0.00    -0.339 OA
ATOM     17  C   UNL A   1      33.465  31.465  27.236  1.00  0.00     0.203 A 
ATOM     18  N   UNL A   1      32.188  32.582  27.099  1.00  0.00    -0.059 NA
BRANCH  17  19
ATOM     19  C   UNL A   1      33.255  30.006  26.823  1.00  0.00     0.128 C 
ATOM     20  C   UNL A   1      34.310  29.033  27.378  1.00  0.00     0.051 C 
ATOM     21  C   UNL A   1      31.874  29.465  27.250  1.00  0.00     0.046 C 
ATOM     22  O   UNL A   1      33.276  29.865  25.373  1.00  0.00    -0.367 OA
ATOM     23  C   UNL A   1      31.494  28.539  26.120  1.00  0.00     0.032 C 
ATOM     24  C   UNL A   1      32.026  29.314  24.941  1.00  0.00     0.161 C 
ENDBRANCH  17  19
ENDBRANCH  13  14
ENDBRANCH  10  13
ENDBRANCH   9  10
ENDBRANCH   7   9
ENDBRANCH   6   7
ENDBRANCH   5   6
ENDBRANCH   4   5
ENDBRANCH   3   4
ENDBRANCH   2   3
ENDBRANCH   1   2
BRANCH   1  25
ATOM     25  O   UNL A   1      40.020  25.970  27.297  1.00  0.00    -0.377 OA
BRANCH  25  26
ATOM     26  C   UNL A   1      39.861  24.736  26.427  1.00  0.00     0.188 C 
BRANCH  26  27
ATOM     27  C   UNL A   1      39.364  23.378  26.994  1.00  0.00     0.188 C 
BRANCH  27  28
ATOM     28  O   UNL A   1      40.311  22.327  26.798  1.00  0.00    -0.376 OA
BRANCH  28  29
ATOM     29  C   UNL A   1      41.528  22.796  26.220  1.00  0.00     0.202 C 
BRANCH  29  30
ATOM     30  C   UNL A   1      42.731  21.907  26.569  1.00  0.00     0.261 C 
BRANCH  30  31
ATOM     31  O   UNL A   1      43.808  22.621  27.195  1.00  0.00    -0.460 OA
BRANCH  31  32
ATOM     32  C   UNL A   1      44.846  22.891  26.366  1.00  0.00     0.338 C 
ATOM     33  O   UNL A   1      45.458  22.110  25.659  1.00  0.00    -0.246 OA
BRANCH  32  34
ATOM     34  C   UNL A   1      45.138  24.334  26.399  1.00  0.00     0.060 A 
ATOM     35  C   UNL A   1      45.225  25.036  25.192  1.00  0.00     0.016 A 
ATOM     36  C   UNL A   1      45.487  24.942  27.607  1.00  0.00     0.016 A 
ATOM     37  C   UNL A   1      45.728  26.337  25.180  1.00  0.00     0.010 A 
ATOM     38  C   UNL A   1      46.014  26.236  27.592  1.00  0.00     0.010 A 
ATOM     39  C   UNL A   1      46.194  26.913  26.371  1.00  0.00    -0.014 A 
BRANCH  39  40
ATOM     40  C   UNL A   1      47.132  28.064  26.300  1.00  0.00     0.031 A 
ATOM     41  C   UNL A   1      46.568  29.444  26.527  1.00  0.00     0.074 A 
ATOM     42  C   UNL A   1      48.449  27.903  26.083  1.00  0.00     0.049 A 
ATOM     43  N   UNL A   1      47.162  30.609  26.485  1.00  0.00    -0.248 NA
ATOM     44  C   UNL A   1      45.132  29.513  26.850  1.00  0.00     0.031 C 
ATOM     45  C   UNL A   1      49.129  26.624  25.908  1.00  0.00     0.029 A 
ATOM     46  N   UNL A   1      49.450  28.839  25.975  1.00  0.00    -0.354 N 
ATOM     47  C   UNL A   1      46.175  31.545  26.771  1.00  0.00     0.074 A 
ATOM     48  C   UNL A   1      44.939  30.817  26.956  1.00  0.00     0.031 C 
ATOM     49  C   UNL A   1      50.439  26.854  25.706  1.00  0.00     0.029 A 
ATOM     50  C   UNL A   1      50.682  28.297  25.705  1.00  0.00     0.049 A 
ATOM     51  H   UNL A   1      49.297  29.805  26.080  1.00  0.00     0.167 HD
ATOM     52  C   UNL A   1      46.285  32.891  26.879  1.00  0.00     0.037 A 
ATOM     53  C   UNL A   1      51.863  28.904  25.468  1.00  0.00     0.037 A 
ATOM     54  C   UNL A   1      47.511  33.619  26.686  1.00  0.00     0.049 A 
ATOM     55  C   UNL A   1      51.945  30.411  25.515  1.00  0.00     0.074 A 
ATOM     56  C   UNL A   1      47.726  34.984  26.757  1.00  0.00     0.029 A 
ATOM     57  N   UNL A   1      48.731  33.037  26.375  1.00  0.00    -0.354 N 
ATOM     58  N   UNL A   1      51.009  31.289  25.786  1.00  0.00    -0.248 NA
ATOM     59  C   UNL A   1      53.257  31.010  25.225  1.00  0.00     0.031 C 
ATOM     60  C   UNL A   1      49.065  35.233  26.437  1.00  0.00     0.029 A 
ATOM     61  C   UNL A   1      49.700  34.018  26.230  1.00  0.00     0.049 A 
ATOM     62  H   UNL A   1      48.887  32.071  26.272  1.00  0.00     0.167 HD
ATOM     63  C   UNL A   1      51.624  32.536  25.734  1.00  0.00     0.074 A 
ATOM     64  C   UNL A   1      53.017  32.298  25.422  1.00  0.00     0.031 C 
ATOM     65  C   UNL A   1      51.086  33.766  25.927  1.00  0.00     0.037 A 
BRANCH  52  66
ATOM     66  C   UNL A   1      45.032  33.662  27.180  1.00  0.00     0.064 A 
ATOM     67  C   UNL A   1      44.594  33.878  28.496  1.00  0.00     0.173 A 
ATOM     68  C   UNL A   1      44.263  34.197  26.137  1.00  0.00     0.173 A 
ATOM     69  F   UNL A   1      45.284  33.372  29.530  1.00  0.00    -0.203 F 
ATOM     70  C   UNL A   1      43.415  34.575  28.754  1.00  0.00     0.198 A 
ATOM     71  C   UNL A   1      43.101  34.920  26.399  1.00  0.00     0.198 A 
ATOM     72  F   UNL A   1      44.637  34.021  24.861  1.00  0.00    -0.203 F 
ATOM     73  F   UNL A   1      42.987  34.721  30.015  1.00  0.00    -0.200 F 
ATOM     74  C   UNL A   1      42.674  35.100  27.705  1.00  0.00     0.200 A 
ATOM     75  F   UNL A   1      42.394  35.438  25.385  1.00  0.00    -0.200 F 
ATOM     76  F   UNL A   1      41.542  35.772  27.954  1.00  0.00    -0.200 F 
ENDBRANCH  52  66
BRANCH  53  77
ATOM     77  C   UNL A   1      53.070  28.094  25.149  1.00  0.00     0.064 A 
ATOM     78  C   UNL A   1      53.898  27.591  26.164  1.00  0.00     0.173 A 
ATOM     79  C   UNL A   1      53.448  27.846  23.821  1.00  0.00     0.173 A 
ATOM     80  F   UNL A   1      53.600  27.827  27.449  1.00  0.00    -0.203 F 
ATOM     81  C   UNL A   1      55.066  26.893  25.861  1.00  0.00     0.198 A 
ATOM     82  C   UNL A   1      54.597  27.119  23.520  1.00  0.00     0.198 A 
ATOM     83  F   UNL A   1      52.697  28.311  22.811  1.00  0.00    -0.203 F 
ATOM     84  F   UNL A   1      55.869  26.475  26.850  1.00  0.00    -0.200 F 
ATOM     85  C   UNL A   1      55.411  26.652  24.540  1.00  0.00     0.200 A 
ATOM     86  F   UNL A   1      54.923  26.882  22.242  1.00  0.00    -0.200 F 
ATOM     87  F   UNL A   1      56.536  25.983  24.250  1.00  0.00    -0.200 F 
ENDBRANCH  53  77
BRANCH  65  88
ATOM     88  C   UNL A   1      52.016  34.946  25.855  1.00  0.00     0.064 A 
ATOM     89  C   UNL A   1      52.750  35.383  26.967  1.00  0.00     0.173 A 
ATOM     90  C   UNL A   1      52.187  35.639  24.645  1.00  0.00     0.173 A 
ATOM     91  F   UNL A   1      52.618  34.763  28.150  1.00  0.00    -0.203 F 
ATOM     92  C   UNL A   1      53.585  36.495  26.884  1.00  0.00     0.198 A 
ATOM     93  C   UNL A   1      53.051  36.727  24.556  1.00  0.00     0.198 A 
ATOM     94  F   UNL A   1      51.520  35.257  23.546  1.00  0.00    -0.203 F 
ATOM     95  F   UNL A   1      54.226  36.933  27.977  1.00  0.00    -0.200 F 
ATOM     96  C   UNL A   1      53.740  37.163  25.678  1.00  0.00     0.200 A 
ATOM     97  F   UNL A   1      53.211  37.359  23.385  1.00  0.00    -0.200 F 
ATOM     98  F   UNL A   1      54.543  38.231  25.600  1.00  0.00    -0.200 F 
ENDBRANCH  65  88
ENDBRANCH  39  40
ENDBRANCH  32  34
ENDBRANCH  31  32
ENDBRANCH  30  31
ENDBRANCH  29  30
ENDBRANCH  28  29
ENDBRANCH  27  28
ENDBRANCH  26  27
ENDBRANCH  25  26
ENDBRANCH   1  25
TORSDOF 24
ENDMDL
MODEL 3
REMARK VINA RESULT:      -7.3      5.289     11.993
REMARK SMILES CC(C)(CC(=O)OCCOCCOCCOCCOC(=O)c1ccc(-c2c3nc(c(-c4c(F)c(F)c(F)c(F)c4F)c4ccc([nH]4)c(-c4c(F)c(F)c(F)c(F)c4F)c4nc(c(-c5c(F)c(F)c(F)c(F)c5F)c5ccc2[nH]5)C=C4)C=C3)cc1)Cc1nc([C@@]2(C)CCCO2)no1
REMARK SMILES IDX 12 1 11 2 10 3 9 4 8 5 7 6 5 7 6 8 4 9 2 10 1 11 3 12 85 13
REMARK SMILES IDX 86 14 87 15 96 16 88 17 95 18 89 19 90 20 91 21 94 22 92 23
REMARK SMILES IDX 93 24 13 25 14 26 15 27 16 28 17 29 18 30 19 31 20 32 21 33
REMARK SMILES IDX 22 34 23 35 84 36 24 37 83 38 25 39 26 40 27 41 77 42 28 43
REMARK SMILES IDX 82 44 76 45 78 46 29 47 81 48 75 49 74 50 30 52 62 53 42 54
REMARK SMILES IDX 61 55 43 56 46 57 60 58 79 59 44 60 45 61 59 63 80 64 47 65
REMARK SMILES IDX 31 66 32 67 40 68 33 69 34 70 38 71 41 72 35 73 36 74 39 75
REMARK SMILES IDX 37 76 63 77 64 78 72 79 65 80 66 81 70 82 73 83 67 84 68 85
REMARK SMILES IDX 71 86 69 87 48 88 49 89 57 90 50 91 51 92 55 93 58 94 52 95
REMARK SMILES IDX 53 96 56 97 54 98
REMARK H PARENT 78 51 46 62
REMARK Flexibility Score: inf
ROOT
ATOM      1  C   UNL A   1      41.864  22.211  25.784  1.00  0.00     0.188 C 
ENDROOT
BRANCH   1   2
ATOM      2  C   UNL A   1      40.622  21.720  26.753  1.00  0.00     0.188 C 
BRANCH   2   3
ATOM      3  O   UNL A   1      39.250  22.018  26.685  1.00  0.00    -0.376 OA
BRANCH   3   4
ATOM      4  C   UNL A   1      38.792  23.334  26.416  1.00  0.00     0.202 C 
BRANCH   4   5
ATOM      5  C   UNL A   1      37.521  23.592  25.619  1.00  0.00     0.261 C 
BRANCH   5   6
ATOM      6  O   UNL A   1      36.580  22.511  25.749  1.00  0.00    -0.463 OA
BRANCH   6   7
ATOM      7  C   UNL A   1      35.706  22.374  24.739  1.00  0.00     0.306 C 
ATOM      8  O   UNL A   1      36.010  22.359  23.549  1.00  0.00    -0.252 OA
BRANCH   7   9
ATOM      9  C   UNL A   1      34.264  22.265  25.158  1.00  0.00     0.129 C 
BRANCH   9  10
ATOM     10  C   UNL A   1      33.177  21.407  24.458  1.00  0.00    -0.016 C 
ATOM     11  C   UNL A   1      33.499  19.906  24.436  1.00  0.00     0.012 C 
ATOM     12  C   UNL A   1      31.941  21.567  25.410  1.00  0.00     0.012 C 
BRANCH  10  13
ATOM     13  C   UNL A   1      32.704  21.909  23.059  1.00  0.00     0.107 C 
BRANCH  13  14
ATOM     14  C   UNL A   1      32.641  23.368  22.744  1.00  0.00     0.227 A 
ATOM     15  N   UNL A   1      31.939  24.658  23.311  1.00  0.00    -0.193 NA
ATOM     16  O   UNL A   1      33.458  23.843  21.114  1.00  0.00    -0.339 OA
ATOM     17  C   UNL A   1      32.254  26.186  22.307  1.00  0.00     0.203 A 
ATOM     18  N   UNL A   1      33.121  25.805  20.893  1.00  0.00    -0.059 NA
BRANCH  17  19
ATOM     19  C   UNL A   1      32.368  27.583  22.923  1.00  0.00     0.128 C 
ATOM     20  C   UNL A   1      33.572  28.399  22.420  1.00  0.00     0.051 C 
ATOM     21  C   UNL A   1      31.108  28.441  22.680  1.00  0.00     0.046 C 
ATOM     22  O   UNL A   1      32.490  27.506  24.373  1.00  0.00    -0.367 OA
ATOM     23  C   UNL A   1      30.984  29.250  23.948  1.00  0.00     0.032 C 
ATOM     24  C   UNL A   1      31.403  28.224  24.970  1.00  0.00     0.161 C 
ENDBRANCH  17  19
ENDBRANCH  13  14
ENDBRANCH  10  13
ENDBRANCH   9  10
ENDBRANCH   7   9
ENDBRANCH   6   7
ENDBRANCH   5   6
ENDBRANCH   4   5
ENDBRANCH   3   4
ENDBRANCH   2   3
ENDBRANCH   1   2
BRANCH   1  25
ATOM     25  O   UNL A   1      43.598  21.260  25.091  1.00  0.00    -0.377 OA
BRANCH  25  26
ATOM     26  C   UNL A   1      45.024  21.648  24.743  1.00  0.00     0.188 C 
BRANCH  26  27
ATOM     27  C   UNL A   1      45.377  23.008  24.082  1.00  0.00     0.188 C 
BRANCH  27  28
ATOM     28  O   UNL A   1      44.831  24.119  24.796  1.00  0.00    -0.376 OA
BRANCH  28  29
ATOM     29  C   UNL A   1      45.308  24.185  26.138  1.00  0.00     0.202 C 
BRANCH  29  30
ATOM     30  C   UNL A   1      45.232  25.603  26.724  1.00  0.00     0.261 C 
BRANCH  30  31
ATOM     31  O   UNL A   1      44.772  25.636  28.085  1.00  0.00    -0.460 OA
BRANCH  31  32
ATOM     32  C   UNL A   1      43.424  25.604  28.212  1.00  0.00     0.338 C 
ATOM     33  O   UNL A   1      42.650  24.780  27.755  1.00  0.00    -0.246 OA
BRANCH  32  34
ATOM     34  C   UNL A   1      42.983  26.732  29.048  1.00  0.00     0.060 A 
ATOM     35  C   UNL A   1      42.176  27.725  28.479  1.00  0.00     0.016 A 
ATOM     36  C   UNL A   1      43.505  26.887  30.334  1.00  0.00     0.016 A 
ATOM     37  C   UNL A   1      41.942  28.912  29.173  1.00  0.00     0.010 A 
ATOM     38  C   UNL A   1      43.291  28.086  31.018  1.00  0.00     0.010 A 
ATOM     39  C   UNL A   1      42.561  29.126  30.413  1.00  0.00    -0.014 A 
BRANCH  39  40
ATOM     40  C   UNL A   1      42.702  30.516  30.921  1.00  0.00     0.031 A 
ATOM     41  C   UNL A   1      43.778  31.379  30.312  1.00  0.00     0.074 A 
ATOM     42  C   UNL A   1      41.887  31.022  31.861  1.00  0.00     0.049 A 
ATOM     43  N   UNL A   1      44.130  32.606  30.598  1.00  0.00    -0.248 NA
ATOM     44  C   UNL A   1      44.562  30.768  29.224  1.00  0.00     0.031 C 
ATOM     45  C   UNL A   1      40.773  30.316  32.487  1.00  0.00     0.029 A 
ATOM     46  N   UNL A   1      41.877  32.264  32.451  1.00  0.00    -0.354 N 
ATOM     47  C   UNL A   1      45.174  32.911  29.732  1.00  0.00     0.074 A 
ATOM     48  C   UNL A   1      45.419  31.732  28.930  1.00  0.00     0.031 C 
ATOM     49  C   UNL A   1      40.190  31.134  33.382  1.00  0.00     0.029 A 
ATOM     50  C   UNL A   1      40.909  32.408  33.414  1.00  0.00     0.049 A 
ATOM     51  H   UNL A   1      42.505  32.981  32.206  1.00  0.00     0.167 HD
ATOM     52  C   UNL A   1      45.864  34.069  29.606  1.00  0.00     0.037 A 
ATOM     53  C   UNL A   1      40.651  33.445  34.236  1.00  0.00     0.037 A 
ATOM     54  C   UNL A   1      45.630  35.240  30.410  1.00  0.00     0.049 A 
ATOM     55  C   UNL A   1      41.487  34.699  34.133  1.00  0.00     0.074 A 
ATOM     56  C   UNL A   1      46.284  36.459  30.373  1.00  0.00     0.029 A 
ATOM     57  N   UNL A   1      44.666  35.334  31.403  1.00  0.00    -0.354 N 
ATOM     58  N   UNL A   1      42.471  34.980  33.312  1.00  0.00    -0.248 NA
ATOM     59  C   UNL A   1      41.169  35.784  35.074  1.00  0.00     0.031 C 
ATOM     60  C   UNL A   1      45.753  37.271  31.380  1.00  0.00     0.029 A 
ATOM     61  C   UNL A   1      44.722  36.582  32.001  1.00  0.00     0.049 A 
ATOM     62  H   UNL A   1      44.035  34.619  31.647  1.00  0.00     0.167 HD
ATOM     63  C   UNL A   1      42.864  36.279  33.614  1.00  0.00     0.074 A 
ATOM     64  C   UNL A   1      42.000  36.737  34.680  1.00  0.00     0.031 C 
ATOM     65  C   UNL A   1      43.850  37.028  33.057  1.00  0.00     0.037 A 
BRANCH  52  66
ATOM     66  C   UNL A   1      46.968  34.106  28.589  1.00  0.00     0.064 A 
ATOM     67  C   UNL A   1      46.758  34.583  27.285  1.00  0.00     0.173 A 
ATOM     68  C   UNL A   1      48.255  33.663  28.925  1.00  0.00     0.173 A 
ATOM     69  F   UNL A   1      45.541  35.002  26.907  1.00  0.00    -0.203 F 
ATOM     70  C   UNL A   1      47.788  34.586  26.348  1.00  0.00     0.198 A 
ATOM     71  C   UNL A   1      49.291  33.696  27.995  1.00  0.00     0.198 A 
ATOM     72  F   UNL A   1      48.511  33.199  30.157  1.00  0.00    -0.203 F 
ATOM     73  F   UNL A   1      47.551  34.993  25.094  1.00  0.00    -0.200 F 
ATOM     74  C   UNL A   1      49.056  34.148  26.706  1.00  0.00     0.200 A 
ATOM     75  F   UNL A   1      50.518  33.285  28.347  1.00  0.00    -0.200 F 
ATOM     76  F   UNL A   1      50.047  34.153  25.804  1.00  0.00    -0.200 F 
ENDBRANCH  52  66
BRANCH  53  77
ATOM     77  C   UNL A   1      39.562  33.348  35.246  1.00  0.00     0.064 A 
ATOM     78  C   UNL A   1      38.239  33.682  34.922  1.00  0.00     0.173 A 
ATOM     79  C   UNL A   1      39.829  32.963  36.568  1.00  0.00     0.173 A 
ATOM     80  F   UNL A   1      37.935  34.088  33.681  1.00  0.00    -0.203 F 
ATOM     81  C   UNL A   1      37.233  33.659  35.887  1.00  0.00     0.198 A 
ATOM     82  C   UNL A   1      38.817  32.907  37.523  1.00  0.00     0.198 A 
ATOM     83  F   UNL A   1      41.079  32.641  36.934  1.00  0.00    -0.203 F 
ATOM     84  F   UNL A   1      35.989  34.041  35.565  1.00  0.00    -0.200 F 
ATOM     85  C   UNL A   1      37.521  33.265  37.185  1.00  0.00     0.200 A 
ATOM     86  F   UNL A   1      39.099  32.518  38.774  1.00  0.00    -0.200 F 
ATOM     87  F   UNL A   1      36.554  33.244  38.112  1.00  0.00    -0.200 F 
ENDBRANCH  53  77
BRANCH  65  88
ATOM     88  C   UNL A   1      44.015  38.437  33.559  1.00  0.00     0.064 A 
ATOM     89  C   UNL A   1      44.695  38.726  34.752  1.00  0.00     0.173 A 
ATOM     90  C   UNL A   1      43.498  39.514  32.823  1.00  0.00     0.173 A 
ATOM     91  F   UNL A   1      45.201  37.733  35.499  1.00  0.00    -0.203 F 
ATOM     92  C   UNL A   1      44.812  40.036  35.211  1.00  0.00     0.198 A 
ATOM     93  C   UNL A   1      43.649  40.826  33.266  1.00  0.00     0.198 A 
ATOM     94  F   UNL A   1      42.849  39.298  31.669  1.00  0.00    -0.203 F 
ATOM     95  F   UNL A   1      45.408  40.281  36.386  1.00  0.00    -0.200 F 
ATOM     96  C   UNL A   1      44.294  41.085  34.466  1.00  0.00     0.200 A 
ATOM     97  F   UNL A   1      43.162  41.839  32.535  1.00  0.00    -0.200 F 
ATOM     98  F   UNL A   1      44.407  42.344  34.909  1.00  0.00    -0.200 F 
ENDBRANCH  65  88
ENDBRANCH  39  40
ENDBRANCH  32  34
ENDBRANCH  31  32
ENDBRANCH  30  31
ENDBRANCH  29  30
ENDBRANCH  28  29
ENDBRANCH  27  28
ENDBRANCH  26  27
ENDBRANCH  25  26
ENDBRANCH   1  25
TORSDOF 24
ENDMDL
