MODEL 1
REMARK VINA RESULT:     -11.2      0.000      0.000
REMARK SMILES Cc1oc2cc3c(cc2c1C)[C@H](C)[C@@H](CC(=O)N[C@H](CC1=c2ccccc2=NC1)C(=O)OCCOCCOCCOCCOC(=O)c1ccc(-c2c4nc(c(-c5c(F)c(F)c(F)c(F)c5F)c5ccc([nH]5)c(-c5c(F)c(F)c(F)c(F)c5F)c5nc(c(-c6c(F)c(F)c(F)c(F)c6F)c6ccc2[nH]6)C=C5)C=C4)cc1)C(=O)O3
REMARK SMILES IDX 37 1 36 2 35 3 34 4 33 5 32 6 30 7 31 8 19 9 18 10 16 11
REMARK SMILES IDX 17 12 15 14 14 15 1 16 2 17 3 18 10 19 4 20 9 21 11 22 5 23
REMARK SMILES IDX 8 24 6 25 7 26 112 27 12 28 110 29 13 30 111 31 20 32 21 33
REMARK SMILES IDX 22 34 29 35 23 36 27 37 28 38 24 39 26 40 25 41 38 42 39 43
REMARK SMILES IDX 40 44 41 45 42 46 43 47 44 48 45 49 46 50 47 51 48 52 109 53
REMARK SMILES IDX 49 54 108 55 50 56 51 57 52 58 102 59 53 60 107 61 101 62
REMARK SMILES IDX 103 63 54 64 106 65 100 66 99 67 55 69 87 70 67 71 86 72
REMARK SMILES IDX 68 73 71 74 85 75 104 76 69 77 70 78 84 80 105 81 72 82
REMARK SMILES IDX 56 83 57 84 65 85 58 86 59 87 63 88 66 89 60 90 61 91 64 92
REMARK SMILES IDX 62 93 88 94 89 95 97 96 90 97 91 98 95 99 98 100 92 101
REMARK SMILES IDX 93 102 96 103 94 104 73 105 74 106 82 107 75 108 76 109
REMARK SMILES IDX 80 110 83 111 77 112 78 113 81 114 79 115
REMARK H PARENT 18 13 103 68 71 79
REMARK Flexibility Score: inf
ROOT
ATOM      1  C   UNL A   1      46.512  24.476  26.395  1.00  0.00     0.188 C 
ENDROOT
BRANCH   1   2
ATOM      2  C   UNL A   1      45.324  23.818  27.048  1.00  0.00     0.188 C 
BRANCH   2   3
ATOM      3  O   UNL A   1      44.982  22.469  26.785  1.00  0.00    -0.376 OA
BRANCH   3   4
ATOM      4  C   UNL A   1      44.306  22.102  25.590  1.00  0.00     0.202 C 
BRANCH   4   5
ATOM      5  C   UNL A   1      42.921  22.707  25.266  1.00  0.00     0.261 C 
BRANCH   5   6
ATOM      6  O   UNL A   1      41.753  21.909  25.575  1.00  0.00    -0.462 OA
BRANCH   6   7
ATOM      7  C   UNL A   1      41.228  22.032  26.830  1.00  0.00     0.329 C 
ATOM      8  O   UNL A   1      41.885  21.911  27.863  1.00  0.00    -0.250 OA
BRANCH   7   9
ATOM      9  C   UNL A   1      39.746  22.534  26.845  1.00  0.00     0.196 C 
BRANCH   9  10
ATOM     10  N   UNL A   1      39.182  21.861  25.646  1.00  0.00    -0.342 N 
ATOM     11  C   UNL A   1      37.927  21.378  25.423  1.00  0.00     0.221 C 
ATOM     12  O   UNL A   1      37.789  20.475  24.597  1.00  0.00    -0.275 OA
ATOM     13  H   UNL A   1      39.811  21.746  24.899  1.00  0.00     0.164 HD
BRANCH  11  14
ATOM     14  C   UNL A   1      36.711  21.958  26.132  1.00  0.00     0.116 C 
BRANCH  14  15
ATOM     15  C   UNL A   1      35.498  22.117  25.203  1.00  0.00     0.116 C 
ATOM     16  C   UNL A   1      29.165  27.503  23.429  1.00  0.00     0.088 C 
ATOM     17  C   UNL A   1      30.380  26.668  23.534  1.00  0.00     0.105 A 
ATOM     18  O   UNL A   1      30.191  25.429  24.053  1.00  0.00    -0.461 OA
ATOM     19  C   UNL A   1      31.711  26.850  23.189  1.00  0.00    -0.002 A 
ATOM     20  C   UNL A   1      31.398  24.816  24.072  1.00  0.00     0.138 A 
ATOM     21  C   UNL A   1      32.394  25.664  23.607  1.00  0.00     0.024 A 
ATOM     22  C   UNL A   1      32.309  28.019  22.507  1.00  0.00     0.049 C 
ATOM     23  C   UNL A   1      31.612  23.524  24.510  1.00  0.00     0.095 A 
ATOM     24  C   UNL A   1      33.738  25.212  23.630  1.00  0.00     0.020 A 
ATOM     25  C   UNL A   1      32.946  23.131  24.583  1.00  0.00     0.138 A 
ATOM     26  C   UNL A   1      34.023  23.933  24.146  1.00  0.00    -0.001 A 
ATOM     27  O   UNL A   1      33.177  21.917  25.217  1.00  0.00    -0.426 OA
ATOM     28  C   UNL A   1      35.464  23.442  24.380  1.00  0.00     0.035 C 
ATOM     29  C   UNL A   1      34.243  22.232  26.012  1.00  0.00     0.315 C 
ATOM     30  C   UNL A   1      36.199  23.277  23.052  1.00  0.00     0.014 C 
ATOM     31  O   UNL A   1      34.157  22.766  27.109  1.00  0.00    -0.251 OA
ENDBRANCH  14  15
ENDBRANCH  11  14
ENDBRANCH   9  10
BRANCH   9  32
ATOM     32  C   UNL A   1      39.540  24.085  26.773  1.00  0.00     0.070 C 
BRANCH  32  33
ATOM     33  C   UNL A   1      40.804  24.980  26.832  1.00  0.00    -0.037 C 
ATOM     34  C   UNL A   1      40.969  26.113  26.098  1.00  0.00     0.001 A 
ATOM     35  C   UNL A   1      41.209  25.282  28.240  1.00  0.00     0.174 C 
ATOM     36  C   UNL A   1      42.279  26.692  25.692  1.00  0.00     0.010 A 
ATOM     37  C   UNL A   1      40.525  27.047  27.182  1.00  0.00     0.065 A 
ATOM     38  N   UNL A   1      40.734  26.658  28.396  1.00  0.00    -0.280 NA
ATOM     39  C   UNL A   1      42.449  28.036  25.739  1.00  0.00     0.001 A 
ATOM     40  C   UNL A   1      40.283  28.434  26.776  1.00  0.00     0.028 A 
ATOM     41  C   UNL A   1      41.333  28.917  26.092  1.00  0.00     0.002 A 
ENDBRANCH  32  33
ENDBRANCH   9  32
ENDBRANCH   7   9
ENDBRANCH   6   7
ENDBRANCH   5   6
ENDBRANCH   4   5
ENDBRANCH   3   4
ENDBRANCH   2   3
ENDBRANCH   1   2
BRANCH   1  42
ATOM     42  O   UNL A   1      46.933  25.735  26.852  1.00  0.00    -0.377 OA
BRANCH  42  43
ATOM     43  C   UNL A   1      46.019  26.802  26.890  1.00  0.00     0.188 C 
BRANCH  43  44
ATOM     44  C   UNL A   1      46.138  27.922  27.921  1.00  0.00     0.188 C 
BRANCH  44  45
ATOM     45  O   UNL A   1      46.587  29.204  27.494  1.00  0.00    -0.376 OA
BRANCH  45  46
ATOM     46  C   UNL A   1      45.956  29.822  26.374  1.00  0.00     0.202 C 
BRANCH  46  47
ATOM     47  C   UNL A   1      45.910  31.352  26.411  1.00  0.00     0.261 C 
BRANCH  47  48
ATOM     48  O   UNL A   1      44.546  31.803  26.304  1.00  0.00    -0.460 OA
BRANCH  48  49
ATOM     49  C   UNL A   1      43.822  31.813  27.448  1.00  0.00     0.338 C 
ATOM     50  O   UNL A   1      43.330  30.867  28.024  1.00  0.00    -0.246 OA
BRANCH  49  51
ATOM     51  C   UNL A   1      43.989  33.150  28.059  1.00  0.00     0.060 A 
ATOM     52  C   UNL A   1      43.906  33.379  29.435  1.00  0.00     0.016 A 
ATOM     53  C   UNL A   1      44.087  34.223  27.171  1.00  0.00     0.016 A 
ATOM     54  C   UNL A   1      43.975  34.690  29.922  1.00  0.00     0.010 A 
ATOM     55  C   UNL A   1      44.067  35.523  27.654  1.00  0.00     0.010 A 
ATOM     56  C   UNL A   1      44.078  35.774  29.034  1.00  0.00    -0.014 A 
BRANCH  56  57
ATOM     57  C   UNL A   1      44.479  37.111  29.535  1.00  0.00     0.031 A 
ATOM     58  C   UNL A   1      45.933  37.440  29.335  1.00  0.00     0.074 A 
ATOM     59  C   UNL A   1      43.624  38.140  29.696  1.00  0.00     0.049 A 
ATOM     60  N   UNL A   1      46.427  38.032  28.284  1.00  0.00    -0.248 NA
ATOM     61  C   UNL A   1      46.941  36.801  30.185  1.00  0.00     0.031 C 
ATOM     62  C   UNL A   1      42.764  38.641  28.622  1.00  0.00     0.029 A 
ATOM     63  N   UNL A   1      43.650  39.157  30.628  1.00  0.00    -0.354 N 
ATOM     64  C   UNL A   1      47.793  37.788  28.290  1.00  0.00     0.074 A 
ATOM     65  C   UNL A   1      48.063  37.023  29.488  1.00  0.00     0.031 C 
ATOM     66  C   UNL A   1      42.473  39.933  28.878  1.00  0.00     0.029 A 
ATOM     67  C   UNL A   1      43.020  40.313  30.181  1.00  0.00     0.049 A 
ATOM     68  H   UNL A   1      44.071  39.074  31.514  1.00  0.00     0.167 HD
ATOM     69  C   UNL A   1      48.652  38.193  27.317  1.00  0.00     0.037 A 
ATOM     70  C   UNL A   1      43.368  41.572  30.565  1.00  0.00     0.037 A 
ATOM     71  C   UNL A   1      48.106  38.993  26.266  1.00  0.00     0.049 A 
ATOM     72  C   UNL A   1      44.530  41.840  29.643  1.00  0.00     0.074 A 
ATOM     73  C   UNL A   1      47.693  38.838  24.962  1.00  0.00     0.029 A 
ATOM     74  N   UNL A   1      47.914  40.329  26.527  1.00  0.00    -0.354 N 
ATOM     75  N   UNL A   1      44.471  42.227  28.397  1.00  0.00    -0.248 NA
ATOM     76  C   UNL A   1      45.832  41.310  30.059  1.00  0.00     0.031 C 
ATOM     77  C   UNL A   1      46.850  39.965  24.692  1.00  0.00     0.029 A 
ATOM     78  C   UNL A   1      46.769  40.700  25.873  1.00  0.00     0.049 A 
ATOM     79  H   UNL A   1      48.489  40.907  27.079  1.00  0.00     0.167 HD
ATOM     80  C   UNL A   1      45.642  41.739  27.808  1.00  0.00     0.074 A 
ATOM     81  C   UNL A   1      46.455  41.234  28.893  1.00  0.00     0.031 C 
ATOM     82  C   UNL A   1      45.799  41.592  26.460  1.00  0.00     0.037 A 
BRANCH  69  83
ATOM     83  C   UNL A   1      50.115  38.043  27.411  1.00  0.00     0.064 A 
ATOM     84  C   UNL A   1      50.708  36.969  26.732  1.00  0.00     0.173 A 
ATOM     85  C   UNL A   1      50.903  38.796  28.284  1.00  0.00     0.173 A 
ATOM     86  F   UNL A   1      49.971  36.220  25.894  1.00  0.00    -0.203 F 
ATOM     87  C   UNL A   1      52.037  36.632  26.946  1.00  0.00     0.198 A 
ATOM     88  C   UNL A   1      52.242  38.461  28.492  1.00  0.00     0.198 A 
ATOM     89  F   UNL A   1      50.374  39.825  28.960  1.00  0.00    -0.203 F 
ATOM     90  F   UNL A   1      52.564  35.573  26.317  1.00  0.00    -0.200 F 
ATOM     91  C   UNL A   1      52.802  37.372  27.834  1.00  0.00     0.200 A 
ATOM     92  F   UNL A   1      52.986  39.173  29.350  1.00  0.00    -0.200 F 
ATOM     93  F   UNL A   1      54.076  37.028  28.063  1.00  0.00    -0.200 F 
ENDBRANCH  69  83
BRANCH  70  94
ATOM     94  C   UNL A   1      43.399  41.838  32.041  1.00  0.00     0.064 A 
ATOM     95  C   UNL A   1      42.616  42.900  32.543  1.00  0.00     0.173 A 
ATOM     96  C   UNL A   1      44.143  41.126  32.995  1.00  0.00     0.173 A 
ATOM     97  F   UNL A   1      41.962  43.711  31.696  1.00  0.00    -0.203 F 
ATOM     98  C   UNL A   1      42.481  43.145  33.910  1.00  0.00     0.198 A 
ATOM     99  C   UNL A   1      43.987  41.350  34.366  1.00  0.00     0.198 A 
ATOM    100  F   UNL A   1      45.025  40.188  32.629  1.00  0.00    -0.203 F 
ATOM    101  F   UNL A   1      41.694  44.140  34.338  1.00  0.00    -0.200 F 
ATOM    102  C   UNL A   1      43.143  42.345  34.824  1.00  0.00     0.200 A 
ATOM    103  F   UNL A   1      44.643  40.578  35.244  1.00  0.00    -0.200 F 
ATOM    104  F   UNL A   1      42.971  42.535  36.139  1.00  0.00    -0.200 F 
ENDBRANCH  70  94
BRANCH  82 105
ATOM    105  C   UNL A   1      44.734  42.199  25.619  1.00  0.00     0.064 A 
ATOM    106  C   UNL A   1      44.899  43.498  25.118  1.00  0.00     0.173 A 
ATOM    107  C   UNL A   1      43.570  41.498  25.272  1.00  0.00     0.173 A 
ATOM    108  F   UNL A   1      46.003  44.202  25.411  1.00  0.00    -0.203 F 
ATOM    109  C   UNL A   1      43.941  44.067  24.285  1.00  0.00     0.198 A 
ATOM    110  C   UNL A   1      42.630  42.059  24.414  1.00  0.00     0.198 A 
ATOM    111  F   UNL A   1      43.348  40.259  25.738  1.00  0.00    -0.203 F 
ATOM    112  F   UNL A   1      44.120  45.307  23.812  1.00  0.00    -0.200 F 
ATOM    113  C   UNL A   1      42.815  43.342  23.923  1.00  0.00     0.200 A 
ATOM    114  F   UNL A   1      41.557  41.346  24.043  1.00  0.00    -0.200 F 
ATOM    115  F   UNL A   1      41.916  43.876  23.085  1.00  0.00    -0.200 F 
ENDBRANCH  82 105
ENDBRANCH  56  57
ENDBRANCH  49  51
ENDBRANCH  48  49
ENDBRANCH  47  48
ENDBRANCH  46  47
ENDBRANCH  45  46
ENDBRANCH  44  45
ENDBRANCH  43  44
ENDBRANCH  42  43
ENDBRANCH   1  42
TORSDOF 25
ENDMDL
MODEL 2
REMARK VINA RESULT:     -10.0      6.402     10.608
REMARK SMILES Cc1oc2cc3c(cc2c1C)[C@H](C)[C@@H](CC(=O)N[C@H](CC1=c2ccccc2=NC1)C(=O)OCCOCCOCCOCCOC(=O)c1ccc(-c2c4nc(c(-c5c(F)c(F)c(F)c(F)c5F)c5ccc([nH]5)c(-c5c(F)c(F)c(F)c(F)c5F)c5nc(c(-c6c(F)c(F)c(F)c(F)c6F)c6ccc2[nH]6)C=C5)C=C4)cc1)C(=O)O3
REMARK SMILES IDX 37 1 36 2 35 3 34 4 33 5 32 6 30 7 31 8 19 9 18 10 16 11
REMARK SMILES IDX 17 12 15 14 14 15 1 16 2 17 3 18 10 19 4 20 9 21 11 22 5 23
REMARK SMILES IDX 8 24 6 25 7 26 112 27 12 28 110 29 13 30 111 31 20 32 21 33
REMARK SMILES IDX 22 34 29 35 23 36 27 37 28 38 24 39 26 40 25 41 38 42 39 43
REMARK SMILES IDX 40 44 41 45 42 46 43 47 44 48 45 49 46 50 47 51 48 52 109 53
REMARK SMILES IDX 49 54 108 55 50 56 51 57 52 58 102 59 53 60 107 61 101 62
REMARK SMILES IDX 103 63 54 64 106 65 100 66 99 67 55 69 87 70 67 71 86 72
REMARK SMILES IDX 68 73 71 74 85 75 104 76 69 77 70 78 84 80 105 81 72 82
REMARK SMILES IDX 56 83 57 84 65 85 58 86 59 87 63 88 66 89 60 90 61 91 64 92
REMARK SMILES IDX 62 93 88 94 89 95 97 96 90 97 91 98 95 99 98 100 92 101
REMARK SMILES IDX 93 102 96 103 94 104 73 105 74 106 82 107 75 108 76 109
REMARK SMILES IDX 80 110 83 111 77 112 78 113 81 114 79 115
REMARK H PARENT 18 13 103 68 71 79
REMARK Flexibility Score: inf
ROOT
ATOM      1  C   UNL A   1      46.334  27.495  26.861  1.00  0.00     0.188 C 
ENDROOT
BRANCH   1   2
ATOM      2  C   UNL A   1      46.673  26.209  26.153  1.00  0.00     0.188 C 
BRANCH   2   3
ATOM      3  O   UNL A   1      45.923  25.026  26.358  1.00  0.00    -0.376 OA
BRANCH   3   4
ATOM      4  C   UNL A   1      46.096  23.892  25.518  1.00  0.00     0.202 C 
BRANCH   4   5
ATOM      5  C   UNL A   1      44.865  23.105  25.015  1.00  0.00     0.261 C 
BRANCH   5   6
ATOM      6  O   UNL A   1      44.334  22.070  25.878  1.00  0.00    -0.462 OA
BRANCH   6   7
ATOM      7  C   UNL A   1      43.660  22.474  26.996  1.00  0.00     0.329 C 
ATOM      8  O   UNL A   1      44.208  22.769  28.057  1.00  0.00    -0.250 OA
BRANCH   7   9
ATOM      9  C   UNL A   1      42.134  22.717  26.755  1.00  0.00     0.196 C 
BRANCH   9  10
ATOM     10  N   UNL A   1      41.770  21.560  25.897  1.00  0.00    -0.342 N 
ATOM     11  C   UNL A   1      40.676  20.748  25.942  1.00  0.00     0.221 C 
ATOM     12  O   UNL A   1      40.775  19.610  25.480  1.00  0.00    -0.275 OA
ATOM     13  H   UNL A   1      42.418  21.347  25.189  1.00  0.00     0.164 HD
BRANCH  11  14
ATOM     14  C   UNL A   1      39.345  21.231  26.500  1.00  0.00     0.116 C 
BRANCH  14  15
ATOM     15  C   UNL A   1      38.575  22.126  25.518  1.00  0.00     0.116 C 
ATOM     16  C   UNL A   1      30.657  24.458  23.479  1.00  0.00     0.088 C 
ATOM     17  C   UNL A   1      32.043  24.273  23.959  1.00  0.00     0.105 A 
ATOM     18  O   UNL A   1      32.855  23.564  23.135  1.00  0.00    -0.461 OA
ATOM     19  C   UNL A   1      32.740  24.692  25.082  1.00  0.00    -0.002 A 
ATOM     20  C   UNL A   1      34.069  23.498  23.731  1.00  0.00     0.138 A 
ATOM     21  C   UNL A   1      34.050  24.124  24.970  1.00  0.00     0.024 A 
ATOM     22  C   UNL A   1      32.248  25.567  26.169  1.00  0.00     0.049 C 
ATOM     23  C   UNL A   1      35.174  22.877  23.185  1.00  0.00     0.095 A 
ATOM     24  C   UNL A   1      35.220  24.084  25.770  1.00  0.00     0.020 A 
ATOM     25  C   UNL A   1      36.287  22.796  24.020  1.00  0.00     0.138 A 
ATOM     26  C   UNL A   1      36.351  23.391  25.298  1.00  0.00    -0.001 A 
ATOM     27  O   UNL A   1      37.322  21.994  23.558  1.00  0.00    -0.426 OA
ATOM     28  C   UNL A   1      37.589  23.140  26.178  1.00  0.00     0.035 C 
ATOM     29  C   UNL A   1      37.642  21.297  24.689  1.00  0.00     0.315 C 
ATOM     30  C   UNL A   1      38.296  24.455  26.501  1.00  0.00     0.014 C 
ATOM     31  O   UNL A   1      37.061  20.292  25.072  1.00  0.00    -0.251 OA
ENDBRANCH  14  15
ENDBRANCH  11  14
ENDBRANCH   9  10
BRANCH   9  32
ATOM     32  C   UNL A   1      41.749  24.072  26.071  1.00  0.00     0.070 C 
BRANCH  32  33
ATOM     33  C   UNL A   1      42.252  25.379  26.735  1.00  0.00    -0.037 C 
ATOM     34  C   UNL A   1      41.927  26.627  26.303  1.00  0.00     0.001 A 
ATOM     35  C   UNL A   1      42.084  25.350  28.221  1.00  0.00     0.174 C 
ATOM     36  C   UNL A   1      42.749  27.850  26.509  1.00  0.00     0.010 A 
ATOM     37  C   UNL A   1      40.804  26.824  27.274  1.00  0.00     0.065 A 
ATOM     38  N   UNL A   1      40.906  26.202  28.402  1.00  0.00    -0.280 NA
ATOM     39  C   UNL A   1      42.132  29.015  26.826  1.00  0.00     0.001 A 
ATOM     40  C   UNL A   1      39.938  27.980  27.030  1.00  0.00     0.028 A 
ATOM     41  C   UNL A   1      40.670  29.095  26.871  1.00  0.00     0.002 A 
ENDBRANCH  32  33
ENDBRANCH   9  32
ENDBRANCH   7   9
ENDBRANCH   6   7
ENDBRANCH   5   6
ENDBRANCH   4   5
ENDBRANCH   3   4
ENDBRANCH   2   3
ENDBRANCH   1   2
BRANCH   1  42
ATOM     42  O   UNL A   1      46.868  27.734  28.138  1.00  0.00    -0.377 OA
BRANCH  42  43
ATOM     43  C   UNL A   1      46.143  28.509  29.060  1.00  0.00     0.188 C 
BRANCH  43  44
ATOM     44  C   UNL A   1      45.794  29.969  28.777  1.00  0.00     0.188 C 
BRANCH  44  45
ATOM     45  O   UNL A   1      46.814  30.840  28.300  1.00  0.00    -0.376 OA
BRANCH  45  46
ATOM     46  C   UNL A   1      46.669  31.438  27.014  1.00  0.00     0.202 C 
BRANCH  46  47
ATOM     47  C   UNL A   1      47.257  32.845  26.876  1.00  0.00     0.261 C 
BRANCH  47  48
ATOM     48  O   UNL A   1      47.259  33.501  28.159  1.00  0.00    -0.460 OA
BRANCH  48  49
ATOM     49  C   UNL A   1      46.436  34.568  28.292  1.00  0.00     0.338 C 
ATOM     50  O   UNL A   1      46.295  35.497  27.528  1.00  0.00    -0.246 OA
BRANCH  49  51
ATOM     51  C   UNL A   1      45.495  34.259  29.391  1.00  0.00     0.060 A 
ATOM     52  C   UNL A   1      44.392  33.414  29.239  1.00  0.00     0.016 A 
ATOM     53  C   UNL A   1      45.674  34.980  30.573  1.00  0.00     0.016 A 
ATOM     54  C   UNL A   1      43.493  33.255  30.302  1.00  0.00     0.010 A 
ATOM     55  C   UNL A   1      44.734  34.884  31.589  1.00  0.00     0.010 A 
ATOM     56  C   UNL A   1      43.670  33.975  31.497  1.00  0.00    -0.014 A 
BRANCH  56  57
ATOM     57  C   UNL A   1      42.935  33.575  32.721  1.00  0.00     0.031 A 
ATOM     58  C   UNL A   1      41.480  33.264  32.500  1.00  0.00     0.074 A 
ATOM     59  C   UNL A   1      43.525  33.049  33.812  1.00  0.00     0.049 A 
ATOM     60  N   UNL A   1      41.004  32.086  32.207  1.00  0.00    -0.248 NA
ATOM     61  C   UNL A   1      40.535  34.360  32.271  1.00  0.00     0.031 C 
ATOM     62  C   UNL A   1      44.384  31.864  33.765  1.00  0.00     0.029 A 
ATOM     63  N   UNL A   1      43.169  33.173  35.140  1.00  0.00    -0.354 N 
ATOM     64  C   UNL A   1      39.731  32.284  31.691  1.00  0.00     0.074 A 
ATOM     65  C   UNL A   1      39.485  33.708  31.753  1.00  0.00     0.031 C 
ATOM     66  C   UNL A   1      44.359  31.273  34.979  1.00  0.00     0.029 A 
ATOM     67  C   UNL A   1      43.588  32.095  35.912  1.00  0.00     0.049 A 
ATOM     68  H   UNL A   1      42.670  33.940  35.501  1.00  0.00     0.167 HD
ATOM     69  C   UNL A   1      38.932  31.294  31.212  1.00  0.00     0.037 A 
ATOM     70  C   UNL A   1      42.935  31.646  37.020  1.00  0.00     0.037 A 
ATOM     71  C   UNL A   1      39.419  29.956  31.332  1.00  0.00     0.049 A 
ATOM     72  C   UNL A   1      41.865  30.790  36.393  1.00  0.00     0.074 A 
ATOM     73  C   UNL A   1      40.013  29.001  30.537  1.00  0.00     0.029 A 
ATOM     74  N   UNL A   1      39.289  29.346  32.556  1.00  0.00    -0.354 N 
ATOM     75  N   UNL A   1      41.993  29.565  35.961  1.00  0.00    -0.248 NA
ATOM     76  C   UNL A   1      40.665  31.485  35.918  1.00  0.00     0.031 C 
ATOM     77  C   UNL A   1      40.623  28.075  31.444  1.00  0.00     0.029 A 
ATOM     78  C   UNL A   1      40.400  28.564  32.729  1.00  0.00     0.049 A 
ATOM     79  H   UNL A   1      38.541  29.451  33.188  1.00  0.00     0.167 HD
ATOM     80  C   UNL A   1      41.034  29.432  34.951  1.00  0.00     0.074 A 
ATOM     81  C   UNL A   1      40.221  30.626  35.013  1.00  0.00     0.031 C 
ATOM     82  C   UNL A   1      41.078  28.456  33.998  1.00  0.00     0.037 A 
BRANCH  69  83
ATOM     83  C   UNL A   1      37.533  31.508  30.797  1.00  0.00     0.064 A 
ATOM     84  C   UNL A   1      37.249  31.498  29.424  1.00  0.00     0.173 A 
ATOM     85  C   UNL A   1      36.528  31.902  31.683  1.00  0.00     0.173 A 
ATOM     86  F   UNL A   1      38.202  31.135  28.548  1.00  0.00    -0.203 F 
ATOM     87  C   UNL A   1      36.013  31.906  28.945  1.00  0.00     0.198 A 
ATOM     88  C   UNL A   1      35.282  32.303  31.200  1.00  0.00     0.198 A 
ATOM     89  F   UNL A   1      36.760  31.934  33.002  1.00  0.00    -0.203 F 
ATOM     90  F   UNL A   1      35.785  31.928  27.625  1.00  0.00    -0.200 F 
ATOM     91  C   UNL A   1      35.031  32.318  29.833  1.00  0.00     0.200 A 
ATOM     92  F   UNL A   1      34.329  32.703  32.054  1.00  0.00    -0.200 F 
ATOM     93  F   UNL A   1      33.847  32.739  29.369  1.00  0.00    -0.200 F 
ENDBRANCH  69  83
BRANCH  70  94
ATOM     94  C   UNL A   1      42.668  32.658  38.095  1.00  0.00     0.064 A 
ATOM     95  C   UNL A   1      43.354  32.523  39.321  1.00  0.00     0.173 A 
ATOM     96  C   UNL A   1      41.787  33.747  38.006  1.00  0.00     0.173 A 
ATOM     97  F   UNL A   1      44.129  31.449  39.544  1.00  0.00    -0.203 F 
ATOM     98  C   UNL A   1      43.267  33.481  40.333  1.00  0.00     0.198 A 
ATOM     99  C   UNL A   1      41.721  34.722  39.005  1.00  0.00     0.198 A 
ATOM    100  F   UNL A   1      40.981  33.903  36.949  1.00  0.00    -0.203 F 
ATOM    101  F   UNL A   1      43.969  33.328  41.463  1.00  0.00    -0.200 F 
ATOM    102  C   UNL A   1      42.474  34.600  40.158  1.00  0.00     0.200 A 
ATOM    103  F   UNL A   1      40.938  35.797  38.833  1.00  0.00    -0.200 F 
ATOM    104  F   UNL A   1      42.433  35.554  41.099  1.00  0.00    -0.200 F 
ENDBRANCH  70  94
BRANCH  82 105
ATOM    105  C   UNL A   1      42.084  27.384  34.221  1.00  0.00     0.064 A 
ATOM    106  C   UNL A   1      41.722  26.224  34.917  1.00  0.00     0.173 A 
ATOM    107  C   UNL A   1      43.392  27.476  33.722  1.00  0.00     0.173 A 
ATOM    108  F   UNL A   1      40.478  26.084  35.401  1.00  0.00    -0.203 F 
ATOM    109  C   UNL A   1      42.631  25.185  35.092  1.00  0.00     0.198 A 
ATOM    110  C   UNL A   1      44.288  26.422  33.872  1.00  0.00     0.198 A 
ATOM    111  F   UNL A   1      43.803  28.573  33.065  1.00  0.00    -0.203 F 
ATOM    112  F   UNL A   1      42.262  24.080  35.755  1.00  0.00    -0.200 F 
ATOM    113  C   UNL A   1      43.907  25.279  34.557  1.00  0.00     0.200 A 
ATOM    114  F   UNL A   1      45.511  26.505  33.330  1.00  0.00    -0.200 F 
ATOM    115  F   UNL A   1      44.765  24.258  34.688  1.00  0.00    -0.200 F 
ENDBRANCH  82 105
ENDBRANCH  56  57
ENDBRANCH  49  51
ENDBRANCH  48  49
ENDBRANCH  47  48
ENDBRANCH  46  47
ENDBRANCH  45  46
ENDBRANCH  44  45
ENDBRANCH  43  44
ENDBRANCH  42  43
ENDBRANCH   1  42
TORSDOF 25
ENDMDL
MODEL 3
REMARK VINA RESULT:      -9.7      7.680     13.933
REMARK SMILES Cc1oc2cc3c(cc2c1C)[C@H](C)[C@@H](CC(=O)N[C@H](CC1=c2ccccc2=NC1)C(=O)OCCOCCOCCOCCOC(=O)c1ccc(-c2c4nc(c(-c5c(F)c(F)c(F)c(F)c5F)c5ccc([nH]5)c(-c5c(F)c(F)c(F)c(F)c5F)c5nc(c(-c6c(F)c(F)c(F)c(F)c6F)c6ccc2[nH]6)C=C5)C=C4)cc1)C(=O)O3
REMARK SMILES IDX 37 1 36 2 35 3 34 4 33 5 32 6 30 7 31 8 19 9 18 10 16 11
REMARK SMILES IDX 17 12 15 14 14 15 1 16 2 17 3 18 10 19 4 20 9 21 11 22 5 23
REMARK SMILES IDX 8 24 6 25 7 26 112 27 12 28 110 29 13 30 111 31 20 32 21 33
REMARK SMILES IDX 22 34 29 35 23 36 27 37 28 38 24 39 26 40 25 41 38 42 39 43
REMARK SMILES IDX 40 44 41 45 42 46 43 47 44 48 45 49 46 50 47 51 48 52 109 53
REMARK SMILES IDX 49 54 108 55 50 56 51 57 52 58 102 59 53 60 107 61 101 62
REMARK SMILES IDX 103 63 54 64 106 65 100 66 99 67 55 69 87 70 67 71 86 72
REMARK SMILES IDX 68 73 71 74 85 75 104 76 69 77 70 78 84 80 105 81 72 82
REMARK SMILES IDX 56 83 57 84 65 85 58 86 59 87 63 88 66 89 60 90 61 91 64 92
REMARK SMILES IDX 62 93 88 94 89 95 97 96 90 97 91 98 95 99 98 100 92 101
REMARK SMILES IDX 93 102 96 103 94 104 73 105 74 106 82 107 75 108 76 109
REMARK SMILES IDX 80 110 83 111 77 112 78 113 81 114 79 115
REMARK H PARENT 18 13 103 68 71 79
REMARK Flexibility Score: inf
ROOT
ATOM      1  C   UNL A   1      48.816  36.128  32.799  1.00  0.00     0.188 C 
ENDROOT
BRANCH   1   2
ATOM      2  C   UNL A   1      49.544  34.901  33.284  1.00  0.00     0.188 C 
BRANCH   2   3
ATOM      3  O   UNL A   1      49.152  33.598  32.893  1.00  0.00    -0.376 OA
BRANCH   3   4
ATOM      4  C   UNL A   1      48.881  32.591  33.859  1.00  0.00     0.202 C 
BRANCH   4   5
ATOM      5  C   UNL A   1      48.237  31.254  33.426  1.00  0.00     0.261 C 
BRANCH   5   6
ATOM      6  O   UNL A   1      46.847  31.039  33.768  1.00  0.00    -0.462 OA
BRANCH   6   7
ATOM      7  C   UNL A   1      46.138  32.121  34.209  1.00  0.00     0.329 C 
ATOM      8  O   UNL A   1      46.464  32.806  35.178  1.00  0.00    -0.250 OA
BRANCH   7   9
ATOM      9  C   UNL A   1      44.970  32.537  33.255  1.00  0.00     0.196 C 
BRANCH   9  10
ATOM     10  N   UNL A   1      43.996  31.435  33.462  1.00  0.00    -0.342 N 
ATOM     11  C   UNL A   1      42.778  31.447  34.073  1.00  0.00     0.221 C 
ATOM     12  O   UNL A   1      42.352  30.391  34.544  1.00  0.00    -0.275 OA
ATOM     13  H   UNL A   1      44.274  30.562  33.103  1.00  0.00     0.164 HD
BRANCH  11  14
ATOM     14  C   UNL A   1      41.931  32.710  34.140  1.00  0.00     0.116 C 
BRANCH  14  15
ATOM     15  C   UNL A   1      40.426  32.426  34.031  1.00  0.00     0.116 C 
ATOM     16  C   UNL A   1      33.450  35.094  29.970  1.00  0.00     0.088 C 
ATOM     17  C   UNL A   1      34.666  34.444  30.503  1.00  0.00     0.105 A 
ATOM     18  O   UNL A   1      34.847  34.558  31.843  1.00  0.00    -0.461 OA
ATOM     19  C   UNL A   1      35.688  33.696  29.938  1.00  0.00    -0.002 A 
ATOM     20  C   UNL A   1      35.996  33.909  32.146  1.00  0.00     0.138 A 
ATOM     21  C   UNL A   1      36.600  33.405  31.003  1.00  0.00     0.024 A 
ATOM     22  C   UNL A   1      35.809  33.262  28.529  1.00  0.00     0.049 C 
ATOM     23  C   UNL A   1      36.507  33.781  33.423  1.00  0.00     0.095 A 
ATOM     24  C   UNL A   1      37.857  32.760  31.125  1.00  0.00     0.020 A 
ATOM     25  C   UNL A   1      37.771  33.203  33.504  1.00  0.00     0.138 A 
ATOM     26  C   UNL A   1      38.464  32.676  32.393  1.00  0.00    -0.001 A 
ATOM     27  O   UNL A   1      38.375  33.262  34.754  1.00  0.00    -0.426 OA
ATOM     28  C   UNL A   1      39.904  32.164  32.584  1.00  0.00     0.035 C 
ATOM     29  C   UNL A   1      39.644  33.643  34.417  1.00  0.00     0.315 C 
ATOM     30  C   UNL A   1      40.000  30.681  32.231  1.00  0.00     0.014 C 
ATOM     31  O   UNL A   1      39.991  34.798  34.216  1.00  0.00    -0.251 OA
ENDBRANCH  14  15
ENDBRANCH  11  14
ENDBRANCH   9  10
BRANCH   9  32
ATOM     32  C   UNL A   1      45.336  32.693  31.740  1.00  0.00     0.070 C 
BRANCH  32  33
ATOM     33  C   UNL A   1      44.897  33.997  31.026  1.00  0.00    -0.037 C 
ATOM     34  C   UNL A   1      43.967  34.046  30.036  1.00  0.00     0.001 A 
ATOM     35  C   UNL A   1      44.588  35.089  32.001  1.00  0.00     0.174 C 
ATOM     36  C   UNL A   1      43.890  35.090  28.978  1.00  0.00     0.010 A 
ATOM     37  C   UNL A   1      42.825  34.412  30.934  1.00  0.00     0.065 A 
ATOM     38  N   UNL A   1      43.123  35.084  31.996  1.00  0.00    -0.280 NA
ATOM     39  C   UNL A   1      42.677  35.570  28.610  1.00  0.00     0.001 A 
ATOM     40  C   UNL A   1      41.488  34.335  30.339  1.00  0.00     0.028 A 
ATOM     41  C   UNL A   1      41.450  35.004  29.175  1.00  0.00     0.002 A 
ENDBRANCH  32  33
ENDBRANCH   9  32
ENDBRANCH   7   9
ENDBRANCH   6   7
ENDBRANCH   5   6
ENDBRANCH   4   5
ENDBRANCH   3   4
ENDBRANCH   2   3
ENDBRANCH   1   2
BRANCH   1  42
ATOM     42  O   UNL A   1      49.329  36.838  31.702  1.00  0.00    -0.377 OA
BRANCH  42  43
ATOM     43  C   UNL A   1      48.840  36.570  30.412  1.00  0.00     0.188 C 
BRANCH  43  44
ATOM     44  C   UNL A   1      49.138  37.495  29.234  1.00  0.00     0.188 C 
BRANCH  44  45
ATOM     45  O   UNL A   1      48.239  37.513  28.130  1.00  0.00    -0.376 OA
BRANCH  45  46
ATOM     46  C   UNL A   1      48.023  36.311  27.393  1.00  0.00     0.202 C 
BRANCH  46  47
ATOM     47  C   UNL A   1      47.219  36.473  26.099  1.00  0.00     0.261 C 
BRANCH  47  48
ATOM     48  O   UNL A   1      45.961  35.781  26.216  1.00  0.00    -0.460 OA
BRANCH  48  49
ATOM     49  C   UNL A   1      45.761  34.746  25.366  1.00  0.00     0.338 C 
ATOM     50  O   UNL A   1      45.810  34.760  24.155  1.00  0.00    -0.246 OA
BRANCH  49  51
ATOM     51  C   UNL A   1      45.773  33.507  26.175  1.00  0.00     0.060 A 
ATOM     52  C   UNL A   1      46.945  32.927  26.667  1.00  0.00     0.016 A 
ATOM     53  C   UNL A   1      44.551  32.845  26.302  1.00  0.00     0.016 A 
ATOM     54  C   UNL A   1      46.878  31.699  27.338  1.00  0.00     0.010 A 
ATOM     55  C   UNL A   1      44.504  31.590  26.890  1.00  0.00     0.010 A 
ATOM     56  C   UNL A   1      45.650  31.029  27.473  1.00  0.00    -0.014 A 
BRANCH  56  57
ATOM     57  C   UNL A   1      45.512  29.920  28.447  1.00  0.00     0.031 A 
ATOM     58  C   UNL A   1      44.092  29.580  28.808  1.00  0.00     0.074 A 
ATOM     59  C   UNL A   1      46.448  28.968  28.639  1.00  0.00     0.049 A 
ATOM     60  N   UNL A   1      43.351  28.707  28.183  1.00  0.00    -0.248 NA
ATOM     61  C   UNL A   1      43.339  30.473  29.693  1.00  0.00     0.031 C 
ATOM     62  C   UNL A   1      46.983  28.143  27.554  1.00  0.00     0.029 A 
ATOM     63  N   UNL A   1      46.772  28.285  29.793  1.00  0.00    -0.354 N 
ATOM     64  C   UNL A   1      42.035  28.975  28.532  1.00  0.00     0.074 A 
ATOM     65  C   UNL A   1      42.079  30.075  29.470  1.00  0.00     0.031 C 
ATOM     66  C   UNL A   1      47.428  26.984  28.083  1.00  0.00     0.029 A 
ATOM     67  C   UNL A   1      47.321  27.033  29.541  1.00  0.00     0.049 A 
ATOM     68  H   UNL A   1      46.629  28.645  30.698  1.00  0.00     0.167 HD
ATOM     69  C   UNL A   1      40.957  28.313  28.033  1.00  0.00     0.037 A 
ATOM     70  C   UNL A   1      47.193  25.960  30.370  1.00  0.00     0.037 A 
ATOM     71  C   UNL A   1      41.221  27.217  27.155  1.00  0.00     0.049 A 
ATOM     72  C   UNL A   1      45.832  25.451  29.969  1.00  0.00     0.074 A 
ATOM     73  C   UNL A   1      41.216  26.956  25.803  1.00  0.00     0.029 A 
ATOM     74  N   UNL A   1      41.577  26.021  27.731  1.00  0.00    -0.354 N 
ATOM     75  N   UNL A   1      45.546  24.702  28.939  1.00  0.00    -0.248 NA
ATOM     76  C   UNL A   1      44.679  26.114  30.584  1.00  0.00     0.031 C 
ATOM     77  C   UNL A   1      42.019  25.781  25.638  1.00  0.00     0.029 A 
ATOM     78  C   UNL A   1      42.499  25.440  26.901  1.00  0.00     0.049 A 
ATOM     79  H   UNL A   1      41.235  25.652  28.577  1.00  0.00     0.167 HD
ATOM     80  C   UNL A   1      44.221  25.015  28.617  1.00  0.00     0.074 A 
ATOM     81  C   UNL A   1      43.734  25.846  29.696  1.00  0.00     0.031 C 
ATOM     82  C   UNL A   1      43.661  24.747  27.402  1.00  0.00     0.037 A 
BRANCH  69  83
ATOM     83  C   UNL A   1      39.581  28.519  28.520  1.00  0.00     0.064 A 
ATOM     84  C   UNL A   1      38.708  29.266  27.716  1.00  0.00     0.173 A 
ATOM     85  C   UNL A   1      39.168  28.174  29.809  1.00  0.00     0.173 A 
ATOM     86  F   UNL A   1      39.083  29.623  26.476  1.00  0.00    -0.203 F 
ATOM     87  C   UNL A   1      37.477  29.689  28.196  1.00  0.00     0.198 A 
ATOM     88  C   UNL A   1      37.926  28.592  30.286  1.00  0.00     0.198 A 
ATOM     89  F   UNL A   1      39.976  27.468  30.613  1.00  0.00    -0.203 F 
ATOM     90  F   UNL A   1      36.683  30.439  27.420  1.00  0.00    -0.200 F 
ATOM     91  C   UNL A   1      37.089  29.360  29.485  1.00  0.00     0.200 A 
ATOM     92  F   UNL A   1      37.546  28.278  31.533  1.00  0.00    -0.200 F 
ATOM     93  F   UNL A   1      35.913  29.793  29.959  1.00  0.00    -0.200 F 
ENDBRANCH  69  83
BRANCH  70  94
ATOM     94  C   UNL A   1      47.621  26.159  31.794  1.00  0.00     0.064 A 
ATOM     95  C   UNL A   1      48.824  25.552  32.218  1.00  0.00     0.173 A 
ATOM     96  C   UNL A   1      46.935  26.899  32.768  1.00  0.00     0.173 A 
ATOM     97  F   UNL A   1      49.489  24.729  31.392  1.00  0.00    -0.203 F 
ATOM     98  C   UNL A   1      49.367  25.780  33.483  1.00  0.00     0.198 A 
ATOM     99  C   UNL A   1      47.492  27.154  34.025  1.00  0.00     0.198 A 
ATOM    100  F   UNL A   1      45.721  27.408  32.527  1.00  0.00    -0.203 F 
ATOM    101  F   UNL A   1      50.531  25.213  33.824  1.00  0.00    -0.200 F 
ATOM    102  C   UNL A   1      48.715  26.611  34.376  1.00  0.00     0.200 A 
ATOM    103  F   UNL A   1      46.846  27.950  34.889  1.00  0.00    -0.200 F 
ATOM    104  F   UNL A   1      49.260  26.884  35.569  1.00  0.00    -0.200 F 
ENDBRANCH  70  94
BRANCH  82 105
ATOM    105  C   UNL A   1      44.468  23.886  26.498  1.00  0.00     0.064 A 
ATOM    106  C   UNL A   1      45.467  24.458  25.700  1.00  0.00     0.173 A 
ATOM    107  C   UNL A   1      44.289  22.496  26.440  1.00  0.00     0.173 A 
ATOM    108  F   UNL A   1      45.685  25.782  25.732  1.00  0.00    -0.203 F 
ATOM    109  C   UNL A   1      46.271  23.665  24.886  1.00  0.00     0.198 A 
ATOM    110  C   UNL A   1      45.115  21.704  25.649  1.00  0.00     0.198 A 
ATOM    111  F   UNL A   1      43.334  21.893  27.166  1.00  0.00    -0.203 F 
ATOM    112  F   UNL A   1      47.225  24.232  24.135  1.00  0.00    -0.200 F 
ATOM    113  C   UNL A   1      46.103  22.289  24.873  1.00  0.00     0.200 A 
ATOM    114  F   UNL A   1      44.970  20.371  25.659  1.00  0.00    -0.200 F 
ATOM    115  F   UNL A   1      46.908  21.524  24.123  1.00  0.00    -0.200 F 
ENDBRANCH  82 105
ENDBRANCH  56  57
ENDBRANCH  49  51
ENDBRANCH  48  49
ENDBRANCH  47  48
ENDBRANCH  46  47
ENDBRANCH  45  46
ENDBRANCH  44  45
ENDBRANCH  43  44
ENDBRANCH  42  43
ENDBRANCH   1  42
TORSDOF 25
ENDMDL
