MODEL 1
REMARK VINA RESULT:      -7.6      0.000      0.000
REMARK SMILES CC(C)[C@@](C)(CC(=O)NC[C@@H]1C[N@@H+](C)CCO1)C(=O)OCCOCCOCCOCCOC(=O)c1ccc(-c2c3nc(c(-c4c(F)c(F)c(F)c(F)c4F)c4ccc([nH]4)c(-c4c(F)c(F)c(F)c(F)c4F)c4nc(c(-c5c(F)c(F)c(F)c(F)c5F)c5ccc2[nH]5)C=C4)C=C3)cc1
REMARK SMILES IDX 25 1 24 2 23 3 22 4 21 5 20 6 18 7 19 8 4 9 5 10 2 11 1 12
REMARK SMILES IDX 3 13 6 14 7 15 8 16 9 17 10 19 11 20 12 21 17 22 13 23 16 24
REMARK SMILES IDX 14 25 15 26 26 28 27 29 28 30 29 31 30 32 31 33 32 34 33 35
REMARK SMILES IDX 34 36 35 37 36 38 97 39 37 40 96 41 38 42 39 43 40 44 90 45
REMARK SMILES IDX 41 46 95 47 89 48 91 49 42 50 94 51 88 52 87 53 43 55 75 56
REMARK SMILES IDX 55 57 74 58 56 59 59 60 73 61 92 62 57 63 58 64 72 66 93 67
REMARK SMILES IDX 60 68 44 69 45 70 53 71 46 72 47 73 51 74 54 75 48 76 49 77
REMARK SMILES IDX 52 78 50 79 76 80 77 81 85 82 78 83 79 84 83 85 86 86 80 87
REMARK SMILES IDX 81 88 84 89 82 90 61 91 62 92 70 93 63 94 64 95 68 96 71 97
REMARK SMILES IDX 65 98 66 99 69 100 67 101
REMARK H PARENT 9 18 13 27 91 54 59 65
REMARK Flexibility Score: inf
ROOT
ATOM      1  C   UNL A   1      41.551  25.485  27.479  1.00  0.00     0.188 C 
ENDROOT
BRANCH   1   2
ATOM      2  C   UNL A   1      40.391  26.288  26.886  1.00  0.00     0.188 C 
BRANCH   2   3
ATOM      3  O   UNL A   1      39.908  27.348  27.699  1.00  0.00    -0.376 OA
BRANCH   3   4
ATOM      4  C   UNL A   1      40.892  27.974  28.514  1.00  0.00     0.202 C 
BRANCH   4   5
ATOM      5  C   UNL A   1      40.561  27.994  30.017  1.00  0.00     0.261 C 
BRANCH   5   6
ATOM      6  O   UNL A   1      39.516  28.926  30.396  1.00  0.00    -0.463 OA
BRANCH   6   7
ATOM      7  C   UNL A   1      39.935  30.175  30.679  1.00  0.00     0.312 C 
ATOM      8  O   UNL A   1      41.130  30.451  30.770  1.00  0.00    -0.252 OA
BRANCH   7   9
ATOM      9  C   UNL A   1      38.821  31.233  30.919  1.00  0.00     0.076 C 
ATOM     10  C   UNL A   1      37.854  30.940  29.740  1.00  0.00     0.024 C 
BRANCH   9  11
ATOM     11  C   UNL A   1      38.144  30.921  32.267  1.00  0.00     0.000 C 
ATOM     12  C   UNL A   1      37.260  29.680  32.409  1.00  0.00     0.008 C 
ATOM     13  C   UNL A   1      39.219  30.799  33.323  1.00  0.00     0.008 C 
ENDBRANCH   9  11
BRANCH   9  14
ATOM     14  C   UNL A   1      39.111  32.784  30.833  1.00  0.00     0.118 C 
BRANCH  14  15
ATOM     15  C   UNL A   1      38.233  34.025  30.491  1.00  0.00     0.221 C 
ATOM     16  O   UNL A   1      38.497  34.604  29.419  1.00  0.00    -0.275 OA
ATOM     17  N   UNL A   1      37.155  34.578  31.094  1.00  0.00    -0.353 N 
ATOM     18  H   UNL A   1      37.043  35.519  30.826  1.00  0.00     0.163 HD
BRANCH  17  19
ATOM     19  C   UNL A   1      36.107  34.170  32.035  1.00  0.00     0.153 C 
BRANCH  19  20
ATOM     20  C   UNL A   1      34.711  33.792  31.420  1.00  0.00     0.192 C 
ATOM     21  C   UNL A   1      34.289  34.368  30.042  1.00  0.00     0.296 C 
ATOM     22  O   UNL A   1      33.638  33.999  32.370  1.00  0.00    -0.365 OA
ATOM     23  N   UNL A   1      33.918  35.783  30.081  1.00  0.00    -0.333 N 
ATOM     24  C   UNL A   1      33.243  35.374  32.486  1.00  0.00     0.222 C 
ATOM     25  C   UNL A   1      33.501  36.322  28.790  1.00  0.00     0.332 C 
ATOM     26  C   UNL A   1      32.922  36.049  31.133  1.00  0.00     0.290 C 
ATOM     27  H   UNL A   1      34.772  36.286  30.319  1.00  0.00     0.348 HD
ENDBRANCH  19  20
ENDBRANCH  17  19
ENDBRANCH  14  15
ENDBRANCH   9  14
ENDBRANCH   7   9
ENDBRANCH   6   7
ENDBRANCH   5   6
ENDBRANCH   4   5
ENDBRANCH   3   4
ENDBRANCH   2   3
ENDBRANCH   1   2
BRANCH   1  28
ATOM     28  O   UNL A   1      41.364  24.132  27.854  1.00  0.00    -0.377 OA
BRANCH  28  29
ATOM     29  C   UNL A   1      42.480  23.269  27.789  1.00  0.00     0.188 C 
BRANCH  29  30
ATOM     30  C   UNL A   1      43.810  23.847  27.279  1.00  0.00     0.188 C 
BRANCH  30  31
ATOM     31  O   UNL A   1      44.254  23.310  26.039  1.00  0.00    -0.376 OA
BRANCH  31  32
ATOM     32  C   UNL A   1      45.638  23.025  25.908  1.00  0.00     0.202 C 
BRANCH  32  33
ATOM     33  C   UNL A   1      46.501  24.009  25.104  1.00  0.00     0.261 C 
BRANCH  33  34
ATOM     34  O   UNL A   1      45.856  25.212  24.674  1.00  0.00    -0.460 OA
BRANCH  34  35
ATOM     35  C   UNL A   1      46.595  26.349  24.625  1.00  0.00     0.338 C 
ATOM     36  O   UNL A   1      47.399  26.673  23.799  1.00  0.00    -0.246 OA
BRANCH  35  37
ATOM     37  C   UNL A   1      46.049  27.224  25.694  1.00  0.00     0.060 A 
ATOM     38  C   UNL A   1      46.949  27.889  26.537  1.00  0.00     0.016 A 
ATOM     39  C   UNL A   1      44.675  27.461  25.789  1.00  0.00     0.016 A 
ATOM     40  C   UNL A   1      46.473  28.802  27.476  1.00  0.00     0.010 A 
ATOM     41  C   UNL A   1      44.195  28.339  26.761  1.00  0.00     0.010 A 
ATOM     42  C   UNL A   1      45.092  28.995  27.622  1.00  0.00    -0.014 A 
BRANCH  42  43
ATOM     43  C   UNL A   1      44.584  29.650  28.847  1.00  0.00     0.031 A 
ATOM     44  C   UNL A   1      44.369  31.137  28.784  1.00  0.00     0.074 A 
ATOM     45  C   UNL A   1      44.302  28.961  29.965  1.00  0.00     0.049 A 
ATOM     46  N   UNL A   1      43.944  31.960  29.706  1.00  0.00    -0.248 NA
ATOM     47  C   UNL A   1      44.674  31.781  27.494  1.00  0.00     0.031 C 
ATOM     48  C   UNL A   1      44.429  27.516  30.126  1.00  0.00     0.029 A 
ATOM     49  N   UNL A   1      43.848  29.399  31.185  1.00  0.00    -0.354 N 
ATOM     50  C   UNL A   1      43.932  33.213  29.108  1.00  0.00     0.074 A 
ATOM     51  C   UNL A   1      44.412  33.051  27.755  1.00  0.00     0.031 C 
ATOM     52  C   UNL A   1      44.068  27.185  31.380  1.00  0.00     0.029 A 
ATOM     53  C   UNL A   1      43.712  28.399  32.115  1.00  0.00     0.049 A 
ATOM     54  H   UNL A   1      43.641  30.343  31.374  1.00  0.00     0.167 HD
ATOM     55  C   UNL A   1      43.552  34.395  29.641  1.00  0.00     0.037 A 
ATOM     56  C   UNL A   1      43.354  28.470  33.412  1.00  0.00     0.037 A 
ATOM     57  C   UNL A   1      43.096  34.553  30.994  1.00  0.00     0.049 A 
ATOM     58  C   UNL A   1      43.017  29.815  34.009  1.00  0.00     0.074 A 
ATOM     59  C   UNL A   1      42.679  35.705  31.633  1.00  0.00     0.029 A 
ATOM     60  N   UNL A   1      43.016  33.524  31.919  1.00  0.00    -0.354 N 
ATOM     61  N   UNL A   1      42.974  30.993  33.432  1.00  0.00    -0.248 NA
ATOM     62  C   UNL A   1      42.677  29.840  35.439  1.00  0.00     0.031 C 
ATOM     63  C   UNL A   1      42.400  35.383  32.965  1.00  0.00     0.029 A 
ATOM     64  C   UNL A   1      42.583  34.020  33.137  1.00  0.00     0.049 A 
ATOM     65  H   UNL A   1      43.233  32.582  31.738  1.00  0.00     0.167 HD
ATOM     66  C   UNL A   1      42.573  31.889  34.415  1.00  0.00     0.074 A 
ATOM     67  C   UNL A   1      42.375  31.118  35.624  1.00  0.00     0.031 C 
ATOM     68  C   UNL A   1      42.382  33.230  34.326  1.00  0.00     0.037 A 
BRANCH  55  69
ATOM     69  C   UNL A   1      43.658  35.608  28.767  1.00  0.00     0.064 A 
ATOM     70  C   UNL A   1      42.556  36.106  28.057  1.00  0.00     0.173 A 
ATOM     71  C   UNL A   1      44.881  36.286  28.646  1.00  0.00     0.173 A 
ATOM     72  F   UNL A   1      41.372  35.480  28.119  1.00  0.00    -0.203 F 
ATOM     73  C   UNL A   1      42.680  37.226  27.238  1.00  0.00     0.198 A 
ATOM     74  C   UNL A   1      44.994  37.421  27.849  1.00  0.00     0.198 A 
ATOM     75  F   UNL A   1      45.966  35.846  29.300  1.00  0.00    -0.203 F 
ATOM     76  F   UNL A   1      41.627  37.655  26.527  1.00  0.00    -0.200 F 
ATOM     77  C   UNL A   1      43.896  37.886  27.140  1.00  0.00     0.200 A 
ATOM     78  F   UNL A   1      46.167  38.063  27.763  1.00  0.00    -0.200 F 
ATOM     79  F   UNL A   1      44.013  38.967  26.356  1.00  0.00    -0.200 F 
ENDBRANCH  55  69
BRANCH  56  80
ATOM     80  C   UNL A   1      43.299  27.238  34.244  1.00  0.00     0.064 A 
ATOM     81  C   UNL A   1      44.473  26.620  34.700  1.00  0.00     0.173 A 
ATOM     82  C   UNL A   1      42.077  26.634  34.577  1.00  0.00     0.173 A 
ATOM     83  F   UNL A   1      45.668  27.138  34.384  1.00  0.00    -0.203 F 
ATOM     84  C   UNL A   1      44.426  25.441  35.443  1.00  0.00     0.198 A 
ATOM     85  C   UNL A   1      42.031  25.471  35.342  1.00  0.00     0.198 A 
ATOM     86  F   UNL A   1      40.925  27.177  34.157  1.00  0.00    -0.203 F 
ATOM     87  F   UNL A   1      45.566  24.847  35.824  1.00  0.00    -0.200 F 
ATOM     88  C   UNL A   1      43.205  24.870  35.768  1.00  0.00     0.200 A 
ATOM     89  F   UNL A   1      40.848  24.927  35.660  1.00  0.00    -0.200 F 
ATOM     90  F   UNL A   1      43.161  23.737  36.482  1.00  0.00    -0.200 F 
ENDBRANCH  56  80
BRANCH  68  91
ATOM     91  C   UNL A   1      41.895  33.944  35.553  1.00  0.00     0.064 A 
ATOM     92  C   UNL A   1      40.529  34.063  35.846  1.00  0.00     0.173 A 
ATOM     93  C   UNL A   1      42.814  34.463  36.479  1.00  0.00     0.173 A 
ATOM     94  F   UNL A   1      39.611  33.592  34.988  1.00  0.00    -0.203 F 
ATOM     95  C   UNL A   1      40.100  34.696  37.010  1.00  0.00     0.198 A 
ATOM     96  C   UNL A   1      42.382  35.067  37.656  1.00  0.00     0.198 A 
ATOM     97  F   UNL A   1      44.132  34.366  36.251  1.00  0.00    -0.203 F 
ATOM     98  F   UNL A   1      38.789  34.838  37.248  1.00  0.00    -0.200 F 
ATOM     99  C   UNL A   1      41.026  35.189  37.917  1.00  0.00     0.200 A 
ATOM    100  F   UNL A   1      43.279  35.525  38.540  1.00  0.00    -0.200 F 
ATOM    101  F   UNL A   1      40.611  35.787  39.042  1.00  0.00    -0.200 F 
ENDBRANCH  68  91
ENDBRANCH  42  43
ENDBRANCH  35  37
ENDBRANCH  34  35
ENDBRANCH  33  34
ENDBRANCH  32  33
ENDBRANCH  31  32
ENDBRANCH  30  31
ENDBRANCH  29  30
ENDBRANCH  28  29
ENDBRANCH   1  28
TORSDOF 25
ENDMDL
MODEL 2
REMARK VINA RESULT:      -7.4      5.330      9.014
REMARK SMILES CC(C)[C@@](C)(CC(=O)NC[C@@H]1C[N@@H+](C)CCO1)C(=O)OCCOCCOCCOCCOC(=O)c1ccc(-c2c3nc(c(-c4c(F)c(F)c(F)c(F)c4F)c4ccc([nH]4)c(-c4c(F)c(F)c(F)c(F)c4F)c4nc(c(-c5c(F)c(F)c(F)c(F)c5F)c5ccc2[nH]5)C=C4)C=C3)cc1
REMARK SMILES IDX 25 1 24 2 23 3 22 4 21 5 20 6 18 7 19 8 4 9 5 10 2 11 1 12
REMARK SMILES IDX 3 13 6 14 7 15 8 16 9 17 10 19 11 20 12 21 17 22 13 23 16 24
REMARK SMILES IDX 14 25 15 26 26 28 27 29 28 30 29 31 30 32 31 33 32 34 33 35
REMARK SMILES IDX 34 36 35 37 36 38 97 39 37 40 96 41 38 42 39 43 40 44 90 45
REMARK SMILES IDX 41 46 95 47 89 48 91 49 42 50 94 51 88 52 87 53 43 55 75 56
REMARK SMILES IDX 55 57 74 58 56 59 59 60 73 61 92 62 57 63 58 64 72 66 93 67
REMARK SMILES IDX 60 68 44 69 45 70 53 71 46 72 47 73 51 74 54 75 48 76 49 77
REMARK SMILES IDX 52 78 50 79 76 80 77 81 85 82 78 83 79 84 83 85 86 86 80 87
REMARK SMILES IDX 81 88 84 89 82 90 61 91 62 92 70 93 63 94 64 95 68 96 71 97
REMARK SMILES IDX 65 98 66 99 69 100 67 101
REMARK H PARENT 9 18 13 27 91 54 59 65
REMARK Flexibility Score: inf
ROOT
ATOM      1  C   UNL A   1      40.665  22.088  26.517  1.00  0.00     0.188 C 
ENDROOT
BRANCH   1   2
ATOM      2  C   UNL A   1      39.196  21.909  26.128  1.00  0.00     0.188 C 
BRANCH   2   3
ATOM      3  O   UNL A   1      38.443  23.110  26.030  1.00  0.00    -0.376 OA
BRANCH   3   4
ATOM      4  C   UNL A   1      37.215  22.991  25.321  1.00  0.00     0.202 C 
BRANCH   4   5
ATOM      5  C   UNL A   1      36.106  23.946  25.796  1.00  0.00     0.261 C 
BRANCH   5   6
ATOM      6  O   UNL A   1      34.869  23.860  25.042  1.00  0.00    -0.463 OA
BRANCH   6   7
ATOM      7  C   UNL A   1      34.033  24.905  25.189  1.00  0.00     0.312 C 
ATOM      8  O   UNL A   1      34.449  26.059  25.283  1.00  0.00    -0.252 OA
BRANCH   7   9
ATOM      9  C   UNL A   1      32.518  24.564  25.271  1.00  0.00     0.076 C 
ATOM     10  C   UNL A   1      31.986  25.721  26.160  1.00  0.00     0.024 C 
BRANCH   9  11
ATOM     11  C   UNL A   1      31.926  24.655  23.852  1.00  0.00     0.000 C 
ATOM     12  C   UNL A   1      32.806  24.350  22.638  1.00  0.00     0.008 C 
ATOM     13  C   UNL A   1      30.746  23.714  23.767  1.00  0.00     0.008 C 
ENDBRANCH   9  11
BRANCH   9  14
ATOM     14  C   UNL A   1      31.996  23.243  25.965  1.00  0.00     0.118 C 
BRANCH  14  15
ATOM     15  C   UNL A   1      32.567  22.315  27.078  1.00  0.00     0.221 C 
ATOM     16  O   UNL A   1      32.492  22.747  28.244  1.00  0.00    -0.275 OA
ATOM     17  N   UNL A   1      33.072  21.059  27.052  1.00  0.00    -0.353 N 
ATOM     18  H   UNL A   1      33.639  20.890  27.840  1.00  0.00     0.163 HD
BRANCH  17  19
ATOM     19  C   UNL A   1      33.014  19.881  26.182  1.00  0.00     0.153 C 
BRANCH  19  20
ATOM     20  C   UNL A   1      33.854  19.938  24.854  1.00  0.00     0.192 C 
ATOM     21  C   UNL A   1      33.329  20.750  23.639  1.00  0.00     0.296 C 
ATOM     22  O   UNL A   1      34.237  18.615  24.410  1.00  0.00    -0.365 OA
ATOM     23  N   UNL A   1      32.215  20.112  22.937  1.00  0.00    -0.333 N 
ATOM     24  C   UNL A   1      33.179  17.914  23.741  1.00  0.00     0.222 C 
ATOM     25  C   UNL A   1      31.735  20.864  21.782  1.00  0.00     0.332 C 
ATOM     26  C   UNL A   1      32.528  18.715  22.590  1.00  0.00     0.290 C 
ATOM     27  H   UNL A   1      31.439  20.108  23.598  1.00  0.00     0.348 HD
ENDBRANCH  19  20
ENDBRANCH  17  19
ENDBRANCH  14  15
ENDBRANCH   9  14
ENDBRANCH   7   9
ENDBRANCH   6   7
ENDBRANCH   5   6
ENDBRANCH   4   5
ENDBRANCH   3   4
ENDBRANCH   2   3
ENDBRANCH   1   2
BRANCH   1  28
ATOM     28  O   UNL A   1      41.689  21.841  25.570  1.00  0.00    -0.377 OA
BRANCH  28  29
ATOM     29  C   UNL A   1      42.713  22.804  25.438  1.00  0.00     0.188 C 
BRANCH  29  30
ATOM     30  C   UNL A   1      43.728  22.626  24.298  1.00  0.00     0.188 C 
BRANCH  30  31
ATOM     31  O   UNL A   1      44.779  23.585  24.286  1.00  0.00    -0.376 OA
BRANCH  31  32
ATOM     32  C   UNL A   1      46.067  23.148  24.693  1.00  0.00     0.202 C 
BRANCH  32  33
ATOM     33  C   UNL A   1      47.201  24.185  24.721  1.00  0.00     0.261 C 
BRANCH  33  34
ATOM     34  O   UNL A   1      47.021  25.296  25.607  1.00  0.00    -0.460 OA
BRANCH  34  35
ATOM     35  C   UNL A   1      46.657  26.487  25.069  1.00  0.00     0.338 C 
ATOM     36  O   UNL A   1      46.900  26.908  23.975  1.00  0.00    -0.246 OA
BRANCH  35  37
ATOM     37  C   UNL A   1      45.704  27.086  26.037  1.00  0.00     0.060 A 
ATOM     38  C   UNL A   1      45.555  28.479  26.053  1.00  0.00     0.016 A 
ATOM     39  C   UNL A   1      44.897  26.272  26.839  1.00  0.00     0.016 A 
ATOM     40  C   UNL A   1      44.589  29.062  26.871  1.00  0.00     0.010 A 
ATOM     41  C   UNL A   1      43.963  26.860  27.693  1.00  0.00     0.010 A 
ATOM     42  C   UNL A   1      43.823  28.258  27.726  1.00  0.00    -0.014 A 
BRANCH  42  43
ATOM     43  C   UNL A   1      43.093  28.893  28.845  1.00  0.00     0.031 A 
ATOM     44  C   UNL A   1      43.843  29.064  30.137  1.00  0.00     0.074 A 
ATOM     45  C   UNL A   1      41.825  29.323  28.724  1.00  0.00     0.049 A 
ATOM     46  N   UNL A   1      43.446  29.576  31.272  1.00  0.00    -0.248 NA
ATOM     47  C   UNL A   1      45.239  28.593  30.142  1.00  0.00     0.031 C 
ATOM     48  C   UNL A   1      41.017  29.249  27.510  1.00  0.00     0.029 A 
ATOM     49  N   UNL A   1      40.996  29.908  29.648  1.00  0.00    -0.354 N 
ATOM     50  C   UNL A   1      44.541  29.487  32.121  1.00  0.00     0.074 A 
ATOM     51  C   UNL A   1      45.610  28.854  31.384  1.00  0.00     0.031 C 
ATOM     52  C   UNL A   1      39.800  29.766  27.767  1.00  0.00     0.029 A 
ATOM     53  C   UNL A   1      39.738  30.178  29.169  1.00  0.00     0.049 A 
ATOM     54  H   UNL A   1      41.277  30.115  30.569  1.00  0.00     0.167 HD
ATOM     55  C   UNL A   1      44.646  29.901  33.404  1.00  0.00     0.037 A 
ATOM     56  C   UNL A   1      38.664  30.686  29.803  1.00  0.00     0.037 A 
ATOM     57  C   UNL A   1      43.573  30.511  34.139  1.00  0.00     0.049 A 
ATOM     58  C   UNL A   1      38.781  31.060  31.262  1.00  0.00     0.074 A 
ATOM     59  C   UNL A   1      43.574  30.974  35.441  1.00  0.00     0.029 A 
ATOM     60  N   UNL A   1      42.300  30.725  33.633  1.00  0.00    -0.354 N 
ATOM     61  N   UNL A   1      39.826  31.006  32.052  1.00  0.00    -0.248 NA
ATOM     62  C   UNL A   1      37.565  31.567  31.916  1.00  0.00     0.031 C 
ATOM     63  C   UNL A   1      42.283  31.417  35.743  1.00  0.00     0.029 A 
ATOM     64  C   UNL A   1      41.495  31.288  34.609  1.00  0.00     0.049 A 
ATOM     65  H   UNL A   1      42.010  30.510  32.718  1.00  0.00     0.167 HD
ATOM     66  C   UNL A   1      39.407  31.501  33.281  1.00  0.00     0.074 A 
ATOM     67  C   UNL A   1      38.012  31.859  33.129  1.00  0.00     0.031 C 
ATOM     68  C   UNL A   1      40.111  31.647  34.431  1.00  0.00     0.037 A 
BRANCH  55  69
ATOM     69  C   UNL A   1      45.953  29.662  34.098  1.00  0.00     0.064 A 
ATOM     70  C   UNL A   1      46.952  30.645  34.150  1.00  0.00     0.173 A 
ATOM     71  C   UNL A   1      46.206  28.433  34.725  1.00  0.00     0.173 A 
ATOM     72  F   UNL A   1      46.770  31.828  33.545  1.00  0.00    -0.203 F 
ATOM     73  C   UNL A   1      48.166  30.398  34.786  1.00  0.00     0.198 A 
ATOM     74  C   UNL A   1      47.408  28.200  35.385  1.00  0.00     0.198 A 
ATOM     75  F   UNL A   1      45.285  27.458  34.697  1.00  0.00    -0.203 F 
ATOM     76  F   UNL A   1      49.127  31.333  34.781  1.00  0.00    -0.200 F 
ATOM     77  C   UNL A   1      48.391  29.179  35.409  1.00  0.00     0.200 A 
ATOM     78  F   UNL A   1      47.621  27.025  35.993  1.00  0.00    -0.200 F 
ATOM     79  F   UNL A   1      49.557  28.944  36.025  1.00  0.00    -0.200 F 
ENDBRANCH  55  69
BRANCH  56  80
ATOM     80  C   UNL A   1      37.379  30.869  29.076  1.00  0.00     0.064 A 
ATOM     81  C   UNL A   1      36.983  32.132  28.614  1.00  0.00     0.173 A 
ATOM     82  C   UNL A   1      36.506  29.793  28.852  1.00  0.00     0.173 A 
ATOM     83  F   UNL A   1      37.766  33.199  28.829  1.00  0.00    -0.203 F 
ATOM     84  C   UNL A   1      35.759  32.315  27.971  1.00  0.00     0.198 A 
ATOM     85  C   UNL A   1      35.295  29.972  28.186  1.00  0.00     0.198 A 
ATOM     86  F   UNL A   1      36.830  28.565  29.283  1.00  0.00    -0.203 F 
ATOM     87  F   UNL A   1      35.385  33.542  27.583  1.00  0.00    -0.200 F 
ATOM     88  C   UNL A   1      34.919  31.234  27.752  1.00  0.00     0.200 A 
ATOM     89  F   UNL A   1      34.490  28.923  27.970  1.00  0.00    -0.200 F 
ATOM     90  F   UNL A   1      33.743  31.410  27.134  1.00  0.00    -0.200 F 
ENDBRANCH  56  80
BRANCH  68  91
ATOM     91  C   UNL A   1      39.403  32.261  35.605  1.00  0.00     0.064 A 
ATOM     92  C   UNL A   1      38.622  31.494  36.481  1.00  0.00     0.173 A 
ATOM     93  C   UNL A   1      39.562  33.627  35.889  1.00  0.00     0.173 A 
ATOM     94  F   UNL A   1      38.432  30.187  36.247  1.00  0.00    -0.203 F 
ATOM     95  C   UNL A   1      38.006  32.077  37.585  1.00  0.00     0.198 A 
ATOM     96  C   UNL A   1      38.971  34.199  37.012  1.00  0.00     0.198 A 
ATOM     97  F   UNL A   1      40.308  34.403  35.089  1.00  0.00    -0.203 F 
ATOM     98  F   UNL A   1      37.226  31.334  38.383  1.00  0.00    -0.200 F 
ATOM     99  C   UNL A   1      38.187  33.425  37.854  1.00  0.00     0.200 A 
ATOM    100  F   UNL A   1      39.163  35.497  37.280  1.00  0.00    -0.200 F 
ATOM    101  F   UNL A   1      37.602  33.981  38.925  1.00  0.00    -0.200 F 
ENDBRANCH  68  91
ENDBRANCH  42  43
ENDBRANCH  35  37
ENDBRANCH  34  35
ENDBRANCH  33  34
ENDBRANCH  32  33
ENDBRANCH  31  32
ENDBRANCH  30  31
ENDBRANCH  29  30
ENDBRANCH  28  29
ENDBRANCH   1  28
TORSDOF 25
ENDMDL
MODEL 3
REMARK VINA RESULT:      -7.2      4.879      7.127
REMARK SMILES CC(C)[C@@](C)(CC(=O)NC[C@@H]1C[N@@H+](C)CCO1)C(=O)OCCOCCOCCOCCOC(=O)c1ccc(-c2c3nc(c(-c4c(F)c(F)c(F)c(F)c4F)c4ccc([nH]4)c(-c4c(F)c(F)c(F)c(F)c4F)c4nc(c(-c5c(F)c(F)c(F)c(F)c5F)c5ccc2[nH]5)C=C4)C=C3)cc1
REMARK SMILES IDX 25 1 24 2 23 3 22 4 21 5 20 6 18 7 19 8 4 9 5 10 2 11 1 12
REMARK SMILES IDX 3 13 6 14 7 15 8 16 9 17 10 19 11 20 12 21 17 22 13 23 16 24
REMARK SMILES IDX 14 25 15 26 26 28 27 29 28 30 29 31 30 32 31 33 32 34 33 35
REMARK SMILES IDX 34 36 35 37 36 38 97 39 37 40 96 41 38 42 39 43 40 44 90 45
REMARK SMILES IDX 41 46 95 47 89 48 91 49 42 50 94 51 88 52 87 53 43 55 75 56
REMARK SMILES IDX 55 57 74 58 56 59 59 60 73 61 92 62 57 63 58 64 72 66 93 67
REMARK SMILES IDX 60 68 44 69 45 70 53 71 46 72 47 73 51 74 54 75 48 76 49 77
REMARK SMILES IDX 52 78 50 79 76 80 77 81 85 82 78 83 79 84 83 85 86 86 80 87
REMARK SMILES IDX 81 88 84 89 82 90 61 91 62 92 70 93 63 94 64 95 68 96 71 97
REMARK SMILES IDX 65 98 66 99 69 100 67 101
REMARK H PARENT 9 18 13 27 91 54 59 65
REMARK Flexibility Score: inf
ROOT
ATOM      1  C   UNL A   1      41.592  22.306  26.004  1.00  0.00     0.188 C 
ENDROOT
BRANCH   1   2
ATOM      2  C   UNL A   1      41.033  20.899  26.221  1.00  0.00     0.188 C 
BRANCH   2   3
ATOM      3  O   UNL A   1      39.625  20.824  26.396  1.00  0.00    -0.376 OA
BRANCH   3   4
ATOM      4  C   UNL A   1      38.889  21.879  25.788  1.00  0.00     0.202 C 
BRANCH   4   5
ATOM      5  C   UNL A   1      37.571  21.443  25.124  1.00  0.00     0.261 C 
BRANCH   5   6
ATOM      6  O   UNL A   1      36.778  22.528  24.578  1.00  0.00    -0.463 OA
BRANCH   6   7
ATOM      7  C   UNL A   1      36.068  23.232  25.480  1.00  0.00     0.312 C 
ATOM      8  O   UNL A   1      36.597  23.735  26.470  1.00  0.00    -0.252 OA
BRANCH   7   9
ATOM      9  C   UNL A   1      34.539  23.337  25.217  1.00  0.00     0.076 C 
ATOM     10  C   UNL A   1      34.511  23.867  23.757  1.00  0.00     0.024 C 
BRANCH   9  11
ATOM     11  C   UNL A   1      33.939  21.921  25.292  1.00  0.00     0.000 C 
ATOM     12  C   UNL A   1      34.058  21.109  26.583  1.00  0.00     0.008 C 
ATOM     13  C   UNL A   1      32.461  22.014  24.984  1.00  0.00     0.008 C 
ENDBRANCH   9  11
BRANCH   9  14
ATOM     14  C   UNL A   1      33.619  24.333  26.030  1.00  0.00     0.118 C 
BRANCH  14  15
ATOM     15  C   UNL A   1      33.113  25.784  25.772  1.00  0.00     0.221 C 
ATOM     16  O   UNL A   1      33.976  26.609  25.417  1.00  0.00    -0.275 OA
ATOM     17  N   UNL A   1      31.877  26.336  25.775  1.00  0.00    -0.353 N 
ATOM     18  H   UNL A   1      31.926  27.311  25.902  1.00  0.00     0.163 HD
BRANCH  17  19
ATOM     19  C   UNL A   1      30.486  25.891  25.642  1.00  0.00     0.153 C 
BRANCH  19  20
ATOM     20  C   UNL A   1      29.845  25.989  24.210  1.00  0.00     0.192 C 
ATOM     21  C   UNL A   1      30.616  25.447  22.976  1.00  0.00     0.296 C 
ATOM     22  O   UNL A   1      29.379  27.329  23.927  1.00  0.00    -0.365 OA
ATOM     23  N   UNL A   1      31.736  26.292  22.561  1.00  0.00    -0.333 N 
ATOM     24  C   UNL A   1      30.433  28.225  23.544  1.00  0.00     0.222 C 
ATOM     25  C   UNL A   1      32.449  25.794  21.388  1.00  0.00     0.332 C 
ATOM     26  C   UNL A   1      31.319  27.694  22.395  1.00  0.00     0.290 C 
ATOM     27  H   UNL A   1      32.411  26.250  23.324  1.00  0.00     0.348 HD
ENDBRANCH  19  20
ENDBRANCH  17  19
ENDBRANCH  14  15
ENDBRANCH   9  14
ENDBRANCH   7   9
ENDBRANCH   6   7
ENDBRANCH   5   6
ENDBRANCH   4   5
ENDBRANCH   3   4
ENDBRANCH   2   3
ENDBRANCH   1   2
BRANCH   1  28
ATOM     28  O   UNL A   1      42.980  22.500  25.803  1.00  0.00    -0.377 OA
BRANCH  28  29
ATOM     29  C   UNL A   1      43.435  22.689  24.479  1.00  0.00     0.188 C 
BRANCH  29  30
ATOM     30  C   UNL A   1      44.953  22.715  24.236  1.00  0.00     0.188 C 
BRANCH  30  31
ATOM     31  O   UNL A   1      45.542  24.008  24.311  1.00  0.00    -0.376 OA
BRANCH  31  32
ATOM     32  C   UNL A   1      46.739  24.137  25.064  1.00  0.00     0.202 C 
BRANCH  32  33
ATOM     33  C   UNL A   1      47.530  25.448  24.936  1.00  0.00     0.261 C 
BRANCH  33  34
ATOM     34  O   UNL A   1      47.095  26.533  25.763  1.00  0.00    -0.460 OA
BRANCH  34  35
ATOM     35  C   UNL A   1      46.236  27.436  25.228  1.00  0.00     0.338 C 
ATOM     36  O   UNL A   1      46.072  27.707  24.073  1.00  0.00    -0.246 OA
BRANCH  35  37
ATOM     37  C   UNL A   1      45.373  27.878  26.353  1.00  0.00     0.060 A 
ATOM     38  C   UNL A   1      45.211  29.253  26.570  1.00  0.00     0.016 A 
ATOM     39  C   UNL A   1      44.656  26.946  27.110  1.00  0.00     0.016 A 
ATOM     40  C   UNL A   1      44.321  29.699  27.546  1.00  0.00     0.010 A 
ATOM     41  C   UNL A   1      43.802  27.393  28.119  1.00  0.00     0.010 A 
ATOM     42  C   UNL A   1      43.649  28.770  28.353  1.00  0.00    -0.014 A 
BRANCH  42  43
ATOM     43  C   UNL A   1      43.023  29.233  29.611  1.00  0.00     0.031 A 
ATOM     44  C   UNL A   1      41.581  29.651  29.539  1.00  0.00     0.074 A 
ATOM     45  C   UNL A   1      43.691  29.263  30.777  1.00  0.00     0.049 A 
ATOM     46  N   UNL A   1      40.794  30.104  30.479  1.00  0.00    -0.248 NA
ATOM     47  C   UNL A   1      40.939  29.538  28.217  1.00  0.00     0.031 C 
ATOM     48  C   UNL A   1      45.074  28.841  30.973  1.00  0.00     0.029 A 
ATOM     49  N   UNL A   1      43.282  29.675  32.021  1.00  0.00    -0.354 N 
ATOM     50  C   UNL A   1      39.570  30.327  29.862  1.00  0.00     0.074 A 
ATOM     51  C   UNL A   1      39.720  29.985  28.467  1.00  0.00     0.031 C 
ATOM     52  C   UNL A   1      45.404  29.022  32.266  1.00  0.00     0.029 A 
ATOM     53  C   UNL A   1      44.264  29.600  32.977  1.00  0.00     0.049 A 
ATOM     54  H   UNL A   1      42.370  29.995  32.209  1.00  0.00     0.167 HD
ATOM     55  C   UNL A   1      38.421  30.776  30.414  1.00  0.00     0.037 A 
ATOM     56  C   UNL A   1      44.237  29.972  34.272  1.00  0.00     0.037 A 
ATOM     57  C   UNL A   1      38.283  31.135  31.798  1.00  0.00     0.049 A 
ATOM     58  C   UNL A   1      42.966  30.553  34.844  1.00  0.00     0.074 A 
ATOM     59  C   UNL A   1      37.162  31.594  32.461  1.00  0.00     0.029 A 
ATOM     60  N   UNL A   1      39.313  31.089  32.725  1.00  0.00    -0.354 N 
ATOM     61  N   UNL A   1      41.801  30.731  34.267  1.00  0.00    -0.248 NA
ATOM     62  C   UNL A   1      43.007  30.983  36.249  1.00  0.00     0.031 C 
ATOM     63  C   UNL A   1      37.528  31.881  33.781  1.00  0.00     0.029 A 
ATOM     64  C   UNL A   1      38.860  31.540  33.953  1.00  0.00     0.049 A 
ATOM     65  H   UNL A   1      40.229  30.781  32.539  1.00  0.00     0.167 HD
ATOM     66  C   UNL A   1      40.965  31.260  35.242  1.00  0.00     0.074 A 
ATOM     67  C   UNL A   1      41.754  31.366  36.452  1.00  0.00     0.031 C 
ATOM     68  C   UNL A   1      39.662  31.625  35.147  1.00  0.00     0.037 A 
BRANCH  55  69
ATOM     69  C   UNL A   1      37.242  30.944  29.503  1.00  0.00     0.064 A 
ATOM     70  C   UNL A   1      36.403  29.868  29.174  1.00  0.00     0.173 A 
ATOM     71  C   UNL A   1      36.944  32.201  28.958  1.00  0.00     0.173 A 
ATOM     72  F   UNL A   1      36.660  28.640  29.649  1.00  0.00    -0.203 F 
ATOM     73  C   UNL A   1      35.323  30.042  28.313  1.00  0.00     0.198 A 
ATOM     74  C   UNL A   1      35.846  32.377  28.121  1.00  0.00     0.198 A 
ATOM     75  F   UNL A   1      37.719  33.260  29.236  1.00  0.00    -0.203 F 
ATOM     76  F   UNL A   1      34.564  28.990  27.971  1.00  0.00    -0.200 F 
ATOM     77  C   UNL A   1      35.040  31.296  27.794  1.00  0.00     0.200 A 
ATOM     78  F   UNL A   1      35.570  33.591  27.627  1.00  0.00    -0.200 F 
ATOM     79  F   UNL A   1      33.996  31.463  26.970  1.00  0.00    -0.200 F 
ENDBRANCH  55  69
BRANCH  56  80
ATOM     80  C   UNL A   1      45.448  29.817  35.123  1.00  0.00     0.064 A 
ATOM     81  C   UNL A   1      46.425  30.820  35.179  1.00  0.00     0.173 A 
ATOM     82  C   UNL A   1      45.669  28.653  35.874  1.00  0.00     0.173 A 
ATOM     83  F   UNL A   1      46.278  31.940  34.457  1.00  0.00    -0.203 F 
ATOM     84  C   UNL A   1      47.582  30.659  35.941  1.00  0.00     0.198 A 
ATOM     85  C   UNL A   1      46.813  28.504  36.656  1.00  0.00     0.198 A 
ATOM     86  F   UNL A   1      44.772  27.656  35.847  1.00  0.00    -0.203 F 
ATOM     87  F   UNL A   1      48.522  31.615  35.938  1.00  0.00    -0.200 F 
ATOM     88  C   UNL A   1      47.773  29.504  36.683  1.00  0.00     0.200 A 
ATOM     89  F   UNL A   1      46.989  27.388  37.377  1.00  0.00    -0.200 F 
ATOM     90  F   UNL A   1      48.884  29.350  37.415  1.00  0.00    -0.200 F 
ENDBRANCH  56  80
BRANCH  68  91
ATOM     91  C   UNL A   1      38.990  32.130  36.393  1.00  0.00     0.064 A 
ATOM     92  C   UNL A   1      39.142  33.453  36.830  1.00  0.00     0.173 A 
ATOM     93  C   UNL A   1      38.133  31.289  37.121  1.00  0.00     0.173 A 
ATOM     94  F   UNL A   1      39.958  34.291  36.174  1.00  0.00    -0.203 F 
ATOM     95  C   UNL A   1      38.480  33.910  37.966  1.00  0.00     0.198 A 
ATOM     96  C   UNL A   1      37.447  31.759  38.237  1.00  0.00     0.198 A 
ATOM     97  F   UNL A   1      37.945  30.018  36.738  1.00  0.00    -0.203 F 
ATOM     98  F   UNL A   1      38.675  35.165  38.393  1.00  0.00    -0.200 F 
ATOM     99  C   UNL A   1      37.626  33.067  38.663  1.00  0.00     0.200 A 
ATOM    100  F   UNL A   1      36.610  30.948  38.898  1.00  0.00    -0.200 F 
ATOM    101  F   UNL A   1      36.980  33.513  39.749  1.00  0.00    -0.200 F 
ENDBRANCH  68  91
ENDBRANCH  42  43
ENDBRANCH  35  37
ENDBRANCH  34  35
ENDBRANCH  33  34
ENDBRANCH  32  33
ENDBRANCH  31  32
ENDBRANCH  30  31
ENDBRANCH  29  30
ENDBRANCH  28  29
ENDBRANCH   1  28
TORSDOF 25
ENDMDL
