MODEL 1
REMARK VINA RESULT:      -9.7      0.000      0.000
REMARK SMILES CCC(CC)(NC(=O)c1ccc(CC[NH3+])cc1)C(=O)OCCOCCOCCOCCOC(=O)c1ccc(-c2c3nc(c(-c4c(F)c(F)c(F)c(F)c4F)c4ccc([nH]4)c(-c4c(F)c(F)c(F)c(F)c4F)c4nc(c(-c5c(F)c(F)c(F)c(F)c5F)c5ccc2[nH]5)C=C4)C=C3)cc1
REMARK SMILES IDX 24 1 23 2 22 3 21 4 20 5 18 6 19 7 3 8 2 9 1 10 4 11 5 12
REMARK SMILES IDX 6 13 7 14 8 16 9 17 10 18 17 19 11 20 16 21 12 22 13 23
REMARK SMILES IDX 14 24 15 25 25 29 26 30 27 31 28 32 29 33 30 34 31 35 32 36
REMARK SMILES IDX 33 37 34 38 35 39 36 40 97 41 37 42 96 43 38 44 39 45 40 46
REMARK SMILES IDX 90 47 41 48 95 49 89 50 91 51 42 52 94 53 88 54 87 55 43 57
REMARK SMILES IDX 75 58 55 59 74 60 56 61 59 62 73 63 92 64 57 65 58 66 72 68
REMARK SMILES IDX 93 69 60 70 44 71 45 72 53 73 46 74 47 75 51 76 54 77 48 78
REMARK SMILES IDX 49 79 52 80 50 81 76 82 77 83 85 84 78 85 79 86 83 87 86 88
REMARK SMILES IDX 80 89 81 90 84 91 82 92 61 93 62 94 70 95 63 96 64 97 68 98
REMARK SMILES IDX 71 99 65 100 66 101 69 102 67 103
REMARK H PARENT 6 15 15 26 15 27 15 28 91 56 59 67
REMARK Flexibility Score: inf
ROOT
ATOM      1  C   UNL A   1      28.510  31.122  22.092  1.00  0.00     0.188 C 
ENDROOT
BRANCH   1   2
ATOM      2  O   UNL A   1      27.936  29.846  21.792  1.00  0.00    -0.376 OA
BRANCH   2   3
ATOM      3  C   UNL A   1      27.765  29.012  22.959  1.00  0.00     0.202 C 
BRANCH   3   4
ATOM      4  C   UNL A   1      28.684  27.776  23.119  1.00  0.00     0.261 C 
BRANCH   4   5
ATOM      5  O   UNL A   1      30.010  28.137  23.506  1.00  0.00    -0.461 OA
BRANCH   5   6
ATOM      6  C   UNL A   1      31.006  28.218  22.608  1.00  0.00     0.331 C 
ATOM      7  O   UNL A   1      31.074  29.088  21.749  1.00  0.00    -0.249 OA
BRANCH   6   8
ATOM      8  C   UNL A   1      32.095  27.123  22.883  1.00  0.00     0.137 C 
BRANCH   8   9
ATOM      9  C   UNL A   1      33.496  27.724  22.454  1.00  0.00     0.037 C 
ATOM     10  C   UNL A   1      33.928  29.039  23.102  1.00  0.00     0.007 C 
ENDBRANCH   8   9
BRANCH   8  11
ATOM     11  C   UNL A   1      31.734  25.882  22.016  1.00  0.00     0.037 C 
ATOM     12  C   UNL A   1      32.471  25.761  20.683  1.00  0.00     0.007 C 
ENDBRANCH   8  11
BRANCH   8  13
ATOM     13  N   UNL A   1      32.245  26.708  24.348  1.00  0.00    -0.336 N 
ATOM     14  C   UNL A   1      33.390  26.298  25.029  1.00  0.00     0.252 C 
ATOM     15  H   UNL A   1      31.420  26.735  24.883  1.00  0.00     0.165 HD
ATOM     16  O   UNL A   1      33.898  27.048  25.860  1.00  0.00    -0.269 OA
BRANCH  14  17
ATOM     17  C   UNL A   1      33.859  24.870  24.985  1.00  0.00     0.039 A 
ATOM     18  C   UNL A   1      33.996  24.158  26.166  1.00  0.00     0.014 A 
ATOM     19  C   UNL A   1      34.270  24.226  23.820  1.00  0.00     0.014 A 
ATOM     20  C   UNL A   1      34.444  22.836  26.232  1.00  0.00     0.005 A 
ATOM     21  C   UNL A   1      34.686  22.871  23.858  1.00  0.00     0.005 A 
ATOM     22  C   UNL A   1      34.744  22.151  25.066  1.00  0.00    -0.042 A 
BRANCH  22  23
ATOM     23  C   UNL A   1      34.992  20.659  25.133  1.00  0.00     0.096 C 
BRANCH  23  24
ATOM     24  C   UNL A   1      33.771  19.753  24.906  1.00  0.00     0.263 C 
BRANCH  24  25
ATOM     25  N   UNL A   1      33.060  19.413  26.138  1.00  0.00    -0.357 N 
ATOM     26  H   UNL A   1      33.733  19.269  26.890  1.00  0.00     0.344 HD
ATOM     27  H   UNL A   1      32.523  18.556  25.994  1.00  0.00     0.344 HD
ATOM     28  H   UNL A   1      32.428  20.173  26.387  1.00  0.00     0.344 HD
ENDBRANCH  24  25
ENDBRANCH  23  24
ENDBRANCH  22  23
ENDBRANCH  14  17
ENDBRANCH   8  13
ENDBRANCH   6   8
ENDBRANCH   5   6
ENDBRANCH   4   5
ENDBRANCH   3   4
ENDBRANCH   2   3
ENDBRANCH   1   2
BRANCH   1  29
ATOM     29  C   UNL A   1      28.479  31.527  23.579  1.00  0.00     0.188 C 
BRANCH  29  30
ATOM     30  O   UNL A   1      29.690  31.229  24.282  1.00  0.00    -0.377 OA
BRANCH  30  31
ATOM     31  C   UNL A   1      30.292  32.216  25.126  1.00  0.00     0.188 C 
BRANCH  31  32
ATOM     32  C   UNL A   1      31.164  31.746  26.292  1.00  0.00     0.188 C 
BRANCH  32  33
ATOM     33  O   UNL A   1      31.882  30.530  26.071  1.00  0.00    -0.376 OA
BRANCH  33  34
ATOM     34  C   UNL A   1      33.223  30.479  26.554  1.00  0.00     0.202 C 
BRANCH  34  35
ATOM     35  C   UNL A   1      33.581  31.457  27.686  1.00  0.00     0.261 C 
BRANCH  35  36
ATOM     36  O   UNL A   1      33.770  32.829  27.272  1.00  0.00    -0.460 OA
BRANCH  36  37
ATOM     37  C   UNL A   1      33.577  33.759  28.235  1.00  0.00     0.338 C 
ATOM     38  O   UNL A   1      32.590  34.482  28.369  1.00  0.00    -0.246 OA
BRANCH  37  39
ATOM     39  C   UNL A   1      34.666  33.759  29.234  1.00  0.00     0.060 A 
ATOM     40  C   UNL A   1      35.949  34.136  28.813  1.00  0.00     0.016 A 
ATOM     41  C   UNL A   1      34.482  33.231  30.513  1.00  0.00     0.016 A 
ATOM     42  C   UNL A   1      37.061  33.926  29.635  1.00  0.00     0.010 A 
ATOM     43  C   UNL A   1      35.599  33.010  31.333  1.00  0.00     0.010 A 
ATOM     44  C   UNL A   1      36.901  33.306  30.880  1.00  0.00    -0.014 A 
BRANCH  44  45
ATOM     45  C   UNL A   1      38.076  32.746  31.606  1.00  0.00     0.031 A 
ATOM     46  C   UNL A   1      38.766  31.538  31.024  1.00  0.00     0.074 A 
ATOM     47  C   UNL A   1      38.535  33.274  32.756  1.00  0.00     0.049 A 
ATOM     48  N   UNL A   1      39.682  30.760  31.545  1.00  0.00    -0.248 NA
ATOM     49  C   UNL A   1      38.355  31.155  29.665  1.00  0.00     0.031 C 
ATOM     50  C   UNL A   1      38.024  34.479  33.400  1.00  0.00     0.029 A 
ATOM     51  N   UNL A   1      39.528  32.832  33.602  1.00  0.00    -0.354 N 
ATOM     52  C   UNL A   1      39.925  29.775  30.595  1.00  0.00     0.074 A 
ATOM     53  C   UNL A   1      39.054  30.048  29.472  1.00  0.00     0.031 C 
ATOM     54  C   UNL A   1      38.680  34.662  34.561  1.00  0.00     0.029 A 
ATOM     55  C   UNL A   1      39.620  33.559  34.764  1.00  0.00     0.049 A 
ATOM     56  H   UNL A   1      40.114  32.069  33.395  1.00  0.00     0.167 HD
ATOM     57  C   UNL A   1      40.792  28.735  30.652  1.00  0.00     0.037 A 
ATOM     58  C   UNL A   1      40.341  33.332  35.882  1.00  0.00     0.037 A 
ATOM     59  C   UNL A   1      41.670  28.471  31.761  1.00  0.00     0.049 A 
ATOM     60  C   UNL A   1      41.244  32.123  35.963  1.00  0.00     0.074 A 
ATOM     61  C   UNL A   1      42.602  27.458  31.903  1.00  0.00     0.029 A 
ATOM     62  N   UNL A   1      41.720  29.223  32.926  1.00  0.00    -0.354 N 
ATOM     63  N   UNL A   1      41.471  31.193  35.066  1.00  0.00    -0.248 NA
ATOM     64  C   UNL A   1      41.989  31.930  37.218  1.00  0.00     0.031 C 
ATOM     65  C   UNL A   1      43.167  27.557  33.178  1.00  0.00     0.029 A 
ATOM     66  C   UNL A   1      42.642  28.676  33.804  1.00  0.00     0.049 A 
ATOM     67  H   UNL A   1      41.181  30.028  33.102  1.00  0.00     0.167 HD
ATOM     68  C   UNL A   1      42.399  30.327  35.634  1.00  0.00     0.074 A 
ATOM     69  C   UNL A   1      42.704  30.845  36.950  1.00  0.00     0.031 C 
ATOM     70  C   UNL A   1      42.951  29.205  35.108  1.00  0.00     0.037 A 
BRANCH  57  71
ATOM     71  C   UNL A   1      40.794  27.769  29.502  1.00  0.00     0.064 A 
ATOM     72  C   UNL A   1      39.837  26.749  29.382  1.00  0.00     0.173 A 
ATOM     73  C   UNL A   1      41.763  27.877  28.493  1.00  0.00     0.173 A 
ATOM     74  F   UNL A   1      38.894  26.593  30.323  1.00  0.00    -0.203 F 
ATOM     75  C   UNL A   1      39.878  25.850  28.318  1.00  0.00     0.198 A 
ATOM     76  C   UNL A   1      41.778  27.000  27.412  1.00  0.00     0.198 A 
ATOM     77  F   UNL A   1      42.697  28.838  28.552  1.00  0.00    -0.203 F 
ATOM     78  F   UNL A   1      38.992  24.846  28.257  1.00  0.00    -0.200 F 
ATOM     79  C   UNL A   1      40.844  25.980  27.331  1.00  0.00     0.200 A 
ATOM     80  F   UNL A   1      42.704  27.138  26.451  1.00  0.00    -0.200 F 
ATOM     81  F   UNL A   1      40.879  25.116  26.308  1.00  0.00    -0.200 F 
ENDBRANCH  57  71
BRANCH  58  82
ATOM     82  C   UNL A   1      40.207  34.248  37.047  1.00  0.00     0.064 A 
ATOM     83  C   UNL A   1      41.029  35.375  37.186  1.00  0.00     0.173 A 
ATOM     84  C   UNL A   1      39.264  34.003  38.058  1.00  0.00     0.173 A 
ATOM     85  F   UNL A   1      41.970  35.636  36.267  1.00  0.00    -0.203 F 
ATOM     86  C   UNL A   1      40.922  36.214  38.296  1.00  0.00     0.198 A 
ATOM     87  C   UNL A   1      39.135  34.860  39.149  1.00  0.00     0.198 A 
ATOM     88  F   UNL A   1      38.461  32.932  37.981  1.00  0.00    -0.203 F 
ATOM     89  F   UNL A   1      41.752  37.257  38.427  1.00  0.00    -0.200 F 
ATOM     90  C   UNL A   1      39.968  35.962  39.270  1.00  0.00     0.200 A 
ATOM     91  F   UNL A   1      38.206  34.616  40.084  1.00  0.00    -0.200 F 
ATOM     92  F   UNL A   1      39.861  36.773  40.331  1.00  0.00    -0.200 F 
ENDBRANCH  58  82
BRANCH  70  93
ATOM     93  C   UNL A   1      43.982  28.475  35.926  1.00  0.00     0.064 A 
ATOM     94  C   UNL A   1      43.635  27.438  36.803  1.00  0.00     0.173 A 
ATOM     95  C   UNL A   1      45.345  28.774  35.772  1.00  0.00     0.173 A 
ATOM     96  F   UNL A   1      42.346  27.120  36.996  1.00  0.00    -0.203 F 
ATOM     97  C   UNL A   1      44.612  26.737  37.507  1.00  0.00     0.198 A 
ATOM     98  C   UNL A   1      46.321  28.051  36.453  1.00  0.00     0.198 A 
ATOM     99  F   UNL A   1      45.735  29.752  34.941  1.00  0.00    -0.203 F 
ATOM    100  F   UNL A   1      44.255  25.774  38.368  1.00  0.00    -0.200 F 
ATOM    101  C   UNL A   1      45.954  27.037  37.323  1.00  0.00     0.200 A 
ATOM    102  F   UNL A   1      47.618  28.331  36.260  1.00  0.00    -0.200 F 
ATOM    103  F   UNL A   1      46.894  26.349  37.989  1.00  0.00    -0.200 F 
ENDBRANCH  70  93
ENDBRANCH  44  45
ENDBRANCH  37  39
ENDBRANCH  36  37
ENDBRANCH  35  36
ENDBRANCH  34  35
ENDBRANCH  33  34
ENDBRANCH  32  33
ENDBRANCH  31  32
ENDBRANCH  30  31
ENDBRANCH  29  30
ENDBRANCH   1  29
TORSDOF 27
ENDMDL
MODEL 2
REMARK VINA RESULT:      -9.3      3.866      8.845
REMARK SMILES CCC(CC)(NC(=O)c1ccc(CC[NH3+])cc1)C(=O)OCCOCCOCCOCCOC(=O)c1ccc(-c2c3nc(c(-c4c(F)c(F)c(F)c(F)c4F)c4ccc([nH]4)c(-c4c(F)c(F)c(F)c(F)c4F)c4nc(c(-c5c(F)c(F)c(F)c(F)c5F)c5ccc2[nH]5)C=C4)C=C3)cc1
REMARK SMILES IDX 24 1 23 2 22 3 21 4 20 5 18 6 19 7 3 8 2 9 1 10 4 11 5 12
REMARK SMILES IDX 6 13 7 14 8 16 9 17 10 18 17 19 11 20 16 21 12 22 13 23
REMARK SMILES IDX 14 24 15 25 25 29 26 30 27 31 28 32 29 33 30 34 31 35 32 36
REMARK SMILES IDX 33 37 34 38 35 39 36 40 97 41 37 42 96 43 38 44 39 45 40 46
REMARK SMILES IDX 90 47 41 48 95 49 89 50 91 51 42 52 94 53 88 54 87 55 43 57
REMARK SMILES IDX 75 58 55 59 74 60 56 61 59 62 73 63 92 64 57 65 58 66 72 68
REMARK SMILES IDX 93 69 60 70 44 71 45 72 53 73 46 74 47 75 51 76 54 77 48 78
REMARK SMILES IDX 49 79 52 80 50 81 76 82 77 83 85 84 78 85 79 86 83 87 86 88
REMARK SMILES IDX 80 89 81 90 84 91 82 92 61 93 62 94 70 95 63 96 64 97 68 98
REMARK SMILES IDX 71 99 65 100 66 101 69 102 67 103
REMARK H PARENT 6 15 15 26 15 27 15 28 91 56 59 67
REMARK Flexibility Score: inf
ROOT
ATOM      1  C   UNL A   1      30.930  25.224  26.611  1.00  0.00     0.188 C 
ENDROOT
BRANCH   1   2
ATOM      2  O   UNL A   1      30.101  24.211  27.190  1.00  0.00    -0.376 OA
BRANCH   2   3
ATOM      3  C   UNL A   1      30.632  22.878  27.023  1.00  0.00     0.202 C 
BRANCH   3   4
ATOM      4  C   UNL A   1      30.414  22.167  25.665  1.00  0.00     0.261 C 
BRANCH   4   5
ATOM      5  O   UNL A   1      31.569  22.237  24.828  1.00  0.00    -0.461 OA
BRANCH   5   6
ATOM      6  C   UNL A   1      31.707  23.200  23.902  1.00  0.00     0.331 C 
ATOM      7  O   UNL A   1      30.763  23.730  23.330  1.00  0.00    -0.249 OA
BRANCH   6   8
ATOM      8  C   UNL A   1      33.214  23.606  23.741  1.00  0.00     0.137 C 
BRANCH   8   9
ATOM      9  C   UNL A   1      33.296  25.185  23.845  1.00  0.00     0.037 C 
ATOM     10  C   UNL A   1      34.146  25.775  24.969  1.00  0.00     0.007 C 
ENDBRANCH   8   9
BRANCH   8  11
ATOM     11  C   UNL A   1      33.679  23.117  22.339  1.00  0.00     0.037 C 
ATOM     12  C   UNL A   1      33.391  24.061  21.172  1.00  0.00     0.007 C 
ENDBRANCH   8  11
BRANCH   8  13
ATOM     13  N   UNL A   1      34.152  23.063  24.819  1.00  0.00    -0.336 N 
ATOM     14  C   UNL A   1      35.230  22.189  24.684  1.00  0.00     0.252 C 
ATOM     15  H   UNL A   1      33.971  23.374  25.736  1.00  0.00     0.165 HD
ATOM     16  O   UNL A   1      36.374  22.617  24.815  1.00  0.00    -0.269 OA
BRANCH  14  17
ATOM     17  C   UNL A   1      35.031  20.699  24.659  1.00  0.00     0.039 A 
ATOM     18  C   UNL A   1      36.121  19.860  24.835  1.00  0.00     0.014 A 
ATOM     19  C   UNL A   1      33.816  20.084  24.367  1.00  0.00     0.014 A 
ATOM     20  C   UNL A   1      36.045  18.465  24.807  1.00  0.00     0.005 A 
ATOM     21  C   UNL A   1      33.706  18.671  24.377  1.00  0.00     0.005 A 
ATOM     22  C   UNL A   1      34.818  17.846  24.632  1.00  0.00    -0.042 A 
BRANCH  22  23
ATOM     23  C   UNL A   1      34.712  16.351  24.847  1.00  0.00     0.096 C 
BRANCH  23  24
ATOM     24  C   UNL A   1      33.292  15.769  24.913  1.00  0.00     0.263 C 
BRANCH  24  25
ATOM     25  N   UNL A   1      32.680  15.872  26.238  1.00  0.00    -0.357 N 
ATOM     26  H   UNL A   1      31.802  15.355  26.248  1.00  0.00     0.344 HD
ATOM     27  H   UNL A   1      32.499  16.854  26.453  1.00  0.00     0.344 HD
ATOM     28  H   UNL A   1      33.313  15.484  26.936  1.00  0.00     0.344 HD
ENDBRANCH  24  25
ENDBRANCH  23  24
ENDBRANCH  22  23
ENDBRANCH  14  17
ENDBRANCH   8  13
ENDBRANCH   6   8
ENDBRANCH   5   6
ENDBRANCH   4   5
ENDBRANCH   3   4
ENDBRANCH   2   3
ENDBRANCH   1   2
BRANCH   1  29
ATOM     29  C   UNL A   1      30.220  26.177  25.629  1.00  0.00     0.188 C 
BRANCH  29  30
ATOM     30  O   UNL A   1      30.929  27.398  25.398  1.00  0.00    -0.377 OA
BRANCH  30  31
ATOM     31  C   UNL A   1      30.905  28.009  24.104  1.00  0.00     0.188 C 
BRANCH  31  32
ATOM     32  C   UNL A   1      31.602  29.359  23.920  1.00  0.00     0.188 C 
BRANCH  32  33
ATOM     33  O   UNL A   1      32.564  29.695  24.923  1.00  0.00    -0.376 OA
BRANCH  33  34
ATOM     34  C   UNL A   1      32.104  30.489  26.014  1.00  0.00     0.202 C 
BRANCH  34  35
ATOM     35  C   UNL A   1      32.946  30.438  27.301  1.00  0.00     0.261 C 
BRANCH  35  36
ATOM     36  O   UNL A   1      34.151  31.235  27.277  1.00  0.00    -0.460 OA
BRANCH  36  37
ATOM     37  C   UNL A   1      34.800  31.345  28.459  1.00  0.00     0.338 C 
ATOM     38  O   UNL A   1      34.465  32.039  29.417  1.00  0.00    -0.246 OA
BRANCH  37  39
ATOM     39  C   UNL A   1      35.954  30.425  28.546  1.00  0.00     0.060 A 
ATOM     40  C   UNL A   1      36.214  29.807  29.777  1.00  0.00     0.016 A 
ATOM     41  C   UNL A   1      36.871  30.305  27.501  1.00  0.00     0.016 A 
ATOM     42  C   UNL A   1      37.417  29.126  29.994  1.00  0.00     0.010 A 
ATOM     43  C   UNL A   1      38.081  29.631  27.722  1.00  0.00     0.010 A 
ATOM     44  C   UNL A   1      38.386  29.083  28.985  1.00  0.00    -0.014 A 
BRANCH  44  45
ATOM     45  C   UNL A   1      39.790  28.693  29.297  1.00  0.00     0.031 A 
ATOM     46  C   UNL A   1      40.657  29.681  30.037  1.00  0.00     0.074 A 
ATOM     47  C   UNL A   1      40.308  27.504  28.940  1.00  0.00     0.049 A 
ATOM     48  N   UNL A   1      41.947  29.662  30.267  1.00  0.00    -0.248 NA
ATOM     49  C   UNL A   1      39.967  30.857  30.588  1.00  0.00     0.031 C 
ATOM     50  C   UNL A   1      39.578  26.422  28.289  1.00  0.00     0.029 A 
ATOM     51  N   UNL A   1      41.595  27.026  29.053  1.00  0.00    -0.354 N 
ATOM     52  C   UNL A   1      42.226  30.839  30.951  1.00  0.00     0.074 A 
ATOM     53  C   UNL A   1      40.975  31.554  31.090  1.00  0.00     0.031 C 
ATOM     54  C   UNL A   1      40.434  25.418  28.026  1.00  0.00     0.029 A 
ATOM     55  C   UNL A   1      41.782  25.810  28.443  1.00  0.00     0.049 A 
ATOM     56  H   UNL A   1      42.311  27.509  29.525  1.00  0.00     0.167 HD
ATOM     57  C   UNL A   1      43.416  31.289  31.419  1.00  0.00     0.037 A 
ATOM     58  C   UNL A   1      42.915  25.116  28.203  1.00  0.00     0.037 A 
ATOM     59  C   UNL A   1      44.658  30.573  31.296  1.00  0.00     0.049 A 
ATOM     60  C   UNL A   1      44.246  25.669  28.660  1.00  0.00     0.074 A 
ATOM     61  C   UNL A   1      45.911  30.933  31.759  1.00  0.00     0.029 A 
ATOM     62  N   UNL A   1      44.806  29.351  30.656  1.00  0.00    -0.354 N 
ATOM     63  N   UNL A   1      44.507  26.781  29.304  1.00  0.00    -0.248 NA
ATOM     64  C   UNL A   1      45.442  24.867  28.352  1.00  0.00     0.031 C 
ATOM     65  C   UNL A   1      46.828  29.963  31.342  1.00  0.00     0.029 A 
ATOM     66  C   UNL A   1      46.135  28.961  30.683  1.00  0.00     0.049 A 
ATOM     67  H   UNL A   1      44.074  28.836  30.244  1.00  0.00     0.167 HD
ATOM     68  C   UNL A   1      45.884  26.798  29.500  1.00  0.00     0.074 A 
ATOM     69  C   UNL A   1      46.405  25.581  28.917  1.00  0.00     0.031 C 
ATOM     70  C   UNL A   1      46.646  27.740  30.112  1.00  0.00     0.037 A 
BRANCH  57  71
ATOM     71  C   UNL A   1      43.441  32.647  32.060  1.00  0.00     0.064 A 
ATOM     72  C   UNL A   1      43.585  33.824  31.310  1.00  0.00     0.173 A 
ATOM     73  C   UNL A   1      43.304  32.772  33.451  1.00  0.00     0.173 A 
ATOM     74  F   UNL A   1      43.731  33.763  29.978  1.00  0.00    -0.203 F 
ATOM     75  C   UNL A   1      43.631  35.070  31.933  1.00  0.00     0.198 A 
ATOM     76  C   UNL A   1      43.314  34.020  34.067  1.00  0.00     0.198 A 
ATOM     77  F   UNL A   1      43.155  31.680  34.217  1.00  0.00    -0.203 F 
ATOM     78  F   UNL A   1      43.832  36.176  31.203  1.00  0.00    -0.200 F 
ATOM     79  C   UNL A   1      43.490  35.167  33.310  1.00  0.00     0.200 A 
ATOM     80  F   UNL A   1      43.160  34.112  35.396  1.00  0.00    -0.200 F 
ATOM     81  F   UNL A   1      43.532  36.366  33.906  1.00  0.00    -0.200 F 
ENDBRANCH  57  71
BRANCH  58  82
ATOM     82  C   UNL A   1      42.853  23.835  27.448  1.00  0.00     0.064 A 
ATOM     83  C   UNL A   1      42.492  22.636  28.077  1.00  0.00     0.173 A 
ATOM     84  C   UNL A   1      43.174  23.782  26.082  1.00  0.00     0.173 A 
ATOM     85  F   UNL A   1      42.211  22.625  29.388  1.00  0.00    -0.203 F 
ATOM     86  C   UNL A   1      42.466  21.432  27.373  1.00  0.00     0.198 A 
ATOM     87  C   UNL A   1      43.115  22.585  25.373  1.00  0.00     0.198 A 
ATOM     88  F   UNL A   1      43.537  24.898  25.435  1.00  0.00    -0.203 F 
ATOM     89  F   UNL A   1      42.164  20.292  28.010  1.00  0.00    -0.200 F 
ATOM     90  C   UNL A   1      42.767  21.409  26.020  1.00  0.00     0.200 A 
ATOM     91  F   UNL A   1      43.399  22.570  24.063  1.00  0.00    -0.200 F 
ATOM     92  F   UNL A   1      42.733  20.253  25.343  1.00  0.00    -0.200 F 
ENDBRANCH  58  82
BRANCH  70  93
ATOM     93  C   UNL A   1      48.123  27.482  30.236  1.00  0.00     0.064 A 
ATOM     94  C   UNL A   1      49.039  27.940  29.279  1.00  0.00     0.173 A 
ATOM     95  C   UNL A   1      48.633  26.827  31.368  1.00  0.00     0.173 A 
ATOM     96  F   UNL A   1      48.604  28.561  28.172  1.00  0.00    -0.203 F 
ATOM     97  C   UNL A   1      50.408  27.740  29.443  1.00  0.00     0.198 A 
ATOM     98  C   UNL A   1      50.003  26.656  31.544  1.00  0.00     0.198 A 
ATOM     99  F   UNL A   1      47.802  26.374  32.319  1.00  0.00    -0.203 F 
ATOM    100  F   UNL A   1      51.263  28.154  28.497  1.00  0.00    -0.200 F 
ATOM    101  C   UNL A   1      50.890  27.108  30.580  1.00  0.00     0.200 A 
ATOM    102  F   UNL A   1      50.467  26.061  32.653  1.00  0.00    -0.200 F 
ATOM    103  F   UNL A   1      52.209  26.932  30.743  1.00  0.00    -0.200 F 
ENDBRANCH  70  93
ENDBRANCH  44  45
ENDBRANCH  37  39
ENDBRANCH  36  37
ENDBRANCH  35  36
ENDBRANCH  34  35
ENDBRANCH  33  34
ENDBRANCH  32  33
ENDBRANCH  31  32
ENDBRANCH  30  31
ENDBRANCH  29  30
ENDBRANCH   1  29
TORSDOF 27
ENDMDL
MODEL 3
REMARK VINA RESULT:      -9.3      4.917      9.056
REMARK SMILES CCC(CC)(NC(=O)c1ccc(CC[NH3+])cc1)C(=O)OCCOCCOCCOCCOC(=O)c1ccc(-c2c3nc(c(-c4c(F)c(F)c(F)c(F)c4F)c4ccc([nH]4)c(-c4c(F)c(F)c(F)c(F)c4F)c4nc(c(-c5c(F)c(F)c(F)c(F)c5F)c5ccc2[nH]5)C=C4)C=C3)cc1
REMARK SMILES IDX 24 1 23 2 22 3 21 4 20 5 18 6 19 7 3 8 2 9 1 10 4 11 5 12
REMARK SMILES IDX 6 13 7 14 8 16 9 17 10 18 17 19 11 20 16 21 12 22 13 23
REMARK SMILES IDX 14 24 15 25 25 29 26 30 27 31 28 32 29 33 30 34 31 35 32 36
REMARK SMILES IDX 33 37 34 38 35 39 36 40 97 41 37 42 96 43 38 44 39 45 40 46
REMARK SMILES IDX 90 47 41 48 95 49 89 50 91 51 42 52 94 53 88 54 87 55 43 57
REMARK SMILES IDX 75 58 55 59 74 60 56 61 59 62 73 63 92 64 57 65 58 66 72 68
REMARK SMILES IDX 93 69 60 70 44 71 45 72 53 73 46 74 47 75 51 76 54 77 48 78
REMARK SMILES IDX 49 79 52 80 50 81 76 82 77 83 85 84 78 85 79 86 83 87 86 88
REMARK SMILES IDX 80 89 81 90 84 91 82 92 61 93 62 94 70 95 63 96 64 97 68 98
REMARK SMILES IDX 71 99 65 100 66 101 69 102 67 103
REMARK H PARENT 6 15 15 26 15 27 15 28 91 56 59 67
REMARK Flexibility Score: inf
ROOT
ATOM      1  C   UNL A   1      29.264  29.815  23.345  1.00  0.00     0.188 C 
ENDROOT
BRANCH   1   2
ATOM      2  O   UNL A   1      29.481  28.825  22.334  1.00  0.00    -0.376 OA
BRANCH   2   3
ATOM      3  C   UNL A   1      30.394  27.783  22.745  1.00  0.00     0.202 C 
BRANCH   3   4
ATOM      4  C   UNL A   1      29.840  26.621  23.605  1.00  0.00     0.261 C 
BRANCH   4   5
ATOM      5  O   UNL A   1      30.655  26.359  24.748  1.00  0.00    -0.461 OA
BRANCH   5   6
ATOM      6  C   UNL A   1      31.316  25.198  24.888  1.00  0.00     0.331 C 
ATOM      7  O   UNL A   1      30.780  24.100  24.806  1.00  0.00    -0.249 OA
BRANCH   6   8
ATOM      8  C   UNL A   1      32.855  25.450  25.063  1.00  0.00     0.137 C 
BRANCH   8   9
ATOM      9  C   UNL A   1      33.036  26.912  25.645  1.00  0.00     0.037 C 
ATOM     10  C   UNL A   1      33.714  27.949  24.750  1.00  0.00     0.007 C 
ENDBRANCH   8   9
BRANCH   8  11
ATOM     11  C   UNL A   1      33.507  25.327  23.655  1.00  0.00     0.037 C 
ATOM     12  C   UNL A   1      32.690  24.579  22.603  1.00  0.00     0.007 C 
ENDBRANCH   8  11
BRANCH   8  13
ATOM     13  N   UNL A   1      33.559  24.514  26.046  1.00  0.00    -0.336 N 
ATOM     14  C   UNL A   1      34.551  23.567  25.797  1.00  0.00     0.252 C 
ATOM     15  H   UNL A   1      33.271  24.590  26.985  1.00  0.00     0.165 HD
ATOM     16  O   UNL A   1      35.700  23.783  26.179  1.00  0.00    -0.269 OA
BRANCH  14  17
ATOM     17  C   UNL A   1      34.211  22.180  25.326  1.00  0.00     0.039 A 
ATOM     18  C   UNL A   1      35.194  21.203  25.310  1.00  0.00     0.014 A 
ATOM     19  C   UNL A   1      32.972  21.823  24.800  1.00  0.00     0.014 A 
ATOM     20  C   UNL A   1      34.985  19.893  24.871  1.00  0.00     0.005 A 
ATOM     21  C   UNL A   1      32.725  20.489  24.390  1.00  0.00     0.005 A 
ATOM     22  C   UNL A   1      33.724  19.500  24.455  1.00  0.00    -0.042 A 
BRANCH  22  23
ATOM     23  C   UNL A   1      33.454  18.029  24.216  1.00  0.00     0.096 C 
BRANCH  23  24
ATOM     24  C   UNL A   1      32.548  17.326  25.238  1.00  0.00     0.263 C 
BRANCH  24  25
ATOM     25  N   UNL A   1      33.269  16.420  26.132  1.00  0.00    -0.357 N 
ATOM     26  H   UNL A   1      33.226  15.471  25.761  1.00  0.00     0.344 HD
ATOM     27  H   UNL A   1      32.839  16.443  27.058  1.00  0.00     0.344 HD
ATOM     28  H   UNL A   1      34.242  16.715  26.202  1.00  0.00     0.344 HD
ENDBRANCH  24  25
ENDBRANCH  23  24
ENDBRANCH  22  23
ENDBRANCH  14  17
ENDBRANCH   8  13
ENDBRANCH   6   8
ENDBRANCH   5   6
ENDBRANCH   4   5
ENDBRANCH   3   4
ENDBRANCH   2   3
ENDBRANCH   1   2
BRANCH   1  29
ATOM     29  C   UNL A   1      30.463  30.078  24.279  1.00  0.00     0.188 C 
BRANCH  29  30
ATOM     30  O   UNL A   1      30.490  31.403  24.819  1.00  0.00    -0.377 OA
BRANCH  30  31
ATOM     31  C   UNL A   1      30.923  31.620  26.166  1.00  0.00     0.188 C 
BRANCH  31  32
ATOM     32  C   UNL A   1      31.876  30.603  26.800  1.00  0.00     0.188 C 
BRANCH  32  33
ATOM     33  O   UNL A   1      33.266  30.916  26.694  1.00  0.00    -0.376 OA
BRANCH  33  34
ATOM     34  C   UNL A   1      34.017  30.927  27.907  1.00  0.00     0.202 C 
BRANCH  34  35
ATOM     35  C   UNL A   1      34.129  32.280  28.630  1.00  0.00     0.261 C 
BRANCH  35  36
ATOM     36  O   UNL A   1      34.402  32.196  30.047  1.00  0.00    -0.460 OA
BRANCH  36  37
ATOM     37  C   UNL A   1      35.670  32.494  30.414  1.00  0.00     0.338 C 
ATOM     38  O   UNL A   1      36.040  33.491  31.032  1.00  0.00    -0.246 OA
BRANCH  37  39
ATOM     39  C   UNL A   1      36.613  31.405  30.083  1.00  0.00     0.060 A 
ATOM     40  C   UNL A   1      37.263  30.750  31.139  1.00  0.00     0.016 A 
ATOM     41  C   UNL A   1      36.994  31.145  28.766  1.00  0.00     0.016 A 
ATOM     42  C   UNL A   1      38.337  29.888  30.892  1.00  0.00     0.010 A 
ATOM     43  C   UNL A   1      38.078  30.289  28.520  1.00  0.00     0.010 A 
ATOM     44  C   UNL A   1      38.791  29.697  29.583  1.00  0.00    -0.014 A 
BRANCH  44  45
ATOM     45  C   UNL A   1      40.128  29.092  29.323  1.00  0.00     0.031 A 
ATOM     46  C   UNL A   1      41.340  29.988  29.375  1.00  0.00     0.074 A 
ATOM     47  C   UNL A   1      40.290  27.786  29.042  1.00  0.00     0.049 A 
ATOM     48  N   UNL A   1      42.577  29.753  29.014  1.00  0.00    -0.248 NA
ATOM     49  C   UNL A   1      41.116  31.343  29.904  1.00  0.00     0.031 C 
ATOM     50  C   UNL A   1      39.230  26.784  29.029  1.00  0.00     0.029 A 
ATOM     51  N   UNL A   1      41.421  27.089  28.680  1.00  0.00    -0.354 N 
ATOM     52  C   UNL A   1      43.266  30.940  29.233  1.00  0.00     0.074 A 
ATOM     53  C   UNL A   1      42.309  31.896  29.748  1.00  0.00     0.031 C 
ATOM     54  C   UNL A   1      39.752  25.606  28.641  1.00  0.00     0.029 A 
ATOM     55  C   UNL A   1      41.171  25.785  28.330  1.00  0.00     0.049 A 
ATOM     56  H   UNL A   1      42.322  27.486  28.674  1.00  0.00     0.167 HD
ATOM     57  C   UNL A   1      44.577  31.213  29.023  1.00  0.00     0.037 A 
ATOM     58  C   UNL A   1      41.980  24.858  27.774  1.00  0.00     0.037 A 
ATOM     59  C   UNL A   1      45.534  30.259  28.526  1.00  0.00     0.049 A 
ATOM     60  C   UNL A   1      43.420  25.202  27.469  1.00  0.00     0.074 A 
ATOM     61  C   UNL A   1      46.888  30.433  28.302  1.00  0.00     0.029 A 
ATOM     62  N   UNL A   1      45.235  28.953  28.167  1.00  0.00    -0.354 N 
ATOM     63  N   UNL A   1      44.068  26.323  27.675  1.00  0.00    -0.248 NA
ATOM     64  C   UNL A   1      44.240  24.148  26.849  1.00  0.00     0.031 C 
ATOM     65  C   UNL A   1      47.395  29.254  27.747  1.00  0.00     0.029 A 
ATOM     66  C   UNL A   1      46.373  28.321  27.692  1.00  0.00     0.049 A 
ATOM     67  H   UNL A   1      44.346  28.537  28.240  1.00  0.00     0.167 HD
ATOM     68  C   UNL A   1      45.370  26.101  27.239  1.00  0.00     0.074 A 
ATOM     69  C   UNL A   1      45.426  24.735  26.766  1.00  0.00     0.031 C 
ATOM     70  C   UNL A   1      46.425  26.955  27.235  1.00  0.00     0.037 A 
BRANCH  57  71
ATOM     71  C   UNL A   1      45.043  32.619  29.277  1.00  0.00     0.064 A 
ATOM     72  C   UNL A   1      45.602  33.009  30.503  1.00  0.00     0.173 A 
ATOM     73  C   UNL A   1      44.940  33.587  28.267  1.00  0.00     0.173 A 
ATOM     74  F   UNL A   1      45.714  32.127  31.506  1.00  0.00    -0.203 F 
ATOM     75  C   UNL A   1      46.002  34.326  30.720  1.00  0.00     0.198 A 
ATOM     76  C   UNL A   1      45.375  34.893  28.475  1.00  0.00     0.198 A 
ATOM     77  F   UNL A   1      44.421  33.267  27.072  1.00  0.00    -0.203 F 
ATOM     78  F   UNL A   1      46.476  34.692  31.920  1.00  0.00    -0.200 F 
ATOM     79  C   UNL A   1      45.894  35.265  29.705  1.00  0.00     0.200 A 
ATOM     80  F   UNL A   1      45.284  35.794  27.486  1.00  0.00    -0.200 F 
ATOM     81  F   UNL A   1      46.282  36.530  29.916  1.00  0.00    -0.200 F 
ENDBRANCH  57  71
BRANCH  58  82
ATOM     82  C   UNL A   1      41.437  23.518  27.420  1.00  0.00     0.064 A 
ATOM     83  C   UNL A   1      41.964  22.347  27.980  1.00  0.00     0.173 A 
ATOM     84  C   UNL A   1      40.388  23.382  26.496  1.00  0.00     0.173 A 
ATOM     85  F   UNL A   1      42.990  22.419  28.841  1.00  0.00    -0.203 F 
ATOM     86  C   UNL A   1      41.474  21.091  27.622  1.00  0.00     0.198 A 
ATOM     87  C   UNL A   1      39.877  22.129  26.164  1.00  0.00     0.198 A 
ATOM     88  F   UNL A   1      39.855  24.469  25.921  1.00  0.00    -0.203 F 
ATOM     89  F   UNL A   1      42.029  19.986  28.137  1.00  0.00    -0.200 F 
ATOM     90  C   UNL A   1      40.424  20.984  26.723  1.00  0.00     0.200 A 
ATOM     91  F   UNL A   1      38.856  22.031  25.301  1.00  0.00    -0.200 F 
ATOM     92  F   UNL A   1      39.948  19.778  26.386  1.00  0.00    -0.200 F 
ENDBRANCH  58  82
BRANCH  70  93
ATOM     93  C   UNL A   1      47.751  26.436  26.751  1.00  0.00     0.064 A 
ATOM     94  C   UNL A   1      48.185  26.624  25.431  1.00  0.00     0.173 A 
ATOM     95  C   UNL A   1      48.630  25.804  27.645  1.00  0.00     0.173 A 
ATOM     96  F   UNL A   1      47.379  27.211  24.533  1.00  0.00    -0.203 F 
ATOM     97  C   UNL A   1      49.442  26.186  25.020  1.00  0.00     0.198 A 
ATOM     98  C   UNL A   1      49.898  25.395  27.239  1.00  0.00     0.198 A 
ATOM     99  F   UNL A   1      48.270  25.605  28.922  1.00  0.00    -0.203 F 
ATOM    100  F   UNL A   1      49.821  26.343  23.744  1.00  0.00    -0.200 F 
ATOM    101  C   UNL A   1      50.301  25.582  25.926  1.00  0.00     0.200 A 
ATOM    102  F   UNL A   1      50.733  24.829  28.122  1.00  0.00    -0.200 F 
ATOM    103  F   UNL A   1      51.517  25.176  25.532  1.00  0.00    -0.200 F 
ENDBRANCH  70  93
ENDBRANCH  44  45
ENDBRANCH  37  39
ENDBRANCH  36  37
ENDBRANCH  35  36
ENDBRANCH  34  35
ENDBRANCH  33  34
ENDBRANCH  32  33
ENDBRANCH  31  32
ENDBRANCH  30  31
ENDBRANCH  29  30
ENDBRANCH   1  29
TORSDOF 27
ENDMDL
