MODEL 1
REMARK VINA RESULT:      -9.8      0.000      0.000
REMARK SMILES O=C(Cc1cccn(C(F)F)c1=O)OCCOCCOCCOCCOC(=O)c1ccc(-c2c3nc(c(-c4c(F)c(F)c(F)c(F)c4F)c4ccc([nH]4)c(-c4c(F)c(F)c(F)c(F)c4F)c4nc(c(-c5c(F)c(F)c(F)c(F)c5F)c5ccc2[nH]5)C=C4)C=C3)cc1
REMARK SMILES IDX 20 1 19 2 18 3 17 4 16 5 15 6 14 7 2 8 1 9 3 10 4 11 5 12
REMARK SMILES IDX 12 13 6 14 8 15 13 16 7 17 9 18 10 19 11 20 21 21 22 22
REMARK SMILES IDX 23 23 24 24 25 25 26 26 27 27 28 28 29 29 30 30 91 31 31 32
REMARK SMILES IDX 90 33 32 34 33 35 34 36 84 37 35 38 89 39 83 40 85 41 36 42
REMARK SMILES IDX 88 43 82 44 81 45 37 47 69 48 49 49 68 50 50 51 53 52 67 53
REMARK SMILES IDX 86 54 51 55 52 56 66 58 87 59 54 60 38 61 39 62 47 63 40 64
REMARK SMILES IDX 41 65 45 66 48 67 42 68 43 69 46 70 44 71 70 72 71 73 79 74
REMARK SMILES IDX 72 75 73 76 77 77 80 78 74 79 75 80 78 81 76 82 55 83 56 84
REMARK SMILES IDX 64 85 57 86 58 87 62 88 65 89 59 90 60 91 63 92 61 93
REMARK H PARENT 85 46 53 57
REMARK Flexibility Score: inf
ROOT
ATOM      1  O   UNL A   1      33.483  36.663  30.536  1.00  0.00    -0.377 OA
ENDROOT
BRANCH   1   2
ATOM      2  C   UNL A   1      33.173  35.276  30.486  1.00  0.00     0.188 C 
BRANCH   2   3
ATOM      3  C   UNL A   1      33.796  34.554  29.291  1.00  0.00     0.188 C 
BRANCH   3   4
ATOM      4  O   UNL A   1      32.893  34.234  28.243  1.00  0.00    -0.376 OA
BRANCH   4   5
ATOM      5  C   UNL A   1      33.040  33.117  27.385  1.00  0.00     0.202 C 
BRANCH   5   6
ATOM      6  C   UNL A   1      33.451  31.754  27.933  1.00  0.00     0.261 C 
BRANCH   6   7
ATOM      7  O   UNL A   1      33.155  30.597  27.131  1.00  0.00    -0.463 OA
BRANCH   7   8
ATOM      8  C   UNL A   1      33.826  29.423  27.183  1.00  0.00     0.310 C 
ATOM      9  O   UNL A   1      35.049  29.412  27.073  1.00  0.00    -0.252 OA
BRANCH   8  10
ATOM     10  C   UNL A   1      33.018  28.148  27.207  1.00  0.00     0.164 C 
BRANCH  10  11
ATOM     11  C   UNL A   1      33.049  27.406  25.910  1.00  0.00     0.029 A 
ATOM     12  C   UNL A   1      33.926  26.442  25.579  1.00  0.00     0.011 A 
ATOM     13  C   UNL A   1      31.961  27.752  24.941  1.00  0.00     0.258 A 
ATOM     14  C   UNL A   1      33.843  25.744  24.325  1.00  0.00     0.019 A 
ATOM     15  N   UNL A   1      31.980  27.072  23.741  1.00  0.00    -0.258 N 
ATOM     16  O   UNL A   1      31.108  28.584  25.237  1.00  0.00    -0.269 OA
ATOM     17  C   UNL A   1      32.898  26.083  23.445  1.00  0.00     0.095 A 
BRANCH  15  18
ATOM     18  C   UNL A   1      31.026  27.484  22.747  1.00  0.00     0.451 C 
ATOM     19  F   UNL A   1      31.274  26.808  21.595  1.00  0.00    -0.185 F 
ATOM     20  F   UNL A   1      29.773  27.131  23.135  1.00  0.00    -0.185 F 
ENDBRANCH  15  18
ENDBRANCH  10  11
ENDBRANCH   8  10
ENDBRANCH   7   8
ENDBRANCH   6   7
ENDBRANCH   5   6
ENDBRANCH   4   5
ENDBRANCH   3   4
ENDBRANCH   2   3
ENDBRANCH   1   2
BRANCH   1  21
ATOM     21  C   UNL A   1      33.403  37.235  31.831  1.00  0.00     0.188 C 
BRANCH  21  22
ATOM     22  C   UNL A   1      33.819  36.338  33.023  1.00  0.00     0.188 C 
BRANCH  22  23
ATOM     23  O   UNL A   1      35.161  35.924  33.223  1.00  0.00    -0.376 OA
BRANCH  23  24
ATOM     24  C   UNL A   1      35.441  34.610  33.676  1.00  0.00     0.202 C 
BRANCH  24  25
ATOM     25  C   UNL A   1      34.694  33.433  33.035  1.00  0.00     0.261 C 
BRANCH  25  26
ATOM     26  O   UNL A   1      35.457  32.217  32.971  1.00  0.00    -0.460 OA
BRANCH  26  27
ATOM     27  C   UNL A   1      36.651  32.220  33.614  1.00  0.00     0.338 C 
ATOM     28  O   UNL A   1      36.853  32.388  34.805  1.00  0.00    -0.246 OA
BRANCH  27  29
ATOM     29  C   UNL A   1      37.687  31.732  32.674  1.00  0.00     0.060 A 
ATOM     30  C   UNL A   1      37.554  31.902  31.294  1.00  0.00     0.016 A 
ATOM     31  C   UNL A   1      38.759  30.989  33.194  1.00  0.00     0.016 A 
ATOM     32  C   UNL A   1      38.510  31.350  30.436  1.00  0.00     0.010 A 
ATOM     33  C   UNL A   1      39.697  30.412  32.336  1.00  0.00     0.010 A 
ATOM     34  C   UNL A   1      39.593  30.614  30.953  1.00  0.00    -0.014 A 
BRANCH  34  35
ATOM     35  C   UNL A   1      40.737  30.282  30.073  1.00  0.00     0.031 A 
ATOM     36  C   UNL A   1      41.839  31.244  29.766  1.00  0.00     0.074 A 
ATOM     37  C   UNL A   1      40.755  29.042  29.552  1.00  0.00     0.049 A 
ATOM     38  N   UNL A   1      42.948  31.033  29.103  1.00  0.00    -0.248 NA
ATOM     39  C   UNL A   1      41.678  32.618  30.258  1.00  0.00     0.031 C 
ATOM     40  C   UNL A   1      39.720  28.032  29.775  1.00  0.00     0.029 A 
ATOM     41  N   UNL A   1      41.671  28.416  28.750  1.00  0.00    -0.354 N 
ATOM     42  C   UNL A   1      43.641  32.234  29.126  1.00  0.00     0.074 A 
ATOM     43  C   UNL A   1      42.795  33.188  29.820  1.00  0.00     0.031 C 
ATOM     44  C   UNL A   1      40.075  26.900  29.156  1.00  0.00     0.029 A 
ATOM     45  C   UNL A   1      41.351  27.111  28.480  1.00  0.00     0.049 A 
ATOM     46  H   UNL A   1      42.480  28.859  28.402  1.00  0.00     0.167 HD
ATOM     47  C   UNL A   1      44.875  32.502  28.630  1.00  0.00     0.037 A 
ATOM     48  C   UNL A   1      42.020  26.175  27.784  1.00  0.00     0.037 A 
ATOM     49  C   UNL A   1      45.688  31.554  27.905  1.00  0.00     0.049 A 
ATOM     50  C   UNL A   1      43.354  26.516  27.191  1.00  0.00     0.074 A 
ATOM     51  C   UNL A   1      46.957  31.726  27.378  1.00  0.00     0.029 A 
ATOM     52  N   UNL A   1      45.305  30.256  27.588  1.00  0.00    -0.354 N 
ATOM     53  N   UNL A   1      44.030  27.636  27.270  1.00  0.00    -0.248 NA
ATOM     54  C   UNL A   1      44.019  25.461  26.420  1.00  0.00     0.031 C 
ATOM     55  C   UNL A   1      47.319  30.556  26.699  1.00  0.00     0.029 A 
ATOM     56  C   UNL A   1      46.299  29.630  26.847  1.00  0.00     0.049 A 
ATOM     57  H   UNL A   1      44.452  29.841  27.850  1.00  0.00     0.167 HD
ATOM     58  C   UNL A   1      45.209  27.417  26.573  1.00  0.00     0.074 A 
ATOM     59  C   UNL A   1      45.162  26.050  26.095  1.00  0.00     0.031 C 
ATOM     60  C   UNL A   1      46.235  28.276  26.353  1.00  0.00     0.037 A 
BRANCH  47  61
ATOM     61  C   UNL A   1      45.433  33.879  28.861  1.00  0.00     0.064 A 
ATOM     62  C   UNL A   1      46.146  34.189  30.029  1.00  0.00     0.173 A 
ATOM     63  C   UNL A   1      45.308  34.882  27.887  1.00  0.00     0.173 A 
ATOM     64  F   UNL A   1      46.292  33.269  30.995  1.00  0.00    -0.203 F 
ATOM     65  C   UNL A   1      46.690  35.457  30.226  1.00  0.00     0.198 A 
ATOM     66  C   UNL A   1      45.877  36.140  28.075  1.00  0.00     0.198 A 
ATOM     67  F   UNL A   1      44.647  34.639  26.747  1.00  0.00    -0.203 F 
ATOM     68  F   UNL A   1      47.329  35.740  31.369  1.00  0.00    -0.200 F 
ATOM     69  C   UNL A   1      46.560  36.429  29.246  1.00  0.00     0.200 A 
ATOM     70  F   UNL A   1      45.762  37.075  27.121  1.00  0.00    -0.200 F 
ATOM     71  F   UNL A   1      47.088  37.647  29.434  1.00  0.00    -0.200 F 
ENDBRANCH  47  61
BRANCH  48  72
ATOM     72  C   UNL A   1      41.450  24.811  27.691  1.00  0.00     0.064 A 
ATOM     73  C   UNL A   1      40.343  24.558  26.872  1.00  0.00     0.173 A 
ATOM     74  C   UNL A   1      42.050  23.723  28.342  1.00  0.00     0.173 A 
ATOM     75  F   UNL A   1      39.734  25.573  26.239  1.00  0.00    -0.203 F 
ATOM     76  C   UNL A   1      39.856  23.265  26.704  1.00  0.00     0.198 A 
ATOM     77  C   UNL A   1      41.577  22.428  28.154  1.00  0.00     0.198 A 
ATOM     78  F   UNL A   1      43.121  23.917  29.125  1.00  0.00    -0.203 F 
ATOM     79  F   UNL A   1      38.788  23.051  25.924  1.00  0.00    -0.200 F 
ATOM     80  C   UNL A   1      40.480  22.200  27.335  1.00  0.00     0.200 A 
ATOM     81  F   UNL A   1      42.195  21.399  28.749  1.00  0.00    -0.200 F 
ATOM     82  F   UNL A   1      40.028  20.952  27.152  1.00  0.00    -0.200 F 
ENDBRANCH  48  72
BRANCH  60  83
ATOM     83  C   UNL A   1      47.396  27.759  25.551  1.00  0.00     0.064 A 
ATOM     84  C   UNL A   1      48.514  27.180  26.168  1.00  0.00     0.173 A 
ATOM     85  C   UNL A   1      47.380  27.821  24.148  1.00  0.00     0.173 A 
ATOM     86  F   UNL A   1      48.587  27.113  27.507  1.00  0.00    -0.203 F 
ATOM     87  C   UNL A   1      49.585  26.705  25.414  1.00  0.00     0.198 A 
ATOM     88  C   UNL A   1      48.439  27.316  23.396  1.00  0.00     0.198 A 
ATOM     89  F   UNL A   1      46.334  28.361  23.506  1.00  0.00    -0.203 F 
ATOM     90  F   UNL A   1      50.665  26.201  26.030  1.00  0.00    -0.200 F 
ATOM     91  C   UNL A   1      49.543  26.766  24.030  1.00  0.00     0.200 A 
ATOM     92  F   UNL A   1      48.392  27.366  22.058  1.00  0.00    -0.200 F 
ATOM     93  F   UNL A   1      50.572  26.304  23.306  1.00  0.00    -0.200 F 
ENDBRANCH  60  83
ENDBRANCH  34  35
ENDBRANCH  27  29
ENDBRANCH  26  27
ENDBRANCH  25  26
ENDBRANCH  24  25
ENDBRANCH  23  24
ENDBRANCH  22  23
ENDBRANCH  21  22
ENDBRANCH   1  21
TORSDOF 22
ENDMDL
MODEL 2
REMARK VINA RESULT:      -9.7      4.983      9.644
REMARK SMILES O=C(Cc1cccn(C(F)F)c1=O)OCCOCCOCCOCCOC(=O)c1ccc(-c2c3nc(c(-c4c(F)c(F)c(F)c(F)c4F)c4ccc([nH]4)c(-c4c(F)c(F)c(F)c(F)c4F)c4nc(c(-c5c(F)c(F)c(F)c(F)c5F)c5ccc2[nH]5)C=C4)C=C3)cc1
REMARK SMILES IDX 20 1 19 2 18 3 17 4 16 5 15 6 14 7 2 8 1 9 3 10 4 11 5 12
REMARK SMILES IDX 12 13 6 14 8 15 13 16 7 17 9 18 10 19 11 20 21 21 22 22
REMARK SMILES IDX 23 23 24 24 25 25 26 26 27 27 28 28 29 29 30 30 91 31 31 32
REMARK SMILES IDX 90 33 32 34 33 35 34 36 84 37 35 38 89 39 83 40 85 41 36 42
REMARK SMILES IDX 88 43 82 44 81 45 37 47 69 48 49 49 68 50 50 51 53 52 67 53
REMARK SMILES IDX 86 54 51 55 52 56 66 58 87 59 54 60 38 61 39 62 47 63 40 64
REMARK SMILES IDX 41 65 45 66 48 67 42 68 43 69 46 70 44 71 70 72 71 73 79 74
REMARK SMILES IDX 72 75 73 76 77 77 80 78 74 79 75 80 78 81 76 82 55 83 56 84
REMARK SMILES IDX 64 85 57 86 58 87 62 88 65 89 59 90 60 91 63 92 61 93
REMARK H PARENT 85 46 53 57
REMARK Flexibility Score: inf
ROOT
ATOM      1  O   UNL A   1      35.116  33.298  29.320  1.00  0.00    -0.377 OA
ENDROOT
BRANCH   1   2
ATOM      2  C   UNL A   1      34.483  32.024  29.328  1.00  0.00     0.188 C 
BRANCH   2   3
ATOM      3  C   UNL A   1      34.696  31.229  28.039  1.00  0.00     0.188 C 
BRANCH   3   4
ATOM      4  O   UNL A   1      33.561  31.141  27.191  1.00  0.00    -0.376 OA
BRANCH   4   5
ATOM      5  C   UNL A   1      32.642  30.064  27.208  1.00  0.00     0.202 C 
BRANCH   5   6
ATOM      6  C   UNL A   1      33.126  28.618  27.218  1.00  0.00     0.261 C 
BRANCH   6   7
ATOM      7  O   UNL A   1      32.766  27.787  26.101  1.00  0.00    -0.463 OA
BRANCH   7   8
ATOM      8  C   UNL A   1      32.713  26.435  26.124  1.00  0.00     0.310 C 
ATOM      9  O   UNL A   1      31.788  25.868  26.699  1.00  0.00    -0.252 OA
BRANCH   8  10
ATOM     10  C   UNL A   1      33.897  25.672  25.579  1.00  0.00     0.164 C 
BRANCH  10  11
ATOM     11  C   UNL A   1      33.550  24.792  24.422  1.00  0.00     0.029 A 
ATOM     12  C   UNL A   1      33.418  25.192  23.145  1.00  0.00     0.011 A 
ATOM     13  C   UNL A   1      33.396  23.336  24.738  1.00  0.00     0.258 A 
ATOM     14  C   UNL A   1      33.135  24.260  22.087  1.00  0.00     0.019 A 
ATOM     15  N   UNL A   1      33.077  22.516  23.677  1.00  0.00    -0.258 N 
ATOM     16  O   UNL A   1      33.570  22.929  25.884  1.00  0.00    -0.269 OA
ATOM     17  C   UNL A   1      32.958  22.970  22.378  1.00  0.00     0.095 A 
BRANCH  15  18
ATOM     18  C   UNL A   1      32.795  21.140  23.983  1.00  0.00     0.451 C 
ATOM     19  F   UNL A   1      32.342  20.524  22.859  1.00  0.00    -0.185 F 
ATOM     20  F   UNL A   1      33.941  20.500  24.333  1.00  0.00    -0.185 F 
ENDBRANCH  15  18
ENDBRANCH  10  11
ENDBRANCH   8  10
ENDBRANCH   7   8
ENDBRANCH   6   7
ENDBRANCH   5   6
ENDBRANCH   4   5
ENDBRANCH   3   4
ENDBRANCH   2   3
ENDBRANCH   1   2
BRANCH   1  21
ATOM     21  C   UNL A   1      35.338  33.834  28.026  1.00  0.00     0.188 C 
BRANCH  21  22
ATOM     22  C   UNL A   1      34.460  35.036  27.601  1.00  0.00     0.188 C 
BRANCH  22  23
ATOM     23  O   UNL A   1      34.576  36.309  28.216  1.00  0.00    -0.376 OA
BRANCH  23  24
ATOM     24  C   UNL A   1      33.452  36.901  28.847  1.00  0.00     0.202 C 
BRANCH  24  25
ATOM     25  C   UNL A   1      32.691  36.095  29.909  1.00  0.00     0.261 C 
BRANCH  25  26
ATOM     26  O   UNL A   1      32.895  36.556  31.254  1.00  0.00    -0.460 OA
BRANCH  26  27
ATOM     27  C   UNL A   1      32.660  35.657  32.242  1.00  0.00     0.338 C 
ATOM     28  O   UNL A   1      31.587  35.374  32.749  1.00  0.00    -0.246 OA
BRANCH  27  29
ATOM     29  C   UNL A   1      33.895  34.868  32.457  1.00  0.00     0.060 A 
ATOM     30  C   UNL A   1      35.153  35.387  32.144  1.00  0.00     0.016 A 
ATOM     31  C   UNL A   1      33.766  33.535  32.880  1.00  0.00     0.016 A 
ATOM     32  C   UNL A   1      36.286  34.580  32.280  1.00  0.00     0.010 A 
ATOM     33  C   UNL A   1      34.894  32.719  32.987  1.00  0.00     0.010 A 
ATOM     34  C   UNL A   1      36.164  33.247  32.714  1.00  0.00    -0.014 A 
BRANCH  34  35
ATOM     35  C   UNL A   1      37.374  32.498  33.124  1.00  0.00     0.031 A 
ATOM     36  C   UNL A   1      38.007  31.440  32.278  1.00  0.00     0.074 A 
ATOM     37  C   UNL A   1      37.906  32.820  34.316  1.00  0.00     0.049 A 
ATOM     38  N   UNL A   1      39.128  30.795  32.478  1.00  0.00    -0.248 NA
ATOM     39  C   UNL A   1      37.291  31.049  31.057  1.00  0.00     0.031 C 
ATOM     40  C   UNL A   1      37.357  33.826  35.227  1.00  0.00     0.029 A 
ATOM     41  N   UNL A   1      39.023  32.357  34.959  1.00  0.00    -0.354 N 
ATOM     42  C   UNL A   1      39.279  29.947  31.391  1.00  0.00     0.074 A 
ATOM     43  C   UNL A   1      38.099  30.117  30.564  1.00  0.00     0.031 C 
ATOM     44  C   UNL A   1      38.157  33.931  36.295  1.00  0.00     0.029 A 
ATOM     45  C   UNL A   1      39.263  32.990  36.151  1.00  0.00     0.049 A 
ATOM     46  H   UNL A   1      39.597  31.641  34.600  1.00  0.00     0.167 HD
ATOM     47  C   UNL A   1      40.318  29.121  31.108  1.00  0.00     0.037 A 
ATOM     48  C   UNL A   1      40.274  32.847  37.025  1.00  0.00     0.037 A 
ATOM     49  C   UNL A   1      41.468  28.931  31.962  1.00  0.00     0.049 A 
ATOM     50  C   UNL A   1      41.378  31.880  36.719  1.00  0.00     0.074 A 
ATOM     51  C   UNL A   1      42.578  28.129  31.754  1.00  0.00     0.029 A 
ATOM     52  N   UNL A   1      41.649  29.537  33.199  1.00  0.00    -0.354 N 
ATOM     53  N   UNL A   1      41.544  31.126  35.659  1.00  0.00    -0.248 NA
ATOM     54  C   UNL A   1      42.436  31.751  37.726  1.00  0.00     0.031 C 
ATOM     55  C   UNL A   1      43.401  28.208  32.884  1.00  0.00     0.029 A 
ATOM     56  C   UNL A   1      42.834  29.103  33.777  1.00  0.00     0.049 A 
ATOM     57  H   UNL A   1      41.025  30.180  33.607  1.00  0.00     0.167 HD
ATOM     58  C   UNL A   1      42.735  30.445  35.862  1.00  0.00     0.074 A 
ATOM     59  C   UNL A   1      43.257  30.890  37.140  1.00  0.00     0.031 C 
ATOM     60  C   UNL A   1      43.336  29.532  35.060  1.00  0.00     0.037 A 
BRANCH  47  61
ATOM     61  C   UNL A   1      40.268  28.361  29.811  1.00  0.00     0.064 A 
ATOM     62  C   UNL A   1      40.960  28.811  28.677  1.00  0.00     0.173 A 
ATOM     63  C   UNL A   1      39.574  27.145  29.713  1.00  0.00     0.173 A 
ATOM     64  F   UNL A   1      41.637  29.968  28.714  1.00  0.00    -0.203 F 
ATOM     65  C   UNL A   1      40.938  28.087  27.486  1.00  0.00     0.198 A 
ATOM     66  C   UNL A   1      39.577  26.410  28.529  1.00  0.00     0.198 A 
ATOM     67  F   UNL A   1      38.904  26.661  30.769  1.00  0.00    -0.203 F 
ATOM     68  F   UNL A   1      41.572  28.560  26.405  1.00  0.00    -0.200 F 
ATOM     69  C   UNL A   1      40.252  26.885  27.415  1.00  0.00     0.200 A 
ATOM     70  F   UNL A   1      38.924  25.241  28.467  1.00  0.00    -0.200 F 
ATOM     71  F   UNL A   1      40.235  26.187  26.271  1.00  0.00    -0.200 F 
ENDBRANCH  47  61
BRANCH  48  72
ATOM     72  C   UNL A   1      40.304  33.710  38.229  1.00  0.00     0.064 A 
ATOM     73  C   UNL A   1      40.995  34.928  38.213  1.00  0.00     0.173 A 
ATOM     74  C   UNL A   1      39.573  33.382  39.381  1.00  0.00     0.173 A 
ATOM     75  F   UNL A   1      41.714  35.275  37.134  1.00  0.00    -0.203 F 
ATOM     76  C   UNL A   1      40.953  35.790  39.304  1.00  0.00     0.198 A 
ATOM     77  C   UNL A   1      39.513  34.256  40.462  1.00  0.00     0.198 A 
ATOM     78  F   UNL A   1      38.885  32.233  39.434  1.00  0.00    -0.203 F 
ATOM     79  F   UNL A   1      41.632  36.944  39.270  1.00  0.00    -0.200 F 
ATOM     80  C   UNL A   1      40.203  35.459  40.423  1.00  0.00     0.200 A 
ATOM     81  F   UNL A   1      38.770  33.943  41.532  1.00  0.00    -0.200 F 
ATOM     82  F   UNL A   1      40.141  36.302  41.463  1.00  0.00    -0.200 F 
ENDBRANCH  48  72
BRANCH  60  83
ATOM     83  C   UNL A   1      44.633  28.948  35.545  1.00  0.00     0.064 A 
ATOM     84  C   UNL A   1      45.861  29.581  35.298  1.00  0.00     0.173 A 
ATOM     85  C   UNL A   1      44.648  27.756  36.285  1.00  0.00     0.173 A 
ATOM     86  F   UNL A   1      45.904  30.713  34.578  1.00  0.00    -0.203 F 
ATOM     87  C   UNL A   1      47.057  29.029  35.751  1.00  0.00     0.198 A 
ATOM     88  C   UNL A   1      45.843  27.224  36.764  1.00  0.00     0.198 A 
ATOM     89  F   UNL A   1      43.503  27.111  36.554  1.00  0.00    -0.203 F 
ATOM     90  F   UNL A   1      48.221  29.626  35.459  1.00  0.00    -0.200 F 
ATOM     91  C   UNL A   1      47.047  27.856  36.490  1.00  0.00     0.200 A 
ATOM     92  F   UNL A   1      45.831  26.096  37.488  1.00  0.00    -0.200 F 
ATOM     93  F   UNL A   1      48.198  27.330  36.931  1.00  0.00    -0.200 F 
ENDBRANCH  60  83
ENDBRANCH  34  35
ENDBRANCH  27  29
ENDBRANCH  26  27
ENDBRANCH  25  26
ENDBRANCH  24  25
ENDBRANCH  23  24
ENDBRANCH  22  23
ENDBRANCH  21  22
ENDBRANCH   1  21
TORSDOF 22
ENDMDL
MODEL 3
REMARK VINA RESULT:      -9.4      4.892      7.572
REMARK SMILES O=C(Cc1cccn(C(F)F)c1=O)OCCOCCOCCOCCOC(=O)c1ccc(-c2c3nc(c(-c4c(F)c(F)c(F)c(F)c4F)c4ccc([nH]4)c(-c4c(F)c(F)c(F)c(F)c4F)c4nc(c(-c5c(F)c(F)c(F)c(F)c5F)c5ccc2[nH]5)C=C4)C=C3)cc1
REMARK SMILES IDX 20 1 19 2 18 3 17 4 16 5 15 6 14 7 2 8 1 9 3 10 4 11 5 12
REMARK SMILES IDX 12 13 6 14 8 15 13 16 7 17 9 18 10 19 11 20 21 21 22 22
REMARK SMILES IDX 23 23 24 24 25 25 26 26 27 27 28 28 29 29 30 30 91 31 31 32
REMARK SMILES IDX 90 33 32 34 33 35 34 36 84 37 35 38 89 39 83 40 85 41 36 42
REMARK SMILES IDX 88 43 82 44 81 45 37 47 69 48 49 49 68 50 50 51 53 52 67 53
REMARK SMILES IDX 86 54 51 55 52 56 66 58 87 59 54 60 38 61 39 62 47 63 40 64
REMARK SMILES IDX 41 65 45 66 48 67 42 68 43 69 46 70 44 71 70 72 71 73 79 74
REMARK SMILES IDX 72 75 73 76 77 77 80 78 74 79 75 80 78 81 76 82 55 83 56 84
REMARK SMILES IDX 64 85 57 86 58 87 62 88 65 89 59 90 60 91 63 92 61 93
REMARK H PARENT 85 46 53 57
REMARK Flexibility Score: inf
ROOT
ATOM      1  O   UNL A   1      35.080  32.353  27.729  1.00  0.00    -0.377 OA
ENDROOT
BRANCH   1   2
ATOM      2  C   UNL A   1      34.082  31.356  27.910  1.00  0.00     0.188 C 
BRANCH   2   3
ATOM      3  C   UNL A   1      34.425  30.021  27.248  1.00  0.00     0.188 C 
BRANCH   3   4
ATOM      4  O   UNL A   1      33.517  28.963  27.519  1.00  0.00    -0.376 OA
BRANCH   4   5
ATOM      5  C   UNL A   1      32.222  28.867  26.954  1.00  0.00     0.202 C 
BRANCH   5   6
ATOM      6  C   UNL A   1      31.857  29.639  25.691  1.00  0.00     0.261 C 
BRANCH   6   7
ATOM      7  O   UNL A   1      32.784  29.597  24.593  1.00  0.00    -0.463 OA
BRANCH   7   8
ATOM      8  C   UNL A   1      32.624  28.860  23.469  1.00  0.00     0.310 C 
ATOM      9  O   UNL A   1      31.517  28.775  22.946  1.00  0.00    -0.252 OA
BRANCH   8  10
ATOM     10  C   UNL A   1      33.792  28.027  22.998  1.00  0.00     0.164 C 
BRANCH  10  11
ATOM     11  C   UNL A   1      33.520  26.558  23.031  1.00  0.00     0.029 A 
ATOM     12  C   UNL A   1      33.148  25.806  21.980  1.00  0.00     0.011 A 
ATOM     13  C   UNL A   1      33.747  25.887  24.350  1.00  0.00     0.258 A 
ATOM     14  C   UNL A   1      32.962  24.386  22.097  1.00  0.00     0.019 A 
ATOM     15  N   UNL A   1      33.499  24.531  24.391  1.00  0.00    -0.258 N 
ATOM     16  O   UNL A   1      34.147  26.534  25.315  1.00  0.00    -0.269 OA
ATOM     17  C   UNL A   1      33.124  23.796  23.283  1.00  0.00     0.095 A 
BRANCH  15  18
ATOM     18  C   UNL A   1      33.582  23.895  25.677  1.00  0.00     0.451 C 
ATOM     19  F   UNL A   1      32.583  24.372  26.466  1.00  0.00    -0.185 F 
ATOM     20  F   UNL A   1      33.362  22.560  25.549  1.00  0.00    -0.185 F 
ENDBRANCH  15  18
ENDBRANCH  10  11
ENDBRANCH   8  10
ENDBRANCH   7   8
ENDBRANCH   6   7
ENDBRANCH   5   6
ENDBRANCH   4   5
ENDBRANCH   3   4
ENDBRANCH   2   3
ENDBRANCH   1   2
BRANCH   1  21
ATOM     21  C   UNL A   1      34.893  33.518  28.515  1.00  0.00     0.188 C 
BRANCH  21  22
ATOM     22  C   UNL A   1      34.540  34.824  27.763  1.00  0.00     0.188 C 
BRANCH  22  23
ATOM     23  O   UNL A   1      34.567  36.092  28.400  1.00  0.00    -0.376 OA
BRANCH  23  24
ATOM     24  C   UNL A   1      33.355  36.760  28.711  1.00  0.00     0.202 C 
BRANCH  24  25
ATOM     25  C   UNL A   1      32.878  36.785  30.169  1.00  0.00     0.261 C 
BRANCH  25  26
ATOM     26  O   UNL A   1      32.495  35.500  30.684  1.00  0.00    -0.460 OA
BRANCH  26  27
ATOM     27  C   UNL A   1      32.676  35.305  32.014  1.00  0.00     0.338 C 
ATOM     28  O   UNL A   1      31.858  35.456  32.905  1.00  0.00    -0.246 OA
BRANCH  27  29
ATOM     29  C   UNL A   1      33.979  34.626  32.211  1.00  0.00     0.060 A 
ATOM     30  C   UNL A   1      35.172  35.201  31.768  1.00  0.00     0.016 A 
ATOM     31  C   UNL A   1      33.978  33.332  32.757  1.00  0.00     0.016 A 
ATOM     32  C   UNL A   1      36.369  34.489  31.895  1.00  0.00     0.010 A 
ATOM     33  C   UNL A   1      35.168  32.610  32.855  1.00  0.00     0.010 A 
ATOM     34  C   UNL A   1      36.375  33.197  32.451  1.00  0.00    -0.014 A 
BRANCH  34  35
ATOM     35  C   UNL A   1      37.662  32.574  32.839  1.00  0.00     0.031 A 
ATOM     36  C   UNL A   1      38.375  32.896  34.112  1.00  0.00     0.074 A 
ATOM     37  C   UNL A   1      38.177  31.674  31.983  1.00  0.00     0.049 A 
ATOM     38  N   UNL A   1      39.447  32.336  34.614  1.00  0.00    -0.248 NA
ATOM     39  C   UNL A   1      37.823  33.987  34.926  1.00  0.00     0.031 C 
ATOM     40  C   UNL A   1      37.569  31.300  30.705  1.00  0.00     0.029 A 
ATOM     41  N   UNL A   1      39.305  30.902  32.059  1.00  0.00    -0.354 N 
ATOM     42  C   UNL A   1      39.682  32.976  35.822  1.00  0.00     0.074 A 
ATOM     43  C   UNL A   1      38.672  34.011  35.947  1.00  0.00     0.031 C 
ATOM     44  C   UNL A   1      38.311  30.345  30.132  1.00  0.00     0.029 A 
ATOM     45  C   UNL A   1      39.452  30.053  30.993  1.00  0.00     0.049 A 
ATOM     46  H   UNL A   1      39.947  30.953  32.805  1.00  0.00     0.167 HD
ATOM     47  C   UNL A   1      40.642  32.706  36.742  1.00  0.00     0.037 A 
ATOM     48  C   UNL A   1      40.390  29.123  30.743  1.00  0.00     0.037 A 
ATOM     49  C   UNL A   1      41.667  31.700  36.585  1.00  0.00     0.049 A 
ATOM     50  C   UNL A   1      41.477  28.888  31.748  1.00  0.00     0.074 A 
ATOM     51  C   UNL A   1      42.671  31.342  37.468  1.00  0.00     0.029 A 
ATOM     52  N   UNL A   1      41.830  30.901  35.460  1.00  0.00    -0.354 N 
ATOM     53  N   UNL A   1      41.658  29.456  32.916  1.00  0.00    -0.248 NA
ATOM     54  C   UNL A   1      42.485  27.880  31.403  1.00  0.00     0.031 C 
ATOM     55  C   UNL A   1      43.471  30.368  36.858  1.00  0.00     0.029 A 
ATOM     56  C   UNL A   1      42.936  30.076  35.615  1.00  0.00     0.049 A 
ATOM     57  H   UNL A   1      41.247  30.918  34.667  1.00  0.00     0.167 HD
ATOM     58  C   UNL A   1      42.789  28.862  33.455  1.00  0.00     0.074 A 
ATOM     59  C   UNL A   1      43.242  27.877  32.492  1.00  0.00     0.031 C 
ATOM     60  C   UNL A   1      43.395  29.114  34.642  1.00  0.00     0.037 A 
BRANCH  47  61
ATOM     61  C   UNL A   1      40.627  33.506  38.016  1.00  0.00     0.064 A 
ATOM     62  C   UNL A   1      39.727  33.211  39.051  1.00  0.00     0.173 A 
ATOM     63  C   UNL A   1      41.555  34.536  38.232  1.00  0.00     0.173 A 
ATOM     64  F   UNL A   1      38.816  32.238  38.895  1.00  0.00    -0.203 F 
ATOM     65  C   UNL A   1      39.738  33.933  40.242  1.00  0.00     0.198 A 
ATOM     66  C   UNL A   1      41.582  35.238  39.436  1.00  0.00     0.198 A 
ATOM     67  F   UNL A   1      42.447  34.855  37.283  1.00  0.00    -0.203 F 
ATOM     68  F   UNL A   1      38.839  33.659  41.198  1.00  0.00    -0.200 F 
ATOM     69  C   UNL A   1      40.669  34.941  40.436  1.00  0.00     0.200 A 
ATOM     70  F   UNL A   1      42.492  36.203  39.627  1.00  0.00    -0.200 F 
ATOM     71  F   UNL A   1      40.682  35.632  41.585  1.00  0.00    -0.200 F 
ENDBRANCH  47  61
BRANCH  48  72
ATOM     72  C   UNL A   1      40.274  28.304  29.514  1.00  0.00     0.064 A 
ATOM     73  C   UNL A   1      40.937  28.687  28.341  1.00  0.00     0.173 A 
ATOM     74  C   UNL A   1      39.578  27.086  29.510  1.00  0.00     0.173 A 
ATOM     75  F   UNL A   1      41.605  29.849  28.299  1.00  0.00    -0.203 F 
ATOM     76  C   UNL A   1      40.911  27.878  27.208  1.00  0.00     0.198 A 
ATOM     77  C   UNL A   1      39.574  26.268  28.385  1.00  0.00     0.198 A 
ATOM     78  F   UNL A   1      38.942  26.674  30.616  1.00  0.00    -0.203 F 
ATOM     79  F   UNL A   1      41.543  28.271  26.094  1.00  0.00    -0.200 F 
ATOM     80  C   UNL A   1      40.240  26.665  27.234  1.00  0.00     0.200 A 
ATOM     81  F   UNL A   1      38.942  25.087  28.420  1.00  0.00    -0.200 F 
ATOM     82  F   UNL A   1      40.239  25.875  26.152  1.00  0.00    -0.200 F 
ENDBRANCH  48  72
BRANCH  60  83
ATOM     83  C   UNL A   1      44.623  28.311  34.964  1.00  0.00     0.064 A 
ATOM     84  C   UNL A   1      45.908  28.771  34.635  1.00  0.00     0.173 A 
ATOM     85  C   UNL A   1      44.519  27.080  35.630  1.00  0.00     0.173 A 
ATOM     86  F   UNL A   1      46.062  29.932  33.980  1.00  0.00    -0.203 F 
ATOM     87  C   UNL A   1      47.039  28.017  34.938  1.00  0.00     0.198 A 
ATOM     88  C   UNL A   1      45.655  26.344  35.960  1.00  0.00     0.198 A 
ATOM     89  F   UNL A   1      43.316  26.596  35.972  1.00  0.00    -0.203 F 
ATOM     90  F   UNL A   1      48.252  28.454  34.568  1.00  0.00    -0.200 F 
ATOM     91  C   UNL A   1      46.913  26.809  35.606  1.00  0.00     0.200 A 
ATOM     92  F   UNL A   1      45.532  25.182  36.616  1.00  0.00    -0.200 F 
ATOM     93  F   UNL A   1      48.004  26.088  35.902  1.00  0.00    -0.200 F 
ENDBRANCH  60  83
ENDBRANCH  34  35
ENDBRANCH  27  29
ENDBRANCH  26  27
ENDBRANCH  25  26
ENDBRANCH  24  25
ENDBRANCH  23  24
ENDBRANCH  22  23
ENDBRANCH  21  22
ENDBRANCH   1  21
TORSDOF 22
ENDMDL
