MODEL 1
REMARK VINA RESULT:     -10.1      0.000      0.000
REMARK SMILES Cc1occc1C(=O)NN1C(=O)/C(=C\c2ccc(O[C@H](C)C(=O)OCCOCCOCCOCCOC(=O)c3ccc(-c4c5nc(c(-c6c(F)c(F)c(F)c(F)c6F)c6ccc([nH]6)c(-c6c(F)c(F)c(F)c(F)c6F)c6nc(c(-c7c(F)c(F)c(F)c(F)c7F)c7ccc4[nH]7)C=C6)C=C5)cc3)cc2)SC1=S
REMARK SMILES IDX 28 1 27 2 26 3 25 4 24 5 22 6 23 7 20 8 21 9 19 10 18 11
REMARK SMILES IDX 15 12 16 13 103 14 17 15 102 16 14 17 10 18 11 19 105 20
REMARK SMILES IDX 12 21 13 22 104 23 106 24 9 25 7 26 8 27 6 29 1 30 2 31 3 32
REMARK SMILES IDX 4 33 5 34 29 35 30 36 31 37 32 38 33 39 34 40 35 41 36 42
REMARK SMILES IDX 37 43 38 44 39 45 40 46 101 47 41 48 100 49 42 50 43 51
REMARK SMILES IDX 44 52 94 53 45 54 99 55 93 56 95 57 46 58 98 59 92 60 91 61
REMARK SMILES IDX 47 63 79 64 59 65 78 66 60 67 63 68 77 69 96 70 61 71 62 72
REMARK SMILES IDX 76 74 97 75 64 76 48 77 49 78 57 79 50 80 51 81 55 82 58 83
REMARK SMILES IDX 52 84 53 85 56 86 54 87 80 88 81 89 89 90 82 91 83 92 87 93
REMARK SMILES IDX 90 94 84 95 85 96 88 97 86 98 65 99 66 100 74 101 67 102
REMARK SMILES IDX 68 103 72 104 75 105 69 106 70 107 73 108 71 109
REMARK H PARENT 9 28 95 62 63 73
REMARK Flexibility Score: inf
ROOT
ATOM      1  C   UNL A   1      40.905  19.525  26.154  1.00  0.00     0.188 C 
ENDROOT
BRANCH   1   2
ATOM      2  O   UNL A   1      40.017  20.368  26.867  1.00  0.00    -0.376 OA
BRANCH   2   3
ATOM      3  C   UNL A   1      40.224  21.766  26.971  1.00  0.00     0.202 C 
BRANCH   3   4
ATOM      4  C   UNL A   1      39.181  22.823  26.568  1.00  0.00     0.261 C 
BRANCH   4   5
ATOM      5  O   UNL A   1      38.420  22.602  25.375  1.00  0.00    -0.461 OA
BRANCH   5   6
ATOM      6  C   UNL A   1      37.087  22.824  25.492  1.00  0.00     0.347 C 
ATOM      7  O   UNL A   1      36.595  23.918  25.752  1.00  0.00    -0.248 OA
BRANCH   6   8
ATOM      8  C   UNL A   1      36.250  21.554  25.366  1.00  0.00     0.279 C 
ATOM      9  C   UNL A   1      36.884  20.214  24.994  1.00  0.00     0.066 C 
BRANCH   8  10
ATOM     10  O   UNL A   1      35.324  21.533  26.447  1.00  0.00    -0.479 OA
BRANCH  10  11
ATOM     11  C   UNL A   1      34.024  21.894  26.310  1.00  0.00     0.120 A 
ATOM     12  C   UNL A   1      31.587  23.231  26.013  1.00  0.00    -0.024 A 
ATOM     13  C   UNL A   1      31.892  22.133  25.204  1.00  0.00     0.012 A 
ATOM     14  C   UNL A   1      32.415  23.518  27.100  1.00  0.00     0.012 A 
ATOM     15  C   UNL A   1      33.098  21.448  25.374  1.00  0.00     0.047 A 
ATOM     16  C   UNL A   1      33.642  22.874  27.222  1.00  0.00     0.047 A 
BRANCH  12  17
ATOM     17  C   UNL A   1      30.459  24.089  25.635  1.00  0.00     0.029 C 
ATOM     18  N   UNL A   1      31.500  27.002  23.744  1.00  0.00    -0.198 N 
ATOM     19  C   UNL A   1      31.779  25.723  24.192  1.00  0.00     0.285 C 
ATOM     20  C   UNL A   1      30.177  27.341  23.570  1.00  0.00     0.168 C 
ATOM     21  O   UNL A   1      32.851  25.155  24.039  1.00  0.00    -0.266 OA
ATOM     22  C   UNL A   1      30.547  25.143  24.808  1.00  0.00     0.082 C 
ATOM     23  S   UNL A   1      29.177  26.095  24.328  1.00  0.00    -0.052 SA
ATOM     24  S   UNL A   1      29.548  28.667  22.782  1.00  0.00    -0.050 S 
BRANCH  18  25
ATOM     25  N   UNL A   1      32.566  27.730  23.233  1.00  0.00    -0.254 N 
ATOM     26  C   UNL A   1      33.354  28.646  23.889  1.00  0.00     0.273 C 
ATOM     27  O   UNL A   1      34.368  29.019  23.292  1.00  0.00    -0.267 OA
ATOM     28  H   UNL A   1      32.784  27.570  22.285  1.00  0.00     0.192 HD
BRANCH  26  29
ATOM     29  C   UNL A   1      33.003  29.260  25.168  1.00  0.00     0.082 A 
ATOM     30  C   UNL A   1      34.887  28.880  27.021  1.00  0.00     0.088 C 
ATOM     31  C   UNL A   1      33.622  29.326  26.410  1.00  0.00     0.113 A 
ATOM     32  O   UNL A   1      32.856  30.047  27.284  1.00  0.00    -0.469 OA
ATOM     33  C   UNL A   1      31.781  30.508  26.611  1.00  0.00     0.196 A 
ATOM     34  C   UNL A   1      31.828  30.079  25.313  1.00  0.00     0.056 A 
ENDBRANCH  26  29
ENDBRANCH  18  25
ENDBRANCH  12  17
ENDBRANCH  10  11
ENDBRANCH   8  10
ENDBRANCH   6   8
ENDBRANCH   5   6
ENDBRANCH   4   5
ENDBRANCH   3   4
ENDBRANCH   2   3
ENDBRANCH   1   2
BRANCH   1  35
ATOM     35  C   UNL A   1      42.298  19.195  26.715  1.00  0.00     0.188 C 
BRANCH  35  36
ATOM     36  O   UNL A   1      42.958  18.113  26.090  1.00  0.00    -0.377 OA
BRANCH  36  37
ATOM     37  C   UNL A   1      44.171  18.408  25.409  1.00  0.00     0.188 C 
BRANCH  37  38
ATOM     38  C   UNL A   1      44.467  19.872  25.020  1.00  0.00     0.188 C 
BRANCH  38  39
ATOM     39  O   UNL A   1      45.816  20.122  24.652  1.00  0.00    -0.376 OA
BRANCH  39  40
ATOM     40  C   UNL A   1      46.277  21.462  24.572  1.00  0.00     0.202 C 
BRANCH  40  41
ATOM     41  C   UNL A   1      45.333  22.511  23.959  1.00  0.00     0.261 C 
BRANCH  41  42
ATOM     42  O   UNL A   1      44.844  23.528  24.847  1.00  0.00    -0.460 OA
BRANCH  42  43
ATOM     43  C   UNL A   1      43.512  23.614  25.033  1.00  0.00     0.338 C 
ATOM     44  O   UNL A   1      42.673  22.766  24.771  1.00  0.00    -0.246 OA
BRANCH  43  45
ATOM     45  C   UNL A   1      43.240  24.844  25.806  1.00  0.00     0.060 A 
ATOM     46  C   UNL A   1      42.944  26.025  25.114  1.00  0.00     0.016 A 
ATOM     47  C   UNL A   1      43.279  24.833  27.201  1.00  0.00     0.016 A 
ATOM     48  C   UNL A   1      42.727  27.211  25.815  1.00  0.00     0.010 A 
ATOM     49  C   UNL A   1      43.087  26.027  27.902  1.00  0.00     0.010 A 
ATOM     50  C   UNL A   1      42.847  27.229  27.211  1.00  0.00    -0.014 A 
BRANCH  50  51
ATOM     51  C   UNL A   1      42.937  28.528  27.922  1.00  0.00     0.031 A 
ATOM     52  C   UNL A   1      44.297  29.150  28.093  1.00  0.00     0.074 A 
ATOM     53  C   UNL A   1      41.841  29.160  28.377  1.00  0.00     0.049 A 
ATOM     54  N   UNL A   1      44.641  30.242  28.727  1.00  0.00    -0.248 NA
ATOM     55  C   UNL A   1      45.423  28.444  27.458  1.00  0.00     0.031 C 
ATOM     56  C   UNL A   1      40.467  28.690  28.222  1.00  0.00     0.029 A 
ATOM     57  N   UNL A   1      41.718  30.339  29.070  1.00  0.00    -0.354 N 
ATOM     58  C   UNL A   1      46.018  30.349  28.570  1.00  0.00     0.074 A 
ATOM     59  C   UNL A   1      46.452  29.196  27.813  1.00  0.00     0.031 C 
ATOM     60  C   UNL A   1      39.638  29.565  28.819  1.00  0.00     0.029 A 
ATOM     61  C   UNL A   1      40.426  30.635  29.429  1.00  0.00     0.049 A 
ATOM     62  H   UNL A   1      42.485  30.917  29.291  1.00  0.00     0.167 HD
ATOM     63  C   UNL A   1      46.843  31.328  29.009  1.00  0.00     0.037 A 
ATOM     64  C   UNL A   1      39.944  31.641  30.187  1.00  0.00     0.037 A 
ATOM     65  C   UNL A   1      46.410  32.473  29.764  1.00  0.00     0.049 A 
ATOM     66  C   UNL A   1      40.903  32.665  30.748  1.00  0.00     0.074 A 
ATOM     67  C   UNL A   1      47.169  33.519  30.256  1.00  0.00     0.029 A 
ATOM     68  N   UNL A   1      45.097  32.717  30.141  1.00  0.00    -0.354 N 
ATOM     69  N   UNL A   1      42.199  32.768  30.585  1.00  0.00    -0.248 NA
ATOM     70  C   UNL A   1      40.326  33.716  31.600  1.00  0.00     0.031 C 
ATOM     71  C   UNL A   1      46.326  34.366  30.981  1.00  0.00     0.029 A 
ATOM     72  C   UNL A   1      45.031  33.886  30.881  1.00  0.00     0.049 A 
ATOM     73  H   UNL A   1      44.328  32.146  29.915  1.00  0.00     0.167 HD
ATOM     74  C   UNL A   1      42.584  33.912  31.275  1.00  0.00     0.074 A 
ATOM     75  C   UNL A   1      41.381  34.478  31.846  1.00  0.00     0.031 C 
ATOM     76  C   UNL A   1      43.821  34.448  31.425  1.00  0.00     0.037 A 
BRANCH  63  77
ATOM     77  C   UNL A   1      48.307  31.197  28.701  1.00  0.00     0.064 A 
ATOM     78  C   UNL A   1      49.184  30.523  29.563  1.00  0.00     0.173 A 
ATOM     79  C   UNL A   1      48.826  31.706  27.501  1.00  0.00     0.173 A 
ATOM     80  F   UNL A   1      48.741  30.032  30.730  1.00  0.00    -0.203 F 
ATOM     81  C   UNL A   1      50.532  30.376  29.241  1.00  0.00     0.198 A 
ATOM     82  C   UNL A   1      50.167  31.530  27.168  1.00  0.00     0.198 A 
ATOM     83  F   UNL A   1      48.030  32.358  26.641  1.00  0.00    -0.203 F 
ATOM     84  F   UNL A   1      51.360  29.763  30.099  1.00  0.00    -0.200 F 
ATOM     85  C   UNL A   1      51.019  30.871  28.041  1.00  0.00     0.200 A 
ATOM     86  F   UNL A   1      50.633  31.995  26.001  1.00  0.00    -0.200 F 
ATOM     87  F   UNL A   1      52.313  30.714  27.726  1.00  0.00    -0.200 F 
ENDBRANCH  63  77
BRANCH  64  88
ATOM     88  C   UNL A   1      38.490  31.726  30.497  1.00  0.00     0.064 A 
ATOM     89  C   UNL A   1      37.618  32.469  29.687  1.00  0.00     0.173 A 
ATOM     90  C   UNL A   1      37.953  31.123  31.644  1.00  0.00     0.173 A 
ATOM     91  F   UNL A   1      38.084  33.088  28.592  1.00  0.00    -0.203 F 
ATOM     92  C   UNL A   1      36.277  32.636  30.034  1.00  0.00     0.198 A 
ATOM     93  C   UNL A   1      36.606  31.260  31.970  1.00  0.00     0.198 A 
ATOM     94  F   UNL A   1      38.741  30.402  32.456  1.00  0.00    -0.203 F 
ATOM     95  F   UNL A   1      35.486  33.412  29.281  1.00  0.00    -0.200 F 
ATOM     96  C   UNL A   1      35.772  32.030  31.173  1.00  0.00     0.200 A 
ATOM     97  F   UNL A   1      36.119  30.659  33.064  1.00  0.00    -0.200 F 
ATOM     98  F   UNL A   1      34.487  32.197  31.510  1.00  0.00    -0.200 F 
ENDBRANCH  64  88
BRANCH  76  99
ATOM     99  C   UNL A   1      43.934  35.739  32.188  1.00  0.00     0.064 A 
ATOM    100  C   UNL A   1      43.817  36.986  31.556  1.00  0.00     0.173 A 
ATOM    101  C   UNL A   1      44.119  35.725  33.579  1.00  0.00     0.173 A 
ATOM    102  F   UNL A   1      43.652  37.057  30.226  1.00  0.00    -0.203 F 
ATOM    103  C   UNL A   1      43.914  38.170  32.284  1.00  0.00     0.198 A 
ATOM    104  C   UNL A   1      44.178  36.909  34.309  1.00  0.00     0.198 A 
ATOM    105  F   UNL A   1      44.225  34.560  34.237  1.00  0.00    -0.203 F 
ATOM    106  F   UNL A   1      43.857  39.349  31.651  1.00  0.00    -0.200 F 
ATOM    107  C   UNL A   1      44.086  38.130  33.660  1.00  0.00     0.200 A 
ATOM    108  F   UNL A   1      44.323  36.867  35.641  1.00  0.00    -0.200 F 
ATOM    109  F   UNL A   1      44.170  39.270  34.359  1.00  0.00    -0.200 F 
ENDBRANCH  76  99
ENDBRANCH  50  51
ENDBRANCH  43  45
ENDBRANCH  42  43
ENDBRANCH  41  42
ENDBRANCH  40  41
ENDBRANCH  39  40
ENDBRANCH  38  39
ENDBRANCH  37  38
ENDBRANCH  36  37
ENDBRANCH  35  36
ENDBRANCH   1  35
TORSDOF 25
ENDMDL
MODEL 2
REMARK VINA RESULT:      -9.4      1.422      2.152
REMARK SMILES Cc1occc1C(=O)NN1C(=O)/C(=C\c2ccc(O[C@H](C)C(=O)OCCOCCOCCOCCOC(=O)c3ccc(-c4c5nc(c(-c6c(F)c(F)c(F)c(F)c6F)c6ccc([nH]6)c(-c6c(F)c(F)c(F)c(F)c6F)c6nc(c(-c7c(F)c(F)c(F)c(F)c7F)c7ccc4[nH]7)C=C6)C=C5)cc3)cc2)SC1=S
REMARK SMILES IDX 28 1 27 2 26 3 25 4 24 5 22 6 23 7 20 8 21 9 19 10 18 11
REMARK SMILES IDX 15 12 16 13 103 14 17 15 102 16 14 17 10 18 11 19 105 20
REMARK SMILES IDX 12 21 13 22 104 23 106 24 9 25 7 26 8 27 6 29 1 30 2 31 3 32
REMARK SMILES IDX 4 33 5 34 29 35 30 36 31 37 32 38 33 39 34 40 35 41 36 42
REMARK SMILES IDX 37 43 38 44 39 45 40 46 101 47 41 48 100 49 42 50 43 51
REMARK SMILES IDX 44 52 94 53 45 54 99 55 93 56 95 57 46 58 98 59 92 60 91 61
REMARK SMILES IDX 47 63 79 64 59 65 78 66 60 67 63 68 77 69 96 70 61 71 62 72
REMARK SMILES IDX 76 74 97 75 64 76 48 77 49 78 57 79 50 80 51 81 55 82 58 83
REMARK SMILES IDX 52 84 53 85 56 86 54 87 80 88 81 89 89 90 82 91 83 92 87 93
REMARK SMILES IDX 90 94 84 95 85 96 88 97 86 98 65 99 66 100 74 101 67 102
REMARK SMILES IDX 68 103 72 104 75 105 69 106 70 107 73 108 71 109
REMARK H PARENT 9 28 95 62 63 73
REMARK Flexibility Score: inf
ROOT
ATOM      1  C   UNL A   1      40.573  19.724  26.054  1.00  0.00     0.188 C 
ENDROOT
BRANCH   1   2
ATOM      2  O   UNL A   1      39.480  20.495  26.520  1.00  0.00    -0.376 OA
BRANCH   2   3
ATOM      3  C   UNL A   1      39.557  21.903  26.663  1.00  0.00     0.202 C 
BRANCH   3   4
ATOM      4  C   UNL A   1      38.544  22.888  26.054  1.00  0.00     0.261 C 
BRANCH   4   5
ATOM      5  O   UNL A   1      37.897  22.521  24.830  1.00  0.00    -0.461 OA
BRANCH   5   6
ATOM      6  C   UNL A   1      36.545  22.633  24.837  1.00  0.00     0.347 C 
ATOM      7  O   UNL A   1      35.945  23.697  24.720  1.00  0.00    -0.248 OA
BRANCH   6   8
ATOM      8  C   UNL A   1      35.830  21.311  25.103  1.00  0.00     0.279 C 
ATOM      9  C   UNL A   1      36.558  19.972  24.982  1.00  0.00     0.066 C 
BRANCH   8  10
ATOM     10  O   UNL A   1      35.016  21.482  26.258  1.00  0.00    -0.479 OA
BRANCH  10  11
ATOM     11  C   UNL A   1      33.733  21.918  26.195  1.00  0.00     0.120 A 
ATOM     12  C   UNL A   1      31.366  23.394  26.001  1.00  0.00    -0.024 A 
ATOM     13  C   UNL A   1      31.541  22.236  25.237  1.00  0.00     0.012 A 
ATOM     14  C   UNL A   1      32.292  23.684  27.005  1.00  0.00     0.012 A 
ATOM     15  C   UNL A   1      32.712  21.483  25.358  1.00  0.00     0.047 A 
ATOM     16  C   UNL A   1      33.483  22.969  27.074  1.00  0.00     0.047 A 
BRANCH  12  17
ATOM     17  C   UNL A   1      30.267  24.302  25.657  1.00  0.00     0.029 C 
ATOM     18  N   UNL A   1      31.360  27.104  23.632  1.00  0.00    -0.198 N 
ATOM     19  C   UNL A   1      31.594  25.824  24.101  1.00  0.00     0.285 C 
ATOM     20  C   UNL A   1      30.050  27.510  23.516  1.00  0.00     0.168 C 
ATOM     21  O   UNL A   1      32.624  25.194  23.910  1.00  0.00    -0.266 OA
ATOM     22  C   UNL A   1      30.367  25.328  24.796  1.00  0.00     0.082 C 
ATOM     23  S   UNL A   1      29.027  26.340  24.360  1.00  0.00    -0.052 SA
ATOM     24  S   UNL A   1      29.451  28.847  22.724  1.00  0.00    -0.050 S 
BRANCH  18  25
ATOM     25  N   UNL A   1      32.435  27.759  23.046  1.00  0.00    -0.254 N 
ATOM     26  C   UNL A   1      33.443  28.453  23.673  1.00  0.00     0.273 C 
ATOM     27  O   UNL A   1      34.400  28.781  22.966  1.00  0.00    -0.267 OA
ATOM     28  H   UNL A   1      32.480  27.722  22.063  1.00  0.00     0.192 HD
BRANCH  26  29
ATOM     29  C   UNL A   1      33.387  28.901  25.063  1.00  0.00     0.082 A 
ATOM     30  C   UNL A   1      31.364  30.588  25.498  1.00  0.00     0.088 C 
ATOM     31  C   UNL A   1      32.559  29.767  25.766  1.00  0.00     0.113 A 
ATOM     32  O   UNL A   1      32.941  29.829  27.078  1.00  0.00    -0.469 OA
ATOM     33  C   UNL A   1      33.963  28.966  27.254  1.00  0.00     0.196 A 
ATOM     34  C   UNL A   1      34.263  28.355  26.067  1.00  0.00     0.056 A 
ENDBRANCH  26  29
ENDBRANCH  18  25
ENDBRANCH  12  17
ENDBRANCH  10  11
ENDBRANCH   8  10
ENDBRANCH   6   8
ENDBRANCH   5   6
ENDBRANCH   4   5
ENDBRANCH   3   4
ENDBRANCH   2   3
ENDBRANCH   1   2
BRANCH   1  35
ATOM     35  C   UNL A   1      41.938  19.785  26.760  1.00  0.00     0.188 C 
BRANCH  35  36
ATOM     36  O   UNL A   1      42.690  18.590  26.718  1.00  0.00    -0.377 OA
BRANCH  36  37
ATOM     37  C   UNL A   1      43.713  18.509  25.734  1.00  0.00     0.188 C 
BRANCH  37  38
ATOM     38  C   UNL A   1      44.172  19.805  25.032  1.00  0.00     0.188 C 
BRANCH  38  39
ATOM     39  O   UNL A   1      45.532  19.804  24.625  1.00  0.00    -0.376 OA
BRANCH  39  40
ATOM     40  C   UNL A   1      46.259  21.023  24.627  1.00  0.00     0.202 C 
BRANCH  40  41
ATOM     41  C   UNL A   1      45.472  22.328  24.411  1.00  0.00     0.261 C 
BRANCH  41  42
ATOM     42  O   UNL A   1      45.638  23.346  25.410  1.00  0.00    -0.460 OA
BRANCH  42  43
ATOM     43  C   UNL A   1      44.566  23.675  26.158  1.00  0.00     0.338 C 
ATOM     44  O   UNL A   1      43.724  22.918  26.615  1.00  0.00    -0.246 OA
BRANCH  43  45
ATOM     45  C   UNL A   1      44.683  25.104  26.516  1.00  0.00     0.060 A 
ATOM     46  C   UNL A   1      45.174  25.446  27.782  1.00  0.00     0.016 A 
ATOM     47  C   UNL A   1      44.308  26.099  25.611  1.00  0.00     0.016 A 
ATOM     48  C   UNL A   1      45.254  26.785  28.164  1.00  0.00     0.010 A 
ATOM     49  C   UNL A   1      44.364  27.440  26.004  1.00  0.00     0.010 A 
ATOM     50  C   UNL A   1      44.802  27.786  27.295  1.00  0.00    -0.014 A 
BRANCH  50  51
ATOM     51  C   UNL A   1      44.585  29.161  27.811  1.00  0.00     0.031 A 
ATOM     52  C   UNL A   1      45.685  30.170  27.622  1.00  0.00     0.074 A 
ATOM     53  C   UNL A   1      43.431  29.518  28.402  1.00  0.00     0.049 A 
ATOM     54  N   UNL A   1      45.759  31.409  28.036  1.00  0.00    -0.248 NA
ATOM     55  C   UNL A   1      46.861  29.720  26.859  1.00  0.00     0.031 C 
ATOM     56  C   UNL A   1      42.272  28.650  28.591  1.00  0.00     0.029 A 
ATOM     57  N   UNL A   1      43.051  30.714  28.959  1.00  0.00    -0.354 N 
ATOM     58  C   UNL A   1      46.987  31.881  27.588  1.00  0.00     0.074 A 
ATOM     59  C   UNL A   1      47.640  30.789  26.902  1.00  0.00     0.031 C 
ATOM     60  C   UNL A   1      41.313  29.338  29.236  1.00  0.00     0.029 A 
ATOM     61  C   UNL A   1      41.805  30.682  29.537  1.00  0.00     0.049 A 
ATOM     62  H   UNL A   1      43.618  31.519  28.946  1.00  0.00     0.167 HD
ATOM     63  C   UNL A   1      47.517  33.119  27.726  1.00  0.00     0.037 A 
ATOM     64  C   UNL A   1      41.155  31.623  30.251  1.00  0.00     0.037 A 
ATOM     65  C   UNL A   1      46.867  34.204  28.411  1.00  0.00     0.049 A 
ATOM     66  C   UNL A   1      41.814  32.964  30.476  1.00  0.00     0.074 A 
ATOM     67  C   UNL A   1      47.322  35.496  28.607  1.00  0.00     0.029 A 
ATOM     68  N   UNL A   1      45.622  34.121  29.017  1.00  0.00    -0.354 N 
ATOM     69  N   UNL A   1      42.967  33.408  30.038  1.00  0.00    -0.248 NA
ATOM     70  C   UNL A   1      41.075  33.936  31.295  1.00  0.00     0.031 C 
ATOM     71  C   UNL A   1      46.379  36.178  29.382  1.00  0.00     0.029 A 
ATOM     72  C   UNL A   1      45.305  35.333  29.609  1.00  0.00     0.049 A 
ATOM     73  H   UNL A   1      45.049  33.321  29.025  1.00  0.00     0.167 HD
ATOM     74  C   UNL A   1      43.072  34.718  30.492  1.00  0.00     0.074 A 
ATOM     75  C   UNL A   1      41.858  35.002  31.226  1.00  0.00     0.031 C 
ATOM     76  C   UNL A   1      44.081  35.607  30.319  1.00  0.00     0.037 A 
BRANCH  63  77
ATOM     77  C   UNL A   1      48.877  33.366  27.143  1.00  0.00     0.064 A 
ATOM     78  C   UNL A   1      49.047  34.062  25.937  1.00  0.00     0.173 A 
ATOM     79  C   UNL A   1      50.029  32.948  27.827  1.00  0.00     0.173 A 
ATOM     80  F   UNL A   1      47.979  34.468  25.235  1.00  0.00    -0.203 F 
ATOM     81  C   UNL A   1      50.320  34.316  25.430  1.00  0.00     0.198 A 
ATOM     82  C   UNL A   1      51.300  33.231  27.334  1.00  0.00     0.198 A 
ATOM     83  F   UNL A   1      49.922  32.279  28.985  1.00  0.00    -0.203 F 
ATOM     84  F   UNL A   1      50.457  34.948  24.255  1.00  0.00    -0.200 F 
ATOM     85  C   UNL A   1      51.444  33.910  26.134  1.00  0.00     0.200 A 
ATOM     86  F   UNL A   1      52.385  32.851  28.022  1.00  0.00    -0.200 F 
ATOM     87  F   UNL A   1      52.668  34.171  25.652  1.00  0.00    -0.200 F 
ENDBRANCH  63  77
BRANCH  64  88
ATOM     88  C   UNL A   1      39.818  31.336  30.840  1.00  0.00     0.064 A 
ATOM     89  C   UNL A   1      38.642  31.802  30.233  1.00  0.00     0.173 A 
ATOM     90  C   UNL A   1      39.690  30.650  32.057  1.00  0.00     0.173 A 
ATOM     91  F   UNL A   1      38.709  32.487  29.082  1.00  0.00    -0.203 F 
ATOM     92  C   UNL A   1      37.398  31.626  30.838  1.00  0.00     0.198 A 
ATOM     93  C   UNL A   1      38.444  30.442  32.643  1.00  0.00     0.198 A 
ATOM     94  F   UNL A   1      40.781  30.184  32.684  1.00  0.00    -0.203 F 
ATOM     95  F   UNL A   1      36.301  32.146  30.272  1.00  0.00    -0.200 F 
ATOM     96  C   UNL A   1      37.300  30.943  32.041  1.00  0.00     0.200 A 
ATOM     97  F   UNL A   1      38.352  29.768  33.797  1.00  0.00    -0.200 F 
ATOM     98  F   UNL A   1      36.106  30.781  32.626  1.00  0.00    -0.200 F 
ENDBRANCH  64  88
BRANCH  76  99
ATOM     99  C   UNL A   1      43.897  36.989  30.881  1.00  0.00     0.064 A 
ATOM    100  C   UNL A   1      43.482  38.065  30.082  1.00  0.00     0.173 A 
ATOM    101  C   UNL A   1      44.098  37.230  32.249  1.00  0.00     0.173 A 
ATOM    102  F   UNL A   1      43.287  37.894  28.766  1.00  0.00    -0.203 F 
ATOM    103  C   UNL A   1      43.307  39.336  30.626  1.00  0.00     0.198 A 
ATOM    104  C   UNL A   1      43.886  38.492  32.797  1.00  0.00     0.198 A 
ATOM    105  F   UNL A   1      44.484  36.234  33.062  1.00  0.00    -0.203 F 
ATOM    106  F   UNL A   1      42.965  40.360  29.833  1.00  0.00    -0.200 F 
ATOM    107  C   UNL A   1      43.501  39.546  31.984  1.00  0.00     0.200 A 
ATOM    108  F   UNL A   1      44.055  38.686  34.112  1.00  0.00    -0.200 F 
ATOM    109  F   UNL A   1      43.323  40.767  32.506  1.00  0.00    -0.200 F 
ENDBRANCH  76  99
ENDBRANCH  50  51
ENDBRANCH  43  45
ENDBRANCH  42  43
ENDBRANCH  41  42
ENDBRANCH  40  41
ENDBRANCH  39  40
ENDBRANCH  38  39
ENDBRANCH  37  38
ENDBRANCH  36  37
ENDBRANCH  35  36
ENDBRANCH   1  35
TORSDOF 25
ENDMDL
MODEL 3
REMARK VINA RESULT:      -8.6      3.856      7.196
REMARK SMILES Cc1occc1C(=O)NN1C(=O)/C(=C\c2ccc(O[C@H](C)C(=O)OCCOCCOCCOCCOC(=O)c3ccc(-c4c5nc(c(-c6c(F)c(F)c(F)c(F)c6F)c6ccc([nH]6)c(-c6c(F)c(F)c(F)c(F)c6F)c6nc(c(-c7c(F)c(F)c(F)c(F)c7F)c7ccc4[nH]7)C=C6)C=C5)cc3)cc2)SC1=S
REMARK SMILES IDX 28 1 27 2 26 3 25 4 24 5 22 6 23 7 20 8 21 9 19 10 18 11
REMARK SMILES IDX 15 12 16 13 103 14 17 15 102 16 14 17 10 18 11 19 105 20
REMARK SMILES IDX 12 21 13 22 104 23 106 24 9 25 7 26 8 27 6 29 1 30 2 31 3 32
REMARK SMILES IDX 4 33 5 34 29 35 30 36 31 37 32 38 33 39 34 40 35 41 36 42
REMARK SMILES IDX 37 43 38 44 39 45 40 46 101 47 41 48 100 49 42 50 43 51
REMARK SMILES IDX 44 52 94 53 45 54 99 55 93 56 95 57 46 58 98 59 92 60 91 61
REMARK SMILES IDX 47 63 79 64 59 65 78 66 60 67 63 68 77 69 96 70 61 71 62 72
REMARK SMILES IDX 76 74 97 75 64 76 48 77 49 78 57 79 50 80 51 81 55 82 58 83
REMARK SMILES IDX 52 84 53 85 56 86 54 87 80 88 81 89 89 90 82 91 83 92 87 93
REMARK SMILES IDX 90 94 84 95 85 96 88 97 86 98 65 99 66 100 74 101 67 102
REMARK SMILES IDX 68 103 72 104 75 105 69 106 70 107 73 108 71 109
REMARK H PARENT 9 28 95 62 63 73
REMARK Flexibility Score: inf
ROOT
ATOM      1  C   UNL A   1      38.604  21.696  25.454  1.00  0.00     0.188 C 
ENDROOT
BRANCH   1   2
ATOM      2  O   UNL A   1      37.596  22.521  26.013  1.00  0.00    -0.376 OA
BRANCH   2   3
ATOM      3  C   UNL A   1      36.236  22.417  25.625  1.00  0.00     0.202 C 
BRANCH   3   4
ATOM      4  C   UNL A   1      35.058  22.934  26.469  1.00  0.00     0.261 C 
BRANCH   4   5
ATOM      5  O   UNL A   1      33.732  22.753  25.960  1.00  0.00    -0.461 OA
BRANCH   5   6
ATOM      6  C   UNL A   1      32.833  23.693  26.345  1.00  0.00     0.347 C 
ATOM      7  O   UNL A   1      32.058  23.555  27.286  1.00  0.00    -0.248 OA
BRANCH   6   8
ATOM      8  C   UNL A   1      32.806  24.914  25.429  1.00  0.00     0.279 C 
ATOM      9  C   UNL A   1      33.133  24.801  23.940  1.00  0.00     0.066 C 
BRANCH   8  10
ATOM     10  O   UNL A   1      31.656  25.683  25.763  1.00  0.00    -0.479 OA
BRANCH  10  11
ATOM     11  C   UNL A   1      31.697  27.028  25.941  1.00  0.00     0.120 A 
ATOM     12  C   UNL A   1      32.179  29.648  26.789  1.00  0.00    -0.024 A 
ATOM     13  C   UNL A   1      32.267  29.317  25.434  1.00  0.00     0.012 A 
ATOM     14  C   UNL A   1      31.648  28.710  27.678  1.00  0.00     0.012 A 
ATOM     15  C   UNL A   1      31.997  28.014  25.009  1.00  0.00     0.047 A 
ATOM     16  C   UNL A   1      31.444  27.400  27.259  1.00  0.00     0.047 A 
BRANCH  12  17
ATOM     17  C   UNL A   1      32.729  30.932  27.236  1.00  0.00     0.029 C 
ATOM     18  N   UNL A   1      36.223  30.697  28.174  1.00  0.00    -0.198 N 
ATOM     19  C   UNL A   1      35.147  30.166  27.485  1.00  0.00     0.285 C 
ATOM     20  C   UNL A   1      36.246  32.059  28.367  1.00  0.00     0.168 C 
ATOM     21  O   UNL A   1      35.156  29.084  26.915  1.00  0.00    -0.266 OA
ATOM     22  C   UNL A   1      34.028  31.156  27.493  1.00  0.00     0.082 C 
ATOM     23  S   UNL A   1      34.653  32.708  27.953  1.00  0.00    -0.052 SA
ATOM     24  S   UNL A   1      37.516  33.006  28.882  1.00  0.00    -0.050 S 
BRANCH  18  25
ATOM     25  N   UNL A   1      37.320  29.865  28.353  1.00  0.00    -0.254 N 
ATOM     26  C   UNL A   1      37.896  29.471  29.538  1.00  0.00     0.273 C 
ATOM     27  O   UNL A   1      38.735  28.569  29.463  1.00  0.00    -0.267 OA
ATOM     28  H   UNL A   1      37.736  29.514  27.532  1.00  0.00     0.192 HD
BRANCH  26  29
ATOM     29  C   UNL A   1      37.650  30.122  30.823  1.00  0.00     0.082 A 
ATOM     30  C   UNL A   1      39.838  31.310  31.787  1.00  0.00     0.088 C 
ATOM     31  C   UNL A   1      38.444  30.835  31.712  1.00  0.00     0.113 A 
ATOM     32  O   UNL A   1      37.703  31.245  32.787  1.00  0.00    -0.469 OA
ATOM     33  C   UNL A   1      36.425  30.866  32.579  1.00  0.00     0.196 A 
ATOM     34  C   UNL A   1      36.328  30.198  31.389  1.00  0.00     0.056 A 
ENDBRANCH  26  29
ENDBRANCH  18  25
ENDBRANCH  12  17
ENDBRANCH  10  11
ENDBRANCH   8  10
ENDBRANCH   6   8
ENDBRANCH   5   6
ENDBRANCH   4   5
ENDBRANCH   3   4
ENDBRANCH   2   3
ENDBRANCH   1   2
BRANCH   1  35
ATOM     35  C   UNL A   1      39.834  21.287  26.281  1.00  0.00     0.188 C 
BRANCH  35  36
ATOM     36  O   UNL A   1      40.088  19.898  26.333  1.00  0.00    -0.377 OA
BRANCH  36  37
ATOM     37  C   UNL A   1      41.450  19.493  26.311  1.00  0.00     0.188 C 
BRANCH  37  38
ATOM     38  C   UNL A   1      42.526  20.530  25.921  1.00  0.00     0.188 C 
BRANCH  38  39
ATOM     39  O   UNL A   1      43.531  20.034  25.048  1.00  0.00    -0.376 OA
BRANCH  39  40
ATOM     40  C   UNL A   1      44.584  20.895  24.641  1.00  0.00     0.202 C 
BRANCH  40  41
ATOM     41  C   UNL A   1      45.085  21.943  25.650  1.00  0.00     0.261 C 
BRANCH  41  42
ATOM     42  O   UNL A   1      44.445  23.228  25.608  1.00  0.00    -0.460 OA
BRANCH  42  43
ATOM     43  C   UNL A   1      44.062  23.779  26.777  1.00  0.00     0.338 C 
ATOM     44  O   UNL A   1      43.506  23.220  27.710  1.00  0.00    -0.246 OA
BRANCH  43  45
ATOM     45  C   UNL A   1      44.613  25.149  26.835  1.00  0.00     0.060 A 
ATOM     46  C   UNL A   1      44.562  25.947  25.686  1.00  0.00     0.016 A 
ATOM     47  C   UNL A   1      45.177  25.642  28.013  1.00  0.00     0.016 A 
ATOM     48  C   UNL A   1      45.114  27.228  25.698  1.00  0.00     0.010 A 
ATOM     49  C   UNL A   1      45.754  26.916  28.017  1.00  0.00     0.010 A 
ATOM     50  C   UNL A   1      45.758  27.699  26.849  1.00  0.00    -0.014 A 
BRANCH  50  51
ATOM     51  C   UNL A   1      46.615  28.908  26.766  1.00  0.00     0.031 A 
ATOM     52  C   UNL A   1      48.079  28.720  26.474  1.00  0.00     0.074 A 
ATOM     53  C   UNL A   1      46.106  30.144  26.911  1.00  0.00     0.049 A 
ATOM     54  N   UNL A   1      49.038  29.608  26.413  1.00  0.00    -0.248 NA
ATOM     55  C   UNL A   1      48.521  27.340  26.212  1.00  0.00     0.031 C 
ATOM     56  C   UNL A   1      44.698  30.459  27.139  1.00  0.00     0.029 A 
ATOM     57  N   UNL A   1      46.727  31.369  26.894  1.00  0.00    -0.354 N 
ATOM     58  C   UNL A   1      50.192  28.895  26.111  1.00  0.00     0.074 A 
ATOM     59  C   UNL A   1      49.823  27.499  26.036  1.00  0.00     0.031 C 
ATOM     60  C   UNL A   1      44.564  31.793  27.256  1.00  0.00     0.029 A 
ATOM     61  C   UNL A   1      45.881  32.420  27.150  1.00  0.00     0.049 A 
ATOM     62  H   UNL A   1      47.689  31.482  26.716  1.00  0.00     0.167 HD
ATOM     63  C   UNL A   1      51.444  29.364  25.904  1.00  0.00     0.037 A 
ATOM     64  C   UNL A   1      46.148  33.732  27.307  1.00  0.00     0.037 A 
ATOM     65  C   UNL A   1      51.810  30.753  25.982  1.00  0.00     0.049 A 
ATOM     66  C   UNL A   1      47.574  34.214  27.169  1.00  0.00     0.074 A 
ATOM     67  C   UNL A   1      53.052  31.330  25.791  1.00  0.00     0.029 A 
ATOM     68  N   UNL A   1      50.931  31.784  26.282  1.00  0.00    -0.354 N 
ATOM     69  N   UNL A   1      48.656  33.538  26.870  1.00  0.00    -0.248 NA
ATOM     70  C   UNL A   1      47.812  35.649  27.390  1.00  0.00     0.031 C 
ATOM     71  C   UNL A   1      52.939  32.702  26.032  1.00  0.00     0.029 A 
ATOM     72  C   UNL A   1      51.611  32.991  26.304  1.00  0.00     0.049 A 
ATOM     73  H   UNL A   1      49.968  31.675  26.452  1.00  0.00     0.167 HD
ATOM     74  C   UNL A   1      49.690  34.467  26.826  1.00  0.00     0.074 A 
ATOM     75  C   UNL A   1      49.102  35.757  27.114  1.00  0.00     0.031 C 
ATOM     76  C   UNL A   1      51.008  34.272  26.572  1.00  0.00     0.037 A 
BRANCH  63  77
ATOM     77  C   UNL A   1      52.521  28.367  25.591  1.00  0.00     0.064 A 
ATOM     78  C   UNL A   1      52.823  27.997  24.272  1.00  0.00     0.173 A 
ATOM     79  C   UNL A   1      53.297  27.815  26.622  1.00  0.00     0.173 A 
ATOM     80  F   UNL A   1      52.100  28.483  23.252  1.00  0.00    -0.203 F 
ATOM     81  C   UNL A   1      53.853  27.100  23.998  1.00  0.00     0.198 A 
ATOM     82  C   UNL A   1      54.346  26.943  26.342  1.00  0.00     0.198 A 
ATOM     83  F   UNL A   1      53.050  28.135  27.901  1.00  0.00    -0.203 F 
ATOM     84  F   UNL A   1      54.097  26.730  22.733  1.00  0.00    -0.200 F 
ATOM     85  C   UNL A   1      54.619  26.582  25.031  1.00  0.00     0.200 A 
ATOM     86  F   UNL A   1      55.094  26.455  27.340  1.00  0.00    -0.200 F 
ATOM     87  F   UNL A   1      55.620  25.731  24.764  1.00  0.00    -0.200 F 
ENDBRANCH  63  77
BRANCH  64  88
ATOM     88  C   UNL A   1      45.061  34.691  27.645  1.00  0.00     0.064 A 
ATOM     89  C   UNL A   1      44.764  35.012  28.978  1.00  0.00     0.173 A 
ATOM     90  C   UNL A   1      44.252  35.256  26.648  1.00  0.00     0.173 A 
ATOM     91  F   UNL A   1      45.490  34.479  29.972  1.00  0.00    -0.203 F 
ATOM     92  C   UNL A   1      43.680  35.827  29.300  1.00  0.00     0.198 A 
ATOM     93  C   UNL A   1      43.191  36.100  26.969  1.00  0.00     0.198 A 
ATOM     94  F   UNL A   1      44.487  34.983  25.355  1.00  0.00    -0.203 F 
ATOM     95  F   UNL A   1      43.376  36.055  30.585  1.00  0.00    -0.200 F 
ATOM     96  C   UNL A   1      42.896  36.372  28.296  1.00  0.00     0.200 A 
ATOM     97  F   UNL A   1      42.446  36.637  25.993  1.00  0.00    -0.200 F 
ATOM     98  F   UNL A   1      41.849  37.148  28.606  1.00  0.00    -0.200 F 
ENDBRANCH  64  88
BRANCH  76  99
ATOM     99  C   UNL A   1      51.898  35.482  26.535  1.00  0.00     0.064 A 
ATOM    100  C   UNL A   1      52.617  35.909  27.662  1.00  0.00     0.173 A 
ATOM    101  C   UNL A   1      52.066  36.200  25.341  1.00  0.00     0.173 A 
ATOM    102  F   UNL A   1      52.483  35.266  28.831  1.00  0.00    -0.203 F 
ATOM    103  C   UNL A   1      53.445  37.028  27.601  1.00  0.00     0.198 A 
ATOM    104  C   UNL A   1      52.923  37.295  25.274  1.00  0.00     0.198 A 
ATOM    105  F   UNL A   1      51.412  35.829  24.229  1.00  0.00    -0.203 F 
ATOM    106  F   UNL A   1      54.077  37.450  28.705  1.00  0.00    -0.200 F 
ATOM    107  C   UNL A   1      53.604  37.715  26.406  1.00  0.00     0.200 A 
ATOM    108  F   UNL A   1      53.090  37.944  24.113  1.00  0.00    -0.200 F 
ATOM    109  F   UNL A   1      54.408  38.784  26.349  1.00  0.00    -0.200 F 
ENDBRANCH  76  99
ENDBRANCH  50  51
ENDBRANCH  43  45
ENDBRANCH  42  43
ENDBRANCH  41  42
ENDBRANCH  40  41
ENDBRANCH  39  40
ENDBRANCH  38  39
ENDBRANCH  37  38
ENDBRANCH  36  37
ENDBRANCH  35  36
ENDBRANCH   1  35
TORSDOF 25
ENDMDL
