MODEL 1
REMARK VINA RESULT:     -10.3      0.000      0.000
REMARK SMILES C[NH2+][C@@]1(C(=O)OCCOCCOCCOCCOC(=O)c2ccc(-c3c4nc(c(-c5c(F)c(F)c(F)c(F)c5F)c5ccc([nH]5)c(-c5c(F)c(F)c(F)c(F)c5F)c5nc(c(-c6c(F)c(F)c(F)c(F)c6F)c6ccc3[nH]6)C=C5)C=C4)cc2)CC[C@H]([NH+]2CC[NH+](C)CC2)C1
REMARK SMILES IDX 13 1 12 2 11 3 10 4 9 5 8 6 7 7 6 8 4 9 5 10 3 11 84 12
REMARK SMILES IDX 94 13 85 14 86 15 2 16 1 17 87 20 88 21 93 22 89 24 92 25
REMARK SMILES IDX 90 26 91 27 14 29 15 30 16 31 17 32 18 33 19 34 20 35 21 36
REMARK SMILES IDX 22 37 83 38 23 39 82 40 24 41 25 42 26 43 76 44 27 45 81 46
REMARK SMILES IDX 75 47 77 48 28 49 80 50 74 51 73 52 29 54 61 55 41 56 60 57
REMARK SMILES IDX 42 58 45 59 59 60 78 61 43 62 44 63 58 65 79 66 46 67 30 68
REMARK SMILES IDX 31 69 39 70 32 71 33 72 37 73 40 74 34 75 35 76 38 77 36 78
REMARK SMILES IDX 62 79 63 80 71 81 64 82 65 83 69 84 72 85 66 86 67 87 70 88
REMARK SMILES IDX 68 89 47 90 48 91 56 92 49 93 50 94 54 95 57 96 51 97 52 98
REMARK SMILES IDX 55 99 53 100
REMARK H PARENT 2 18 2 19 87 23 90 28 77 53 45 64
REMARK Flexibility Score: inf
ROOT
ATOM      1  C   UNL A   1      34.318  16.471  24.794  1.00  0.00     0.188 C 
ENDROOT
BRANCH   1   2
ATOM      2  O   UNL A   1      33.011  16.859  25.135  1.00  0.00    -0.377 OA
BRANCH   2   3
ATOM      3  C   UNL A   1      32.462  17.981  24.484  1.00  0.00     0.188 C 
BRANCH   3   4
ATOM      4  C   UNL A   1      32.555  19.410  25.016  1.00  0.00     0.188 C 
BRANCH   4   5
ATOM      5  O   UNL A   1      33.040  20.429  24.166  1.00  0.00    -0.376 OA
BRANCH   5   6
ATOM      6  C   UNL A   1      32.279  21.549  23.749  1.00  0.00     0.202 C 
BRANCH   6   7
ATOM      7  C   UNL A   1      32.679  23.007  24.014  1.00  0.00     0.261 C 
BRANCH   7   8
ATOM      8  O   UNL A   1      32.129  23.983  23.107  1.00  0.00    -0.459 OA
BRANCH   8   9
ATOM      9  C   UNL A   1      33.007  24.907  22.633  1.00  0.00     0.368 C 
ATOM     10  O   UNL A   1      34.179  24.630  22.375  1.00  0.00    -0.245 OA
BRANCH   9  11
ATOM     11  C   UNL A   1      32.435  26.348  22.342  1.00  0.00     0.200 C 
ATOM     12  C   UNL A   1      33.650  27.287  22.185  1.00  0.00     0.087 C 
ATOM     13  C   UNL A   1      31.594  27.156  23.354  1.00  0.00     0.146 C 
ATOM     14  C   UNL A   1      33.926  27.828  23.582  1.00  0.00     0.072 C 
ATOM     15  C   UNL A   1      32.562  27.940  24.271  1.00  0.00     0.191 C 
BRANCH  11  16
ATOM     16  N   UNL A   1      31.786  26.298  20.992  1.00  0.00    -0.334 N 
ATOM     17  C   UNL A   1      32.526  25.579  19.969  1.00  0.00     0.331 C 
ATOM     18  H   UNL A   1      30.877  25.847  21.098  1.00  0.00     0.347 HD
ATOM     19  H   UNL A   1      31.730  27.265  20.672  1.00  0.00     0.347 HD
ENDBRANCH  11  16
BRANCH  15  20
ATOM     20  N   UNL A   1      32.438  27.698  25.718  1.00  0.00    -0.323 N 
ATOM     21  C   UNL A   1      31.522  28.605  26.432  1.00  0.00     0.324 C 
ATOM     22  C   UNL A   1      33.661  27.575  26.513  1.00  0.00     0.324 C 
ATOM     23  H   UNL A   1      32.035  26.762  25.657  1.00  0.00     0.348 HD
ATOM     24  C   UNL A   1      32.131  29.963  26.868  1.00  0.00     0.324 C 
ATOM     25  C   UNL A   1      34.348  28.910  26.845  1.00  0.00     0.324 C 
ATOM     26  N   UNL A   1      33.467  29.891  27.498  1.00  0.00    -0.328 N 
ATOM     27  C   UNL A   1      34.101  31.212  27.489  1.00  0.00     0.333 C 
ATOM     28  H   UNL A   1      33.325  29.580  28.460  1.00  0.00     0.348 HD
ENDBRANCH  15  20
ENDBRANCH   9  11
ENDBRANCH   8   9
ENDBRANCH   7   8
ENDBRANCH   6   7
ENDBRANCH   5   6
ENDBRANCH   4   5
ENDBRANCH   3   4
ENDBRANCH   2   3
ENDBRANCH   1   2
BRANCH   1  29
ATOM     29  C   UNL A   1      35.170  17.622  24.248  1.00  0.00     0.188 C 
BRANCH  29  30
ATOM     30  O   UNL A   1      36.232  18.196  25.004  1.00  0.00    -0.376 OA
BRANCH  30  31
ATOM     31  C   UNL A   1      36.527  19.581  24.950  1.00  0.00     0.202 C 
BRANCH  31  32
ATOM     32  C   UNL A   1      37.985  20.067  24.877  1.00  0.00     0.261 C 
BRANCH  32  33
ATOM     33  O   UNL A   1      38.346  21.175  25.708  1.00  0.00    -0.460 OA
BRANCH  33  34
ATOM     34  C   UNL A   1      39.594  21.134  26.215  1.00  0.00     0.338 C 
ATOM     35  O   UNL A   1      40.411  20.225  26.121  1.00  0.00    -0.246 OA
BRANCH  34  36
ATOM     36  C   UNL A   1      39.907  22.435  26.830  1.00  0.00     0.060 A 
ATOM     37  C   UNL A   1      39.230  23.573  26.375  1.00  0.00     0.016 A 
ATOM     38  C   UNL A   1      40.910  22.544  27.796  1.00  0.00     0.016 A 
ATOM     39  C   UNL A   1      39.570  24.830  26.860  1.00  0.00     0.010 A 
ATOM     40  C   UNL A   1      41.278  23.811  28.256  1.00  0.00     0.010 A 
ATOM     41  C   UNL A   1      40.634  24.958  27.758  1.00  0.00    -0.014 A 
BRANCH  41  42
ATOM     42  C   UNL A   1      41.213  26.301  27.986  1.00  0.00     0.031 A 
ATOM     43  C   UNL A   1      42.603  26.568  27.481  1.00  0.00     0.074 A 
ATOM     44  C   UNL A   1      40.497  27.272  28.577  1.00  0.00     0.049 A 
ATOM     45  N   UNL A   1      43.340  27.643  27.597  1.00  0.00    -0.248 NA
ATOM     46  C   UNL A   1      43.251  25.470  26.744  1.00  0.00     0.031 C 
ATOM     47  C   UNL A   1      39.120  27.141  29.044  1.00  0.00     0.029 A 
ATOM     48  N   UNL A   1      40.841  28.563  28.885  1.00  0.00    -0.354 N 
ATOM     49  C   UNL A   1      44.538  27.345  26.959  1.00  0.00     0.074 A 
ATOM     50  C   UNL A   1      44.442  25.984  26.483  1.00  0.00     0.031 C 
ATOM     51  C   UNL A   1      38.738  28.304  29.599  1.00  0.00     0.029 A 
ATOM     52  C   UNL A   1      39.858  29.244  29.558  1.00  0.00     0.049 A 
ATOM     53  H   UNL A   1      41.709  28.963  28.649  1.00  0.00     0.167 HD
ATOM     54  C   UNL A   1      45.617  28.143  26.783  1.00  0.00     0.037 A 
ATOM     55  C   UNL A   1      39.879  30.475  30.103  1.00  0.00     0.037 A 
ATOM     56  C   UNL A   1      45.700  29.497  27.265  1.00  0.00     0.049 A 
ATOM     57  C   UNL A   1      41.126  31.314  29.971  1.00  0.00     0.074 A 
ATOM     58  C   UNL A   1      46.742  30.396  27.137  1.00  0.00     0.029 A 
ATOM     59  N   UNL A   1      44.699  30.141  27.978  1.00  0.00    -0.354 N 
ATOM     60  N   UNL A   1      42.253  31.035  29.358  1.00  0.00    -0.248 NA
ATOM     61  C   UNL A   1      41.103  32.639  30.604  1.00  0.00     0.031 C 
ATOM     62  C   UNL A   1      46.399  31.561  27.828  1.00  0.00     0.029 A 
ATOM     63  C   UNL A   1      45.113  31.417  28.324  1.00  0.00     0.049 A 
ATOM     64  H   UNL A   1      43.825  29.749  28.205  1.00  0.00     0.167 HD
ATOM     65  C   UNL A   1      43.058  32.159  29.505  1.00  0.00     0.074 A 
ATOM     66  C   UNL A   1      42.283  33.128  30.250  1.00  0.00     0.031 C 
ATOM     67  C   UNL A   1      44.322  32.371  29.060  1.00  0.00     0.037 A 
BRANCH  54  68
ATOM     68  C   UNL A   1      46.807  27.557  26.078  1.00  0.00     0.064 A 
ATOM     69  C   UNL A   1      46.969  27.650  24.688  1.00  0.00     0.173 A 
ATOM     70  C   UNL A   1      47.814  26.911  26.812  1.00  0.00     0.173 A 
ATOM     71  F   UNL A   1      46.028  28.243  23.937  1.00  0.00    -0.203 F 
ATOM     72  C   UNL A   1      48.079  27.096  24.056  1.00  0.00     0.198 A 
ATOM     73  C   UNL A   1      48.939  26.387  26.181  1.00  0.00     0.198 A 
ATOM     74  F   UNL A   1      47.712  26.794  28.145  1.00  0.00    -0.203 F 
ATOM     75  F   UNL A   1      48.185  27.151  22.721  1.00  0.00    -0.200 F 
ATOM     76  C   UNL A   1      49.067  26.472  24.803  1.00  0.00     0.200 A 
ATOM     77  F   UNL A   1      49.900  25.798  26.908  1.00  0.00    -0.200 F 
ATOM     78  F   UNL A   1      50.139  25.946  24.195  1.00  0.00    -0.200 F 
ENDBRANCH  54  68
BRANCH  55  79
ATOM     79  C   UNL A   1      38.693  30.982  30.842  1.00  0.00     0.064 A 
ATOM     80  C   UNL A   1      37.645  31.632  30.176  1.00  0.00     0.173 A 
ATOM     81  C   UNL A   1      38.592  30.846  32.236  1.00  0.00     0.173 A 
ATOM     82  F   UNL A   1      37.704  31.810  28.848  1.00  0.00    -0.203 F 
ATOM     83  C   UNL A   1      36.554  32.144  30.876  1.00  0.00     0.198 A 
ATOM     84  C   UNL A   1      37.485  31.328  32.930  1.00  0.00     0.198 A 
ATOM     85  F   UNL A   1      39.569  30.237  32.924  1.00  0.00    -0.203 F 
ATOM     86  F   UNL A   1      35.593  32.808  30.219  1.00  0.00    -0.200 F 
ATOM     87  C   UNL A   1      36.471  31.985  32.250  1.00  0.00     0.200 A 
ATOM     88  F   UNL A   1      37.403  31.162  34.257  1.00  0.00    -0.200 F 
ATOM     89  F   UNL A   1      35.421  32.476  32.922  1.00  0.00    -0.200 F 
ENDBRANCH  55  79
BRANCH  67  90
ATOM     90  C   UNL A   1      44.932  33.719  29.327  1.00  0.00     0.064 A 
ATOM     91  C   UNL A   1      45.707  33.970  30.468  1.00  0.00     0.173 A 
ATOM     92  C   UNL A   1      44.773  34.762  28.400  1.00  0.00     0.173 A 
ATOM     93  F   UNL A   1      45.880  33.011  31.391  1.00  0.00    -0.203 F 
ATOM     94  C   UNL A   1      46.274  35.222  30.687  1.00  0.00     0.198 A 
ATOM     95  C   UNL A   1      45.372  36.002  28.604  1.00  0.00     0.198 A 
ATOM     96  F   UNL A   1      44.049  34.574  27.286  1.00  0.00    -0.203 F 
ATOM     97  F   UNL A   1      46.965  35.455  31.812  1.00  0.00    -0.200 F 
ATOM     98  C   UNL A   1      46.115  36.234  29.752  1.00  0.00     0.200 A 
ATOM     99  F   UNL A   1      45.233  36.971  27.690  1.00  0.00    -0.200 F 
ATOM    100  F   UNL A   1      46.669  37.436  29.960  1.00  0.00    -0.200 F 
ENDBRANCH  67  90
ENDBRANCH  41  42
ENDBRANCH  34  36
ENDBRANCH  33  34
ENDBRANCH  32  33
ENDBRANCH  31  32
ENDBRANCH  30  31
ENDBRANCH  29  30
ENDBRANCH   1  29
TORSDOF 22
ENDMDL
MODEL 2
REMARK VINA RESULT:     -10.1      1.217      7.485
REMARK SMILES C[NH2+][C@@]1(C(=O)OCCOCCOCCOCCOC(=O)c2ccc(-c3c4nc(c(-c5c(F)c(F)c(F)c(F)c5F)c5ccc([nH]5)c(-c5c(F)c(F)c(F)c(F)c5F)c5nc(c(-c6c(F)c(F)c(F)c(F)c6F)c6ccc3[nH]6)C=C5)C=C4)cc2)CC[C@H]([NH+]2CC[NH+](C)CC2)C1
REMARK SMILES IDX 13 1 12 2 11 3 10 4 9 5 8 6 7 7 6 8 4 9 5 10 3 11 84 12
REMARK SMILES IDX 94 13 85 14 86 15 2 16 1 17 87 20 88 21 93 22 89 24 92 25
REMARK SMILES IDX 90 26 91 27 14 29 15 30 16 31 17 32 18 33 19 34 20 35 21 36
REMARK SMILES IDX 22 37 83 38 23 39 82 40 24 41 25 42 26 43 76 44 27 45 81 46
REMARK SMILES IDX 75 47 77 48 28 49 80 50 74 51 73 52 29 54 61 55 41 56 60 57
REMARK SMILES IDX 42 58 45 59 59 60 78 61 43 62 44 63 58 65 79 66 46 67 30 68
REMARK SMILES IDX 31 69 39 70 32 71 33 72 37 73 40 74 34 75 35 76 38 77 36 78
REMARK SMILES IDX 62 79 63 80 71 81 64 82 65 83 69 84 72 85 66 86 67 87 70 88
REMARK SMILES IDX 68 89 47 90 48 91 56 92 49 93 50 94 54 95 57 96 51 97 52 98
REMARK SMILES IDX 55 99 53 100
REMARK H PARENT 2 18 2 19 87 23 90 28 77 53 45 64
REMARK Flexibility Score: inf
ROOT
ATOM      1  C   UNL A   1      34.693  16.473  24.764  1.00  0.00     0.188 C 
ENDROOT
BRANCH   1   2
ATOM      2  O   UNL A   1      33.668  16.124  23.869  1.00  0.00    -0.377 OA
BRANCH   2   3
ATOM      3  C   UNL A   1      33.435  16.969  22.766  1.00  0.00     0.188 C 
BRANCH   3   4
ATOM      4  C   UNL A   1      32.289  17.977  22.687  1.00  0.00     0.188 C 
BRANCH   4   5
ATOM      5  O   UNL A   1      32.586  19.336  22.443  1.00  0.00    -0.376 OA
BRANCH   5   6
ATOM      6  C   UNL A   1      32.164  20.406  23.271  1.00  0.00     0.202 C 
BRANCH   6   7
ATOM      7  C   UNL A   1      32.057  21.864  22.803  1.00  0.00     0.261 C 
BRANCH   7   8
ATOM      8  O   UNL A   1      32.913  22.805  23.481  1.00  0.00    -0.459 OA
BRANCH   8   9
ATOM      9  C   UNL A   1      32.301  23.608  24.392  1.00  0.00     0.368 C 
ATOM     10  O   UNL A   1      31.078  23.750  24.427  1.00  0.00    -0.245 OA
BRANCH   9  11
ATOM     11  C   UNL A   1      33.226  24.295  25.469  1.00  0.00     0.200 C 
ATOM     12  C   UNL A   1      32.311  25.175  26.346  1.00  0.00     0.087 C 
ATOM     13  C   UNL A   1      34.334  25.313  25.123  1.00  0.00     0.146 C 
ATOM     14  C   UNL A   1      32.305  26.544  25.678  1.00  0.00     0.072 C 
ATOM     15  C   UNL A   1      33.695  26.721  25.060  1.00  0.00     0.191 C 
BRANCH  11  16
ATOM     16  N   UNL A   1      33.728  23.209  26.372  1.00  0.00    -0.334 N 
ATOM     17  C   UNL A   1      35.165  22.995  26.351  1.00  0.00     0.331 C 
ATOM     18  H   UNL A   1      33.459  23.446  27.327  1.00  0.00     0.347 HD
ATOM     19  H   UNL A   1      33.310  22.344  26.029  1.00  0.00     0.347 HD
ENDBRANCH  11  16
BRANCH  15  20
ATOM     20  N   UNL A   1      33.860  27.461  23.799  1.00  0.00    -0.323 N 
ATOM     21  C   UNL A   1      33.373  28.852  23.816  1.00  0.00     0.324 C 
ATOM     22  C   UNL A   1      33.399  26.837  22.558  1.00  0.00     0.324 C 
ATOM     23  H   UNL A   1      34.880  27.442  23.772  1.00  0.00     0.348 HD
ATOM     24  C   UNL A   1      31.857  29.032  23.543  1.00  0.00     0.324 C 
ATOM     25  C   UNL A   1      31.878  26.896  22.336  1.00  0.00     0.324 C 
ATOM     26  N   UNL A   1      31.314  28.252  22.410  1.00  0.00    -0.328 N 
ATOM     27  C   UNL A   1      29.854  28.179  22.502  1.00  0.00     0.333 C 
ATOM     28  H   UNL A   1      31.584  28.742  21.557  1.00  0.00     0.348 HD
ENDBRANCH  15  20
ENDBRANCH   9  11
ENDBRANCH   8   9
ENDBRANCH   7   8
ENDBRANCH   6   7
ENDBRANCH   5   6
ENDBRANCH   4   5
ENDBRANCH   3   4
ENDBRANCH   2   3
ENDBRANCH   1   2
BRANCH   1  29
ATOM     29  C   UNL A   1      34.981  17.978  24.800  1.00  0.00     0.188 C 
BRANCH  29  30
ATOM     30  O   UNL A   1      36.310  18.490  24.778  1.00  0.00    -0.376 OA
BRANCH  30  31
ATOM     31  C   UNL A   1      36.580  19.878  24.868  1.00  0.00     0.202 C 
BRANCH  31  32
ATOM     32  C   UNL A   1      38.027  20.398  24.819  1.00  0.00     0.261 C 
BRANCH  32  33
ATOM     33  O   UNL A   1      38.396  21.393  25.779  1.00  0.00    -0.460 OA
BRANCH  33  34
ATOM     34  C   UNL A   1      39.627  21.253  26.311  1.00  0.00     0.338 C 
ATOM     35  O   UNL A   1      40.353  20.266  26.268  1.00  0.00    -0.246 OA
BRANCH  34  36
ATOM     36  C   UNL A   1      40.055  22.541  26.881  1.00  0.00     0.060 A 
ATOM     37  C   UNL A   1      39.528  23.722  26.342  1.00  0.00     0.016 A 
ATOM     38  C   UNL A   1      41.021  22.590  27.889  1.00  0.00     0.016 A 
ATOM     39  C   UNL A   1      39.984  24.957  26.786  1.00  0.00     0.010 A 
ATOM     40  C   UNL A   1      41.506  23.831  28.308  1.00  0.00     0.010 A 
ATOM     41  C   UNL A   1      41.015  25.015  27.728  1.00  0.00    -0.014 A 
BRANCH  41  42
ATOM     42  C   UNL A   1      41.728  26.297  27.923  1.00  0.00     0.031 A 
ATOM     43  C   UNL A   1      41.030  27.386  28.688  1.00  0.00     0.074 A 
ATOM     44  C   UNL A   1      42.985  26.465  27.480  1.00  0.00     0.049 A 
ATOM     45  N   UNL A   1      41.425  28.605  28.952  1.00  0.00    -0.248 NA
ATOM     46  C   UNL A   1      39.702  27.053  29.231  1.00  0.00     0.031 C 
ATOM     47  C   UNL A   1      43.777  25.454  26.786  1.00  0.00     0.029 A 
ATOM     48  N   UNL A   1      43.810  27.558  27.549  1.00  0.00    -0.354 N 
ATOM     49  C   UNL A   1      40.392  29.184  29.678  1.00  0.00     0.074 A 
ATOM     50  C   UNL A   1      39.342  28.197  29.790  1.00  0.00     0.031 C 
ATOM     51  C   UNL A   1      44.974  25.980  26.475  1.00  0.00     0.029 A 
ATOM     52  C   UNL A   1      45.014  27.374  26.916  1.00  0.00     0.049 A 
ATOM     53  H   UNL A   1      43.563  28.394  28.007  1.00  0.00     0.167 HD
ATOM     54  C   UNL A   1      40.331  30.428  30.207  1.00  0.00     0.037 A 
ATOM     55  C   UNL A   1      46.013  28.248  26.694  1.00  0.00     0.037 A 
ATOM     56  C   UNL A   1      41.382  31.403  30.085  1.00  0.00     0.049 A 
ATOM     57  C   UNL A   1      45.885  29.657  27.217  1.00  0.00     0.074 A 
ATOM     58  C   UNL A   1      41.429  32.691  30.587  1.00  0.00     0.029 A 
ATOM     59  N   UNL A   1      42.572  31.196  29.401  1.00  0.00    -0.354 N 
ATOM     60  N   UNL A   1      44.913  30.199  27.912  1.00  0.00    -0.248 NA
ATOM     61  C   UNL A   1      46.995  30.575  26.927  1.00  0.00     0.031 C 
ATOM     62  C   UNL A   1      42.617  33.285  30.152  1.00  0.00     0.029 A 
ATOM     63  C   UNL A   1      43.346  32.344  29.441  1.00  0.00     0.049 A 
ATOM     64  H   UNL A   1      42.828  30.358  28.953  1.00  0.00     0.167 HD
ATOM     65  C   UNL A   1      45.308  31.507  28.169  1.00  0.00     0.074 A 
ATOM     66  C   UNL A   1      46.614  31.671  27.567  1.00  0.00     0.031 C 
ATOM     67  C   UNL A   1      44.650  32.484  28.843  1.00  0.00     0.037 A 
BRANCH  54  68
ATOM     68  C   UNL A   1      39.071  30.817  30.926  1.00  0.00     0.064 A 
ATOM     69  C   UNL A   1      38.933  30.675  32.315  1.00  0.00     0.173 A 
ATOM     70  C   UNL A   1      37.992  31.364  30.214  1.00  0.00     0.173 A 
ATOM     71  F   UNL A   1      39.928  30.143  33.041  1.00  0.00    -0.203 F 
ATOM     72  C   UNL A   1      37.753  31.039  32.960  1.00  0.00     0.198 A 
ATOM     73  C   UNL A   1      36.827  31.757  30.866  1.00  0.00     0.198 A 
ATOM     74  F   UNL A   1      38.070  31.524  28.884  1.00  0.00    -0.203 F 
ATOM     75  F   UNL A   1      37.625  30.844  34.279  1.00  0.00    -0.200 F 
ATOM     76  C   UNL A   1      36.704  31.587  32.237  1.00  0.00     0.200 A 
ATOM     77  F   UNL A   1      35.820  32.302  30.167  1.00  0.00    -0.200 F 
ATOM     78  F   UNL A   1      35.573  31.945  32.859  1.00  0.00    -0.200 F 
ENDBRANCH  54  68
BRANCH  55  79
ATOM     79  C   UNL A   1      47.213  27.826  25.923  1.00  0.00     0.064 A 
ATOM     80  C   UNL A   1      47.202  27.797  24.522  1.00  0.00     0.173 A 
ATOM     81  C   UNL A   1      48.389  27.421  26.573  1.00  0.00     0.173 A 
ATOM     82  F   UNL A   1      46.094  28.150  23.853  1.00  0.00    -0.203 F 
ATOM     83  C   UNL A   1      48.313  27.361  23.801  1.00  0.00     0.198 A 
ATOM     84  C   UNL A   1      49.510  27.018  25.851  1.00  0.00     0.198 A 
ATOM     85  F   UNL A   1      48.452  27.424  27.912  1.00  0.00    -0.203 F 
ATOM     86  F   UNL A   1      48.257  27.293  22.464  1.00  0.00    -0.200 F 
ATOM     87  C   UNL A   1      49.468  26.979  24.466  1.00  0.00     0.200 A 
ATOM     88  F   UNL A   1      50.628  26.661  26.498  1.00  0.00    -0.200 F 
ATOM     89  F   UNL A   1      50.536  26.562  23.773  1.00  0.00    -0.200 F 
ENDBRANCH  55  79
BRANCH  67  90
ATOM     90  C   UNL A   1      45.351  33.803  29.008  1.00  0.00     0.064 A 
ATOM     91  C   UNL A   1      45.185  34.851  28.091  1.00  0.00     0.173 A 
ATOM     92  C   UNL A   1      46.168  34.035  30.127  1.00  0.00     0.173 A 
ATOM     93  F   UNL A   1      44.424  34.679  26.999  1.00  0.00    -0.203 F 
ATOM     94  C   UNL A   1      45.833  36.070  28.272  1.00  0.00     0.198 A 
ATOM     95  C   UNL A   1      46.785  35.267  30.323  1.00  0.00     0.198 A 
ATOM     96  F   UNL A   1      46.355  33.070  31.040  1.00  0.00    -0.203 F 
ATOM     97  F   UNL A   1      45.702  37.039  27.354  1.00  0.00    -0.200 F 
ATOM     98  C   UNL A   1      46.624  36.281  29.391  1.00  0.00     0.200 A 
ATOM     99  F   UNL A   1      47.533  35.473  31.415  1.00  0.00    -0.200 F 
ATOM    100  F   UNL A   1      47.240  37.458  29.568  1.00  0.00    -0.200 F 
ENDBRANCH  67  90
ENDBRANCH  41  42
ENDBRANCH  34  36
ENDBRANCH  33  34
ENDBRANCH  32  33
ENDBRANCH  31  32
ENDBRANCH  30  31
ENDBRANCH  29  30
ENDBRANCH   1  29
TORSDOF 22
ENDMDL
MODEL 3
REMARK VINA RESULT:      -9.7      1.131      7.368
REMARK SMILES C[NH2+][C@@]1(C(=O)OCCOCCOCCOCCOC(=O)c2ccc(-c3c4nc(c(-c5c(F)c(F)c(F)c(F)c5F)c5ccc([nH]5)c(-c5c(F)c(F)c(F)c(F)c5F)c5nc(c(-c6c(F)c(F)c(F)c(F)c6F)c6ccc3[nH]6)C=C5)C=C4)cc2)CC[C@H]([NH+]2CC[NH+](C)CC2)C1
REMARK SMILES IDX 13 1 12 2 11 3 10 4 9 5 8 6 7 7 6 8 4 9 5 10 3 11 84 12
REMARK SMILES IDX 94 13 85 14 86 15 2 16 1 17 87 20 88 21 93 22 89 24 92 25
REMARK SMILES IDX 90 26 91 27 14 29 15 30 16 31 17 32 18 33 19 34 20 35 21 36
REMARK SMILES IDX 22 37 83 38 23 39 82 40 24 41 25 42 26 43 76 44 27 45 81 46
REMARK SMILES IDX 75 47 77 48 28 49 80 50 74 51 73 52 29 54 61 55 41 56 60 57
REMARK SMILES IDX 42 58 45 59 59 60 78 61 43 62 44 63 58 65 79 66 46 67 30 68
REMARK SMILES IDX 31 69 39 70 32 71 33 72 37 73 40 74 34 75 35 76 38 77 36 78
REMARK SMILES IDX 62 79 63 80 71 81 64 82 65 83 69 84 72 85 66 86 67 87 70 88
REMARK SMILES IDX 68 89 47 90 48 91 56 92 49 93 50 94 54 95 57 96 51 97 52 98
REMARK SMILES IDX 55 99 53 100
REMARK H PARENT 2 18 2 19 87 23 90 28 77 53 45 64
REMARK Flexibility Score: inf
ROOT
ATOM      1  C   UNL A   1      35.219  15.772  24.883  1.00  0.00     0.188 C 
ENDROOT
BRANCH   1   2
ATOM      2  O   UNL A   1      33.980  15.838  24.224  1.00  0.00    -0.377 OA
BRANCH   2   3
ATOM      3  C   UNL A   1      33.704  16.978  23.443  1.00  0.00     0.188 C 
BRANCH   3   4
ATOM      4  C   UNL A   1      32.398  17.768  23.512  1.00  0.00     0.188 C 
BRANCH   4   5
ATOM      5  O   UNL A   1      32.419  19.083  24.027  1.00  0.00    -0.376 OA
BRANCH   5   6
ATOM      6  C   UNL A   1      32.277  20.250  23.237  1.00  0.00     0.202 C 
BRANCH   6   7
ATOM      7  C   UNL A   1      32.925  21.601  23.574  1.00  0.00     0.261 C 
BRANCH   7   8
ATOM      8  O   UNL A   1      32.281  22.763  23.015  1.00  0.00    -0.459 OA
BRANCH   8   9
ATOM      9  C   UNL A   1      32.939  23.941  23.186  1.00  0.00     0.368 C 
ATOM     10  O   UNL A   1      33.829  24.081  24.025  1.00  0.00    -0.245 OA
BRANCH   9  11
ATOM     11  C   UNL A   1      32.570  25.112  22.195  1.00  0.00     0.200 C 
ATOM     12  C   UNL A   1      33.668  26.185  22.345  1.00  0.00     0.087 C 
ATOM     13  C   UNL A   1      31.308  25.990  22.341  1.00  0.00     0.146 C 
ATOM     14  C   UNL A   1      33.166  27.129  23.432  1.00  0.00     0.072 C 
ATOM     15  C   UNL A   1      31.641  27.163  23.293  1.00  0.00     0.191 C 
BRANCH  11  16
ATOM     16  N   UNL A   1      32.717  24.574  20.805  1.00  0.00    -0.334 N 
ATOM     17  C   UNL A   1      32.499  25.534  19.736  1.00  0.00     0.331 C 
ATOM     18  H   UNL A   1      33.664  24.207  20.710  1.00  0.00     0.347 HD
ATOM     19  H   UNL A   1      31.990  23.866  20.700  1.00  0.00     0.347 HD
ENDBRANCH  11  16
BRANCH  15  20
ATOM     20  N   UNL A   1      30.788  27.305  24.484  1.00  0.00    -0.323 N 
ATOM     21  C   UNL A   1      31.505  27.573  25.744  1.00  0.00     0.324 C 
ATOM     22  C   UNL A   1      29.781  26.277  24.748  1.00  0.00     0.324 C 
ATOM     23  H   UNL A   1      30.282  28.137  24.180  1.00  0.00     0.348 HD
ATOM     24  C   UNL A   1      32.056  26.324  26.478  1.00  0.00     0.324 C 
ATOM     25  C   UNL A   1      30.334  24.978  25.360  1.00  0.00     0.324 C 
ATOM     26  N   UNL A   1      31.122  25.182  26.586  1.00  0.00    -0.328 N 
ATOM     27  C   UNL A   1      31.857  23.957  26.913  1.00  0.00     0.333 C 
ATOM     28  H   UNL A   1      30.467  25.404  27.335  1.00  0.00     0.348 HD
ENDBRANCH  15  20
ENDBRANCH   9  11
ENDBRANCH   8   9
ENDBRANCH   7   8
ENDBRANCH   6   7
ENDBRANCH   5   6
ENDBRANCH   4   5
ENDBRANCH   3   4
ENDBRANCH   2   3
ENDBRANCH   1   2
BRANCH   1  29
ATOM     29  C   UNL A   1      35.625  17.093  25.546  1.00  0.00     0.188 C 
BRANCH  29  30
ATOM     30  O   UNL A   1      36.647  17.924  25.005  1.00  0.00    -0.376 OA
BRANCH  30  31
ATOM     31  C   UNL A   1      36.477  19.324  24.863  1.00  0.00     0.202 C 
BRANCH  31  32
ATOM     32  C   UNL A   1      37.696  20.243  24.675  1.00  0.00     0.261 C 
BRANCH  32  33
ATOM     33  O   UNL A   1      38.066  21.071  25.782  1.00  0.00    -0.460 OA
BRANCH  33  34
ATOM     34  C   UNL A   1      39.347  20.958  26.185  1.00  0.00     0.338 C 
ATOM     35  O   UNL A   1      40.095  19.997  26.041  1.00  0.00    -0.246 OA
BRANCH  34  36
ATOM     36  C   UNL A   1      39.792  22.245  26.745  1.00  0.00     0.060 A 
ATOM     37  C   UNL A   1      39.320  23.429  26.166  1.00  0.00     0.016 A 
ATOM     38  C   UNL A   1      40.722  22.286  27.787  1.00  0.00     0.016 A 
ATOM     39  C   UNL A   1      39.795  24.660  26.602  1.00  0.00     0.010 A 
ATOM     40  C   UNL A   1      41.228  23.520  28.201  1.00  0.00     0.010 A 
ATOM     41  C   UNL A   1      40.793  24.706  27.580  1.00  0.00    -0.014 A 
BRANCH  41  42
ATOM     42  C   UNL A   1      41.535  25.971  27.778  1.00  0.00     0.031 A 
ATOM     43  C   UNL A   1      40.859  27.078  28.538  1.00  0.00     0.074 A 
ATOM     44  C   UNL A   1      42.797  26.108  27.341  1.00  0.00     0.049 A 
ATOM     45  N   UNL A   1      41.282  28.287  28.802  1.00  0.00    -0.248 NA
ATOM     46  C   UNL A   1      39.521  26.777  29.074  1.00  0.00     0.031 C 
ATOM     47  C   UNL A   1      43.569  25.078  26.652  1.00  0.00     0.029 A 
ATOM     48  N   UNL A   1      43.648  27.182  27.413  1.00  0.00    -0.354 N 
ATOM     49  C   UNL A   1      40.259  28.892  29.522  1.00  0.00     0.074 A 
ATOM     50  C   UNL A   1      39.186  27.930  29.630  1.00  0.00     0.031 C 
ATOM     51  C   UNL A   1      44.780  25.575  26.346  1.00  0.00     0.029 A 
ATOM     52  C   UNL A   1      44.851  26.968  26.786  1.00  0.00     0.049 A 
ATOM     53  H   UNL A   1      43.420  28.024  27.868  1.00  0.00     0.167 HD
ATOM     54  C   UNL A   1      40.226  30.138  30.049  1.00  0.00     0.037 A 
ATOM     55  C   UNL A   1      45.872  27.817  26.568  1.00  0.00     0.037 A 
ATOM     56  C   UNL A   1      41.301  31.088  29.931  1.00  0.00     0.049 A 
ATOM     57  C   UNL A   1      45.775  29.230  27.089  1.00  0.00     0.074 A 
ATOM     58  C   UNL A   1      41.375  32.374  30.432  1.00  0.00     0.029 A 
ATOM     59  N   UNL A   1      42.489  30.851  29.253  1.00  0.00    -0.354 N 
ATOM     60  N   UNL A   1      44.813  29.796  27.778  1.00  0.00    -0.248 NA
ATOM     61  C   UNL A   1      46.908  30.120  26.803  1.00  0.00     0.031 C 
ATOM     62  C   UNL A   1      42.580  32.939  30.003  1.00  0.00     0.029 A 
ATOM     63  C   UNL A   1      43.289  31.980  29.296  1.00  0.00     0.049 A 
ATOM     64  H   UNL A   1      42.727  30.007  28.808  1.00  0.00     0.167 HD
ATOM     65  C   UNL A   1      45.237  31.095  28.035  1.00  0.00     0.074 A 
ATOM     66  C   UNL A   1      46.550  31.226  27.440  1.00  0.00     0.031 C 
ATOM     67  C   UNL A   1      44.600  32.088  28.705  1.00  0.00     0.037 A 
BRANCH  54  68
ATOM     68  C   UNL A   1      38.972  30.558  30.761  1.00  0.00     0.064 A 
ATOM     69  C   UNL A   1      37.879  31.112  30.078  1.00  0.00     0.173 A 
ATOM     70  C   UNL A   1      38.854  30.379  32.148  1.00  0.00     0.173 A 
ATOM     71  F   UNL A   1      37.944  31.319  28.755  1.00  0.00    -0.203 F 
ATOM     72  C   UNL A   1      36.727  31.497  30.760  1.00  0.00     0.198 A 
ATOM     73  C   UNL A   1      37.689  30.735  32.822  1.00  0.00     0.198 A 
ATOM     74  F   UNL A   1      39.868  29.853  32.851  1.00  0.00    -0.203 F 
ATOM     75  F   UNL A   1      35.717  32.073  30.095  1.00  0.00    -0.200 F 
ATOM     76  C   UNL A   1      36.630  31.301  32.130  1.00  0.00     0.200 A 
ATOM     77  F   UNL A   1      37.592  30.530  34.144  1.00  0.00    -0.200 F 
ATOM     78  F   UNL A   1      35.518  31.664  32.784  1.00  0.00    -0.200 F 
ENDBRANCH  54  68
BRANCH  55  79
ATOM     79  C   UNL A   1      47.065  27.366  25.803  1.00  0.00     0.064 A 
ATOM     80  C   UNL A   1      48.174  26.807  26.453  1.00  0.00     0.173 A 
ATOM     81  C   UNL A   1      47.129  27.504  24.408  1.00  0.00     0.173 A 
ATOM     82  F   UNL A   1      48.174  26.676  27.787  1.00  0.00    -0.203 F 
ATOM     83  C   UNL A   1      49.309  26.423  25.739  1.00  0.00     0.198 A 
ATOM     84  C   UNL A   1      48.250  27.088  23.692  1.00  0.00     0.198 A 
ATOM     85  F   UNL A   1      46.098  28.037  23.737  1.00  0.00    -0.203 F 
ATOM     86  F   UNL A   1      50.375  25.941  26.391  1.00  0.00    -0.200 F 
ATOM     87  C   UNL A   1      49.342  26.557  24.360  1.00  0.00     0.200 A 
ATOM     88  F   UNL A   1      48.273  27.208  22.358  1.00  0.00    -0.200 F 
ATOM     89  F   UNL A   1      50.432  26.185  23.674  1.00  0.00    -0.200 F 
ENDBRANCH  55  79
BRANCH  67  90
ATOM     90  C   UNL A   1      45.331  33.390  28.871  1.00  0.00     0.064 A 
ATOM     91  C   UNL A   1      45.185  34.445  27.959  1.00  0.00     0.173 A 
ATOM     92  C   UNL A   1      46.157  33.599  29.988  1.00  0.00     0.173 A 
ATOM     93  F   UNL A   1      44.417  34.295  26.869  1.00  0.00    -0.203 F 
ATOM     94  C   UNL A   1      45.862  35.648  28.142  1.00  0.00     0.198 A 
ATOM     95  C   UNL A   1      46.803  34.816  30.186  1.00  0.00     0.198 A 
ATOM     96  F   UNL A   1      46.326  32.627  30.896  1.00  0.00    -0.203 F 
ATOM     97  F   UNL A   1      45.750  36.623  27.227  1.00  0.00    -0.200 F 
ATOM     98  C   UNL A   1      46.662  35.836  29.259  1.00  0.00     0.200 A 
ATOM     99  F   UNL A   1      47.560  35.002  31.276  1.00  0.00    -0.200 F 
ATOM    100  F   UNL A   1      47.305  36.999  29.437  1.00  0.00    -0.200 F 
ENDBRANCH  67  90
ENDBRANCH  41  42
ENDBRANCH  34  36
ENDBRANCH  33  34
ENDBRANCH  32  33
ENDBRANCH  31  32
ENDBRANCH  30  31
ENDBRANCH  29  30
ENDBRANCH   1  29
TORSDOF 22
ENDMDL
