MODEL 1
REMARK VINA RESULT:     -10.1      0.000      0.000
REMARK SMILES Cc1ccc(CNC(=O)NC[C@@H]2CC[C@@H](C(=O)OCCOCCOCCOCCOC(=O)c3ccc(-c4c5nc(c(-c6c(F)c(F)c(F)c(F)c6F)c6ccc([nH]6)c(-c6c(F)c(F)c(F)c(F)c6F)c6nc(c(-c7c(F)c(F)c(F)c(F)c7F)c7ccc4[nH]7)C=C6)C=C5)cc3)O2)cn1
REMARK SMILES IDX 23 1 22 2 21 3 20 4 19 5 18 6 16 7 17 8 15 9 12 10 13 11
REMARK SMILES IDX 96 12 14 13 11 14 10 15 7 16 8 17 9 19 6 21 5 22 1 23 2 24
REMARK SMILES IDX 3 25 98 26 4 27 97 28 24 29 25 30 26 31 27 32 28 33 29 34
REMARK SMILES IDX 30 35 31 36 32 37 33 38 34 39 95 40 35 41 94 42 36 43 37 44
REMARK SMILES IDX 38 45 88 46 39 47 93 48 87 49 89 50 40 51 92 52 86 53 85 54
REMARK SMILES IDX 41 56 73 57 53 58 72 59 54 60 57 61 71 62 90 63 55 64 56 65
REMARK SMILES IDX 70 67 91 68 58 69 42 70 43 71 51 72 44 73 45 74 49 75 52 76
REMARK SMILES IDX 46 77 47 78 50 79 48 80 74 81 75 82 83 83 76 84 77 85 81 86
REMARK SMILES IDX 84 87 78 88 79 89 82 90 80 91 59 92 60 93 68 94 61 95 62 96
REMARK SMILES IDX 66 97 69 98 63 99 64 100 67 101 65 102
REMARK H PARENT 7 18 10 20 89 55 57 66
REMARK Flexibility Score: inf
ROOT
ATOM      1  C   UNL A   1      34.085  23.924  25.227  1.00  0.00     0.188 C 
ENDROOT
BRANCH   1   2
ATOM      2  C   UNL A   1      32.759  24.350  24.546  1.00  0.00     0.188 C 
BRANCH   2   3
ATOM      3  O   UNL A   1      31.666  24.522  25.432  1.00  0.00    -0.376 OA
BRANCH   3   4
ATOM      4  C   UNL A   1      31.340  25.818  25.894  1.00  0.00     0.202 C 
BRANCH   4   5
ATOM      5  C   UNL A   1      30.643  26.768  24.913  1.00  0.00     0.261 C 
BRANCH   5   6
ATOM      6  O   UNL A   1      31.083  28.124  24.998  1.00  0.00    -0.461 OA
BRANCH   6   7
ATOM      7  C   UNL A   1      32.087  28.513  24.167  1.00  0.00     0.335 C 
ATOM      8  O   UNL A   1      32.059  28.426  22.947  1.00  0.00    -0.249 OA
BRANCH   7   9
ATOM      9  C   UNL A   1      33.166  29.239  24.977  1.00  0.00     0.228 C 
ATOM     10  C   UNL A   1      33.189  30.052  27.173  1.00  0.00     0.138 C 
ATOM     11  C   UNL A   1      34.421  29.190  26.962  1.00  0.00     0.037 C 
ATOM     12  O   UNL A   1      32.640  30.239  25.860  1.00  0.00    -0.361 OA
ATOM     13  C   UNL A   1      34.017  28.308  25.809  1.00  0.00     0.047 C 
BRANCH  10  14
ATOM     14  C   UNL A   1      33.445  31.427  27.813  1.00  0.00     0.149 C 
BRANCH  14  15
ATOM     15  N   UNL A   1      34.817  31.869  27.624  1.00  0.00    -0.336 N 
ATOM     16  N   UNL A   1      34.921  34.141  28.264  1.00  0.00    -0.334 N 
ATOM     17  C   UNL A   1      35.474  33.019  27.796  1.00  0.00     0.315 C 
ATOM     18  H   UNL A   1      35.574  34.872  28.358  1.00  0.00     0.165 HD
ATOM     19  O   UNL A   1      36.671  33.048  27.510  1.00  0.00    -0.249 OA
ATOM     20  H   UNL A   1      35.400  31.151  27.289  1.00  0.00     0.165 HD
BRANCH  16  21
ATOM     21  C   UNL A   1      33.592  34.534  28.663  1.00  0.00     0.155 C 
BRANCH  21  22
ATOM     22  C   UNL A   1      33.531  35.208  30.000  1.00  0.00    -0.010 A 
ATOM     23  C   UNL A   1      33.353  37.211  33.754  1.00  0.00     0.066 C 
ATOM     24  C   UNL A   1      33.462  36.499  32.441  1.00  0.00     0.037 A 
ATOM     25  C   UNL A   1      34.112  35.274  32.345  1.00  0.00     0.024 A 
ATOM     26  N   UNL A   1      32.889  37.100  31.374  1.00  0.00    -0.261 NA
ATOM     27  C   UNL A   1      34.152  34.630  31.112  1.00  0.00     0.009 A 
ATOM     28  C   UNL A   1      32.936  36.450  30.187  1.00  0.00     0.116 A 
ENDBRANCH  21  22
ENDBRANCH  16  21
ENDBRANCH  14  15
ENDBRANCH  10  14
ENDBRANCH   7   9
ENDBRANCH   6   7
ENDBRANCH   5   6
ENDBRANCH   4   5
ENDBRANCH   3   4
ENDBRANCH   2   3
ENDBRANCH   1   2
BRANCH   1  29
ATOM     29  O   UNL A   1      34.085  23.044  26.343  1.00  0.00    -0.377 OA
BRANCH  29  30
ATOM     30  C   UNL A   1      34.915  21.890  26.337  1.00  0.00     0.188 C 
BRANCH  30  31
ATOM     31  C   UNL A   1      35.932  21.671  25.194  1.00  0.00     0.188 C 
BRANCH  31  32
ATOM     32  O   UNL A   1      37.220  21.275  25.629  1.00  0.00    -0.376 OA
BRANCH  32  33
ATOM     33  C   UNL A   1      37.848  20.208  24.942  1.00  0.00     0.202 C 
BRANCH  33  34
ATOM     34  C   UNL A   1      39.183  19.690  25.498  1.00  0.00     0.261 C 
BRANCH  34  35
ATOM     35  O   UNL A   1      39.616  20.247  26.749  1.00  0.00    -0.460 OA
BRANCH  35  36
ATOM     36  C   UNL A   1      40.941  20.425  26.926  1.00  0.00     0.338 C 
ATOM     37  O   UNL A   1      41.834  19.629  26.678  1.00  0.00    -0.246 OA
BRANCH  36  38
ATOM     38  C   UNL A   1      41.157  21.839  27.292  1.00  0.00     0.060 A 
ATOM     39  C   UNL A   1      40.478  22.842  26.588  1.00  0.00     0.016 A 
ATOM     40  C   UNL A   1      42.016  22.170  28.342  1.00  0.00     0.016 A 
ATOM     41  C   UNL A   1      40.679  24.183  26.914  1.00  0.00     0.010 A 
ATOM     42  C   UNL A   1      42.238  23.514  28.650  1.00  0.00     0.010 A 
ATOM     43  C   UNL A   1      41.595  24.528  27.916  1.00  0.00    -0.014 A 
BRANCH  43  44
ATOM     44  C   UNL A   1      42.031  25.938  28.056  1.00  0.00     0.031 A 
ATOM     45  C   UNL A   1      43.339  26.342  27.436  1.00  0.00     0.074 A 
ATOM     46  C   UNL A   1      41.273  26.847  28.693  1.00  0.00     0.049 A 
ATOM     47  N   UNL A   1      43.948  27.501  27.449  1.00  0.00    -0.248 NA
ATOM     48  C   UNL A   1      44.063  25.291  26.698  1.00  0.00     0.031 C 
ATOM     49  C   UNL A   1      39.968  26.588  29.296  1.00  0.00     0.029 A 
ATOM     50  N   UNL A   1      41.503  28.178  28.942  1.00  0.00    -0.354 N 
ATOM     51  C   UNL A   1      45.125  27.314  26.736  1.00  0.00     0.074 A 
ATOM     52  C   UNL A   1      45.162  25.928  26.327  1.00  0.00     0.031 C 
ATOM     53  C   UNL A   1      39.513  27.725  29.852  1.00  0.00     0.029 A 
ATOM     54  C   UNL A   1      40.511  28.780  29.676  1.00  0.00     0.049 A 
ATOM     55  H   UNL A   1      42.303  28.656  28.625  1.00  0.00     0.167 HD
ATOM     56  C   UNL A   1      46.087  28.221  26.444  1.00  0.00     0.037 A 
ATOM     57  C   UNL A   1      40.434  30.033  30.166  1.00  0.00     0.037 A 
ATOM     58  C   UNL A   1      46.045  29.601  26.852  1.00  0.00     0.049 A 
ATOM     59  C   UNL A   1      41.560  31.002  29.895  1.00  0.00     0.074 A 
ATOM     60  C   UNL A   1      46.955  30.608  26.581  1.00  0.00     0.029 A 
ATOM     61  N   UNL A   1      45.045  30.164  27.630  1.00  0.00    -0.354 N 
ATOM     62  N   UNL A   1      42.651  30.833  29.187  1.00  0.00    -0.248 NA
ATOM     63  C   UNL A   1      41.438  32.340  30.491  1.00  0.00     0.031 C 
ATOM     64  C   UNL A   1      46.541  31.762  27.254  1.00  0.00     0.029 A 
ATOM     65  C   UNL A   1      45.334  31.497  27.881  1.00  0.00     0.049 A 
ATOM     66  H   UNL A   1      44.246  29.688  27.957  1.00  0.00     0.167 HD
ATOM     67  C   UNL A   1      43.324  32.049  29.222  1.00  0.00     0.074 A 
ATOM     68  C   UNL A   1      42.509  32.952  30.007  1.00  0.00     0.031 C 
ATOM     69  C   UNL A   1      44.508  32.388  28.655  1.00  0.00     0.037 A 
BRANCH  56  70
ATOM     70  C   UNL A   1      47.287  27.744  25.679  1.00  0.00     0.064 A 
ATOM     71  C   UNL A   1      47.328  27.756  24.276  1.00  0.00     0.173 A 
ATOM     72  C   UNL A   1      48.430  27.304  26.363  1.00  0.00     0.173 A 
ATOM     73  F   UNL A   1      46.257  28.154  23.572  1.00  0.00    -0.203 F 
ATOM     74  C   UNL A   1      48.458  27.321  23.589  1.00  0.00     0.198 A 
ATOM     75  C   UNL A   1      49.571  26.902  25.673  1.00  0.00     0.198 A 
ATOM     76  F   UNL A   1      48.446  27.272  27.705  1.00  0.00    -0.203 F 
ATOM     77  F   UNL A   1      48.457  27.296  22.248  1.00  0.00    -0.200 F 
ATOM     78  C   UNL A   1      49.581  26.904  24.287  1.00  0.00     0.200 A 
ATOM     79  F   UNL A   1      50.659  26.513  26.351  1.00  0.00    -0.200 F 
ATOM     80  F   UNL A   1      50.673  26.499  23.624  1.00  0.00    -0.200 F 
ENDBRANCH  56  70
BRANCH  57  81
ATOM     81  C   UNL A   1      39.258  30.454  30.975  1.00  0.00     0.064 A 
ATOM     82  C   UNL A   1      39.298  30.433  32.376  1.00  0.00     0.173 A 
ATOM     83  C   UNL A   1      38.054  30.842  30.367  1.00  0.00     0.173 A 
ATOM     84  F   UNL A   1      40.416  30.042  33.007  1.00  0.00    -0.203 F 
ATOM     85  C   UNL A   1      38.176  30.755  33.136  1.00  0.00     0.198 A 
ATOM     86  C   UNL A   1      36.942  31.197  31.127  1.00  0.00     0.198 A 
ATOM     87  F   UNL A   1      37.957  30.874  29.029  1.00  0.00    -0.203 F 
ATOM     88  F   UNL A   1      38.226  30.666  34.473  1.00  0.00    -0.200 F 
ATOM     89  C   UNL A   1      37.000  31.142  32.511  1.00  0.00     0.200 A 
ATOM     90  F   UNL A   1      35.812  31.582  30.519  1.00  0.00    -0.200 F 
ATOM     91  F   UNL A   1      35.919  31.450  33.243  1.00  0.00    -0.200 F 
ENDBRANCH  57  81
BRANCH  69  92
ATOM     92  C   UNL A   1      44.973  33.810  28.816  1.00  0.00     0.064 A 
ATOM     93  C   UNL A   1      45.830  34.198  29.857  1.00  0.00     0.173 A 
ATOM     94  C   UNL A   1      44.582  34.791  27.891  1.00  0.00     0.173 A 
ATOM     95  F   UNL A   1      46.225  33.304  30.776  1.00  0.00    -0.203 F 
ATOM     96  C   UNL A   1      46.247  35.521  29.986  1.00  0.00     0.198 A 
ATOM     97  C   UNL A   1      45.032  36.104  28.000  1.00  0.00     0.198 A 
ATOM     98  F   UNL A   1      43.773  34.473  26.868  1.00  0.00    -0.203 F 
ATOM     99  F   UNL A   1      47.015  35.880  31.024  1.00  0.00    -0.200 F 
ATOM    100  C   UNL A   1      45.855  36.469  29.054  1.00  0.00     0.200 A 
ATOM    101  F   UNL A   1      44.669  37.014  27.087  1.00  0.00    -0.200 F 
ATOM    102  F   UNL A   1      46.264  37.740  29.177  1.00  0.00    -0.200 F 
ENDBRANCH  69  92
ENDBRANCH  43  44
ENDBRANCH  36  38
ENDBRANCH  35  36
ENDBRANCH  34  35
ENDBRANCH  33  34
ENDBRANCH  32  33
ENDBRANCH  31  32
ENDBRANCH  30  31
ENDBRANCH  29  30
ENDBRANCH   1  29
TORSDOF 24
ENDMDL
MODEL 2
REMARK VINA RESULT:      -9.7      0.988      7.055
REMARK SMILES Cc1ccc(CNC(=O)NC[C@@H]2CC[C@@H](C(=O)OCCOCCOCCOCCOC(=O)c3ccc(-c4c5nc(c(-c6c(F)c(F)c(F)c(F)c6F)c6ccc([nH]6)c(-c6c(F)c(F)c(F)c(F)c6F)c6nc(c(-c7c(F)c(F)c(F)c(F)c7F)c7ccc4[nH]7)C=C6)C=C5)cc3)O2)cn1
REMARK SMILES IDX 23 1 22 2 21 3 20 4 19 5 18 6 16 7 17 8 15 9 12 10 13 11
REMARK SMILES IDX 96 12 14 13 11 14 10 15 7 16 8 17 9 19 6 21 5 22 1 23 2 24
REMARK SMILES IDX 3 25 98 26 4 27 97 28 24 29 25 30 26 31 27 32 28 33 29 34
REMARK SMILES IDX 30 35 31 36 32 37 33 38 34 39 95 40 35 41 94 42 36 43 37 44
REMARK SMILES IDX 38 45 88 46 39 47 93 48 87 49 89 50 40 51 92 52 86 53 85 54
REMARK SMILES IDX 41 56 73 57 53 58 72 59 54 60 57 61 71 62 90 63 55 64 56 65
REMARK SMILES IDX 70 67 91 68 58 69 42 70 43 71 51 72 44 73 45 74 49 75 52 76
REMARK SMILES IDX 46 77 47 78 50 79 48 80 74 81 75 82 83 83 76 84 77 85 81 86
REMARK SMILES IDX 84 87 78 88 79 89 82 90 80 91 59 92 60 93 68 94 61 95 62 96
REMARK SMILES IDX 66 97 69 98 63 99 64 100 67 101 65 102
REMARK H PARENT 7 18 10 20 89 55 57 66
REMARK Flexibility Score: inf
ROOT
ATOM      1  C   UNL A   1      33.186  24.913  24.933  1.00  0.00     0.188 C 
ENDROOT
BRANCH   1   2
ATOM      2  C   UNL A   1      31.858  25.040  24.144  1.00  0.00     0.188 C 
BRANCH   2   3
ATOM      3  O   UNL A   1      30.699  24.669  24.870  1.00  0.00    -0.376 OA
BRANCH   3   4
ATOM      4  C   UNL A   1      29.600  25.558  24.934  1.00  0.00     0.202 C 
BRANCH   4   5
ATOM      5  C   UNL A   1      29.395  26.519  23.756  1.00  0.00     0.261 C 
BRANCH   5   6
ATOM      6  O   UNL A   1      29.731  27.877  24.042  1.00  0.00    -0.461 OA
BRANCH   6   7
ATOM      7  C   UNL A   1      30.313  28.604  23.050  1.00  0.00     0.335 C 
ATOM      8  O   UNL A   1      29.840  28.769  21.934  1.00  0.00    -0.249 OA
BRANCH   7   9
ATOM      9  C   UNL A   1      31.547  29.325  23.603  1.00  0.00     0.228 C 
ATOM     10  C   UNL A   1      32.477  29.404  25.751  1.00  0.00     0.138 C 
ATOM     11  C   UNL A   1      33.569  29.034  24.763  1.00  0.00     0.037 C 
ATOM     12  O   UNL A   1      31.368  29.817  24.938  1.00  0.00    -0.361 OA
ATOM     13  C   UNL A   1      32.791  28.467  23.604  1.00  0.00     0.047 C 
BRANCH  10  14
ATOM     14  C   UNL A   1      32.828  30.535  26.734  1.00  0.00     0.149 C 
BRANCH  14  15
ATOM     15  N   UNL A   1      34.235  30.519  27.103  1.00  0.00    -0.336 N 
ATOM     16  N   UNL A   1      34.742  32.626  28.041  1.00  0.00    -0.334 N 
ATOM     17  C   UNL A   1      35.080  31.395  27.649  1.00  0.00     0.315 C 
ATOM     18  H   UNL A   1      35.493  33.109  28.456  1.00  0.00     0.165 HD
ATOM     19  O   UNL A   1      36.250  31.045  27.810  1.00  0.00    -0.249 OA
ATOM     20  H   UNL A   1      34.666  29.658  26.900  1.00  0.00     0.165 HD
BRANCH  16  21
ATOM     21  C   UNL A   1      33.536  33.417  27.996  1.00  0.00     0.155 C 
BRANCH  21  22
ATOM     22  C   UNL A   1      33.447  34.455  29.072  1.00  0.00    -0.010 A 
ATOM     23  C   UNL A   1      33.204  37.478  32.061  1.00  0.00     0.066 C 
ATOM     24  C   UNL A   1      33.334  36.405  31.024  1.00  0.00     0.037 A 
ATOM     25  C   UNL A   1      33.834  35.151  31.354  1.00  0.00     0.024 A 
ATOM     26  N   UNL A   1      32.930  36.718  29.772  1.00  0.00    -0.261 NA
ATOM     27  C   UNL A   1      33.897  34.173  30.365  1.00  0.00     0.009 A 
ATOM     28  C   UNL A   1      32.996  35.748  28.831  1.00  0.00     0.116 A 
ENDBRANCH  21  22
ENDBRANCH  16  21
ENDBRANCH  14  15
ENDBRANCH  10  14
ENDBRANCH   7   9
ENDBRANCH   6   7
ENDBRANCH   5   6
ENDBRANCH   4   5
ENDBRANCH   3   4
ENDBRANCH   2   3
ENDBRANCH   1   2
BRANCH   1  29
ATOM     29  O   UNL A   1      33.394  23.846  25.848  1.00  0.00    -0.377 OA
BRANCH  29  30
ATOM     30  C   UNL A   1      34.640  23.162  25.871  1.00  0.00     0.188 C 
BRANCH  30  31
ATOM     31  C   UNL A   1      34.869  21.935  24.959  1.00  0.00     0.188 C 
BRANCH  31  32
ATOM     32  O   UNL A   1      36.231  21.662  24.681  1.00  0.00    -0.376 OA
BRANCH  32  33
ATOM     33  C   UNL A   1      36.657  20.314  24.739  1.00  0.00     0.202 C 
BRANCH  33  34
ATOM     34  C   UNL A   1      38.049  20.031  25.325  1.00  0.00     0.261 C 
BRANCH  34  35
ATOM     35  O   UNL A   1      38.612  21.053  26.162  1.00  0.00    -0.460 OA
BRANCH  35  36
ATOM     36  C   UNL A   1      39.891  20.898  26.558  1.00  0.00     0.338 C 
ATOM     37  O   UNL A   1      40.577  19.891  26.470  1.00  0.00    -0.246 OA
BRANCH  36  38
ATOM     38  C   UNL A   1      40.403  22.228  26.947  1.00  0.00     0.060 A 
ATOM     39  C   UNL A   1      39.945  23.365  26.268  1.00  0.00     0.016 A 
ATOM     40  C   UNL A   1      41.320  22.350  27.993  1.00  0.00     0.016 A 
ATOM     41  C   UNL A   1      40.426  24.627  26.615  1.00  0.00     0.010 A 
ATOM     42  C   UNL A   1      41.822  23.612  28.323  1.00  0.00     0.010 A 
ATOM     43  C   UNL A   1      41.401  24.752  27.613  1.00  0.00    -0.014 A 
BRANCH  43  44
ATOM     44  C   UNL A   1      42.125  26.036  27.773  1.00  0.00     0.031 A 
ATOM     45  C   UNL A   1      41.473  27.122  28.584  1.00  0.00     0.074 A 
ATOM     46  C   UNL A   1      43.343  26.227  27.238  1.00  0.00     0.049 A 
ATOM     47  N   UNL A   1      41.888  28.337  28.840  1.00  0.00    -0.248 NA
ATOM     48  C   UNL A   1      40.171  26.791  29.188  1.00  0.00     0.031 C 
ATOM     49  C   UNL A   1      44.096  25.239  26.472  1.00  0.00     0.029 A 
ATOM     50  N   UNL A   1      44.158  27.333  27.257  1.00  0.00    -0.354 N 
ATOM     51  C   UNL A   1      40.896  28.915  29.622  1.00  0.00     0.074 A 
ATOM     52  C   UNL A   1      39.847  27.932  29.776  1.00  0.00     0.031 C 
ATOM     53  C   UNL A   1      45.263  25.784  26.086  1.00  0.00     0.029 A 
ATOM     54  C   UNL A   1      45.322  27.170  26.548  1.00  0.00     0.049 A 
ATOM     55  H   UNL A   1      43.929  28.164  27.733  1.00  0.00     0.167 HD
ATOM     56  C   UNL A   1      40.866  30.154  30.167  1.00  0.00     0.037 A 
ATOM     57  C   UNL A   1      46.309  28.051  26.287  1.00  0.00     0.037 A 
ATOM     58  C   UNL A   1      41.914  31.128  30.011  1.00  0.00     0.049 A 
ATOM     59  C   UNL A   1      46.211  29.453  26.838  1.00  0.00     0.074 A 
ATOM     60  C   UNL A   1      41.994  32.401  30.549  1.00  0.00     0.029 A 
ATOM     61  N   UNL A   1      43.059  30.942  29.252  1.00  0.00    -0.354 N 
ATOM     62  N   UNL A   1      45.291  29.982  27.610  1.00  0.00    -0.248 NA
ATOM     63  C   UNL A   1      47.296  30.379  26.484  1.00  0.00     0.031 C 
ATOM     64  C   UNL A   1      43.153  33.010  30.057  1.00  0.00     0.029 A 
ATOM     65  C   UNL A   1      43.835  32.091  29.275  1.00  0.00     0.049 A 
ATOM     66  H   UNL A   1      43.288  30.116  28.766  1.00  0.00     0.167 HD
ATOM     67  C   UNL A   1      45.704  31.286  27.862  1.00  0.00     0.074 A 
ATOM     68  C   UNL A   1      46.966  31.461  27.175  1.00  0.00     0.031 C 
ATOM     69  C   UNL A   1      45.095  32.249  28.596  1.00  0.00     0.037 A 
BRANCH  56  70
ATOM     70  C   UNL A   1      39.646  30.543  30.949  1.00  0.00     0.064 A 
ATOM     71  C   UNL A   1      38.634  31.347  30.400  1.00  0.00     0.173 A 
ATOM     72  C   UNL A   1      39.467  30.069  32.258  1.00  0.00     0.173 A 
ATOM     73  F   UNL A   1      38.762  31.839  29.158  1.00  0.00    -0.203 F 
ATOM     74  C   UNL A   1      37.505  31.682  31.142  1.00  0.00     0.198 A 
ATOM     75  C   UNL A   1      38.320  30.378  32.984  1.00  0.00     0.198 A 
ATOM     76  F   UNL A   1      40.402  29.296  32.831  1.00  0.00    -0.203 F 
ATOM     77  F   UNL A   1      36.575  32.491  30.614  1.00  0.00    -0.200 F 
ATOM     78  C   UNL A   1      37.343  31.190  32.428  1.00  0.00     0.200 A 
ATOM     79  F   UNL A   1      38.161  29.889  34.221  1.00  0.00    -0.200 F 
ATOM     80  F   UNL A   1      36.249  31.503  33.135  1.00  0.00    -0.200 F 
ENDBRANCH  56  70
BRANCH  57  81
ATOM     81  C   UNL A   1      47.475  27.650  25.454  1.00  0.00     0.064 A 
ATOM     82  C   UNL A   1      48.660  27.188  26.043  1.00  0.00     0.173 A 
ATOM     83  C   UNL A   1      47.447  27.762  24.055  1.00  0.00     0.173 A 
ATOM     84  F   UNL A   1      48.749  27.089  27.378  1.00  0.00    -0.203 F 
ATOM     85  C   UNL A   1      49.779  26.882  25.271  1.00  0.00     0.198 A 
ATOM     86  C   UNL A   1      48.554  27.423  23.282  1.00  0.00     0.198 A 
ATOM     87  F   UNL A   1      46.340  28.205  23.439  1.00  0.00    -0.203 F 
ATOM     88  F   UNL A   1      50.918  26.502  25.867  1.00  0.00    -0.200 F 
ATOM     89  C   UNL A   1      49.724  26.994  23.890  1.00  0.00     0.200 A 
ATOM     90  F   UNL A   1      48.492  27.522  21.946  1.00  0.00    -0.200 F 
ATOM     91  F   UNL A   1      50.801  26.702  23.148  1.00  0.00    -0.200 F 
ENDBRANCH  57  81
BRANCH  69  92
ATOM     92  C   UNL A   1      45.808  33.566  28.741  1.00  0.00     0.064 A 
ATOM     93  C   UNL A   1      45.705  34.577  27.773  1.00  0.00     0.173 A 
ATOM     94  C   UNL A   1      46.576  33.832  29.885  1.00  0.00     0.173 A 
ATOM     95  F   UNL A   1      44.993  34.372  26.654  1.00  0.00    -0.203 F 
ATOM     96  C   UNL A   1      46.375  35.788  27.929  1.00  0.00     0.198 A 
ATOM     97  C   UNL A   1      47.212  35.059  30.056  1.00  0.00     0.198 A 
ATOM     98  F   UNL A   1      46.699  32.906  30.849  1.00  0.00    -0.203 F 
ATOM     99  F   UNL A   1      46.311  36.715  26.962  1.00  0.00    -0.200 F 
ATOM    100  C   UNL A   1      47.120  36.031  29.072  1.00  0.00     0.200 A 
ATOM    101  F   UNL A   1      47.915  35.299  31.171  1.00  0.00    -0.200 F 
ATOM    102  F   UNL A   1      47.757  37.201  29.223  1.00  0.00    -0.200 F 
ENDBRANCH  69  92
ENDBRANCH  43  44
ENDBRANCH  36  38
ENDBRANCH  35  36
ENDBRANCH  34  35
ENDBRANCH  33  34
ENDBRANCH  32  33
ENDBRANCH  31  32
ENDBRANCH  30  31
ENDBRANCH  29  30
ENDBRANCH   1  29
TORSDOF 24
ENDMDL
MODEL 3
REMARK VINA RESULT:      -9.4      3.429      5.675
REMARK SMILES Cc1ccc(CNC(=O)NC[C@@H]2CC[C@@H](C(=O)OCCOCCOCCOCCOC(=O)c3ccc(-c4c5nc(c(-c6c(F)c(F)c(F)c(F)c6F)c6ccc([nH]6)c(-c6c(F)c(F)c(F)c(F)c6F)c6nc(c(-c7c(F)c(F)c(F)c(F)c7F)c7ccc4[nH]7)C=C6)C=C5)cc3)O2)cn1
REMARK SMILES IDX 23 1 22 2 21 3 20 4 19 5 18 6 16 7 17 8 15 9 12 10 13 11
REMARK SMILES IDX 96 12 14 13 11 14 10 15 7 16 8 17 9 19 6 21 5 22 1 23 2 24
REMARK SMILES IDX 3 25 98 26 4 27 97 28 24 29 25 30 26 31 27 32 28 33 29 34
REMARK SMILES IDX 30 35 31 36 32 37 33 38 34 39 95 40 35 41 94 42 36 43 37 44
REMARK SMILES IDX 38 45 88 46 39 47 93 48 87 49 89 50 40 51 92 52 86 53 85 54
REMARK SMILES IDX 41 56 73 57 53 58 72 59 54 60 57 61 71 62 90 63 55 64 56 65
REMARK SMILES IDX 70 67 91 68 58 69 42 70 43 71 51 72 44 73 45 74 49 75 52 76
REMARK SMILES IDX 46 77 47 78 50 79 48 80 74 81 75 82 83 83 76 84 77 85 81 86
REMARK SMILES IDX 84 87 78 88 79 89 82 90 80 91 59 92 60 93 68 94 61 95 62 96
REMARK SMILES IDX 66 97 69 98 63 99 64 100 67 101 65 102
REMARK H PARENT 7 18 10 20 89 55 57 66
REMARK Flexibility Score: inf
ROOT
ATOM      1  C   UNL A   1      41.581  22.941  27.264  1.00  0.00     0.188 C 
ENDROOT
BRANCH   1   2
ATOM      2  C   UNL A   1      40.078  23.250  27.484  1.00  0.00     0.188 C 
BRANCH   2   3
ATOM      3  O   UNL A   1      39.461  23.971  26.433  1.00  0.00    -0.376 OA
BRANCH   3   4
ATOM      4  C   UNL A   1      38.050  23.984  26.329  1.00  0.00     0.202 C 
BRANCH   4   5
ATOM      5  C   UNL A   1      37.396  22.951  25.404  1.00  0.00     0.261 C 
BRANCH   5   6
ATOM      6  O   UNL A   1      36.211  22.356  25.934  1.00  0.00    -0.461 OA
BRANCH   6   7
ATOM      7  C   UNL A   1      35.214  22.053  25.060  1.00  0.00     0.335 C 
ATOM      8  O   UNL A   1      34.919  20.922  24.698  1.00  0.00    -0.249 OA
BRANCH   7   9
ATOM      9  C   UNL A   1      34.409  23.318  24.747  1.00  0.00     0.228 C 
ATOM     10  C   UNL A   1      32.122  23.663  24.377  1.00  0.00     0.138 C 
ATOM     11  C   UNL A   1      32.596  24.648  25.432  1.00  0.00     0.037 C 
ATOM     12  O   UNL A   1      33.324  23.093  23.837  1.00  0.00    -0.361 OA
ATOM     13  C   UNL A   1      33.833  23.981  25.977  1.00  0.00     0.047 C 
BRANCH  10  14
ATOM     14  C   UNL A   1      31.293  24.269  23.231  1.00  0.00     0.149 C 
BRANCH  14  15
ATOM     15  N   UNL A   1      32.112  24.582  22.072  1.00  0.00    -0.336 N 
ATOM     16  N   UNL A   1      31.892  26.897  21.657  1.00  0.00    -0.334 N 
ATOM     17  C   UNL A   1      32.379  25.687  21.372  1.00  0.00     0.315 C 
ATOM     18  H   UNL A   1      32.234  27.593  21.051  1.00  0.00     0.165 HD
ATOM     19  O   UNL A   1      33.130  25.587  20.400  1.00  0.00    -0.249 OA
ATOM     20  H   UNL A   1      32.581  23.792  21.719  1.00  0.00     0.165 HD
BRANCH  16  21
ATOM     21  C   UNL A   1      30.982  27.424  22.644  1.00  0.00     0.155 C 
BRANCH  21  22
ATOM     22  C   UNL A   1      31.651  28.188  23.745  1.00  0.00    -0.010 A 
ATOM     23  C   UNL A   1      33.494  30.439  26.855  1.00  0.00     0.066 C 
ATOM     24  C   UNL A   1      32.885  29.653  25.734  1.00  0.00     0.037 A 
ATOM     25  C   UNL A   1      33.603  28.653  25.091  1.00  0.00     0.024 A 
ATOM     26  N   UNL A   1      31.611  29.960  25.399  1.00  0.00    -0.261 NA
ATOM     27  C   UNL A   1      32.981  27.922  24.083  1.00  0.00     0.009 A 
ATOM     28  C   UNL A   1      31.027  29.230  24.421  1.00  0.00     0.116 A 
ENDBRANCH  21  22
ENDBRANCH  16  21
ENDBRANCH  14  15
ENDBRANCH  10  14
ENDBRANCH   7   9
ENDBRANCH   6   7
ENDBRANCH   5   6
ENDBRANCH   4   5
ENDBRANCH   3   4
ENDBRANCH   2   3
ENDBRANCH   1   2
BRANCH   1  29
ATOM     29  O   UNL A   1      42.035  21.606  27.082  1.00  0.00    -0.377 OA
BRANCH  29  30
ATOM     30  C   UNL A   1      41.114  20.527  27.159  1.00  0.00     0.188 C 
BRANCH  30  31
ATOM     31  C   UNL A   1      41.250  19.319  26.204  1.00  0.00     0.188 C 
BRANCH  31  32
ATOM     32  O   UNL A   1      42.242  19.476  25.205  1.00  0.00    -0.376 OA
BRANCH  32  33
ATOM     33  C   UNL A   1      43.481  18.820  25.398  1.00  0.00     0.202 C 
BRANCH  33  34
ATOM     34  C   UNL A   1      44.752  19.545  24.928  1.00  0.00     0.261 C 
BRANCH  34  35
ATOM     35  O   UNL A   1      45.263  20.569  25.795  1.00  0.00    -0.460 OA
BRANCH  35  36
ATOM     36  C   UNL A   1      45.988  21.556  25.231  1.00  0.00     0.338 C 
ATOM     37  O   UNL A   1      46.757  21.464  24.286  1.00  0.00    -0.246 OA
BRANCH  36  38
ATOM     38  C   UNL A   1      45.545  22.832  25.828  1.00  0.00     0.060 A 
ATOM     39  C   UNL A   1      45.244  23.914  24.990  1.00  0.00     0.016 A 
ATOM     40  C   UNL A   1      45.411  22.952  27.213  1.00  0.00     0.016 A 
ATOM     41  C   UNL A   1      44.834  25.129  25.538  1.00  0.00     0.010 A 
ATOM     42  C   UNL A   1      45.028  24.178  27.763  1.00  0.00     0.010 A 
ATOM     43  C   UNL A   1      44.769  25.281  26.929  1.00  0.00    -0.014 A 
BRANCH  43  44
ATOM     44  C   UNL A   1      44.630  26.637  27.512  1.00  0.00     0.031 A 
ATOM     45  C   UNL A   1      45.883  27.423  27.786  1.00  0.00     0.074 A 
ATOM     46  C   UNL A   1      43.424  27.172  27.767  1.00  0.00     0.049 A 
ATOM     47  N   UNL A   1      46.024  28.611  28.319  1.00  0.00    -0.248 NA
ATOM     48  C   UNL A   1      47.152  26.780  27.407  1.00  0.00     0.031 C 
ATOM     49  C   UNL A   1      42.140  26.528  27.504  1.00  0.00     0.029 A 
ATOM     50  N   UNL A   1      43.088  28.386  28.314  1.00  0.00    -0.354 N 
ATOM     51  C   UNL A   1      47.392  28.848  28.349  1.00  0.00     0.074 A 
ATOM     52  C   UNL A   1      48.041  27.675  27.809  1.00  0.00     0.031 C 
ATOM     53  C   UNL A   1      41.152  27.352  27.896  1.00  0.00     0.029 A 
ATOM     54  C   UNL A   1      41.736  28.564  28.470  1.00  0.00     0.049 A 
ATOM     55  H   UNL A   1      43.754  29.066  28.570  1.00  0.00     0.167 HD
ATOM     56  C   UNL A   1      48.047  29.950  28.785  1.00  0.00     0.037 A 
ATOM     57  C   UNL A   1      41.054  29.582  29.033  1.00  0.00     0.037 A 
ATOM     58  C   UNL A   1      47.396  31.117  29.320  1.00  0.00     0.049 A 
ATOM     59  C   UNL A   1      41.815  30.763  29.586  1.00  0.00     0.074 A 
ATOM     60  C   UNL A   1      47.969  32.298  29.760  1.00  0.00     0.029 A 
ATOM     61  N   UNL A   1      46.027  31.244  29.501  1.00  0.00    -0.354 N 
ATOM     62  N   UNL A   1      43.105  31.001  29.576  1.00  0.00    -0.248 NA
ATOM     63  C   UNL A   1      41.020  31.821  30.225  1.00  0.00     0.031 C 
ATOM     64  C   UNL A   1      46.952  33.110  30.273  1.00  0.00     0.029 A 
ATOM     65  C   UNL A   1      45.738  32.469  30.082  1.00  0.00     0.049 A 
ATOM     66  H   UNL A   1      45.358  30.564  29.255  1.00  0.00     0.167 HD
ATOM     67  C   UNL A   1      43.272  32.246  30.171  1.00  0.00     0.074 A 
ATOM     68  C   UNL A   1      41.948  32.722  30.515  1.00  0.00     0.031 C 
ATOM     69  C   UNL A   1      44.415  32.935  30.409  1.00  0.00     0.037 A 
BRANCH  56  70
ATOM     70  C   UNL A   1      49.548  29.934  28.737  1.00  0.00     0.064 A 
ATOM     71  C   UNL A   1      50.265  30.539  27.693  1.00  0.00     0.173 A 
ATOM     72  C   UNL A   1      50.279  29.336  29.774  1.00  0.00     0.173 A 
ATOM     73  F   UNL A   1      49.615  31.112  26.669  1.00  0.00    -0.203 F 
ATOM     74  C   UNL A   1      51.657  30.522  27.679  1.00  0.00     0.198 A 
ATOM     75  C   UNL A   1      51.671  29.352  29.773  1.00  0.00     0.198 A 
ATOM     76  F   UNL A   1      49.643  28.744  30.797  1.00  0.00    -0.203 F 
ATOM     77  F   UNL A   1      52.322  31.064  26.647  1.00  0.00    -0.200 F 
ATOM     78  C   UNL A   1      52.359  29.938  28.722  1.00  0.00     0.200 A 
ATOM     79  F   UNL A   1      52.346  28.799  30.791  1.00  0.00    -0.200 F 
ATOM     80  F   UNL A   1      53.699  29.935  28.713  1.00  0.00    -0.200 F 
ENDBRANCH  56  70
BRANCH  57  81
ATOM     81  C   UNL A   1      39.570  29.536  29.120  1.00  0.00     0.064 A 
ATOM     82  C   UNL A   1      38.923  29.319  30.345  1.00  0.00     0.173 A 
ATOM     83  C   UNL A   1      38.766  29.662  27.977  1.00  0.00     0.173 A 
ATOM     84  F   UNL A   1      39.646  29.164  31.465  1.00  0.00    -0.203 F 
ATOM     85  C   UNL A   1      37.537  29.202  30.420  1.00  0.00     0.198 A 
ATOM     86  C   UNL A   1      37.378  29.579  28.057  1.00  0.00     0.198 A 
ATOM     87  F   UNL A   1      39.333  29.864  26.777  1.00  0.00    -0.203 F 
ATOM     88  F   UNL A   1      36.951  28.933  31.595  1.00  0.00    -0.200 F 
ATOM     89  C   UNL A   1      36.764  29.338  29.276  1.00  0.00     0.200 A 
ATOM     90  F   UNL A   1      36.635  29.723  26.950  1.00  0.00    -0.200 F 
ATOM     91  F   UNL A   1      35.431  29.222  29.347  1.00  0.00    -0.200 F 
ENDBRANCH  57  81
BRANCH  69  92
ATOM     92  C   UNL A   1      44.287  34.300  31.027  1.00  0.00     0.064 A 
ATOM     93  C   UNL A   1      44.039  35.445  30.255  1.00  0.00     0.173 A 
ATOM     94  C   UNL A   1      44.379  34.459  32.419  1.00  0.00     0.173 A 
ATOM     95  F   UNL A   1      43.954  35.353  28.919  1.00  0.00    -0.203 F 
ATOM     96  C   UNL A   1      43.925  36.700  30.849  1.00  0.00     0.198 A 
ATOM     97  C   UNL A   1      44.225  35.709  33.013  1.00  0.00     0.198 A 
ATOM     98  F   UNL A   1      44.603  33.396  33.208  1.00  0.00    -0.203 F 
ATOM     99  F   UNL A   1      43.750  37.787  30.084  1.00  0.00    -0.200 F 
ATOM    100  C   UNL A   1      44.010  36.829  32.227  1.00  0.00     0.200 A 
ATOM    101  F   UNL A   1      44.287  35.828  34.347  1.00  0.00    -0.200 F 
ATOM    102  F   UNL A   1      43.892  38.037  32.797  1.00  0.00    -0.200 F 
ENDBRANCH  69  92
ENDBRANCH  43  44
ENDBRANCH  36  38
ENDBRANCH  35  36
ENDBRANCH  34  35
ENDBRANCH  33  34
ENDBRANCH  32  33
ENDBRANCH  31  32
ENDBRANCH  30  31
ENDBRANCH  29  30
ENDBRANCH   1  29
TORSDOF 24
ENDMDL
