MODEL 1
REMARK VINA RESULT:     -11.0      0.000      0.000
REMARK SMILES O=C(OCCOCCOCCOCCOC(=O)c1ccc2c(c1)[C@@H](C1CCOCC1)C(=O)N2)c1ccc(-c2c3nc(c(-c4c(F)c(F)c(F)c(F)c4F)c4ccc([nH]4)c(-c4c(F)c(F)c(F)c(F)c4F)c4nc(c(-c5c(F)c(F)c(F)c(F)c5F)c5ccc2[nH]5)C=C4)C=C3)cc1
REMARK SMILES IDX 8 1 7 2 6 3 5 4 4 5 3 6 2 7 1 8 34 9 35 10 96 11 36 12 95 13
REMARK SMILES IDX 37 14 38 15 39 16 89 17 40 18 94 19 88 20 90 21 41 22 93 23
REMARK SMILES IDX 87 24 86 25 42 27 74 28 54 29 73 30 55 31 58 32 72 33 91 34
REMARK SMILES IDX 56 35 57 36 71 38 92 39 59 40 43 41 44 42 52 43 45 44 46 45
REMARK SMILES IDX 50 46 53 47 47 48 48 49 51 50 49 51 75 52 76 53 84 54 77 55
REMARK SMILES IDX 78 56 82 57 85 58 79 59 80 60 83 61 81 62 60 63 61 64 69 65
REMARK SMILES IDX 62 66 63 67 67 68 70 69 64 70 65 71 68 72 66 73 9 74 10 75
REMARK SMILES IDX 11 76 12 77 13 78 14 79 15 80 16 81 17 82 18 83 19 84 23 85
REMARK SMILES IDX 20 86 22 87 21 88 24 89 33 90 31 91 32 93 25 94 26 95 30 96
REMARK SMILES IDX 27 97 29 98 28 99
REMARK H PARENT 90 26 58 37 33 92
REMARK Flexibility Score: inf
ROOT
ATOM      1  C   UNL A   1      32.591  19.916  24.188  1.00  0.00     0.188 C 
ENDROOT
BRANCH   1   2
ATOM      2  C   UNL A   1      33.855  19.158  24.588  1.00  0.00     0.188 C 
BRANCH   2   3
ATOM      3  O   UNL A   1      34.953  20.052  24.805  1.00  0.00    -0.376 OA
BRANCH   3   4
ATOM      4  C   UNL A   1      36.233  19.432  24.941  1.00  0.00     0.202 C 
BRANCH   4   5
ATOM      5  C   UNL A   1      37.424  20.340  24.629  1.00  0.00     0.261 C 
BRANCH   5   6
ATOM      6  O   UNL A   1      37.841  21.112  25.763  1.00  0.00    -0.460 OA
BRANCH   6   7
ATOM      7  C   UNL A   1      39.107  21.404  26.155  1.00  0.00     0.338 C 
ATOM      8  O   UNL A   1      39.943  20.501  26.124  1.00  0.00    -0.246 OA
BRANCH   7   9
ATOM      9  C   UNL A   1      39.562  22.754  26.623  1.00  0.00     0.060 A 
ATOM     10  C   UNL A   1      39.017  23.979  26.237  1.00  0.00     0.016 A 
ATOM     11  C   UNL A   1      40.609  22.778  27.563  1.00  0.00     0.016 A 
ATOM     12  C   UNL A   1      39.531  25.184  26.682  1.00  0.00     0.010 A 
ATOM     13  C   UNL A   1      41.132  23.987  28.032  1.00  0.00     0.010 A 
ATOM     14  C   UNL A   1      40.617  25.192  27.547  1.00  0.00    -0.014 A 
BRANCH  14  15
ATOM     15  C   UNL A   1      41.326  26.473  27.687  1.00  0.00     0.031 A 
ATOM     16  C   UNL A   1      40.668  27.525  28.528  1.00  0.00     0.074 A 
ATOM     17  C   UNL A   1      42.597  26.584  27.269  1.00  0.00     0.049 A 
ATOM     18  N   UNL A   1      41.075  28.728  28.828  1.00  0.00    -0.248 NA
ATOM     19  C   UNL A   1      39.379  27.158  29.143  1.00  0.00     0.031 C 
ATOM     20  C   UNL A   1      43.363  25.523  26.611  1.00  0.00     0.029 A 
ATOM     21  N   UNL A   1      43.484  27.618  27.383  1.00  0.00    -0.354 N 
ATOM     22  C   UNL A   1      40.075  29.271  29.625  1.00  0.00     0.074 A 
ATOM     23  C   UNL A   1      39.045  28.272  29.772  1.00  0.00     0.031 C 
ATOM     24  C   UNL A   1      44.618  25.955  26.402  1.00  0.00     0.029 A 
ATOM     25  C   UNL A   1      44.716  27.341  26.844  1.00  0.00     0.049 A 
ATOM     26  H   UNL A   1      43.262  28.476  27.809  1.00  0.00     0.167 HD
ATOM     27  C   UNL A   1      40.028  30.507  30.171  1.00  0.00     0.037 A 
ATOM     28  C   UNL A   1      45.784  28.147  26.702  1.00  0.00     0.037 A 
ATOM     29  C   UNL A   1      41.082  31.468  30.005  1.00  0.00     0.049 A 
ATOM     30  C   UNL A   1      45.658  29.560  27.212  1.00  0.00     0.074 A 
ATOM     31  C   UNL A   1      41.139  32.779  30.432  1.00  0.00     0.029 A 
ATOM     32  N   UNL A   1      42.279  31.201  29.350  1.00  0.00    -0.354 N 
ATOM     33  N   UNL A   1      44.673  30.115  27.880  1.00  0.00    -0.248 NA
ATOM     34  C   UNL A   1      46.778  30.463  26.932  1.00  0.00     0.031 C 
ATOM     35  C   UNL A   1      42.350  33.322  29.987  1.00  0.00     0.029 A 
ATOM     36  C   UNL A   1      43.074  32.331  29.338  1.00  0.00     0.049 A 
ATOM     37  H   UNL A   1      42.524  30.334  28.952  1.00  0.00     0.167 HD
ATOM     38  C   UNL A   1      45.061  31.424  28.122  1.00  0.00     0.074 A 
ATOM     39  C   UNL A   1      46.382  31.572  27.541  1.00  0.00     0.031 C 
ATOM     40  C   UNL A   1      44.392  32.419  28.757  1.00  0.00     0.037 A 
BRANCH  27  41
ATOM     41  C   UNL A   1      38.762  30.888  30.881  1.00  0.00     0.064 A 
ATOM     42  C   UNL A   1      37.668  31.463  30.216  1.00  0.00     0.173 A 
ATOM     43  C   UNL A   1      38.674  30.739  32.274  1.00  0.00     0.173 A 
ATOM     44  F   UNL A   1      37.712  31.661  28.889  1.00  0.00    -0.203 F 
ATOM     45  C   UNL A   1      36.554  31.912  30.923  1.00  0.00     0.198 A 
ATOM     46  C   UNL A   1      37.548  31.162  32.974  1.00  0.00     0.198 A 
ATOM     47  F   UNL A   1      39.696  30.208  32.963  1.00  0.00    -0.203 F 
ATOM     48  F   UNL A   1      35.555  32.529  30.276  1.00  0.00    -0.200 F 
ATOM     49  C   UNL A   1      36.494  31.760  32.300  1.00  0.00     0.200 A 
ATOM     50  F   UNL A   1      37.493  31.013  34.305  1.00  0.00    -0.200 F 
ATOM     51  F   UNL A   1      35.430  32.208  32.981  1.00  0.00    -0.200 F 
ENDBRANCH  27  41
BRANCH  28  52
ATOM     52  C   UNL A   1      47.013  27.666  26.016  1.00  0.00     0.064 A 
ATOM     53  C   UNL A   1      48.102  27.158  26.737  1.00  0.00     0.173 A 
ATOM     54  C   UNL A   1      47.135  27.723  24.618  1.00  0.00     0.173 A 
ATOM     55  F   UNL A   1      48.050  27.101  28.076  1.00  0.00    -0.203 F 
ATOM     56  C   UNL A   1      49.267  26.744  26.091  1.00  0.00     0.198 A 
ATOM     57  C   UNL A   1      48.287  27.278  23.971  1.00  0.00     0.198 A 
ATOM     58  F   UNL A   1      46.129  28.206  23.873  1.00  0.00    -0.203 F 
ATOM     59  F   UNL A   1      50.311  26.308  26.811  1.00  0.00    -0.200 F 
ATOM     60  C   UNL A   1      49.356  26.799  24.708  1.00  0.00     0.200 A 
ATOM     61  F   UNL A   1      48.360  27.321  22.633  1.00  0.00    -0.200 F 
ATOM     62  F   UNL A   1      50.475  26.398  24.089  1.00  0.00    -0.200 F 
ENDBRANCH  28  52
BRANCH  40  63
ATOM     63  C   UNL A   1      45.107  33.729  28.893  1.00  0.00     0.064 A 
ATOM     64  C   UNL A   1      44.994  34.735  27.924  1.00  0.00     0.173 A 
ATOM     65  C   UNL A   1      45.877  33.992  30.036  1.00  0.00     0.173 A 
ATOM     66  F   UNL A   1      44.280  34.521  26.808  1.00  0.00    -0.203 F 
ATOM     67  C   UNL A   1      45.653  35.950  28.080  1.00  0.00     0.198 A 
ATOM     68  C   UNL A   1      46.506  35.220  30.204  1.00  0.00     0.198 A 
ATOM     69  F   UNL A   1      46.006  33.062  30.994  1.00  0.00    -0.203 F 
ATOM     70  F   UNL A   1      45.578  36.878  27.116  1.00  0.00    -0.200 F 
ATOM     71  C   UNL A   1      46.401  36.194  29.223  1.00  0.00     0.200 A 
ATOM     72  F   UNL A   1      47.212  35.461  31.317  1.00  0.00    -0.200 F 
ATOM     73  F   UNL A   1      47.027  37.368  29.375  1.00  0.00    -0.200 F 
ENDBRANCH  40  63
ENDBRANCH  14  15
ENDBRANCH   7   9
ENDBRANCH   6   7
ENDBRANCH   5   6
ENDBRANCH   4   5
ENDBRANCH   3   4
ENDBRANCH   2   3
ENDBRANCH   1   2
BRANCH   1  74
ATOM     74  O   UNL A   1      31.884  20.518  25.268  1.00  0.00    -0.377 OA
BRANCH  74  75
ATOM     75  C   UNL A   1      31.767  21.935  25.236  1.00  0.00     0.188 C 
BRANCH  75  76
ATOM     76  C   UNL A   1      31.519  22.680  26.567  1.00  0.00     0.188 C 
BRANCH  76  77
ATOM     77  O   UNL A   1      32.635  23.423  27.009  1.00  0.00    -0.376 OA
BRANCH  77  78
ATOM     78  C   UNL A   1      33.888  22.764  27.092  1.00  0.00     0.202 C 
BRANCH  78  79
ATOM     79  C   UNL A   1      35.137  23.236  26.315  1.00  0.00     0.261 C 
BRANCH  79  80
ATOM     80  O   UNL A   1      35.007  24.348  25.414  1.00  0.00    -0.460 OA
BRANCH  80  81
ATOM     81  C   UNL A   1      34.584  24.147  24.147  1.00  0.00     0.338 C 
ATOM     82  O   UNL A   1      34.683  23.124  23.492  1.00  0.00    -0.246 OA
BRANCH  81  83
ATOM     83  C   UNL A   1      33.776  25.342  23.771  1.00  0.00     0.060 A 
ATOM     84  C   UNL A   1      33.653  25.677  22.407  1.00  0.00     0.018 A 
ATOM     85  C   UNL A   1      33.279  26.206  24.780  1.00  0.00     0.022 A 
ATOM     86  C   UNL A   1      32.971  26.833  22.026  1.00  0.00     0.027 A 
ATOM     87  C   UNL A   1      32.691  27.403  24.390  1.00  0.00    -0.011 A 
ATOM     88  C   UNL A   1      32.485  27.647  23.030  1.00  0.00     0.045 A 
ATOM     89  C   UNL A   1      32.091  28.549  25.191  1.00  0.00     0.114 C 
ATOM     90  N   UNL A   1      31.656  28.742  22.869  1.00  0.00    -0.325 N 
ATOM     91  C   UNL A   1      31.252  29.252  24.094  1.00  0.00     0.232 C 
ATOM     92  H   UNL A   1      31.388  29.112  21.998  1.00  0.00     0.169 HD
ATOM     93  O   UNL A   1      30.400  30.109  24.248  1.00  0.00    -0.274 OA
BRANCH  89  94
ATOM     94  C   UNL A   1      33.099  29.560  25.842  1.00  0.00     0.010 C 
ATOM     95  C   UNL A   1      34.261  28.812  26.544  1.00  0.00     0.033 C 
ATOM     96  C   UNL A   1      32.458  30.550  26.841  1.00  0.00     0.033 C 
ATOM     97  C   UNL A   1      35.178  29.733  27.341  1.00  0.00     0.160 C 
ATOM     98  C   UNL A   1      33.500  31.368  27.601  1.00  0.00     0.160 C 
ATOM     99  O   UNL A   1      34.431  30.521  28.262  1.00  0.00    -0.381 OA
ENDBRANCH  89  94
ENDBRANCH  81  83
ENDBRANCH  80  81
ENDBRANCH  79  80
ENDBRANCH  78  79
ENDBRANCH  77  78
ENDBRANCH  76  77
ENDBRANCH  75  76
ENDBRANCH  74  75
ENDBRANCH   1  74
TORSDOF 21
ENDMDL
MODEL 2
REMARK VINA RESULT:     -10.5      1.808      7.629
REMARK SMILES O=C(OCCOCCOCCOCCOC(=O)c1ccc2c(c1)[C@@H](C1CCOCC1)C(=O)N2)c1ccc(-c2c3nc(c(-c4c(F)c(F)c(F)c(F)c4F)c4ccc([nH]4)c(-c4c(F)c(F)c(F)c(F)c4F)c4nc(c(-c5c(F)c(F)c(F)c(F)c5F)c5ccc2[nH]5)C=C4)C=C3)cc1
REMARK SMILES IDX 8 1 7 2 6 3 5 4 4 5 3 6 2 7 1 8 34 9 35 10 96 11 36 12 95 13
REMARK SMILES IDX 37 14 38 15 39 16 89 17 40 18 94 19 88 20 90 21 41 22 93 23
REMARK SMILES IDX 87 24 86 25 42 27 74 28 54 29 73 30 55 31 58 32 72 33 91 34
REMARK SMILES IDX 56 35 57 36 71 38 92 39 59 40 43 41 44 42 52 43 45 44 46 45
REMARK SMILES IDX 50 46 53 47 47 48 48 49 51 50 49 51 75 52 76 53 84 54 77 55
REMARK SMILES IDX 78 56 82 57 85 58 79 59 80 60 83 61 81 62 60 63 61 64 69 65
REMARK SMILES IDX 62 66 63 67 67 68 70 69 64 70 65 71 68 72 66 73 9 74 10 75
REMARK SMILES IDX 11 76 12 77 13 78 14 79 15 80 16 81 17 82 18 83 19 84 23 85
REMARK SMILES IDX 20 86 22 87 21 88 24 89 33 90 31 91 32 93 25 94 26 95 30 96
REMARK SMILES IDX 27 97 29 98 28 99
REMARK H PARENT 90 26 58 37 33 92
REMARK Flexibility Score: inf
ROOT
ATOM      1  C   UNL A   1      35.742  21.375  25.396  1.00  0.00     0.188 C 
ENDROOT
BRANCH   1   2
ATOM      2  C   UNL A   1      37.103  21.904  24.948  1.00  0.00     0.188 C 
BRANCH   2   3
ATOM      3  O   UNL A   1      37.984  22.091  26.061  1.00  0.00    -0.376 OA
BRANCH   3   4
ATOM      4  C   UNL A   1      39.259  21.458  25.949  1.00  0.00     0.202 C 
BRANCH   4   5
ATOM      5  C   UNL A   1      39.226  20.043  25.367  1.00  0.00     0.261 C 
BRANCH   5   6
ATOM      6  O   UNL A   1      40.192  19.174  25.972  1.00  0.00    -0.460 OA
BRANCH   6   7
ATOM      7  C   UNL A   1      41.538  19.336  26.036  1.00  0.00     0.338 C 
ATOM      8  O   UNL A   1      42.249  18.372  25.756  1.00  0.00    -0.246 OA
BRANCH   7   9
ATOM      9  C   UNL A   1      42.223  20.613  26.423  1.00  0.00     0.060 A 
ATOM     10  C   UNL A   1      42.386  21.090  27.725  1.00  0.00     0.016 A 
ATOM     11  C   UNL A   1      42.781  21.374  25.380  1.00  0.00     0.016 A 
ATOM     12  C   UNL A   1      42.991  22.305  27.990  1.00  0.00     0.010 A 
ATOM     13  C   UNL A   1      43.406  22.599  25.632  1.00  0.00     0.010 A 
ATOM     14  C   UNL A   1      43.464  23.083  26.942  1.00  0.00    -0.014 A 
BRANCH  14  15
ATOM     15  C   UNL A   1      43.756  24.490  27.256  1.00  0.00     0.031 A 
ATOM     16  C   UNL A   1      45.113  25.002  26.879  1.00  0.00     0.074 A 
ATOM     17  C   UNL A   1      42.765  25.309  27.645  1.00  0.00     0.049 A 
ATOM     18  N   UNL A   1      45.626  26.193  27.027  1.00  0.00    -0.248 NA
ATOM     19  C   UNL A   1      46.013  24.041  26.215  1.00  0.00     0.031 C 
ATOM     20  C   UNL A   1      41.371  24.908  27.845  1.00  0.00     0.029 A 
ATOM     21  N   UNL A   1      42.767  26.654  27.888  1.00  0.00    -0.354 N 
ATOM     22  C   UNL A   1      46.914  26.109  26.516  1.00  0.00     0.074 A 
ATOM     23  C   UNL A   1      47.110  24.758  26.047  1.00  0.00     0.031 C 
ATOM     24  C   UNL A   1      40.645  25.994  28.157  1.00  0.00     0.029 A 
ATOM     25  C   UNL A   1      41.536  27.144  28.249  1.00  0.00     0.049 A 
ATOM     26  H   UNL A   1      43.571  27.215  27.813  1.00  0.00     0.167 HD
ATOM     27  C   UNL A   1      47.851  27.083  26.461  1.00  0.00     0.037 A 
ATOM     28  C   UNL A   1      41.196  28.385  28.641  1.00  0.00     0.037 A 
ATOM     29  C   UNL A   1      47.609  28.418  26.932  1.00  0.00     0.049 A 
ATOM     30  C   UNL A   1      42.289  29.422  28.687  1.00  0.00     0.074 A 
ATOM     31  C   UNL A   1      48.483  29.484  27.012  1.00  0.00     0.029 A 
ATOM     32  N   UNL A   1      46.380  28.863  27.406  1.00  0.00    -0.354 N 
ATOM     33  N   UNL A   1      43.541  29.323  28.300  1.00  0.00    -0.248 NA
ATOM     34  C   UNL A   1      41.933  30.731  29.242  1.00  0.00     0.031 C 
ATOM     35  C   UNL A   1      47.794  30.559  27.586  1.00  0.00     0.029 A 
ATOM     36  C   UNL A   1      46.475  30.182  27.805  1.00  0.00     0.049 A 
ATOM     37  H   UNL A   1      45.561  28.316  27.451  1.00  0.00     0.167 HD
ATOM     38  C   UNL A   1      44.117  30.562  28.541  1.00  0.00     0.074 A 
ATOM     39  C   UNL A   1      43.068  31.399  29.093  1.00  0.00     0.031 C 
ATOM     40  C   UNL A   1      45.393  30.975  28.335  1.00  0.00     0.037 A 
BRANCH  27  41
ATOM     41  C   UNL A   1      49.216  26.686  25.980  1.00  0.00     0.064 A 
ATOM     42  C   UNL A   1      50.181  26.124  26.830  1.00  0.00     0.173 A 
ATOM     43  C   UNL A   1      49.588  26.945  24.651  1.00  0.00     0.173 A 
ATOM     44  F   UNL A   1      49.891  25.889  28.119  1.00  0.00    -0.203 F 
ATOM     45  C   UNL A   1      51.476  25.876  26.379  1.00  0.00     0.198 A 
ATOM     46  C   UNL A   1      50.874  26.669  24.196  1.00  0.00     0.198 A 
ATOM     47  F   UNL A   1      48.709  27.495  23.799  1.00  0.00    -0.203 F 
ATOM     48  F   UNL A   1      52.403  25.412  27.230  1.00  0.00    -0.200 F 
ATOM     49  C   UNL A   1      51.821  26.147  25.064  1.00  0.00     0.200 A 
ATOM     50  F   UNL A   1      51.203  26.932  22.925  1.00  0.00    -0.200 F 
ATOM     51  F   UNL A   1      53.072  25.924  24.636  1.00  0.00    -0.200 F 
ENDBRANCH  27  41
BRANCH  28  52
ATOM     52  C   UNL A   1      39.804  28.693  29.065  1.00  0.00     0.064 A 
ATOM     53  C   UNL A   1      38.879  29.262  28.179  1.00  0.00     0.173 A 
ATOM     54  C   UNL A   1      39.370  28.444  30.377  1.00  0.00     0.173 A 
ATOM     55  F   UNL A   1      39.244  29.543  26.919  1.00  0.00    -0.203 F 
ATOM     56  C   UNL A   1      37.585  29.584  28.591  1.00  0.00     0.198 A 
ATOM     57  C   UNL A   1      38.068  28.735  30.780  1.00  0.00     0.198 A 
ATOM     58  F   UNL A   1      40.212  27.907  31.273  1.00  0.00    -0.203 F 
ATOM     59  F   UNL A   1      36.738  30.172  27.735  1.00  0.00    -0.200 F 
ATOM     60  C   UNL A   1      37.180  29.314  29.889  1.00  0.00     0.200 A 
ATOM     61  F   UNL A   1      37.679  28.459  32.032  1.00  0.00    -0.200 F 
ATOM     62  F   UNL A   1      35.937  29.622  30.284  1.00  0.00    -0.200 F 
ENDBRANCH  28  52
BRANCH  40  63
ATOM     63  C   UNL A   1      45.698  32.405  28.664  1.00  0.00     0.064 A 
ATOM     64  C   UNL A   1      45.533  33.428  27.721  1.00  0.00     0.173 A 
ATOM     65  C   UNL A   1      46.119  32.754  29.956  1.00  0.00     0.173 A 
ATOM     66  F   UNL A   1      45.147  33.139  26.469  1.00  0.00    -0.203 F 
ATOM     67  C   UNL A   1      45.806  34.751  28.054  1.00  0.00     0.198 A 
ATOM     68  C   UNL A   1      46.357  34.080  30.294  1.00  0.00     0.198 A 
ATOM     69  F   UNL A   1      46.282  31.807  30.893  1.00  0.00    -0.203 F 
ATOM     70  F   UNL A   1      45.695  35.709  27.123  1.00  0.00    -0.200 F 
ATOM     71  C   UNL A   1      46.210  35.077  29.341  1.00  0.00     0.200 A 
ATOM     72  F   UNL A   1      46.729  34.394  31.542  1.00  0.00    -0.200 F 
ATOM     73  F   UNL A   1      46.463  36.352  29.661  1.00  0.00    -0.200 F 
ENDBRANCH  40  63
ENDBRANCH  14  15
ENDBRANCH   7   9
ENDBRANCH   6   7
ENDBRANCH   5   6
ENDBRANCH   4   5
ENDBRANCH   3   4
ENDBRANCH   2   3
ENDBRANCH   1   2
BRANCH   1  74
ATOM     74  O   UNL A   1      35.050  20.597  24.426  1.00  0.00    -0.377 OA
BRANCH  74  75
ATOM     75  C   UNL A   1      34.288  19.501  24.919  1.00  0.00     0.188 C 
BRANCH  75  76
ATOM     76  C   UNL A   1      32.817  19.367  24.461  1.00  0.00     0.188 C 
BRANCH  76  77
ATOM     77  O   UNL A   1      31.899  19.981  25.340  1.00  0.00    -0.376 OA
BRANCH  77  78
ATOM     78  C   UNL A   1      31.852  21.398  25.377  1.00  0.00     0.202 C 
BRANCH  78  79
ATOM     79  C   UNL A   1      32.217  22.216  26.634  1.00  0.00     0.261 C 
BRANCH  79  80
ATOM     80  O   UNL A   1      31.879  23.612  26.670  1.00  0.00    -0.460 OA
BRANCH  80  81
ATOM     81  C   UNL A   1      30.608  24.006  26.434  1.00  0.00     0.338 C 
ATOM     82  O   UNL A   1      29.627  23.778  27.120  1.00  0.00    -0.246 OA
BRANCH  81  83
ATOM     83  C   UNL A   1      30.662  24.960  25.289  1.00  0.00     0.060 A 
ATOM     84  C   UNL A   1      31.050  24.478  24.022  1.00  0.00     0.018 A 
ATOM     85  C   UNL A   1      30.479  26.347  25.515  1.00  0.00     0.022 A 
ATOM     86  C   UNL A   1      31.187  25.358  22.948  1.00  0.00     0.027 A 
ATOM     87  C   UNL A   1      30.717  27.222  24.462  1.00  0.00    -0.011 A 
ATOM     88  C   UNL A   1      30.988  26.702  23.195  1.00  0.00     0.045 A 
ATOM     89  C   UNL A   1      30.645  28.739  24.366  1.00  0.00     0.114 C 
ATOM     90  N   UNL A   1      30.922  27.709  22.249  1.00  0.00    -0.325 N 
ATOM     91  C   UNL A   1      30.579  28.922  22.828  1.00  0.00     0.232 C 
ATOM     92  H   UNL A   1      31.097  27.581  21.289  1.00  0.00     0.169 HD
ATOM     93  O   UNL A   1      30.297  29.935  22.213  1.00  0.00    -0.274 OA
BRANCH  89  94
ATOM     94  C   UNL A   1      31.853  29.543  24.961  1.00  0.00     0.010 C 
ATOM     95  C   UNL A   1      33.000  28.591  25.386  1.00  0.00     0.033 C 
ATOM     96  C   UNL A   1      31.489  30.460  26.152  1.00  0.00     0.033 C 
ATOM     97  C   UNL A   1      34.128  29.297  26.130  1.00  0.00     0.160 C 
ATOM     98  C   UNL A   1      32.722  31.056  26.827  1.00  0.00     0.160 C 
ATOM     99  O   UNL A   1      33.623  30.035  27.237  1.00  0.00    -0.381 OA
ENDBRANCH  89  94
ENDBRANCH  81  83
ENDBRANCH  80  81
ENDBRANCH  79  80
ENDBRANCH  78  79
ENDBRANCH  77  78
ENDBRANCH  76  77
ENDBRANCH  75  76
ENDBRANCH  74  75
ENDBRANCH   1  74
TORSDOF 21
ENDMDL
MODEL 3
REMARK VINA RESULT:     -10.3      1.030      7.418
REMARK SMILES O=C(OCCOCCOCCOCCOC(=O)c1ccc2c(c1)[C@@H](C1CCOCC1)C(=O)N2)c1ccc(-c2c3nc(c(-c4c(F)c(F)c(F)c(F)c4F)c4ccc([nH]4)c(-c4c(F)c(F)c(F)c(F)c4F)c4nc(c(-c5c(F)c(F)c(F)c(F)c5F)c5ccc2[nH]5)C=C4)C=C3)cc1
REMARK SMILES IDX 8 1 7 2 6 3 5 4 4 5 3 6 2 7 1 8 34 9 35 10 96 11 36 12 95 13
REMARK SMILES IDX 37 14 38 15 39 16 89 17 40 18 94 19 88 20 90 21 41 22 93 23
REMARK SMILES IDX 87 24 86 25 42 27 74 28 54 29 73 30 55 31 58 32 72 33 91 34
REMARK SMILES IDX 56 35 57 36 71 38 92 39 59 40 43 41 44 42 52 43 45 44 46 45
REMARK SMILES IDX 50 46 53 47 47 48 48 49 51 50 49 51 75 52 76 53 84 54 77 55
REMARK SMILES IDX 78 56 82 57 85 58 79 59 80 60 83 61 81 62 60 63 61 64 69 65
REMARK SMILES IDX 62 66 63 67 67 68 70 69 64 70 65 71 68 72 66 73 9 74 10 75
REMARK SMILES IDX 11 76 12 77 13 78 14 79 15 80 16 81 17 82 18 83 19 84 23 85
REMARK SMILES IDX 20 86 22 87 21 88 24 89 33 90 31 91 32 93 25 94 26 95 30 96
REMARK SMILES IDX 27 97 29 98 28 99
REMARK H PARENT 90 26 58 37 33 92
REMARK Flexibility Score: inf
ROOT
ATOM      1  C   UNL A   1      35.038  17.489  24.881  1.00  0.00     0.188 C 
ENDROOT
BRANCH   1   2
ATOM      2  C   UNL A   1      36.031  18.622  24.631  1.00  0.00     0.188 C 
BRANCH   2   3
ATOM      3  O   UNL A   1      35.478  19.891  24.997  1.00  0.00    -0.376 OA
BRANCH   3   4
ATOM      4  C   UNL A   1      36.266  21.029  24.644  1.00  0.00     0.202 C 
BRANCH   4   5
ATOM      5  C   UNL A   1      37.277  21.466  25.706  1.00  0.00     0.261 C 
BRANCH   5   6
ATOM      6  O   UNL A   1      38.544  20.809  25.566  1.00  0.00    -0.460 OA
BRANCH   6   7
ATOM      7  C   UNL A   1      39.723  21.132  26.155  1.00  0.00     0.338 C 
ATOM      8  O   UNL A   1      40.605  20.275  26.188  1.00  0.00    -0.246 OA
BRANCH   7   9
ATOM      9  C   UNL A   1      40.029  22.465  26.769  1.00  0.00     0.060 A 
ATOM     10  C   UNL A   1      39.417  23.676  26.440  1.00  0.00     0.016 A 
ATOM     11  C   UNL A   1      40.994  22.484  27.792  1.00  0.00     0.016 A 
ATOM     12  C   UNL A   1      39.795  24.871  27.024  1.00  0.00     0.010 A 
ATOM     13  C   UNL A   1      41.379  23.683  28.401  1.00  0.00     0.010 A 
ATOM     14  C   UNL A   1      40.807  24.884  27.975  1.00  0.00    -0.014 A 
BRANCH  14  15
ATOM     15  C   UNL A   1      41.396  26.197  28.279  1.00  0.00     0.031 A 
ATOM     16  C   UNL A   1      42.749  26.484  27.702  1.00  0.00     0.074 A 
ATOM     17  C   UNL A   1      40.644  27.153  28.848  1.00  0.00     0.049 A 
ATOM     18  N   UNL A   1      43.488  27.556  27.800  1.00  0.00    -0.248 NA
ATOM     19  C   UNL A   1      43.345  25.421  26.872  1.00  0.00     0.031 C 
ATOM     20  C   UNL A   1      39.248  26.992  29.260  1.00  0.00     0.029 A 
ATOM     21  N   UNL A   1      40.930  28.460  29.128  1.00  0.00    -0.354 N 
ATOM     22  C   UNL A   1      44.644  27.276  27.084  1.00  0.00     0.074 A 
ATOM     23  C   UNL A   1      44.515  25.942  26.550  1.00  0.00     0.031 C 
ATOM     24  C   UNL A   1      38.790  28.169  29.718  1.00  0.00     0.029 A 
ATOM     25  C   UNL A   1      39.880  29.137  29.698  1.00  0.00     0.049 A 
ATOM     26  H   UNL A   1      41.801  28.875  28.940  1.00  0.00     0.167 HD
ATOM     27  C   UNL A   1      45.724  28.072  26.907  1.00  0.00     0.037 A 
ATOM     28  C   UNL A   1      39.838  30.394  30.178  1.00  0.00     0.037 A 
ATOM     29  C   UNL A   1      45.806  29.398  27.451  1.00  0.00     0.049 A 
ATOM     30  C   UNL A   1      41.096  31.217  30.076  1.00  0.00     0.074 A 
ATOM     31  C   UNL A   1      46.861  30.287  27.420  1.00  0.00     0.029 A 
ATOM     32  N   UNL A   1      44.767  30.024  28.131  1.00  0.00    -0.354 N 
ATOM     33  N   UNL A   1      42.233  30.923  29.488  1.00  0.00    -0.248 NA
ATOM     34  C   UNL A   1      41.075  32.534  30.720  1.00  0.00     0.031 C 
ATOM     35  C   UNL A   1      46.478  31.431  28.130  1.00  0.00     0.029 A 
ATOM     36  C   UNL A   1      45.163  31.280  28.548  1.00  0.00     0.049 A 
ATOM     37  H   UNL A   1      43.879  29.628  28.293  1.00  0.00     0.167 HD
ATOM     38  C   UNL A   1      43.056  32.024  29.669  1.00  0.00     0.074 A 
ATOM     39  C   UNL A   1      42.277  33.000  30.409  1.00  0.00     0.031 C 
ATOM     40  C   UNL A   1      44.339  32.219  29.271  1.00  0.00     0.037 A 
BRANCH  27  41
ATOM     41  C   UNL A   1      46.902  27.470  26.198  1.00  0.00     0.064 A 
ATOM     42  C   UNL A   1      47.914  26.774  26.877  1.00  0.00     0.173 A 
ATOM     43  C   UNL A   1      47.055  27.662  24.816  1.00  0.00     0.173 A 
ATOM     44  F   UNL A   1      47.836  26.593  28.205  1.00  0.00    -0.203 F 
ATOM     45  C   UNL A   1      49.053  26.329  26.206  1.00  0.00     0.198 A 
ATOM     46  C   UNL A   1      48.180  27.191  24.144  1.00  0.00     0.198 A 
ATOM     47  F   UNL A   1      46.124  28.333  24.120  1.00  0.00    -0.203 F 
ATOM     48  F   UNL A   1      50.042  25.736  26.889  1.00  0.00    -0.200 F 
ATOM     49  C   UNL A   1      49.183  26.537  24.841  1.00  0.00     0.200 A 
ATOM     50  F   UNL A   1      48.303  27.394  22.826  1.00  0.00    -0.200 F 
ATOM     51  F   UNL A   1      50.286  26.125  24.201  1.00  0.00    -0.200 F 
ENDBRANCH  27  41
BRANCH  28  52
ATOM     52  C   UNL A   1      38.608  30.916  30.831  1.00  0.00     0.064 A 
ATOM     53  C   UNL A   1      38.439  30.862  32.221  1.00  0.00     0.173 A 
ATOM     54  C   UNL A   1      37.559  31.466  30.075  1.00  0.00     0.173 A 
ATOM     55  F   UNL A   1      39.398  30.326  32.992  1.00  0.00    -0.203 F 
ATOM     56  C   UNL A   1      37.267  31.318  32.826  1.00  0.00     0.198 A 
ATOM     57  C   UNL A   1      36.403  31.952  30.683  1.00  0.00     0.198 A 
ATOM     58  F   UNL A   1      37.659  31.539  28.739  1.00  0.00    -0.203 F 
ATOM     59  F   UNL A   1      37.114  31.208  34.153  1.00  0.00    -0.200 F 
ATOM     60  C   UNL A   1      36.253  31.869  32.056  1.00  0.00     0.200 A 
ATOM     61  F   UNL A   1      35.433  32.495  29.934  1.00  0.00    -0.200 F 
ATOM     62  F   UNL A   1      35.129  32.309  32.639  1.00  0.00    -0.200 F 
ENDBRANCH  28  52
BRANCH  40  63
ATOM     63  C   UNL A   1      44.947  33.551  29.588  1.00  0.00     0.064 A 
ATOM     64  C   UNL A   1      45.612  33.787  30.799  1.00  0.00     0.173 A 
ATOM     65  C   UNL A   1      44.899  34.587  28.643  1.00  0.00     0.173 A 
ATOM     66  F   UNL A   1      45.670  32.830  31.737  1.00  0.00    -0.203 F 
ATOM     67  C   UNL A   1      46.184  35.027  31.065  1.00  0.00     0.198 A 
ATOM     68  C   UNL A   1      45.501  35.812  28.899  1.00  0.00     0.198 A 
ATOM     69  F   UNL A   1      44.280  34.402  27.467  1.00  0.00    -0.203 F 
ATOM     70  F   UNL A   1      46.768  35.252  32.249  1.00  0.00    -0.200 F 
ATOM     71  C   UNL A   1      46.136  36.035  30.112  1.00  0.00     0.200 A 
ATOM     72  F   UNL A   1      45.470  36.778  27.971  1.00  0.00    -0.200 F 
ATOM     73  F   UNL A   1      46.696  37.224  30.366  1.00  0.00    -0.200 F 
ENDBRANCH  40  63
ENDBRANCH  14  15
ENDBRANCH   7   9
ENDBRANCH   6   7
ENDBRANCH   5   6
ENDBRANCH   4   5
ENDBRANCH   3   4
ENDBRANCH   2   3
ENDBRANCH   1   2
BRANCH   1  74
ATOM     74  O   UNL A   1      34.335  17.038  23.728  1.00  0.00    -0.377 OA
BRANCH  74  75
ATOM     75  C   UNL A   1      32.925  17.226  23.732  1.00  0.00     0.188 C 
BRANCH  75  76
ATOM     76  C   UNL A   1      32.315  18.217  22.715  1.00  0.00     0.188 C 
BRANCH  76  77
ATOM     77  O   UNL A   1      32.360  19.560  23.146  1.00  0.00    -0.376 OA
BRANCH  77  78
ATOM     78  C   UNL A   1      32.298  19.818  24.540  1.00  0.00     0.202 C 
BRANCH  78  79
ATOM     79  C   UNL A   1      32.076  21.232  25.121  1.00  0.00     0.261 C 
BRANCH  79  80
ATOM     80  O   UNL A   1      32.881  21.652  26.235  1.00  0.00    -0.460 OA
BRANCH  80  81
ATOM     81  C   UNL A   1      32.581  22.793  26.893  1.00  0.00     0.338 C 
ATOM     82  O   UNL A   1      32.233  22.903  28.056  1.00  0.00    -0.246 OA
BRANCH  81  83
ATOM     83  C   UNL A   1      32.966  23.918  25.994  1.00  0.00     0.060 A 
ATOM     84  C   UNL A   1      34.036  23.733  25.094  1.00  0.00     0.018 A 
ATOM     85  C   UNL A   1      32.367  25.193  26.159  1.00  0.00     0.022 A 
ATOM     86  C   UNL A   1      34.473  24.791  24.295  1.00  0.00     0.027 A 
ATOM     87  C   UNL A   1      32.879  26.260  25.431  1.00  0.00    -0.011 A 
ATOM     88  C   UNL A   1      33.860  26.016  24.468  1.00  0.00     0.045 A 
ATOM     89  C   UNL A   1      32.502  27.733  25.387  1.00  0.00     0.114 C 
ATOM     90  N   UNL A   1      34.034  27.138  23.679  1.00  0.00    -0.325 N 
ATOM     91  C   UNL A   1      33.168  28.155  24.052  1.00  0.00     0.232 C 
ATOM     92  H   UNL A   1      34.688  27.207  22.947  1.00  0.00     0.169 HD
ATOM     93  O   UNL A   1      32.995  29.190  23.432  1.00  0.00    -0.274 OA
BRANCH  89  94
ATOM     94  C   UNL A   1      33.018  28.631  26.565  1.00  0.00     0.010 C 
ATOM     95  C   UNL A   1      32.498  30.084  26.426  1.00  0.00     0.033 C 
ATOM     96  C   UNL A   1      34.556  28.657  26.725  1.00  0.00     0.033 C 
ATOM     97  C   UNL A   1      33.105  31.043  27.444  1.00  0.00     0.160 C 
ATOM     98  C   UNL A   1      35.019  29.698  27.741  1.00  0.00     0.160 C 
ATOM     99  O   UNL A   1      34.527  30.990  27.406  1.00  0.00    -0.381 OA
ENDBRANCH  89  94
ENDBRANCH  81  83
ENDBRANCH  80  81
ENDBRANCH  79  80
ENDBRANCH  78  79
ENDBRANCH  77  78
ENDBRANCH  76  77
ENDBRANCH  75  76
ENDBRANCH  74  75
ENDBRANCH   1  74
TORSDOF 21
ENDMDL
