MODEL 1
REMARK VINA RESULT:      -9.8      0.000      0.000
REMARK SMILES CCC1CN(c2cc(F)ccc2C(=O)OCCOCCOCCOCCOC(=O)c2ccc(-c3c4nc(c(-c5c(F)c(F)c(F)c(F)c5F)c5ccc([nH]5)c(-c5c(F)c(F)c(F)c(F)c5F)c5nc(c(-c6c(F)c(F)c(F)c(F)c6F)c6ccc3[nH]6)C=C5)C=C4)cc2)C1
REMARK SMILES IDX 21 1 20 2 19 3 18 4 17 5 16 6 15 7 13 8 14 9 12 10 6 11 7 12
REMARK SMILES IDX 8 13 11 14 9 15 10 16 5 17 3 18 4 19 93 20 2 21 1 22 22 23
REMARK SMILES IDX 23 24 24 25 25 26 26 27 27 28 28 29 29 30 30 31 31 32 92 33
REMARK SMILES IDX 32 34 91 35 33 36 34 37 35 38 85 39 36 40 90 41 84 42 86 43
REMARK SMILES IDX 37 44 89 45 83 46 82 47 38 49 70 50 50 51 69 52 51 53 54 54
REMARK SMILES IDX 68 55 87 56 52 57 53 58 67 60 88 61 55 62 39 63 40 64 48 65
REMARK SMILES IDX 41 66 42 67 46 68 49 69 43 70 44 71 47 72 45 73 71 74 72 75
REMARK SMILES IDX 80 76 73 77 74 78 78 79 81 80 75 81 76 82 79 83 77 84 56 85
REMARK SMILES IDX 57 86 65 87 58 88 59 89 63 90 66 91 60 92 61 93 64 94 62 95
REMARK H PARENT 86 48 54 59
REMARK Flexibility Score: inf
ROOT
ATOM      1  O   UNL A   1      35.232  22.908  24.240  1.00  0.00    -0.377 OA
ENDROOT
BRANCH   1   2
ATOM      2  C   UNL A   1      34.495  23.358  23.108  1.00  0.00     0.188 C 
BRANCH   2   3
ATOM      3  C   UNL A   1      33.127  24.071  23.262  1.00  0.00     0.188 C 
BRANCH   3   4
ATOM      4  O   UNL A   1      33.211  25.464  23.488  1.00  0.00    -0.376 OA
BRANCH   4   5
ATOM      5  C   UNL A   1      33.983  25.979  24.553  1.00  0.00     0.202 C 
BRANCH   5   6
ATOM      6  C   UNL A   1      33.437  25.994  25.985  1.00  0.00     0.261 C 
BRANCH   6   7
ATOM      7  O   UNL A   1      32.021  25.848  26.087  1.00  0.00    -0.460 OA
BRANCH   7   8
ATOM      8  C   UNL A   1      31.290  26.937  26.403  1.00  0.00     0.340 C 
ATOM      9  O   UNL A   1      31.033  27.335  27.527  1.00  0.00    -0.246 OA
BRANCH   8  10
ATOM     10  C   UNL A   1      31.044  27.718  25.167  1.00  0.00     0.083 A 
ATOM     11  C   UNL A   1      31.407  29.074  24.995  1.00  0.00     0.054 A 
ATOM     12  C   UNL A   1      30.999  29.698  23.799  1.00  0.00     0.066 A 
ATOM     13  C   UNL A   1      30.270  29.011  22.830  1.00  0.00     0.125 A 
ATOM     14  C   UNL A   1      30.290  27.040  24.184  1.00  0.00     0.021 A 
ATOM     15  F   UNL A   1      29.924  29.638  21.698  1.00  0.00    -0.207 F 
ATOM     16  C   UNL A   1      29.900  27.690  23.017  1.00  0.00     0.040 A 
BRANCH  11  17
ATOM     17  N   UNL A   1      32.157  29.830  25.908  1.00  0.00    -0.370 N 
ATOM     18  C   UNL A   1      33.235  30.747  27.392  1.00  0.00     0.028 C 
ATOM     19  C   UNL A   1      31.862  30.950  26.730  1.00  0.00     0.122 C 
ATOM     20  C   UNL A   1      33.562  29.860  26.174  1.00  0.00     0.122 C 
BRANCH  18  21
ATOM     21  C   UNL A   1      34.093  31.985  27.626  1.00  0.00     0.004 C 
ATOM     22  C   UNL A   1      34.626  32.003  29.052  1.00  0.00     0.004 C 
ENDBRANCH  18  21
ENDBRANCH  11  17
ENDBRANCH   8  10
ENDBRANCH   7   8
ENDBRANCH   6   7
ENDBRANCH   5   6
ENDBRANCH   4   5
ENDBRANCH   3   4
ENDBRANCH   2   3
ENDBRANCH   1   2
BRANCH   1  23
ATOM     23  C   UNL A   1      36.653  22.969  24.240  1.00  0.00     0.188 C 
BRANCH  23  24
ATOM     24  C   UNL A   1      37.441  23.028  25.569  1.00  0.00     0.188 C 
BRANCH  24  25
ATOM     25  O   UNL A   1      38.387  21.987  25.730  1.00  0.00    -0.376 OA
BRANCH  25  26
ATOM     26  C   UNL A   1      38.129  20.747  25.099  1.00  0.00     0.202 C 
BRANCH  26  27
ATOM     27  C   UNL A   1      39.085  19.576  25.376  1.00  0.00     0.261 C 
BRANCH  27  28
ATOM     28  O   UNL A   1      40.007  19.743  26.463  1.00  0.00    -0.460 OA
BRANCH  28  29
ATOM     29  C   UNL A   1      41.311  19.509  26.215  1.00  0.00     0.338 C 
ATOM     30  O   UNL A   1      41.809  18.499  25.744  1.00  0.00    -0.246 OA
BRANCH  29  31
ATOM     31  C   UNL A   1      42.036  20.772  26.452  1.00  0.00     0.060 A 
ATOM     32  C   UNL A   1      42.363  21.143  27.763  1.00  0.00     0.016 A 
ATOM     33  C   UNL A   1      42.401  21.582  25.375  1.00  0.00     0.016 A 
ATOM     34  C   UNL A   1      43.032  22.344  28.002  1.00  0.00     0.010 A 
ATOM     35  C   UNL A   1      43.051  22.793  25.615  1.00  0.00     0.010 A 
ATOM     36  C   UNL A   1      43.340  23.194  26.932  1.00  0.00    -0.014 A 
BRANCH  36  37
ATOM     37  C   UNL A   1      43.789  24.582  27.194  1.00  0.00     0.031 A 
ATOM     38  C   UNL A   1      42.780  25.571  27.706  1.00  0.00     0.074 A 
ATOM     39  C   UNL A   1      45.064  24.956  26.992  1.00  0.00     0.049 A 
ATOM     40  N   UNL A   1      42.912  26.851  27.934  1.00  0.00    -0.248 NA
ATOM     41  C   UNL A   1      41.438  25.041  28.001  1.00  0.00     0.031 C 
ATOM     42  C   UNL A   1      46.142  24.075  26.550  1.00  0.00     0.029 A 
ATOM     43  N   UNL A   1      45.664  26.183  27.127  1.00  0.00    -0.354 N 
ATOM     44  C   UNL A   1      41.672  27.280  28.389  1.00  0.00     0.074 A 
ATOM     45  C   UNL A   1      40.791  26.134  28.379  1.00  0.00     0.031 C 
ATOM     46  C   UNL A   1      47.272  24.793  26.441  1.00  0.00     0.029 A 
ATOM     47  C   UNL A   1      46.989  26.191  26.766  1.00  0.00     0.049 A 
ATOM     48  H   UNL A   1      45.190  26.982  27.454  1.00  0.00     0.167 HD
ATOM     49  C   UNL A   1      41.307  28.520  28.790  1.00  0.00     0.037 A 
ATOM     50  C   UNL A   1      47.861  27.216  26.682  1.00  0.00     0.037 A 
ATOM     51  C   UNL A   1      42.190  29.656  28.802  1.00  0.00     0.049 A 
ATOM     52  C   UNL A   1      47.407  28.607  27.050  1.00  0.00     0.074 A 
ATOM     53  C   UNL A   1      41.917  30.950  29.202  1.00  0.00     0.029 A 
ATOM     54  N   UNL A   1      43.513  29.633  28.387  1.00  0.00    -0.354 N 
ATOM     55  N   UNL A   1      46.237  29.006  27.489  1.00  0.00    -0.248 NA
ATOM     56  C   UNL A   1      48.392  29.691  26.910  1.00  0.00     0.031 C 
ATOM     57  C   UNL A   1      43.055  31.727  28.971  1.00  0.00     0.029 A 
ATOM     58  C   UNL A   1      44.060  30.900  28.494  1.00  0.00     0.049 A 
ATOM     59  H   UNL A   1      43.992  28.835  28.065  1.00  0.00     0.167 HD
ATOM     60  C   UNL A   1      46.354  30.374  27.706  1.00  0.00     0.074 A 
ATOM     61  C   UNL A   1      47.710  30.737  27.358  1.00  0.00     0.031 C 
ATOM     62  C   UNL A   1      45.419  31.247  28.156  1.00  0.00     0.037 A 
BRANCH  49  63
ATOM     63  C   UNL A   1      39.889  28.727  29.234  1.00  0.00     0.064 A 
ATOM     64  C   UNL A   1      38.913  29.144  28.315  1.00  0.00     0.173 A 
ATOM     65  C   UNL A   1      39.509  28.589  30.577  1.00  0.00     0.173 A 
ATOM     66  F   UNL A   1      39.225  29.291  27.018  1.00  0.00    -0.203 F 
ATOM     67  C   UNL A   1      37.617  29.435  28.728  1.00  0.00     0.198 A 
ATOM     68  C   UNL A   1      38.203  28.852  30.982  1.00  0.00     0.198 A 
ATOM     69  F   UNL A   1      40.400  28.179  31.493  1.00  0.00    -0.203 F 
ATOM     70  F   UNL A   1      36.714  29.871  27.838  1.00  0.00    -0.200 F 
ATOM     71  C   UNL A   1      37.262  29.286  30.060  1.00  0.00     0.200 A 
ATOM     72  F   UNL A   1      37.854  28.683  32.264  1.00  0.00    -0.200 F 
ATOM     73  F   UNL A   1      36.012  29.562  30.455  1.00  0.00    -0.200 F 
ENDBRANCH  49  63
BRANCH  50  74
ATOM     74  C   UNL A   1      49.253  26.958  26.228  1.00  0.00     0.064 A 
ATOM     75  C   UNL A   1      49.597  26.997  24.867  1.00  0.00     0.173 A 
ATOM     76  C   UNL A   1      50.266  26.647  27.145  1.00  0.00     0.173 A 
ATOM     77  F   UNL A   1      48.666  27.292  23.948  1.00  0.00    -0.203 F 
ATOM     78  C   UNL A   1      50.890  26.705  24.441  1.00  0.00     0.198 A 
ATOM     79  C   UNL A   1      51.568  26.387  26.720  1.00  0.00     0.198 A 
ATOM     80  F   UNL A   1      49.996  26.624  28.458  1.00  0.00    -0.203 F 
ATOM     81  F   UNL A   1      51.178  26.708  23.132  1.00  0.00    -0.200 F 
ATOM     82  C   UNL A   1      51.877  26.405  25.368  1.00  0.00     0.200 A 
ATOM     83  F   UNL A   1      52.524  26.122  27.620  1.00  0.00    -0.200 F 
ATOM     84  F   UNL A   1      53.124  26.135  24.958  1.00  0.00    -0.200 F 
ENDBRANCH  50  74
BRANCH  62  85
ATOM     85  C   UNL A   1      45.820  32.683  28.339  1.00  0.00     0.064 A 
ATOM     86  C   UNL A   1      46.299  33.130  29.583  1.00  0.00     0.173 A 
ATOM     87  C   UNL A   1      45.627  33.637  27.330  1.00  0.00     0.173 A 
ATOM     88  F   UNL A   1      46.490  32.261  30.586  1.00  0.00    -0.203 F 
ATOM     89  C   UNL A   1      46.543  34.482  29.814  1.00  0.00     0.198 A 
ATOM     90  C   UNL A   1      45.904  34.983  27.555  1.00  0.00     0.198 A 
ATOM     91  F   UNL A   1      45.181  33.261  26.123  1.00  0.00    -0.203 F 
ATOM     92  F   UNL A   1      46.950  34.890  31.024  1.00  0.00    -0.200 F 
ATOM     93  C   UNL A   1      46.348  35.407  28.800  1.00  0.00     0.200 A 
ATOM     94  F   UNL A   1      45.737  35.873  26.568  1.00  0.00    -0.200 F 
ATOM     95  F   UNL A   1      46.586  36.706  29.023  1.00  0.00    -0.200 F 
ENDBRANCH  62  85
ENDBRANCH  36  37
ENDBRANCH  29  31
ENDBRANCH  28  29
ENDBRANCH  27  28
ENDBRANCH  26  27
ENDBRANCH  25  26
ENDBRANCH  24  25
ENDBRANCH  23  24
ENDBRANCH   1  23
TORSDOF 22
ENDMDL
MODEL 2
REMARK VINA RESULT:      -9.6      4.282     11.003
REMARK SMILES CCC1CN(c2cc(F)ccc2C(=O)OCCOCCOCCOCCOC(=O)c2ccc(-c3c4nc(c(-c5c(F)c(F)c(F)c(F)c5F)c5ccc([nH]5)c(-c5c(F)c(F)c(F)c(F)c5F)c5nc(c(-c6c(F)c(F)c(F)c(F)c6F)c6ccc3[nH]6)C=C5)C=C4)cc2)C1
REMARK SMILES IDX 21 1 20 2 19 3 18 4 17 5 16 6 15 7 13 8 14 9 12 10 6 11 7 12
REMARK SMILES IDX 8 13 11 14 9 15 10 16 5 17 3 18 4 19 93 20 2 21 1 22 22 23
REMARK SMILES IDX 23 24 24 25 25 26 26 27 27 28 28 29 29 30 30 31 31 32 92 33
REMARK SMILES IDX 32 34 91 35 33 36 34 37 35 38 85 39 36 40 90 41 84 42 86 43
REMARK SMILES IDX 37 44 89 45 83 46 82 47 38 49 70 50 50 51 69 52 51 53 54 54
REMARK SMILES IDX 68 55 87 56 52 57 53 58 67 60 88 61 55 62 39 63 40 64 48 65
REMARK SMILES IDX 41 66 42 67 46 68 49 69 43 70 44 71 47 72 45 73 71 74 72 75
REMARK SMILES IDX 80 76 73 77 74 78 78 79 81 80 75 81 76 82 79 83 77 84 56 85
REMARK SMILES IDX 57 86 65 87 58 88 59 89 63 90 66 91 60 92 61 93 64 94 62 95
REMARK H PARENT 86 48 54 59
REMARK Flexibility Score: inf
ROOT
ATOM      1  O   UNL A   1      44.981  18.284  25.291  1.00  0.00    -0.377 OA
ENDROOT
BRANCH   1   2
ATOM      2  C   UNL A   1      46.117  19.129  25.449  1.00  0.00     0.188 C 
BRANCH   2   3
ATOM      3  C   UNL A   1      46.233  20.481  24.700  1.00  0.00     0.188 C 
BRANCH   3   4
ATOM      4  O   UNL A   1      45.491  21.538  25.273  1.00  0.00    -0.376 OA
BRANCH   4   5
ATOM      5  C   UNL A   1      44.926  22.548  24.463  1.00  0.00     0.202 C 
BRANCH   5   6
ATOM      6  C   UNL A   1      43.498  23.046  24.707  1.00  0.00     0.261 C 
BRANCH   6   7
ATOM      7  O   UNL A   1      43.390  24.442  24.986  1.00  0.00    -0.460 OA
BRANCH   7   8
ATOM      8  C   UNL A   1      44.385  25.029  25.684  1.00  0.00     0.340 C 
ATOM      9  O   UNL A   1      45.136  25.900  25.279  1.00  0.00    -0.246 OA
BRANCH   8  10
ATOM     10  C   UNL A   1      44.272  24.622  27.105  1.00  0.00     0.083 A 
ATOM     11  C   UNL A   1      45.335  24.672  28.035  1.00  0.00     0.054 A 
ATOM     12  C   UNL A   1      45.088  24.141  29.318  1.00  0.00     0.066 A 
ATOM     13  C   UNL A   1      43.853  23.589  29.652  1.00  0.00     0.125 A 
ATOM     14  C   UNL A   1      43.031  24.044  27.452  1.00  0.00     0.021 A 
ATOM     15  F   UNL A   1      43.655  23.118  30.890  1.00  0.00    -0.207 F 
ATOM     16  C   UNL A   1      42.825  23.524  28.727  1.00  0.00     0.040 A 
BRANCH  11  17
ATOM     17  N   UNL A   1      46.599  25.229  27.787  1.00  0.00    -0.370 N 
ATOM     18  C   UNL A   1      48.501  25.982  27.650  1.00  0.00     0.028 C 
ATOM     19  C   UNL A   1      47.076  26.561  27.664  1.00  0.00     0.122 C 
ATOM     20  C   UNL A   1      47.824  24.628  27.359  1.00  0.00     0.122 C 
BRANCH  18  21
ATOM     21  C   UNL A   1      49.474  26.532  26.615  1.00  0.00     0.004 C 
ATOM     22  C   UNL A   1      50.711  25.648  26.522  1.00  0.00     0.004 C 
ENDBRANCH  18  21
ENDBRANCH  11  17
ENDBRANCH   8  10
ENDBRANCH   7   8
ENDBRANCH   6   7
ENDBRANCH   5   6
ENDBRANCH   4   5
ENDBRANCH   3   4
ENDBRANCH   2   3
ENDBRANCH   1   2
BRANCH   1  23
ATOM     23  C   UNL A   1      43.705  18.845  25.009  1.00  0.00     0.188 C 
BRANCH  23  24
ATOM     24  C   UNL A   1      42.728  19.200  26.154  1.00  0.00     0.188 C 
BRANCH  24  25
ATOM     25  O   UNL A   1      41.891  20.308  25.880  1.00  0.00    -0.376 OA
BRANCH  25  26
ATOM     26  C   UNL A   1      40.996  20.734  26.890  1.00  0.00     0.202 C 
BRANCH  26  27
ATOM     27  C   UNL A   1      39.705  21.450  26.465  1.00  0.00     0.261 C 
BRANCH  27  28
ATOM     28  O   UNL A   1      39.854  22.756  25.889  1.00  0.00    -0.460 OA
BRANCH  28  29
ATOM     29  C   UNL A   1      38.873  23.653  26.116  1.00  0.00     0.338 C 
ATOM     30  O   UNL A   1      37.681  23.523  25.892  1.00  0.00    -0.246 OA
BRANCH  29  31
ATOM     31  C   UNL A   1      39.471  24.779  26.859  1.00  0.00     0.060 A 
ATOM     32  C   UNL A   1      39.296  24.859  28.247  1.00  0.00     0.016 A 
ATOM     33  C   UNL A   1      40.214  25.748  26.181  1.00  0.00     0.016 A 
ATOM     34  C   UNL A   1      39.841  25.929  28.958  1.00  0.00     0.010 A 
ATOM     35  C   UNL A   1      40.740  26.829  26.889  1.00  0.00     0.010 A 
ATOM     36  C   UNL A   1      40.529  26.941  28.274  1.00  0.00    -0.014 A 
BRANCH  36  37
ATOM     37  C   UNL A   1      40.862  28.208  28.967  1.00  0.00     0.031 A 
ATOM     38  C   UNL A   1      42.269  28.402  29.456  1.00  0.00     0.074 A 
ATOM     39  C   UNL A   1      39.940  29.169  29.151  1.00  0.00     0.049 A 
ATOM     40  N   UNL A   1      42.779  29.383  30.155  1.00  0.00    -0.248 NA
ATOM     41  C   UNL A   1      43.233  27.343  29.112  1.00  0.00     0.031 C 
ATOM     42  C   UNL A   1      38.560  29.117  28.675  1.00  0.00     0.029 A 
ATOM     43  N   UNL A   1      40.030  30.376  29.798  1.00  0.00    -0.354 N 
ATOM     44  C   UNL A   1      44.116  29.056  30.338  1.00  0.00     0.074 A 
ATOM     45  C   UNL A   1      44.336  27.775  29.706  1.00  0.00     0.031 C 
ATOM     46  C   UNL A   1      37.929  30.241  29.054  1.00  0.00     0.029 A 
ATOM     47  C   UNL A   1      38.846  31.071  29.834  1.00  0.00     0.049 A 
ATOM     48  H   UNL A   1      40.865  30.713  30.197  1.00  0.00     0.167 HD
ATOM     49  C   UNL A   1      45.077  29.770  30.970  1.00  0.00     0.037 A 
ATOM     50  C   UNL A   1      38.536  32.229  30.451  1.00  0.00     0.037 A 
ATOM     51  C   UNL A   1      44.853  31.047  31.593  1.00  0.00     0.049 A 
ATOM     52  C   UNL A   1      39.603  32.965  31.224  1.00  0.00     0.074 A 
ATOM     53  C   UNL A   1      45.766  31.854  32.246  1.00  0.00     0.029 A 
ATOM     54  N   UNL A   1      43.630  31.698  31.646  1.00  0.00    -0.354 N 
ATOM     55  N   UNL A   1      40.867  32.657  31.387  1.00  0.00    -0.248 NA
ATOM     56  C   UNL A   1      39.200  34.207  31.901  1.00  0.00     0.031 C 
ATOM     57  C   UNL A   1      45.082  32.963  32.751  1.00  0.00     0.029 A 
ATOM     58  C   UNL A   1      43.759  32.883  32.349  1.00  0.00     0.049 A 
ATOM     59  H   UNL A   1      42.795  31.366  31.243  1.00  0.00     0.167 HD
ATOM     60  C   UNL A   1      41.416  33.678  32.155  1.00  0.00     0.074 A 
ATOM     61  C   UNL A   1      40.349  34.619  32.421  1.00  0.00     0.031 C 
ATOM     62  C   UNL A   1      42.690  33.820  32.596  1.00  0.00     0.037 A 
BRANCH  49  63
ATOM     63  C   UNL A   1      46.457  29.186  31.038  1.00  0.00     0.064 A 
ATOM     64  C   UNL A   1      46.859  28.449  32.164  1.00  0.00     0.173 A 
ATOM     65  C   UNL A   1      47.407  29.415  30.033  1.00  0.00     0.173 A 
ATOM     66  F   UNL A   1      45.989  28.202  33.155  1.00  0.00    -0.203 F 
ATOM     67  C   UNL A   1      48.164  27.985  32.289  1.00  0.00     0.198 A 
ATOM     68  C   UNL A   1      48.704  28.922  30.146  1.00  0.00     0.198 A 
ATOM     69  F   UNL A   1      47.069  30.101  28.929  1.00  0.00    -0.203 F 
ATOM     70  F   UNL A   1      48.534  27.320  33.393  1.00  0.00    -0.200 F 
ATOM     71  C   UNL A   1      49.084  28.219  31.279  1.00  0.00     0.200 A 
ATOM     72  F   UNL A   1      49.585  29.126  29.158  1.00  0.00    -0.200 F 
ATOM     73  F   UNL A   1      50.340  27.765  31.398  1.00  0.00    -0.200 F 
ENDBRANCH  49  63
BRANCH  50  74
ATOM     74  C   UNL A   1      37.151  32.761  30.358  1.00  0.00     0.064 A 
ATOM     75  C   UNL A   1      36.737  33.531  29.259  1.00  0.00     0.173 A 
ATOM     76  C   UNL A   1      36.218  32.531  31.377  1.00  0.00     0.173 A 
ATOM     77  F   UNL A   1      37.589  33.780  28.254  1.00  0.00    -0.203 F 
ATOM     78  C   UNL A   1      35.455  34.072  29.199  1.00  0.00     0.198 A 
ATOM     79  C   UNL A   1      34.925  33.045  31.301  1.00  0.00     0.198 A 
ATOM     80  F   UNL A   1      36.556  31.780  32.435  1.00  0.00    -0.203 F 
ATOM     81  F   UNL A   1      35.101  34.838  28.158  1.00  0.00    -0.200 F 
ATOM     82  C   UNL A   1      34.547  33.825  30.218  1.00  0.00     0.200 A 
ATOM     83  F   UNL A   1      34.044  32.783  32.276  1.00  0.00    -0.200 F 
ATOM     84  F   UNL A   1      33.310  34.335  30.155  1.00  0.00    -0.200 F 
ENDBRANCH  50  74
BRANCH  62  85
ATOM     85  C   UNL A   1      43.034  35.051  33.386  1.00  0.00     0.064 A 
ATOM     86  C   UNL A   1      42.896  35.054  34.784  1.00  0.00     0.173 A 
ATOM     87  C   UNL A   1      43.387  36.254  32.759  1.00  0.00     0.173 A 
ATOM     88  F   UNL A   1      42.548  33.933  35.432  1.00  0.00    -0.203 F 
ATOM     89  C   UNL A   1      43.074  36.223  35.521  1.00  0.00     0.198 A 
ATOM     90  C   UNL A   1      43.596  37.414  33.503  1.00  0.00     0.198 A 
ATOM     91  F   UNL A   1      43.540  36.302  31.428  1.00  0.00    -0.203 F 
ATOM     92  F   UNL A   1      42.887  36.212  36.848  1.00  0.00    -0.200 F 
ATOM     93  C   UNL A   1      43.426  37.401  34.880  1.00  0.00     0.200 A 
ATOM     94  F   UNL A   1      43.959  38.546  32.885  1.00  0.00    -0.200 F 
ATOM     95  F   UNL A   1      43.600  38.524  35.589  1.00  0.00    -0.200 F 
ENDBRANCH  62  85
ENDBRANCH  36  37
ENDBRANCH  29  31
ENDBRANCH  28  29
ENDBRANCH  27  28
ENDBRANCH  26  27
ENDBRANCH  25  26
ENDBRANCH  24  25
ENDBRANCH  23  24
ENDBRANCH   1  23
TORSDOF 22
ENDMDL
MODEL 3
REMARK VINA RESULT:      -9.6      5.312     10.053
REMARK SMILES CCC1CN(c2cc(F)ccc2C(=O)OCCOCCOCCOCCOC(=O)c2ccc(-c3c4nc(c(-c5c(F)c(F)c(F)c(F)c5F)c5ccc([nH]5)c(-c5c(F)c(F)c(F)c(F)c5F)c5nc(c(-c6c(F)c(F)c(F)c(F)c6F)c6ccc3[nH]6)C=C5)C=C4)cc2)C1
REMARK SMILES IDX 21 1 20 2 19 3 18 4 17 5 16 6 15 7 13 8 14 9 12 10 6 11 7 12
REMARK SMILES IDX 8 13 11 14 9 15 10 16 5 17 3 18 4 19 93 20 2 21 1 22 22 23
REMARK SMILES IDX 23 24 24 25 25 26 26 27 27 28 28 29 29 30 30 31 31 32 92 33
REMARK SMILES IDX 32 34 91 35 33 36 34 37 35 38 85 39 36 40 90 41 84 42 86 43
REMARK SMILES IDX 37 44 89 45 83 46 82 47 38 49 70 50 50 51 69 52 51 53 54 54
REMARK SMILES IDX 68 55 87 56 52 57 53 58 67 60 88 61 55 62 39 63 40 64 48 65
REMARK SMILES IDX 41 66 42 67 46 68 49 69 43 70 44 71 47 72 45 73 71 74 72 75
REMARK SMILES IDX 80 76 73 77 74 78 78 79 81 80 75 81 76 82 79 83 77 84 56 85
REMARK SMILES IDX 57 86 65 87 58 88 59 89 63 90 66 91 60 92 61 93 64 94 62 95
REMARK H PARENT 86 48 54 59
REMARK Flexibility Score: inf
ROOT
ATOM      1  O   UNL A   1      31.420  27.690  26.092  1.00  0.00    -0.377 OA
ENDROOT
BRANCH   1   2
ATOM      2  C   UNL A   1      31.522  26.273  25.992  1.00  0.00     0.188 C 
BRANCH   2   3
ATOM      3  C   UNL A   1      30.308  25.351  26.276  1.00  0.00     0.188 C 
BRANCH   3   4
ATOM      4  O   UNL A   1      30.609  24.199  27.038  1.00  0.00    -0.376 OA
BRANCH   4   5
ATOM      5  C   UNL A   1      31.915  23.662  27.053  1.00  0.00     0.202 C 
BRANCH   5   6
ATOM      6  C   UNL A   1      32.197  22.260  26.504  1.00  0.00     0.261 C 
BRANCH   6   7
ATOM      7  O   UNL A   1      31.651  22.003  25.211  1.00  0.00    -0.460 OA
BRANCH   7   8
ATOM      8  C   UNL A   1      32.505  21.871  24.175  1.00  0.00     0.340 C 
ATOM      9  O   UNL A   1      32.878  20.823  23.674  1.00  0.00    -0.246 OA
BRANCH   8  10
ATOM     10  C   UNL A   1      32.739  23.208  23.579  1.00  0.00     0.083 A 
ATOM     11  C   UNL A   1      33.968  23.904  23.637  1.00  0.00     0.054 A 
ATOM     12  C   UNL A   1      33.987  25.214  23.118  1.00  0.00     0.066 A 
ATOM     13  C   UNL A   1      32.845  25.798  22.574  1.00  0.00     0.125 A 
ATOM     14  C   UNL A   1      31.585  23.820  23.040  1.00  0.00     0.021 A 
ATOM     15  F   UNL A   1      32.916  27.037  22.070  1.00  0.00    -0.207 F 
ATOM     16  C   UNL A   1      31.640  25.118  22.541  1.00  0.00     0.040 A 
BRANCH  11  17
ATOM     17  N   UNL A   1      35.167  23.381  24.147  1.00  0.00    -0.370 N 
ATOM     18  C   UNL A   1      36.995  22.845  24.904  1.00  0.00     0.028 C 
ATOM     19  C   UNL A   1      36.258  22.684  23.565  1.00  0.00     0.122 C 
ATOM     20  C   UNL A   1      35.611  23.188  25.492  1.00  0.00     0.122 C 
BRANCH  18  21
ATOM     21  C   UNL A   1      37.726  21.628  25.457  1.00  0.00     0.004 C 
ATOM     22  C   UNL A   1      39.110  22.018  25.959  1.00  0.00     0.004 C 
ENDBRANCH  18  21
ENDBRANCH  11  17
ENDBRANCH   8  10
ENDBRANCH   7   8
ENDBRANCH   6   7
ENDBRANCH   5   6
ENDBRANCH   4   5
ENDBRANCH   3   4
ENDBRANCH   2   3
ENDBRANCH   1   2
BRANCH   1  23
ATOM     23  C   UNL A   1      31.823  28.356  27.283  1.00  0.00     0.188 C 
BRANCH  23  24
ATOM     24  C   UNL A   1      32.813  29.542  27.228  1.00  0.00     0.188 C 
BRANCH  24  25
ATOM     25  O   UNL A   1      32.199  30.801  27.023  1.00  0.00    -0.376 OA
BRANCH  25  26
ATOM     26  C   UNL A   1      32.965  31.964  27.270  1.00  0.00     0.202 C 
BRANCH  26  27
ATOM     27  C   UNL A   1      32.223  33.273  27.582  1.00  0.00     0.261 C 
BRANCH  27  28
ATOM     28  O   UNL A   1      32.999  34.479  27.536  1.00  0.00    -0.460 OA
BRANCH  28  29
ATOM     29  C   UNL A   1      33.127  35.182  28.680  1.00  0.00     0.338 C 
ATOM     30  O   UNL A   1      32.371  36.035  29.116  1.00  0.00    -0.246 OA
BRANCH  29  31
ATOM     31  C   UNL A   1      34.269  34.612  29.420  1.00  0.00     0.060 A 
ATOM     32  C   UNL A   1      35.540  34.611  28.830  1.00  0.00     0.016 A 
ATOM     33  C   UNL A   1      34.081  34.088  30.700  1.00  0.00     0.016 A 
ATOM     34  C   UNL A   1      36.625  34.058  29.512  1.00  0.00     0.010 A 
ATOM     35  C   UNL A   1      35.161  33.515  31.373  1.00  0.00     0.010 A 
ATOM     36  C   UNL A   1      36.430  33.469  30.769  1.00  0.00    -0.014 A 
BRANCH  36  37
ATOM     37  C   UNL A   1      37.500  32.638  31.371  1.00  0.00     0.031 A 
ATOM     38  C   UNL A   1      37.993  32.999  32.743  1.00  0.00     0.074 A 
ATOM     39  C   UNL A   1      38.015  31.582  30.719  1.00  0.00     0.049 A 
ATOM     40  N   UNL A   1      38.967  32.476  33.441  1.00  0.00    -0.248 NA
ATOM     41  C   UNL A   1      37.291  34.102  33.421  1.00  0.00     0.031 C 
ATOM     42  C   UNL A   1      37.581  31.103  29.409  1.00  0.00     0.029 A 
ATOM     43  N   UNL A   1      39.027  30.724  31.075  1.00  0.00    -0.354 N 
ATOM     44  C   UNL A   1      38.999  33.189  34.632  1.00  0.00     0.074 A 
ATOM     45  C   UNL A   1      37.970  34.201  34.554  1.00  0.00     0.031 C 
ATOM     46  C   UNL A   1      38.329  30.042  29.066  1.00  0.00     0.029 A 
ATOM     47  C   UNL A   1      39.321  29.791  30.111  1.00  0.00     0.049 A 
ATOM     48  H   UNL A   1      39.497  30.773  31.939  1.00  0.00     0.167 HD
ATOM     49  C   UNL A   1      39.811  33.007  35.699  1.00  0.00     0.037 A 
ATOM     50  C   UNL A   1      40.297  28.861  30.071  1.00  0.00     0.037 A 
ATOM     51  C   UNL A   1      40.831  31.995  35.772  1.00  0.00     0.049 A 
ATOM     52  C   UNL A   1      41.247  28.733  31.236  1.00  0.00     0.074 A 
ATOM     53  C   UNL A   1      41.696  31.722  36.815  1.00  0.00     0.029 A 
ATOM     54  N   UNL A   1      41.127  31.096  34.758  1.00  0.00    -0.354 N 
ATOM     55  N   UNL A   1      41.268  29.403  32.363  1.00  0.00    -0.248 NA
ATOM     56  C   UNL A   1      42.310  27.723  31.124  1.00  0.00     0.031 C 
ATOM     57  C   UNL A   1      42.559  30.700  36.410  1.00  0.00     0.029 A 
ATOM     58  C   UNL A   1      42.184  30.287  35.141  1.00  0.00     0.049 A 
ATOM     59  H   UNL A   1      40.656  31.041  33.895  1.00  0.00     0.167 HD
ATOM     60  C   UNL A   1      42.321  28.878  33.104  1.00  0.00     0.074 A 
ATOM     61  C   UNL A   1      42.911  27.828  32.302  1.00  0.00     0.031 C 
ATOM     62  C   UNL A   1      42.755  29.234  34.338  1.00  0.00     0.037 A 
BRANCH  49  63
ATOM     63  C   UNL A   1      39.649  33.927  36.872  1.00  0.00     0.064 A 
ATOM     64  C   UNL A   1      40.353  35.141  36.923  1.00  0.00     0.173 A 
ATOM     65  C   UNL A   1      38.861  33.579  37.979  1.00  0.00     0.173 A 
ATOM     66  F   UNL A   1      41.121  35.520  35.890  1.00  0.00    -0.203 F 
ATOM     67  C   UNL A   1      40.291  35.960  38.046  1.00  0.00     0.198 A 
ATOM     68  C   UNL A   1      38.776  34.416  39.089  1.00  0.00     0.198 A 
ATOM     69  F   UNL A   1      38.156  32.437  37.975  1.00  0.00    -0.203 F 
ATOM     70  F   UNL A   1      41.005  37.094  38.087  1.00  0.00    -0.200 F 
ATOM     71  C   UNL A   1      39.501  35.599  39.126  1.00  0.00     0.200 A 
ATOM     72  F   UNL A   1      37.993  34.079  40.122  1.00  0.00    -0.200 F 
ATOM     73  F   UNL A   1      39.437  36.391  40.205  1.00  0.00    -0.200 F 
ENDBRANCH  49  63
BRANCH  50  74
ATOM     74  C   UNL A   1      40.420  27.979  28.881  1.00  0.00     0.064 A 
ATOM     75  C   UNL A   1      41.199  28.351  27.773  1.00  0.00     0.173 A 
ATOM     76  C   UNL A   1      39.743  26.754  28.816  1.00  0.00     0.173 A 
ATOM     77  F   UNL A   1      41.870  29.512  27.783  1.00  0.00    -0.203 F 
ATOM     78  C   UNL A   1      41.271  27.546  26.639  1.00  0.00     0.198 A 
ATOM     79  C   UNL A   1      39.842  25.933  27.693  1.00  0.00     0.198 A 
ATOM     80  F   UNL A   1      39.007  26.340  29.858  1.00  0.00    -0.203 F 
ATOM     81  F   UNL A   1      41.988  27.947  25.580  1.00  0.00    -0.200 F 
ATOM     82  C   UNL A   1      40.596  26.335  26.601  1.00  0.00     0.200 A 
ATOM     83  F   UNL A   1      39.209  24.753  27.671  1.00  0.00    -0.200 F 
ATOM     84  F   UNL A   1      40.675  25.556  25.514  1.00  0.00    -0.200 F 
ENDBRANCH  50  74
BRANCH  62  85
ATOM     85  C   UNL A   1      43.903  28.470  34.934  1.00  0.00     0.064 A 
ATOM     86  C   UNL A   1      45.226  28.834  34.632  1.00  0.00     0.173 A 
ATOM     87  C   UNL A   1      43.700  27.318  35.705  1.00  0.00     0.173 A 
ATOM     88  F   UNL A   1      45.475  29.922  33.887  1.00  0.00    -0.203 F 
ATOM     89  C   UNL A   1      46.300  28.057  35.059  1.00  0.00     0.198 A 
ATOM     90  C   UNL A   1      44.779  26.561  36.159  1.00  0.00     0.198 A 
ATOM     91  F   UNL A   1      42.457  26.932  36.029  1.00  0.00    -0.203 F 
ATOM     92  F   UNL A   1      47.550  28.397  34.715  1.00  0.00    -0.200 F 
ATOM     93  C   UNL A   1      46.076  26.923  35.823  1.00  0.00     0.200 A 
ATOM     94  F   UNL A   1      44.562  25.478  36.917  1.00  0.00    -0.200 F 
ATOM     95  F   UNL A   1      47.110  26.177  36.237  1.00  0.00    -0.200 F 
ENDBRANCH  62  85
ENDBRANCH  36  37
ENDBRANCH  29  31
ENDBRANCH  28  29
ENDBRANCH  27  28
ENDBRANCH  26  27
ENDBRANCH  25  26
ENDBRANCH  24  25
ENDBRANCH  23  24
ENDBRANCH   1  23
TORSDOF 22
ENDMDL
