MODEL 1
REMARK VINA RESULT:     -11.0      0.000      0.000
REMARK SMILES C[C@@H]1CN(C(=O)Nc2ccc(O)c(C(=O)OCCOCCOCCOCCOC(=O)c3ccc(-c4c5nc(c(-c6c(F)c(F)c(F)c(F)c6F)c6ccc([nH]6)c(-c6c(F)c(F)c(F)c(F)c6F)c6nc(c(-c7c(F)c(F)c(F)c(F)c7F)c7ccc4[nH]7)C=C6)C=C5)cc3)c2)C[C@@H]1C
REMARK SMILES IDX 22 1 21 2 20 3 19 4 18 5 17 6 16 7 14 8 15 9 13 10 8 11 9 12
REMARK SMILES IDX 94 13 10 14 11 15 7 16 5 17 6 18 4 20 1 21 2 22 3 23 96 24
REMARK SMILES IDX 95 25 97 26 12 27 23 29 24 30 25 31 26 32 27 33 28 34 29 35
REMARK SMILES IDX 30 36 31 37 32 38 93 39 33 40 92 41 34 42 35 43 36 44 86 45
REMARK SMILES IDX 37 46 91 47 85 48 87 49 38 50 90 51 84 52 83 53 39 55 71 56
REMARK SMILES IDX 51 57 70 58 52 59 55 60 69 61 88 62 53 63 54 64 68 66 89 67
REMARK SMILES IDX 56 68 40 69 41 70 49 71 42 72 43 73 47 74 50 75 44 76 45 77
REMARK SMILES IDX 48 78 46 79 72 80 73 81 81 82 74 83 75 84 79 85 82 86 76 87
REMARK SMILES IDX 77 88 80 89 78 90 57 91 58 92 66 93 59 94 60 95 64 96 67 97
REMARK SMILES IDX 61 98 62 99 65 100 63 101
REMARK H PARENT 7 19 12 28 87 54 55 65
REMARK Flexibility Score: inf
ROOT
ATOM      1  O   UNL A   1      41.560  18.904  25.798  1.00  0.00    -0.377 OA
ENDROOT
BRANCH   1   2
ATOM      2  C   UNL A   1      40.871  20.026  26.335  1.00  0.00     0.188 C 
BRANCH   2   3
ATOM      3  C   UNL A   1      39.469  20.406  25.804  1.00  0.00     0.188 C 
BRANCH   3   4
ATOM      4  O   UNL A   1      39.199  21.795  25.840  1.00  0.00    -0.376 OA
BRANCH   4   5
ATOM      5  C   UNL A   1      37.859  22.247  25.874  1.00  0.00     0.202 C 
BRANCH   5   6
ATOM      6  C   UNL A   1      36.814  21.598  24.956  1.00  0.00     0.261 C 
BRANCH   6   7
ATOM      7  O   UNL A   1      35.517  21.444  25.528  1.00  0.00    -0.460 OA
BRANCH   7   8
ATOM      8  C   UNL A   1      34.591  20.765  24.817  1.00  0.00     0.342 C 
ATOM      9  O   UNL A   1      34.541  19.558  24.652  1.00  0.00    -0.246 OA
BRANCH   8  10
ATOM     10  C   UNL A   1      33.481  21.698  24.516  1.00  0.00     0.103 A 
ATOM     11  C   UNL A   1      32.417  23.124  22.892  1.00  0.00     0.044 A 
ATOM     12  C   UNL A   1      31.318  23.287  23.740  1.00  0.00     0.030 A 
ATOM     13  C   UNL A   1      33.464  22.274  23.239  1.00  0.00     0.045 A 
ATOM     14  C   UNL A   1      31.333  22.713  25.011  1.00  0.00     0.049 A 
ATOM     15  C   UNL A   1      32.432  21.952  25.412  1.00  0.00     0.130 A 
BRANCH  11  16
ATOM     16  N   UNL A   1      32.536  23.907  21.746  1.00  0.00    -0.308 N 
ATOM     17  C   UNL A   1      32.737  25.257  21.652  1.00  0.00     0.321 C 
ATOM     18  O   UNL A   1      32.881  25.719  20.516  1.00  0.00    -0.248 OA
ATOM     19  H   UNL A   1      32.468  23.426  20.890  1.00  0.00     0.171 HD
BRANCH  17  20
ATOM     20  N   UNL A   1      32.858  26.047  22.766  1.00  0.00    -0.324 N 
ATOM     21  C   UNL A   1      31.626  27.580  25.900  1.00  0.00     0.010 C 
ATOM     22  C   UNL A   1      32.553  27.414  24.703  1.00  0.00     0.010 C 
ATOM     23  C   UNL A   1      31.838  26.724  23.549  1.00  0.00     0.125 C 
ATOM     24  C   UNL A   1      33.817  26.556  24.876  1.00  0.00     0.010 C 
ATOM     25  C   UNL A   1      34.150  26.197  23.419  1.00  0.00     0.125 C 
ATOM     26  C   UNL A   1      33.613  25.295  25.718  1.00  0.00     0.010 C 
ENDBRANCH  17  20
ENDBRANCH  11  16
BRANCH  15  27
ATOM     27  O   UNL A   1      32.484  21.478  26.691  1.00  0.00    -0.507 OA
ATOM     28  H   UNL A   1      32.212  20.601  26.878  1.00  0.00     0.293 HD
ENDBRANCH  15  27
ENDBRANCH   8  10
ENDBRANCH   7   8
ENDBRANCH   6   7
ENDBRANCH   5   6
ENDBRANCH   4   5
ENDBRANCH   3   4
ENDBRANCH   2   3
ENDBRANCH   1   2
BRANCH   1  29
ATOM     29  C   UNL A   1      42.984  18.921  25.735  1.00  0.00     0.188 C 
BRANCH  29  30
ATOM     30  C   UNL A   1      43.735  20.054  24.994  1.00  0.00     0.188 C 
BRANCH  30  31
ATOM     31  O   UNL A   1      45.147  19.984  25.077  1.00  0.00    -0.376 OA
BRANCH  31  32
ATOM     32  C   UNL A   1      45.831  21.047  25.717  1.00  0.00     0.202 C 
BRANCH  32  33
ATOM     33  C   UNL A   1      45.726  22.443  25.086  1.00  0.00     0.261 C 
BRANCH  33  34
ATOM     34  O   UNL A   1      44.812  23.356  25.713  1.00  0.00    -0.460 OA
BRANCH  34  35
ATOM     35  C   UNL A   1      43.778  23.792  24.968  1.00  0.00     0.338 C 
ATOM     36  O   UNL A   1      43.413  23.362  23.883  1.00  0.00    -0.246 OA
BRANCH  35  37
ATOM     37  C   UNL A   1      43.028  24.780  25.765  1.00  0.00     0.060 A 
ATOM     38  C   UNL A   1      43.501  26.097  25.836  1.00  0.00     0.016 A 
ATOM     39  C   UNL A   1      41.877  24.399  26.458  1.00  0.00     0.016 A 
ATOM     40  C   UNL A   1      42.859  27.024  26.656  1.00  0.00     0.010 A 
ATOM     41  C   UNL A   1      41.247  25.322  27.297  1.00  0.00     0.010 A 
ATOM     42  C   UNL A   1      41.769  26.620  27.438  1.00  0.00    -0.014 A 
BRANCH  42  43
ATOM     43  C   UNL A   1      41.359  27.459  28.592  1.00  0.00     0.031 A 
ATOM     44  C   UNL A   1      42.173  27.353  29.856  1.00  0.00     0.074 A 
ATOM     45  C   UNL A   1      40.339  28.330  28.510  1.00  0.00     0.049 A 
ATOM     46  N   UNL A   1      42.004  27.946  31.010  1.00  0.00    -0.248 NA
ATOM     47  C   UNL A   1      43.338  26.452  29.809  1.00  0.00     0.031 C 
ATOM     48  C   UNL A   1      39.518  28.568  27.325  1.00  0.00     0.029 A 
ATOM     49  N   UNL A   1      39.823  29.181  29.456  1.00  0.00    -0.354 N 
ATOM     50  C   UNL A   1      43.041  27.493  31.818  1.00  0.00     0.074 A 
ATOM     51  C   UNL A   1      43.803  26.539  31.043  1.00  0.00     0.031 C 
ATOM     52  C   UNL A   1      38.593  29.500  27.617  1.00  0.00     0.029 A 
ATOM     53  C   UNL A   1      38.738  29.900  29.016  1.00  0.00     0.049 A 
ATOM     54  H   UNL A   1      40.195  29.268  30.363  1.00  0.00     0.167 HD
ATOM     55  C   UNL A   1      43.344  27.854  33.087  1.00  0.00     0.037 A 
ATOM     56  C   UNL A   1      37.947  30.764  29.683  1.00  0.00     0.037 A 
ATOM     57  C   UNL A   1      42.581  28.796  33.860  1.00  0.00     0.049 A 
ATOM     58  C   UNL A   1      38.248  31.069  31.132  1.00  0.00     0.074 A 
ATOM     59  C   UNL A   1      42.782  29.207  35.165  1.00  0.00     0.029 A 
ATOM     60  N   UNL A   1      41.467  29.476  33.392  1.00  0.00    -0.354 N 
ATOM     61  N   UNL A   1      39.228  30.638  31.890  1.00  0.00    -0.248 NA
ATOM     62  C   UNL A   1      37.334  31.996  31.815  1.00  0.00     0.031 C 
ATOM     63  C   UNL A   1      41.761  30.102  35.503  1.00  0.00     0.029 A 
ATOM     64  C   UNL A   1      40.966  30.300  34.387  1.00  0.00     0.049 A 
ATOM     65  H   UNL A   1      41.088  29.387  32.488  1.00  0.00     0.167 HD
ATOM     66  C   UNL A   1      39.080  31.283  33.113  1.00  0.00     0.074 A 
ATOM     67  C   UNL A   1      37.922  32.141  32.992  1.00  0.00     0.031 C 
ATOM     68  C   UNL A   1      39.835  31.179  34.235  1.00  0.00     0.037 A 
BRANCH  55  69
ATOM     69  C   UNL A   1      44.547  27.217  33.720  1.00  0.00     0.064 A 
ATOM     70  C   UNL A   1      44.477  25.948  34.317  1.00  0.00     0.173 A 
ATOM     71  C   UNL A   1      45.791  27.864  33.699  1.00  0.00     0.173 A 
ATOM     72  F   UNL A   1      43.308  25.295  34.382  1.00  0.00    -0.203 F 
ATOM     73  C   UNL A   1      45.605  25.362  34.887  1.00  0.00     0.198 A 
ATOM     74  C   UNL A   1      46.924  27.259  34.239  1.00  0.00     0.198 A 
ATOM     75  F   UNL A   1      45.913  29.078  33.142  1.00  0.00    -0.203 F 
ATOM     76  F   UNL A   1      45.505  24.170  35.492  1.00  0.00    -0.200 F 
ATOM     77  C   UNL A   1      46.829  26.012  34.838  1.00  0.00     0.200 A 
ATOM     78  F   UNL A   1      48.107  27.885  34.178  1.00  0.00    -0.200 F 
ATOM     79  F   UNL A   1      47.916  25.440  35.373  1.00  0.00    -0.200 F 
ENDBRANCH  55  69
BRANCH  56  80
ATOM     80  C   UNL A   1      36.783  31.406  29.011  1.00  0.00     0.064 A 
ATOM     81  C   UNL A   1      36.780  32.778  28.723  1.00  0.00     0.173 A 
ATOM     82  C   UNL A   1      35.620  30.679  28.717  1.00  0.00     0.173 A 
ATOM     83  F   UNL A   1      37.858  33.525  29.007  1.00  0.00    -0.203 F 
ATOM     84  C   UNL A   1      35.645  33.407  28.214  1.00  0.00     0.198 A 
ATOM     85  C   UNL A   1      34.498  31.301  28.173  1.00  0.00     0.198 A 
ATOM     86  F   UNL A   1      35.565  29.363  28.972  1.00  0.00    -0.203 F 
ATOM     87  F   UNL A   1      35.644  34.734  28.028  1.00  0.00    -0.200 F 
ATOM     88  C   UNL A   1      34.504  32.667  27.938  1.00  0.00     0.200 A 
ATOM     89  F   UNL A   1      33.403  30.580  27.896  1.00  0.00    -0.200 F 
ATOM     90  F   UNL A   1      33.409  33.274  27.463  1.00  0.00    -0.200 F 
ENDBRANCH  56  80
BRANCH  68  91
ATOM     91  C   UNL A   1      39.494  32.083  35.387  1.00  0.00     0.064 A 
ATOM     92  C   UNL A   1      38.613  31.698  36.408  1.00  0.00     0.173 A 
ATOM     93  C   UNL A   1      40.082  33.356  35.477  1.00  0.00     0.173 A 
ATOM     94  F   UNL A   1      38.017  30.497  36.368  1.00  0.00    -0.203 F 
ATOM     95  C   UNL A   1      38.295  32.569  37.447  1.00  0.00     0.198 A 
ATOM     96  C   UNL A   1      39.795  34.208  36.539  1.00  0.00     0.198 A 
ATOM     97  F   UNL A   1      40.944  33.772  34.537  1.00  0.00    -0.203 F 
ATOM     98  F   UNL A   1      37.396  32.205  38.372  1.00  0.00    -0.200 F 
ATOM     99  C   UNL A   1      38.891  33.820  37.515  1.00  0.00     0.200 A 
ATOM    100  F   UNL A   1      40.387  35.407  36.614  1.00  0.00    -0.200 F 
ATOM    101  F   UNL A   1      38.585  34.656  38.517  1.00  0.00    -0.200 F 
ENDBRANCH  68  91
ENDBRANCH  42  43
ENDBRANCH  35  37
ENDBRANCH  34  35
ENDBRANCH  33  34
ENDBRANCH  32  33
ENDBRANCH  31  32
ENDBRANCH  30  31
ENDBRANCH  29  30
ENDBRANCH   1  29
TORSDOF 23
ENDMDL
MODEL 2
REMARK VINA RESULT:     -10.9      5.605     11.079
REMARK SMILES C[C@@H]1CN(C(=O)Nc2ccc(O)c(C(=O)OCCOCCOCCOCCOC(=O)c3ccc(-c4c5nc(c(-c6c(F)c(F)c(F)c(F)c6F)c6ccc([nH]6)c(-c6c(F)c(F)c(F)c(F)c6F)c6nc(c(-c7c(F)c(F)c(F)c(F)c7F)c7ccc4[nH]7)C=C6)C=C5)cc3)c2)C[C@@H]1C
REMARK SMILES IDX 22 1 21 2 20 3 19 4 18 5 17 6 16 7 14 8 15 9 13 10 8 11 9 12
REMARK SMILES IDX 94 13 10 14 11 15 7 16 5 17 6 18 4 20 1 21 2 22 3 23 96 24
REMARK SMILES IDX 95 25 97 26 12 27 23 29 24 30 25 31 26 32 27 33 28 34 29 35
REMARK SMILES IDX 30 36 31 37 32 38 93 39 33 40 92 41 34 42 35 43 36 44 86 45
REMARK SMILES IDX 37 46 91 47 85 48 87 49 38 50 90 51 84 52 83 53 39 55 71 56
REMARK SMILES IDX 51 57 70 58 52 59 55 60 69 61 88 62 53 63 54 64 68 66 89 67
REMARK SMILES IDX 56 68 40 69 41 70 49 71 42 72 43 73 47 74 50 75 44 76 45 77
REMARK SMILES IDX 48 78 46 79 72 80 73 81 81 82 74 83 75 84 79 85 82 86 76 87
REMARK SMILES IDX 77 88 80 89 78 90 57 91 58 92 66 93 59 94 60 95 64 96 67 97
REMARK SMILES IDX 61 98 62 99 65 100 63 101
REMARK H PARENT 7 19 12 28 87 54 55 65
REMARK Flexibility Score: inf
ROOT
ATOM      1  O   UNL A   1      33.750  36.284  29.722  1.00  0.00    -0.377 OA
ENDROOT
BRANCH   1   2
ATOM      2  C   UNL A   1      32.957  35.348  29.002  1.00  0.00     0.188 C 
BRANCH   2   3
ATOM      3  C   UNL A   1      33.609  34.089  28.383  1.00  0.00     0.188 C 
BRANCH   3   4
ATOM      4  O   UNL A   1      32.692  33.233  27.726  1.00  0.00    -0.376 OA
BRANCH   4   5
ATOM      5  C   UNL A   1      33.012  31.866  27.551  1.00  0.00     0.202 C 
BRANCH   5   6
ATOM      6  C   UNL A   1      32.143  30.994  26.633  1.00  0.00     0.261 C 
BRANCH   6   7
ATOM      7  O   UNL A   1      31.965  29.648  27.069  1.00  0.00    -0.460 OA
BRANCH   7   8
ATOM      8  C   UNL A   1      32.733  28.694  26.497  1.00  0.00     0.342 C 
ATOM      9  O   UNL A   1      33.911  28.477  26.720  1.00  0.00    -0.246 OA
BRANCH   8  10
ATOM     10  C   UNL A   1      31.833  27.768  25.772  1.00  0.00     0.103 A 
ATOM     11  C   UNL A   1      30.248  25.959  25.913  1.00  0.00     0.044 A 
ATOM     12  C   UNL A   1      29.926  26.122  24.564  1.00  0.00     0.030 A 
ATOM     13  C   UNL A   1      31.141  26.823  26.542  1.00  0.00     0.045 A 
ATOM     14  C   UNL A   1      30.612  27.063  23.796  1.00  0.00     0.049 A 
ATOM     15  C   UNL A   1      31.593  27.858  24.394  1.00  0.00     0.130 A 
BRANCH  11  16
ATOM     16  N   UNL A   1      29.775  24.852  26.615  1.00  0.00    -0.308 N 
ATOM     17  C   UNL A   1      30.308  23.594  26.684  1.00  0.00     0.321 C 
ATOM     18  O   UNL A   1      29.742  22.792  27.434  1.00  0.00    -0.248 OA
ATOM     19  H   UNL A   1      28.948  24.993  27.130  1.00  0.00     0.171 HD
BRANCH  17  20
ATOM     20  N   UNL A   1      31.462  23.263  26.022  1.00  0.00    -0.324 N 
ATOM     21  C   UNL A   1      33.595  22.963  23.014  1.00  0.00     0.010 C 
ATOM     22  C   UNL A   1      33.169  22.690  24.450  1.00  0.00     0.010 C 
ATOM     23  C   UNL A   1      31.673  22.909  24.628  1.00  0.00     0.125 C 
ATOM     24  C   UNL A   1      33.772  23.560  25.565  1.00  0.00     0.010 C 
ATOM     25  C   UNL A   1      32.748  23.368  26.696  1.00  0.00     0.125 C 
ATOM     26  C   UNL A   1      33.916  25.039  25.202  1.00  0.00     0.010 C 
ENDBRANCH  17  20
ENDBRANCH  11  16
BRANCH  15  27
ATOM     27  O   UNL A   1      32.329  28.705  23.616  1.00  0.00    -0.507 OA
ATOM     28  H   UNL A   1      32.398  29.611  23.845  1.00  0.00     0.293 HD
ENDBRANCH  15  27
ENDBRANCH   8  10
ENDBRANCH   7   8
ENDBRANCH   6   7
ENDBRANCH   5   6
ENDBRANCH   4   5
ENDBRANCH   3   4
ENDBRANCH   2   3
ENDBRANCH   1   2
BRANCH   1  29
ATOM     29  C   UNL A   1      33.134  37.121  30.696  1.00  0.00     0.188 C 
BRANCH  29  30
ATOM     30  C   UNL A   1      33.320  36.853  32.210  1.00  0.00     0.188 C 
BRANCH  30  31
ATOM     31  O   UNL A   1      34.200  35.788  32.521  1.00  0.00    -0.376 OA
BRANCH  31  32
ATOM     32  C   UNL A   1      33.659  34.482  32.618  1.00  0.00     0.202 C 
BRANCH  32  33
ATOM     33  C   UNL A   1      34.512  33.407  33.307  1.00  0.00     0.261 C 
BRANCH  33  34
ATOM     34  O   UNL A   1      35.881  33.315  32.885  1.00  0.00    -0.460 OA
BRANCH  34  35
ATOM     35  C   UNL A   1      36.693  32.527  33.616  1.00  0.00     0.338 C 
ATOM     36  O   UNL A   1      36.698  32.392  34.831  1.00  0.00    -0.246 OA
BRANCH  35  37
ATOM     37  C   UNL A   1      37.481  31.698  32.685  1.00  0.00     0.060 A 
ATOM     38  C   UNL A   1      38.288  30.675  33.200  1.00  0.00     0.016 A 
ATOM     39  C   UNL A   1      37.441  31.949  31.312  1.00  0.00     0.016 A 
ATOM     40  C   UNL A   1      39.109  29.940  32.347  1.00  0.00     0.010 A 
ATOM     41  C   UNL A   1      38.281  31.227  30.460  1.00  0.00     0.010 A 
ATOM     42  C   UNL A   1      39.156  30.259  30.983  1.00  0.00    -0.014 A 
BRANCH  42  43
ATOM     43  C   UNL A   1      40.301  29.781  30.170  1.00  0.00     0.031 A 
ATOM     44  C   UNL A   1      41.433  30.746  29.924  1.00  0.00     0.074 A 
ATOM     45  C   UNL A   1      40.370  28.520  29.712  1.00  0.00     0.049 A 
ATOM     46  N   UNL A   1      42.525  30.591  29.220  1.00  0.00    -0.248 NA
ATOM     47  C   UNL A   1      41.313  32.069  30.562  1.00  0.00     0.031 C 
ATOM     48  C   UNL A   1      39.371  27.479  29.936  1.00  0.00     0.029 A 
ATOM     49  N   UNL A   1      41.338  27.904  28.957  1.00  0.00    -0.354 N 
ATOM     50  C   UNL A   1      43.218  31.790  29.337  1.00  0.00     0.074 A 
ATOM     51  C   UNL A   1      42.404  32.681  30.133  1.00  0.00     0.031 C 
ATOM     52  C   UNL A   1      39.774  26.350  29.324  1.00  0.00     0.029 A 
ATOM     53  C   UNL A   1      41.042  26.600  28.640  1.00  0.00     0.049 A 
ATOM     54  H   UNL A   1      42.165  28.353  28.670  1.00  0.00     0.167 HD
ATOM     55  C   UNL A   1      44.435  32.115  28.841  1.00  0.00     0.037 A 
ATOM     56  C   UNL A   1      41.715  25.724  27.868  1.00  0.00     0.037 A 
ATOM     57  C   UNL A   1      45.241  31.233  28.041  1.00  0.00     0.049 A 
ATOM     58  C   UNL A   1      43.022  26.151  27.241  1.00  0.00     0.074 A 
ATOM     59  C   UNL A   1      46.472  31.474  27.461  1.00  0.00     0.029 A 
ATOM     60  N   UNL A   1      44.889  29.932  27.711  1.00  0.00    -0.354 N 
ATOM     61  N   UNL A   1      43.671  27.285  27.353  1.00  0.00    -0.248 NA
ATOM     62  C   UNL A   1      43.697  25.164  26.386  1.00  0.00     0.031 C 
ATOM     63  C   UNL A   1      46.847  30.335  26.740  1.00  0.00     0.029 A 
ATOM     64  C   UNL A   1      45.880  29.361  26.929  1.00  0.00     0.049 A 
ATOM     65  H   UNL A   1      44.060  29.482  27.991  1.00  0.00     0.167 HD
ATOM     66  C   UNL A   1      44.851  27.125  26.635  1.00  0.00     0.074 A 
ATOM     67  C   UNL A   1      44.831  25.782  26.098  1.00  0.00     0.031 C 
ATOM     68  C   UNL A   1      45.863  28.008  26.437  1.00  0.00     0.037 A 
BRANCH  55  69
ATOM     69  C   UNL A   1      44.961  33.489  29.140  1.00  0.00     0.064 A 
ATOM     70  C   UNL A   1      45.777  33.735  30.256  1.00  0.00     0.173 A 
ATOM     71  C   UNL A   1      44.680  34.563  28.284  1.00  0.00     0.173 A 
ATOM     72  F   UNL A   1      46.061  32.747  31.117  1.00  0.00    -0.203 F 
ATOM     73  C   UNL A   1      46.273  35.011  30.513  1.00  0.00     0.198 A 
ATOM     74  C   UNL A   1      45.205  35.830  28.526  1.00  0.00     0.198 A 
ATOM     75  F   UNL A   1      43.905  34.383  27.204  1.00  0.00    -0.203 F 
ATOM     76  F   UNL A   1      47.012  35.233  31.609  1.00  0.00    -0.200 F 
ATOM     77  C   UNL A   1      45.996  36.055  29.642  1.00  0.00     0.200 A 
ATOM     78  F   UNL A   1      44.947  36.833  27.675  1.00  0.00    -0.200 F 
ATOM     79  F   UNL A   1      46.486  37.279  29.883  1.00  0.00    -0.200 F 
ENDBRANCH  55  69
BRANCH  56  80
ATOM     80  C   UNL A   1      41.181  24.357  27.622  1.00  0.00     0.064 A 
ATOM     81  C   UNL A   1      41.795  23.228  28.183  1.00  0.00     0.173 A 
ATOM     82  C   UNL A   1      40.096  24.142  26.760  1.00  0.00     0.173 A 
ATOM     83  F   UNL A   1      42.852  23.375  28.996  1.00  0.00    -0.203 F 
ATOM     84  C   UNL A   1      41.378  21.939  27.852  1.00  0.00     0.198 A 
ATOM     85  C   UNL A   1      39.655  22.855  26.459  1.00  0.00     0.198 A 
ATOM     86  F   UNL A   1      39.470  25.185  26.193  1.00  0.00    -0.203 F 
ATOM     87  F   UNL A   1      42.039  20.879  28.337  1.00  0.00    -0.200 F 
ATOM     88  C   UNL A   1      40.307  21.754  26.991  1.00  0.00     0.200 A 
ATOM     89  F   UNL A   1      38.612  22.682  25.636  1.00  0.00    -0.200 F 
ATOM     90  F   UNL A   1      39.917  20.515  26.661  1.00  0.00    -0.200 F 
ENDBRANCH  56  80
BRANCH  68  91
ATOM     91  C   UNL A   1      47.074  27.520  25.692  1.00  0.00     0.064 A 
ATOM     92  C   UNL A   1      48.139  26.871  26.334  1.00  0.00     0.173 A 
ATOM     93  C   UNL A   1      47.156  27.690  24.300  1.00  0.00     0.173 A 
ATOM     94  F   UNL A   1      48.117  26.689  27.662  1.00  0.00    -0.203 F 
ATOM     95  C   UNL A   1      49.260  26.455  25.619  1.00  0.00     0.198 A 
ATOM     96  C   UNL A   1      48.259  27.236  23.583  1.00  0.00     0.198 A 
ATOM     97  F   UNL A   1      46.160  28.291  23.631  1.00  0.00    -0.203 F 
ATOM     98  F   UNL A   1      50.296  25.901  26.265  1.00  0.00    -0.200 F 
ATOM     99  C   UNL A   1      49.316  26.633  24.245  1.00  0.00     0.200 A 
ATOM    100  F   UNL A   1      48.301  27.390  22.253  1.00  0.00    -0.200 F 
ATOM    101  F   UNL A   1      50.395  26.230  23.559  1.00  0.00    -0.200 F 
ENDBRANCH  68  91
ENDBRANCH  42  43
ENDBRANCH  35  37
ENDBRANCH  34  35
ENDBRANCH  33  34
ENDBRANCH  32  33
ENDBRANCH  31  32
ENDBRANCH  30  31
ENDBRANCH  29  30
ENDBRANCH   1  29
TORSDOF 23
ENDMDL
MODEL 3
REMARK VINA RESULT:     -10.7      1.220      2.267
REMARK SMILES C[C@@H]1CN(C(=O)Nc2ccc(O)c(C(=O)OCCOCCOCCOCCOC(=O)c3ccc(-c4c5nc(c(-c6c(F)c(F)c(F)c(F)c6F)c6ccc([nH]6)c(-c6c(F)c(F)c(F)c(F)c6F)c6nc(c(-c7c(F)c(F)c(F)c(F)c7F)c7ccc4[nH]7)C=C6)C=C5)cc3)c2)C[C@@H]1C
REMARK SMILES IDX 22 1 21 2 20 3 19 4 18 5 17 6 16 7 14 8 15 9 13 10 8 11 9 12
REMARK SMILES IDX 94 13 10 14 11 15 7 16 5 17 6 18 4 20 1 21 2 22 3 23 96 24
REMARK SMILES IDX 95 25 97 26 12 27 23 29 24 30 25 31 26 32 27 33 28 34 29 35
REMARK SMILES IDX 30 36 31 37 32 38 93 39 33 40 92 41 34 42 35 43 36 44 86 45
REMARK SMILES IDX 37 46 91 47 85 48 87 49 38 50 90 51 84 52 83 53 39 55 71 56
REMARK SMILES IDX 51 57 70 58 52 59 55 60 69 61 88 62 53 63 54 64 68 66 89 67
REMARK SMILES IDX 56 68 40 69 41 70 49 71 42 72 43 73 47 74 50 75 44 76 45 77
REMARK SMILES IDX 48 78 46 79 72 80 73 81 81 82 74 83 75 84 79 85 82 86 76 87
REMARK SMILES IDX 77 88 80 89 78 90 57 91 58 92 66 93 59 94 60 95 64 96 67 97
REMARK SMILES IDX 61 98 62 99 65 100 63 101
REMARK H PARENT 7 19 12 28 87 54 55 65
REMARK Flexibility Score: inf
ROOT
ATOM      1  O   UNL A   1      39.610  21.259  25.796  1.00  0.00    -0.377 OA
ENDROOT
BRANCH   1   2
ATOM      2  C   UNL A   1      38.259  21.116  25.375  1.00  0.00     0.188 C 
BRANCH   2   3
ATOM      3  C   UNL A   1      37.315  22.342  25.356  1.00  0.00     0.188 C 
BRANCH   3   4
ATOM      4  O   UNL A   1      36.373  22.324  24.300  1.00  0.00    -0.376 OA
BRANCH   4   5
ATOM      5  C   UNL A   1      35.035  21.945  24.562  1.00  0.00     0.202 C 
BRANCH   5   6
ATOM      6  C   UNL A   1      33.899  22.529  23.710  1.00  0.00     0.261 C 
BRANCH   6   7
ATOM      7  O   UNL A   1      32.752  21.692  23.576  1.00  0.00    -0.460 OA
BRANCH   7   8
ATOM      8  C   UNL A   1      31.977  21.508  24.667  1.00  0.00     0.342 C 
ATOM      9  O   UNL A   1      31.935  20.515  25.372  1.00  0.00    -0.246 OA
BRANCH   8  10
ATOM     10  C   UNL A   1      31.403  22.822  25.038  1.00  0.00     0.103 A 
ATOM     11  C   UNL A   1      30.388  24.874  24.287  1.00  0.00     0.044 A 
ATOM     12  C   UNL A   1      30.086  25.220  25.606  1.00  0.00     0.030 A 
ATOM     13  C   UNL A   1      30.975  23.647  23.989  1.00  0.00     0.045 A 
ATOM     14  C   UNL A   1      30.509  24.399  26.652  1.00  0.00     0.049 A 
ATOM     15  C   UNL A   1      31.202  23.221  26.367  1.00  0.00     0.130 A 
BRANCH  11  16
ATOM     16  N   UNL A   1      30.219  25.806  23.265  1.00  0.00    -0.308 N 
ATOM     17  C   UNL A   1      30.956  26.928  23.003  1.00  0.00     0.321 C 
ATOM     18  O   UNL A   1      30.653  27.567  21.990  1.00  0.00    -0.248 OA
ATOM     19  H   UNL A   1      29.471  25.633  22.649  1.00  0.00     0.171 HD
BRANCH  17  20
ATOM     20  N   UNL A   1      32.030  27.282  23.778  1.00  0.00    -0.324 N 
ATOM     21  C   UNL A   1      33.654  28.266  26.953  1.00  0.00     0.010 C 
ATOM     22  C   UNL A   1      33.542  28.087  25.445  1.00  0.00     0.010 C 
ATOM     23  C   UNL A   1      32.084  28.059  25.005  1.00  0.00     0.125 C 
ATOM     24  C   UNL A   1      34.107  26.801  24.821  1.00  0.00     0.010 C 
ATOM     25  C   UNL A   1      33.352  26.748  23.483  1.00  0.00     0.125 C 
ATOM     26  C   UNL A   1      33.852  25.537  25.644  1.00  0.00     0.010 C 
ENDBRANCH  17  20
ENDBRANCH  11  16
BRANCH  15  27
ATOM     27  O   UNL A   1      31.699  22.475  27.397  1.00  0.00    -0.507 OA
ATOM     28  H   UNL A   1      31.116  22.083  28.017  1.00  0.00     0.293 HD
ENDBRANCH  15  27
ENDBRANCH   8  10
ENDBRANCH   7   8
ENDBRANCH   6   7
ENDBRANCH   5   6
ENDBRANCH   4   5
ENDBRANCH   3   4
ENDBRANCH   2   3
ENDBRANCH   1   2
BRANCH   1  29
ATOM     29  C   UNL A   1      40.349  20.103  26.182  1.00  0.00     0.188 C 
BRANCH  29  30
ATOM     30  C   UNL A   1      41.337  20.150  27.374  1.00  0.00     0.188 C 
BRANCH  30  31
ATOM     31  O   UNL A   1      42.541  20.851  27.120  1.00  0.00    -0.376 OA
BRANCH  31  32
ATOM     32  C   UNL A   1      43.059  20.830  25.801  1.00  0.00     0.202 C 
BRANCH  32  33
ATOM     33  C   UNL A   1      43.517  22.164  25.194  1.00  0.00     0.261 C 
BRANCH  33  34
ATOM     34  O   UNL A   1      43.566  23.286  26.090  1.00  0.00    -0.460 OA
BRANCH  34  35
ATOM     35  C   UNL A   1      43.689  24.506  25.533  1.00  0.00     0.338 C 
ATOM     36  O   UNL A   1      44.221  24.785  24.468  1.00  0.00    -0.246 OA
BRANCH  35  37
ATOM     37  C   UNL A   1      42.909  25.457  26.347  1.00  0.00     0.060 A 
ATOM     38  C   UNL A   1      43.344  26.785  26.444  1.00  0.00     0.016 A 
ATOM     39  C   UNL A   1      41.768  25.030  27.029  1.00  0.00     0.016 A 
ATOM     40  C   UNL A   1      42.674  27.678  27.280  1.00  0.00     0.010 A 
ATOM     41  C   UNL A   1      41.110  25.919  27.884  1.00  0.00     0.010 A 
ATOM     42  C   UNL A   1      41.594  27.229  28.051  1.00  0.00    -0.014 A 
BRANCH  42  43
ATOM     43  C   UNL A   1      41.158  28.033  29.219  1.00  0.00     0.031 A 
ATOM     44  C   UNL A   1      41.948  27.896  30.495  1.00  0.00     0.074 A 
ATOM     45  C   UNL A   1      40.136  28.902  29.141  1.00  0.00     0.049 A 
ATOM     46  N   UNL A   1      41.754  28.456  31.662  1.00  0.00    -0.248 NA
ATOM     47  C   UNL A   1      43.118  27.002  30.446  1.00  0.00     0.031 C 
ATOM     48  C   UNL A   1      39.336  29.168  27.948  1.00  0.00     0.029 A 
ATOM     49  N   UNL A   1      39.597  29.724  30.100  1.00  0.00    -0.354 N 
ATOM     50  C   UNL A   1      42.778  27.986  32.477  1.00  0.00     0.074 A 
ATOM     51  C   UNL A   1      43.559  27.057  31.691  1.00  0.00     0.031 C 
ATOM     52  C   UNL A   1      38.401  30.088  28.248  1.00  0.00     0.029 A 
ATOM     53  C   UNL A   1      38.517  30.449  29.660  1.00  0.00     0.049 A 
ATOM     54  H   UNL A   1      39.951  29.787  31.016  1.00  0.00     0.167 HD
ATOM     55  C   UNL A   1      43.055  28.313  33.760  1.00  0.00     0.037 A 
ATOM     56  C   UNL A   1      37.708  31.291  30.334  1.00  0.00     0.037 A 
ATOM     57  C   UNL A   1      42.272  29.230  34.544  1.00  0.00     0.049 A 
ATOM     58  C   UNL A   1      37.980  31.557  31.797  1.00  0.00     0.074 A 
ATOM     59  C   UNL A   1      42.445  29.606  35.864  1.00  0.00     0.029 A 
ATOM     60  N   UNL A   1      41.163  29.918  34.074  1.00  0.00    -0.354 N 
ATOM     61  N   UNL A   1      38.948  31.110  32.561  1.00  0.00    -0.248 NA
ATOM     62  C   UNL A   1      37.048  32.461  32.487  1.00  0.00     0.031 C 
ATOM     63  C   UNL A   1      41.414  30.487  36.207  1.00  0.00     0.029 A 
ATOM     64  C   UNL A   1      40.639  30.712  35.081  1.00  0.00     0.049 A 
ATOM     65  H   UNL A   1      40.802  29.852  33.161  1.00  0.00     0.167 HD
ATOM     66  C   UNL A   1      38.773  31.721  33.798  1.00  0.00     0.074 A 
ATOM     67  C   UNL A   1      37.613  32.576  33.679  1.00  0.00     0.031 C 
ATOM     68  C   UNL A   1      39.507  31.589  34.932  1.00  0.00     0.037 A 
BRANCH  55  69
ATOM     69  C   UNL A   1      44.248  27.665  34.399  1.00  0.00     0.064 A 
ATOM     70  C   UNL A   1      45.503  28.294  34.419  1.00  0.00     0.173 A 
ATOM     71  C   UNL A   1      44.130  26.419  35.032  1.00  0.00     0.173 A 
ATOM     72  F   UNL A   1      45.675  29.478  33.812  1.00  0.00    -0.203 F 
ATOM     73  C   UNL A   1      46.598  27.689  35.030  1.00  0.00     0.198 A 
ATOM     74  C   UNL A   1      45.219  25.833  35.672  1.00  0.00     0.198 A 
ATOM     75  F   UNL A   1      42.954  25.774  35.042  1.00  0.00    -0.203 F 
ATOM     76  F   UNL A   1      47.798  28.287  34.996  1.00  0.00    -0.200 F 
ATOM     77  C   UNL A   1      46.453  26.465  35.665  1.00  0.00     0.200 A 
ATOM     78  F   UNL A   1      45.073  24.656  36.296  1.00  0.00    -0.200 F 
ATOM     79  F   UNL A   1      47.505  25.890  36.265  1.00  0.00    -0.200 F 
ENDBRANCH  55  69
BRANCH  56  80
ATOM     80  C   UNL A   1      36.554  31.946  29.658  1.00  0.00     0.064 A 
ATOM     81  C   UNL A   1      35.450  31.198  29.224  1.00  0.00     0.173 A 
ATOM     82  C   UNL A   1      36.567  33.316  29.360  1.00  0.00     0.173 A 
ATOM     83  F   UNL A   1      35.399  29.879  29.462  1.00  0.00    -0.203 F 
ATOM     84  C   UNL A   1      34.429  31.785  28.477  1.00  0.00     0.198 A 
ATOM     85  C   UNL A   1      35.528  33.909  28.646  1.00  0.00     0.198 A 
ATOM     86  F   UNL A   1      37.598  34.080  29.749  1.00  0.00    -0.203 F 
ATOM     87  F   UNL A   1      33.430  31.028  28.005  1.00  0.00    -0.200 F 
ATOM     88  C   UNL A   1      34.468  33.141  28.190  1.00  0.00     0.200 A 
ATOM     89  F   UNL A   1      35.564  35.222  28.382  1.00  0.00    -0.200 F 
ATOM     90  F   UNL A   1      33.495  33.701  27.459  1.00  0.00    -0.200 F 
ENDBRANCH  56  80
BRANCH  68  91
ATOM     91  C   UNL A   1      39.139  32.460  36.102  1.00  0.00     0.064 A 
ATOM     92  C   UNL A   1      38.262  32.031  37.109  1.00  0.00     0.173 A 
ATOM     93  C   UNL A   1      39.696  33.743  36.222  1.00  0.00     0.173 A 
ATOM     94  F   UNL A   1      37.694  30.818  37.039  1.00  0.00    -0.203 F 
ATOM     95  C   UNL A   1      37.919  32.872  38.165  1.00  0.00     0.198 A 
ATOM     96  C   UNL A   1      39.384  34.565  37.301  1.00  0.00     0.198 A 
ATOM     97  F   UNL A   1      40.553  34.200  35.296  1.00  0.00    -0.203 F 
ATOM     98  F   UNL A   1      37.024  32.467  39.077  1.00  0.00    -0.200 F 
ATOM     99  C   UNL A   1      38.484  34.135  38.263  1.00  0.00     0.200 A 
ATOM    100  F   UNL A   1      39.948  35.776  37.406  1.00  0.00    -0.200 F 
ATOM    101  F   UNL A   1      38.154  34.941  39.282  1.00  0.00    -0.200 F 
ENDBRANCH  68  91
ENDBRANCH  42  43
ENDBRANCH  35  37
ENDBRANCH  34  35
ENDBRANCH  33  34
ENDBRANCH  32  33
ENDBRANCH  31  32
ENDBRANCH  30  31
ENDBRANCH  29  30
ENDBRANCH   1  29
TORSDOF 23
ENDMDL
