MODEL 1
REMARK VINA RESULT:     -12.3      0.000      0.000
REMARK SMILES Cc1coc2cc3c(cc12)[C@@H](C)[C@H](CCC(=O)N[C@@H](Cc1c[nH]c2ccccc12)C(=O)OCCOCCOCCOCCOC(=O)c1ccc(-c2c4nc(c(-c5c(F)c(F)c(F)c(F)c5F)c5ccc([nH]5)c(-c5c(F)c(F)c(F)c(F)c5F)c5nc(c(-c6c(F)c(F)c(F)c(F)c6F)c6ccc2[nH]6)C=C5)C=C4)cc1)C(=O)O3
REMARK SMILES IDX 37 1 36 2 35 3 34 4 33 5 32 6 30 7 31 8 19 9 18 10 16 11
REMARK SMILES IDX 17 12 15 14 14 15 13 16 1 17 2 18 3 19 10 20 4 21 5 22 9 23
REMARK SMILES IDX 6 24 8 25 7 26 11 27 112 28 12 29 110 30 111 31 20 32 21 33
REMARK SMILES IDX 22 34 29 35 23 36 24 37 28 38 25 40 27 41 26 42 38 43 39 44
REMARK SMILES IDX 40 45 41 46 42 47 43 48 44 49 45 50 46 51 47 52 48 53 109 54
REMARK SMILES IDX 49 55 108 56 50 57 51 58 52 59 102 60 53 61 107 62 101 63
REMARK SMILES IDX 103 64 54 65 106 66 100 67 99 68 55 70 87 71 67 72 86 73
REMARK SMILES IDX 68 74 71 75 85 76 104 77 69 78 70 79 84 81 105 82 72 83
REMARK SMILES IDX 56 84 57 85 65 86 58 87 59 88 63 89 66 90 60 91 61 92 64 93
REMARK SMILES IDX 62 94 88 95 89 96 97 97 90 98 91 99 95 100 98 101 92 102
REMARK SMILES IDX 93 103 96 104 94 105 73 106 74 107 82 108 75 109 76 110
REMARK SMILES IDX 80 111 83 112 77 113 78 114 81 115 79 116
REMARK H PARENT 18 13 23 39 103 69 71 80
REMARK Flexibility Score: inf
ROOT
ATOM      1  C   UNL A   1      36.698  21.712  24.430  1.00  0.00     0.188 C 
ENDROOT
BRANCH   1   2
ATOM      2  C   UNL A   1      35.806  22.608  25.291  1.00  0.00     0.188 C 
BRANCH   2   3
ATOM      3  O   UNL A   1      35.053  21.949  26.311  1.00  0.00    -0.376 OA
BRANCH   3   4
ATOM      4  C   UNL A   1      34.388  22.778  27.253  1.00  0.00     0.202 C 
BRANCH   4   5
ATOM      5  C   UNL A   1      32.854  22.823  27.265  1.00  0.00     0.261 C 
BRANCH   5   6
ATOM      6  O   UNL A   1      32.179  22.153  26.184  1.00  0.00    -0.462 OA
BRANCH   6   7
ATOM      7  C   UNL A   1      31.576  22.972  25.284  1.00  0.00     0.329 C 
ATOM      8  O   UNL A   1      30.691  23.781  25.559  1.00  0.00    -0.250 OA
BRANCH   7   9
ATOM      9  C   UNL A   1      32.052  22.754  23.701  1.00  0.00     0.196 C 
BRANCH   9  10
ATOM     10  N   UNL A   1      32.263  24.099  22.189  1.00  0.00    -0.342 N 
ATOM     11  C   UNL A   1      32.730  25.250  21.510  1.00  0.00     0.220 C 
ATOM     12  O   UNL A   1      32.406  25.357  20.327  1.00  0.00    -0.275 OA
ATOM     13  H   UNL A   1      31.674  23.706  21.506  1.00  0.00     0.164 HD
BRANCH  11  14
ATOM     14  C   UNL A   1      33.675  26.232  22.127  1.00  0.00     0.101 C 
BRANCH  14  15
ATOM     15  C   UNL A   1      33.003  27.562  22.126  1.00  0.00     0.026 C 
BRANCH  15  16
ATOM     16  C   UNL A   1      32.193  27.596  23.411  1.00  0.00     0.107 C 
ATOM     17  C   UNL A   1      35.151  32.110  29.188  1.00  0.00     0.048 C 
ATOM     18  C   UNL A   1      33.983  32.404  28.325  1.00  0.00    -0.005 A 
ATOM     19  C   UNL A   1      33.253  33.572  28.323  1.00  0.00     0.199 A 
ATOM     20  C   UNL A   1      33.370  31.533  27.355  1.00  0.00     0.024 A 
ATOM     21  O   UNL A   1      32.187  33.475  27.503  1.00  0.00    -0.464 OA
ATOM     22  C   UNL A   1      32.206  32.230  26.940  1.00  0.00     0.137 A 
ATOM     23  C   UNL A   1      33.757  30.243  26.842  1.00  0.00     0.020 A 
ATOM     24  C   UNL A   1      31.169  31.813  26.097  1.00  0.00     0.095 A 
ATOM     25  C   UNL A   1      32.862  29.660  25.968  1.00  0.00    -0.001 A 
ATOM     26  C   UNL A   1      31.410  30.523  25.713  1.00  0.00     0.138 A 
ATOM     27  C   UNL A   1      33.383  28.168  24.881  1.00  0.00     0.034 C 
ATOM     28  O   UNL A   1      30.420  30.031  24.274  1.00  0.00    -0.426 OA
ATOM     29  C   UNL A   1      34.020  26.928  25.524  1.00  0.00     0.014 C 
ATOM     30  C   UNL A   1      30.594  28.697  23.107  1.00  0.00     0.314 C 
ATOM     31  O   UNL A   1      29.826  28.611  22.144  1.00  0.00    -0.251 OA
ENDBRANCH  15  16
ENDBRANCH  14  15
ENDBRANCH  11  14
ENDBRANCH   9  10
BRANCH   9  32
ATOM     32  C   UNL A   1      32.825  21.246  24.011  1.00  0.00     0.074 C 
BRANCH  32  33
ATOM     33  C   UNL A   1      32.688  19.897  23.338  1.00  0.00    -0.020 A 
ATOM     34  C   UNL A   1      31.891  19.389  22.337  1.00  0.00     0.087 A 
ATOM     35  C   UNL A   1      33.506  18.779  23.771  1.00  0.00     0.003 A 
ATOM     36  N   UNL A   1      32.029  18.021  22.308  1.00  0.00    -0.361 N 
ATOM     37  C   UNL A   1      33.025  17.624  23.165  1.00  0.00     0.046 A 
ATOM     38  C   UNL A   1      34.597  18.660  24.661  1.00  0.00     0.010 A 
ATOM     39  H   UNL A   1      31.491  17.413  21.750  1.00  0.00     0.166 HD
ATOM     40  C   UNL A   1      33.530  16.350  23.454  1.00  0.00     0.026 A 
ATOM     41  C   UNL A   1      35.158  17.403  24.913  1.00  0.00     0.001 A 
ATOM     42  C   UNL A   1      34.618  16.263  24.329  1.00  0.00     0.002 A 
ENDBRANCH  32  33
ENDBRANCH   9  32
ENDBRANCH   7   9
ENDBRANCH   6   7
ENDBRANCH   5   6
ENDBRANCH   4   5
ENDBRANCH   3   4
ENDBRANCH   2   3
ENDBRANCH   1   2
BRANCH   1  43
ATOM     43  O   UNL A   1      37.557  20.926  25.254  1.00  0.00    -0.377 OA
BRANCH  43  44
ATOM     44  C   UNL A   1      38.751  21.543  25.714  1.00  0.00     0.188 C 
BRANCH  44  45
ATOM     45  C   UNL A   1      39.905  20.634  26.143  1.00  0.00     0.188 C 
BRANCH  45  46
ATOM     46  O   UNL A   1      40.986  21.267  26.818  1.00  0.00    -0.376 OA
BRANCH  46  47
ATOM     47  C   UNL A   1      41.645  22.338  26.137  1.00  0.00     0.202 C 
BRANCH  47  48
ATOM     48  C   UNL A   1      41.684  23.669  26.903  1.00  0.00     0.261 C 
BRANCH  48  49
ATOM     49  O   UNL A   1      40.406  23.897  27.518  1.00  0.00    -0.460 OA
BRANCH  49  50
ATOM     50  C   UNL A   1      39.595  24.805  26.924  1.00  0.00     0.338 C 
ATOM     51  O   UNL A   1      38.693  24.602  26.133  1.00  0.00    -0.246 OA
BRANCH  50  52
ATOM     52  C   UNL A   1      39.771  26.051  27.696  1.00  0.00     0.060 A 
ATOM     53  C   UNL A   1      40.551  27.102  27.205  1.00  0.00     0.016 A 
ATOM     54  C   UNL A   1      39.334  26.039  29.028  1.00  0.00     0.016 A 
ATOM     55  C   UNL A   1      40.939  28.117  28.071  1.00  0.00     0.010 A 
ATOM     56  C   UNL A   1      39.747  27.040  29.899  1.00  0.00     0.010 A 
ATOM     57  C   UNL A   1      40.556  28.074  29.422  1.00  0.00    -0.014 A 
BRANCH  57  58
ATOM     58  C   UNL A   1      40.857  29.244  30.248  1.00  0.00     0.031 A 
ATOM     59  C   UNL A   1      39.671  30.069  30.594  1.00  0.00     0.074 A 
ATOM     60  C   UNL A   1      42.034  29.516  30.846  1.00  0.00     0.049 A 
ATOM     61  N   UNL A   1      39.462  31.324  30.364  1.00  0.00    -0.248 NA
ATOM     62  C   UNL A   1      38.554  29.372  31.252  1.00  0.00     0.031 C 
ATOM     63  C   UNL A   1      43.184  28.628  30.956  1.00  0.00     0.029 A 
ATOM     64  N   UNL A   1      42.413  30.623  31.560  1.00  0.00    -0.354 N 
ATOM     65  C   UNL A   1      38.259  31.615  30.998  1.00  0.00     0.074 A 
ATOM     66  C   UNL A   1      37.686  30.364  31.426  1.00  0.00     0.031 C 
ATOM     67  C   UNL A   1      44.089  29.173  31.799  1.00  0.00     0.029 A 
ATOM     68  C   UNL A   1      43.614  30.476  32.238  1.00  0.00     0.049 A 
ATOM     69  H   UNL A   1      41.879  31.450  31.591  1.00  0.00     0.167 HD
ATOM     70  C   UNL A   1      37.900  32.877  31.342  1.00  0.00     0.037 A 
ATOM     71  C   UNL A   1      44.175  31.323  33.136  1.00  0.00     0.037 A 
ATOM     72  C   UNL A   1      38.621  33.885  30.625  1.00  0.00     0.049 A 
ATOM     73  C   UNL A   1      43.516  32.642  33.029  1.00  0.00     0.074 A 
ATOM     74  C   UNL A   1      38.730  34.255  29.299  1.00  0.00     0.029 A 
ATOM     75  N   UNL A   1      39.635  34.525  31.286  1.00  0.00    -0.354 N 
ATOM     76  N   UNL A   1      43.694  33.485  32.054  1.00  0.00    -0.248 NA
ATOM     77  C   UNL A   1      42.407  32.951  33.921  1.00  0.00     0.031 C 
ATOM     78  C   UNL A   1      40.037  34.808  29.159  1.00  0.00     0.029 A 
ATOM     79  C   UNL A   1      40.663  34.731  30.400  1.00  0.00     0.049 A 
ATOM     80  H   UNL A   1      39.628  34.792  32.234  1.00  0.00     0.167 HD
ATOM     81  C   UNL A   1      42.500  34.181  31.971  1.00  0.00     0.074 A 
ATOM     82  C   UNL A   1      41.823  33.933  33.231  1.00  0.00     0.031 C 
ATOM     83  C   UNL A   1      42.054  34.641  30.768  1.00  0.00     0.037 A 
BRANCH  70  84
ATOM     84  C   UNL A   1      37.117  33.161  32.590  1.00  0.00     0.064 A 
ATOM     85  C   UNL A   1      35.942  33.926  32.543  1.00  0.00     0.173 A 
ATOM     86  C   UNL A   1      37.633  32.889  33.878  1.00  0.00     0.173 A 
ATOM     87  F   UNL A   1      35.422  34.296  31.365  1.00  0.00    -0.203 F 
ATOM     88  C   UNL A   1      35.320  34.377  33.711  1.00  0.00     0.198 A 
ATOM     89  C   UNL A   1      36.981  33.292  35.040  1.00  0.00     0.198 A 
ATOM     90  F   UNL A   1      38.828  32.305  34.041  1.00  0.00    -0.203 F 
ATOM     91  F   UNL A   1      34.244  35.172  33.626  1.00  0.00    -0.200 F 
ATOM     92  C   UNL A   1      35.832  34.050  34.956  1.00  0.00     0.200 A 
ATOM     93  F   UNL A   1      37.510  32.991  36.234  1.00  0.00    -0.200 F 
ATOM     94  F   UNL A   1      35.246  34.502  36.073  1.00  0.00    -0.200 F 
ENDBRANCH  70  84
BRANCH  71  95
ATOM     95  C   UNL A   1      45.175  31.038  34.194  1.00  0.00     0.064 A 
ATOM     96  C   UNL A   1      44.793  30.593  35.471  1.00  0.00     0.173 A 
ATOM     97  C   UNL A   1      46.552  30.989  33.906  1.00  0.00     0.173 A 
ATOM     98  F   UNL A   1      43.497  30.553  35.816  1.00  0.00    -0.203 F 
ATOM     99  C   UNL A   1      45.731  30.125  36.398  1.00  0.00     0.198 A 
ATOM    100  C   UNL A   1      47.490  30.544  34.838  1.00  0.00     0.198 A 
ATOM    101  F   UNL A   1      47.010  31.289  32.682  1.00  0.00    -0.203 F 
ATOM    102  F   UNL A   1      45.321  29.652  37.584  1.00  0.00    -0.200 F 
ATOM    103  C   UNL A   1      47.079  30.101  36.080  1.00  0.00     0.200 A 
ATOM    104  F   UNL A   1      48.787  30.497  34.503  1.00  0.00    -0.200 F 
ATOM    105  F   UNL A   1      47.973  29.613  36.950  1.00  0.00    -0.200 F 
ENDBRANCH  71  95
BRANCH  83 106
ATOM    106  C   UNL A   1      43.096  34.807  29.706  1.00  0.00     0.064 A 
ATOM    107  C   UNL A   1      43.583  33.751  28.916  1.00  0.00     0.173 A 
ATOM    108  C   UNL A   1      43.639  36.081  29.500  1.00  0.00     0.173 A 
ATOM    109  F   UNL A   1      43.042  32.526  29.000  1.00  0.00    -0.203 F 
ATOM    110  C   UNL A   1      44.643  33.948  28.035  1.00  0.00     0.198 A 
ATOM    111  C   UNL A   1      44.673  36.282  28.591  1.00  0.00     0.198 A 
ATOM    112  F   UNL A   1      43.166  37.133  30.187  1.00  0.00    -0.203 F 
ATOM    113  F   UNL A   1      45.140  32.914  27.339  1.00  0.00    -0.200 F 
ATOM    114  C   UNL A   1      45.195  35.210  27.883  1.00  0.00     0.200 A 
ATOM    115  F   UNL A   1      45.171  37.513  28.410  1.00  0.00    -0.200 F 
ATOM    116  F   UNL A   1      46.223  35.401  27.043  1.00  0.00    -0.200 F 
ENDBRANCH  83 106
ENDBRANCH  57  58
ENDBRANCH  50  52
ENDBRANCH  49  50
ENDBRANCH  48  49
ENDBRANCH  47  48
ENDBRANCH  46  47
ENDBRANCH  45  46
ENDBRANCH  44  45
ENDBRANCH  43  44
ENDBRANCH   1  43
TORSDOF 26
ENDMDL
MODEL 2
REMARK VINA RESULT:     -11.5      1.604      6.255
REMARK SMILES Cc1coc2cc3c(cc12)[C@@H](C)[C@H](CCC(=O)N[C@@H](Cc1c[nH]c2ccccc12)C(=O)OCCOCCOCCOCCOC(=O)c1ccc(-c2c4nc(c(-c5c(F)c(F)c(F)c(F)c5F)c5ccc([nH]5)c(-c5c(F)c(F)c(F)c(F)c5F)c5nc(c(-c6c(F)c(F)c(F)c(F)c6F)c6ccc2[nH]6)C=C5)C=C4)cc1)C(=O)O3
REMARK SMILES IDX 37 1 36 2 35 3 34 4 33 5 32 6 30 7 31 8 19 9 18 10 16 11
REMARK SMILES IDX 17 12 15 14 14 15 13 16 1 17 2 18 3 19 10 20 4 21 5 22 9 23
REMARK SMILES IDX 6 24 8 25 7 26 11 27 112 28 12 29 110 30 111 31 20 32 21 33
REMARK SMILES IDX 22 34 29 35 23 36 24 37 28 38 25 40 27 41 26 42 38 43 39 44
REMARK SMILES IDX 40 45 41 46 42 47 43 48 44 49 45 50 46 51 47 52 48 53 109 54
REMARK SMILES IDX 49 55 108 56 50 57 51 58 52 59 102 60 53 61 107 62 101 63
REMARK SMILES IDX 103 64 54 65 106 66 100 67 99 68 55 70 87 71 67 72 86 73
REMARK SMILES IDX 68 74 71 75 85 76 104 77 69 78 70 79 84 81 105 82 72 83
REMARK SMILES IDX 56 84 57 85 65 86 58 87 59 88 63 89 66 90 60 91 61 92 64 93
REMARK SMILES IDX 62 94 88 95 89 96 97 97 90 98 91 99 95 100 98 101 92 102
REMARK SMILES IDX 93 103 96 104 94 105 73 106 74 107 82 108 75 109 76 110
REMARK SMILES IDX 80 111 83 112 77 113 78 114 81 115 79 116
REMARK H PARENT 18 13 23 39 103 69 71 80
REMARK Flexibility Score: inf
ROOT
ATOM      1  C   UNL A   1      36.264  21.611  24.615  1.00  0.00     0.188 C 
ENDROOT
BRANCH   1   2
ATOM      2  C   UNL A   1      35.740  22.437  25.791  1.00  0.00     0.188 C 
BRANCH   2   3
ATOM      3  O   UNL A   1      34.850  21.763  26.683  1.00  0.00    -0.376 OA
BRANCH   3   4
ATOM      4  C   UNL A   1      34.158  22.569  27.626  1.00  0.00     0.202 C 
BRANCH   4   5
ATOM      5  C   UNL A   1      32.624  22.605  27.603  1.00  0.00     0.261 C 
BRANCH   5   6
ATOM      6  O   UNL A   1      31.980  22.021  26.456  1.00  0.00    -0.462 OA
BRANCH   6   7
ATOM      7  C   UNL A   1      31.213  22.874  25.728  1.00  0.00     0.329 C 
ATOM      8  O   UNL A   1      30.287  23.543  26.186  1.00  0.00    -0.250 OA
BRANCH   7   9
ATOM      9  C   UNL A   1      31.541  22.902  24.094  1.00  0.00     0.196 C 
BRANCH   9  10
ATOM     10  N   UNL A   1      31.425  24.425  22.751  1.00  0.00    -0.342 N 
ATOM     11  C   UNL A   1      31.858  25.521  21.967  1.00  0.00     0.220 C 
ATOM     12  O   UNL A   1      31.053  25.959  21.145  1.00  0.00    -0.275 OA
ATOM     13  H   UNL A   1      30.483  24.359  22.475  1.00  0.00     0.164 HD
BRANCH  11  14
ATOM     14  C   UNL A   1      33.254  26.057  22.016  1.00  0.00     0.101 C 
BRANCH  14  15
ATOM     15  C   UNL A   1      33.167  27.503  22.366  1.00  0.00     0.026 C 
BRANCH  15  16
ATOM     16  C   UNL A   1      32.421  27.544  23.690  1.00  0.00     0.107 C 
ATOM     17  C   UNL A   1      36.326  30.876  29.702  1.00  0.00     0.048 C 
ATOM     18  C   UNL A   1      35.198  31.451  28.933  1.00  0.00    -0.005 A 
ATOM     19  C   UNL A   1      34.685  32.721  29.079  1.00  0.00     0.199 A 
ATOM     20  C   UNL A   1      34.409  30.801  27.919  1.00  0.00     0.024 A 
ATOM     21  O   UNL A   1      33.590  32.890  28.310  1.00  0.00    -0.464 OA
ATOM     22  C   UNL A   1      33.371  31.725  27.633  1.00  0.00     0.137 A 
ATOM     23  C   UNL A   1      34.545  29.522  27.267  1.00  0.00     0.020 A 
ATOM     24  C   UNL A   1      32.248  31.579  26.810  1.00  0.00     0.095 A 
ATOM     25  C   UNL A   1      33.532  29.192  26.390  1.00  0.00    -0.001 A 
ATOM     26  C   UNL A   1      32.245  30.313  26.294  1.00  0.00     0.138 A 
ATOM     27  C   UNL A   1      33.745  27.752  25.143  1.00  0.00     0.034 C 
ATOM     28  O   UNL A   1      31.135  30.145  24.869  1.00  0.00    -0.426 OA
ATOM     29  C   UNL A   1      34.177  26.362  25.632  1.00  0.00     0.014 C 
ATOM     30  C   UNL A   1      31.031  28.926  23.575  1.00  0.00     0.314 C 
ATOM     31  O   UNL A   1      30.226  29.072  22.649  1.00  0.00    -0.251 OA
ENDBRANCH  15  16
ENDBRANCH  14  15
ENDBRANCH  11  14
ENDBRANCH   9  10
BRANCH   9  32
ATOM     32  C   UNL A   1      32.521  21.485  24.141  1.00  0.00     0.074 C 
BRANCH  32  33
ATOM     33  C   UNL A   1      32.525  20.245  23.273  1.00  0.00    -0.020 A 
ATOM     34  C   UNL A   1      31.917  19.886  22.091  1.00  0.00     0.087 A 
ATOM     35  C   UNL A   1      33.280  19.074  23.678  1.00  0.00     0.003 A 
ATOM     36  N   UNL A   1      32.085  18.536  21.895  1.00  0.00    -0.361 N 
ATOM     37  C   UNL A   1      32.930  18.018  22.845  1.00  0.00     0.046 A 
ATOM     38  C   UNL A   1      34.209  18.826  24.714  1.00  0.00     0.010 A 
ATOM     39  H   UNL A   1      31.660  18.014  21.176  1.00  0.00     0.166 HD
ATOM     40  C   UNL A   1      33.404  16.714  23.034  1.00  0.00     0.026 A 
ATOM     41  C   UNL A   1      34.743  17.544  24.879  1.00  0.00     0.001 A 
ATOM     42  C   UNL A   1      34.331  16.499  24.059  1.00  0.00     0.002 A 
ENDBRANCH  32  33
ENDBRANCH   9  32
ENDBRANCH   7   9
ENDBRANCH   6   7
ENDBRANCH   5   6
ENDBRANCH   4   5
ENDBRANCH   3   4
ENDBRANCH   2   3
ENDBRANCH   1   2
BRANCH   1  43
ATOM     43  O   UNL A   1      37.369  20.808  25.023  1.00  0.00    -0.377 OA
BRANCH  43  44
ATOM     44  C   UNL A   1      38.502  21.487  25.547  1.00  0.00     0.188 C 
BRANCH  44  45
ATOM     45  C   UNL A   1      39.636  20.640  26.128  1.00  0.00     0.188 C 
BRANCH  45  46
ATOM     46  O   UNL A   1      40.283  21.162  27.282  1.00  0.00    -0.376 OA
BRANCH  46  47
ATOM     47  C   UNL A   1      41.300  22.146  27.073  1.00  0.00     0.202 C 
BRANCH  47  48
ATOM     48  C   UNL A   1      40.939  23.563  27.544  1.00  0.00     0.261 C 
BRANCH  48  49
ATOM     49  O   UNL A   1      40.880  24.439  26.406  1.00  0.00    -0.460 OA
BRANCH  49  50
ATOM     50  C   UNL A   1      41.976  25.196  26.160  1.00  0.00     0.338 C 
ATOM     51  O   UNL A   1      42.723  25.144  25.201  1.00  0.00    -0.246 OA
BRANCH  50  52
ATOM     52  C   UNL A   1      41.880  26.337  27.091  1.00  0.00     0.060 A 
ATOM     53  C   UNL A   1      40.982  27.383  26.862  1.00  0.00     0.016 A 
ATOM     54  C   UNL A   1      42.883  26.447  28.064  1.00  0.00     0.016 A 
ATOM     55  C   UNL A   1      41.127  28.566  27.577  1.00  0.00     0.010 A 
ATOM     56  C   UNL A   1      43.044  27.641  28.757  1.00  0.00     0.010 A 
ATOM     57  C   UNL A   1      42.171  28.703  28.507  1.00  0.00    -0.014 A 
BRANCH  57  58
ATOM     58  C   UNL A   1      42.181  29.905  29.341  1.00  0.00     0.031 A 
ATOM     59  C   UNL A   1      43.194  30.916  28.945  1.00  0.00     0.074 A 
ATOM     60  C   UNL A   1      41.268  30.233  30.277  1.00  0.00     0.049 A 
ATOM     61  N   UNL A   1      44.149  31.427  29.652  1.00  0.00    -0.248 NA
ATOM     62  C   UNL A   1      43.149  31.380  27.549  1.00  0.00     0.031 C 
ATOM     63  C   UNL A   1      39.993  29.573  30.524  1.00  0.00     0.029 A 
ATOM     64  N   UNL A   1      41.256  31.292  31.148  1.00  0.00    -0.354 N 
ATOM     65  C   UNL A   1      44.719  32.403  28.842  1.00  0.00     0.074 A 
ATOM     66  C   UNL A   1      44.150  32.255  27.527  1.00  0.00     0.031 C 
ATOM     67  C   UNL A   1      39.268  30.311  31.392  1.00  0.00     0.029 A 
ATOM     68  C   UNL A   1      40.051  31.463  31.814  1.00  0.00     0.049 A 
ATOM     69  H   UNL A   1      42.033  31.879  31.290  1.00  0.00     0.167 HD
ATOM     70  C   UNL A   1      45.458  33.427  29.339  1.00  0.00     0.037 A 
ATOM     71  C   UNL A   1      39.679  32.492  32.616  1.00  0.00     0.037 A 
ATOM     72  C   UNL A   1      45.957  33.175  30.657  1.00  0.00     0.049 A 
ATOM     73  C   UNL A   1      40.884  33.252  33.012  1.00  0.00     0.074 A 
ATOM     74  C   UNL A   1      46.818  32.253  31.219  1.00  0.00     0.029 A 
ATOM     75  N   UNL A   1      45.316  33.787  31.701  1.00  0.00    -0.354 N 
ATOM     76  N   UNL A   1      41.773  32.843  33.869  1.00  0.00    -0.248 NA
ATOM     77  C   UNL A   1      41.265  34.424  32.235  1.00  0.00     0.031 C 
ATOM     78  C   UNL A   1      46.382  32.090  32.567  1.00  0.00     0.029 A 
ATOM     79  C   UNL A   1      45.269  32.905  32.752  1.00  0.00     0.049 A 
ATOM     80  H   UNL A   1      44.952  34.702  31.698  1.00  0.00     0.167 HD
ATOM     81  C   UNL A   1      42.954  33.438  33.460  1.00  0.00     0.074 A 
ATOM     82  C   UNL A   1      42.553  34.514  32.572  1.00  0.00     0.031 C 
ATOM     83  C   UNL A   1      44.146  32.805  33.650  1.00  0.00     0.037 A 
BRANCH  70  84
ATOM     84  C   UNL A   1      45.426  34.794  28.721  1.00  0.00     0.064 A 
ATOM     85  C   UNL A   1      46.599  35.392  28.239  1.00  0.00     0.173 A 
ATOM     86  C   UNL A   1      44.290  35.630  28.809  1.00  0.00     0.173 A 
ATOM     87  F   UNL A   1      47.744  34.697  28.191  1.00  0.00    -0.203 F 
ATOM     88  C   UNL A   1      46.628  36.737  27.859  1.00  0.00     0.198 A 
ATOM     89  C   UNL A   1      44.307  36.954  28.378  1.00  0.00     0.198 A 
ATOM     90  F   UNL A   1      43.161  35.214  29.400  1.00  0.00    -0.203 F 
ATOM     91  F   UNL A   1      47.785  37.296  27.478  1.00  0.00    -0.200 F 
ATOM     92  C   UNL A   1      45.480  37.512  27.917  1.00  0.00     0.200 A 
ATOM     93  F   UNL A   1      43.193  37.695  28.472  1.00  0.00    -0.200 F 
ATOM     94  F   UNL A   1      45.515  38.807  27.573  1.00  0.00    -0.200 F 
ENDBRANCH  70  84
BRANCH  71  95
ATOM     95  C   UNL A   1      38.316  32.955  32.975  1.00  0.00     0.064 A 
ATOM     96  C   UNL A   1      37.889  33.027  34.311  1.00  0.00     0.173 A 
ATOM     97  C   UNL A   1      37.469  33.548  32.019  1.00  0.00     0.173 A 
ATOM     98  F   UNL A   1      38.657  32.536  35.296  1.00  0.00    -0.203 F 
ATOM     99  C   UNL A   1      36.691  33.655  34.668  1.00  0.00     0.198 A 
ATOM    100  C   UNL A   1      36.264  34.155  32.372  1.00  0.00     0.198 A 
ATOM    101  F   UNL A   1      37.835  33.629  30.732  1.00  0.00    -0.203 F 
ATOM    102  F   UNL A   1      36.347  33.757  35.960  1.00  0.00    -0.200 F 
ATOM    103  C   UNL A   1      35.880  34.219  33.697  1.00  0.00     0.200 A 
ATOM    104  F   UNL A   1      35.506  34.724  31.424  1.00  0.00    -0.200 F 
ATOM    105  F   UNL A   1      34.754  34.860  34.041  1.00  0.00    -0.200 F 
ENDBRANCH  71  95
BRANCH  83 106
ATOM    106  C   UNL A   1      44.164  31.755  34.718  1.00  0.00     0.064 A 
ATOM    107  C   UNL A   1      44.489  32.012  36.061  1.00  0.00     0.173 A 
ATOM    108  C   UNL A   1      43.866  30.435  34.359  1.00  0.00     0.173 A 
ATOM    109  F   UNL A   1      44.696  33.268  36.489  1.00  0.00    -0.203 F 
ATOM    110  C   UNL A   1      44.613  30.971  36.977  1.00  0.00     0.198 A 
ATOM    111  C   UNL A   1      43.955  29.402  35.286  1.00  0.00     0.198 A 
ATOM    112  F   UNL A   1      43.492  30.148  33.101  1.00  0.00    -0.203 F 
ATOM    113  F   UNL A   1      44.990  31.228  38.239  1.00  0.00    -0.200 F 
ATOM    114  C   UNL A   1      44.358  29.667  36.586  1.00  0.00     0.200 A 
ATOM    115  F   UNL A   1      43.659  28.149  34.916  1.00  0.00    -0.200 F 
ATOM    116  F   UNL A   1      44.487  28.661  37.463  1.00  0.00    -0.200 F 
ENDBRANCH  83 106
ENDBRANCH  57  58
ENDBRANCH  50  52
ENDBRANCH  49  50
ENDBRANCH  48  49
ENDBRANCH  47  48
ENDBRANCH  46  47
ENDBRANCH  45  46
ENDBRANCH  44  45
ENDBRANCH  43  44
ENDBRANCH   1  43
TORSDOF 26
ENDMDL
MODEL 3
REMARK VINA RESULT:     -11.1      6.160     10.159
REMARK SMILES Cc1coc2cc3c(cc12)[C@@H](C)[C@H](CCC(=O)N[C@@H](Cc1c[nH]c2ccccc12)C(=O)OCCOCCOCCOCCOC(=O)c1ccc(-c2c4nc(c(-c5c(F)c(F)c(F)c(F)c5F)c5ccc([nH]5)c(-c5c(F)c(F)c(F)c(F)c5F)c5nc(c(-c6c(F)c(F)c(F)c(F)c6F)c6ccc2[nH]6)C=C5)C=C4)cc1)C(=O)O3
REMARK SMILES IDX 37 1 36 2 35 3 34 4 33 5 32 6 30 7 31 8 19 9 18 10 16 11
REMARK SMILES IDX 17 12 15 14 14 15 13 16 1 17 2 18 3 19 10 20 4 21 5 22 9 23
REMARK SMILES IDX 6 24 8 25 7 26 11 27 112 28 12 29 110 30 111 31 20 32 21 33
REMARK SMILES IDX 22 34 29 35 23 36 24 37 28 38 25 40 27 41 26 42 38 43 39 44
REMARK SMILES IDX 40 45 41 46 42 47 43 48 44 49 45 50 46 51 47 52 48 53 109 54
REMARK SMILES IDX 49 55 108 56 50 57 51 58 52 59 102 60 53 61 107 62 101 63
REMARK SMILES IDX 103 64 54 65 106 66 100 67 99 68 55 70 87 71 67 72 86 73
REMARK SMILES IDX 68 74 71 75 85 76 104 77 69 78 70 79 84 81 105 82 72 83
REMARK SMILES IDX 56 84 57 85 65 86 58 87 59 88 63 89 66 90 60 91 61 92 64 93
REMARK SMILES IDX 62 94 88 95 89 96 97 97 90 98 91 99 95 100 98 101 92 102
REMARK SMILES IDX 93 103 96 104 94 105 73 106 74 107 82 108 75 109 76 110
REMARK SMILES IDX 80 111 83 112 77 113 78 114 81 115 79 116
REMARK H PARENT 18 13 23 39 103 69 71 80
REMARK Flexibility Score: inf
ROOT
ATOM      1  C   UNL A   1      35.954  21.448  24.735  1.00  0.00     0.188 C 
ENDROOT
BRANCH   1   2
ATOM      2  C   UNL A   1      35.620  22.295  25.964  1.00  0.00     0.188 C 
BRANCH   2   3
ATOM      3  O   UNL A   1      34.862  21.645  26.987  1.00  0.00    -0.376 OA
BRANCH   3   4
ATOM      4  C   UNL A   1      34.278  22.478  27.978  1.00  0.00     0.202 C 
BRANCH   4   5
ATOM      5  C   UNL A   1      32.750  22.579  28.070  1.00  0.00     0.261 C 
BRANCH   5   6
ATOM      6  O   UNL A   1      32.007  22.273  26.875  1.00  0.00    -0.462 OA
BRANCH   6   7
ATOM      7  C   UNL A   1      31.098  23.211  26.504  1.00  0.00     0.329 C 
ATOM      8  O   UNL A   1      30.250  23.695  27.254  1.00  0.00    -0.250 OA
BRANCH   7   9
ATOM      9  C   UNL A   1      31.127  23.626  24.890  1.00  0.00     0.196 C 
BRANCH   9  10
ATOM     10  N   UNL A   1      30.584  25.353  23.962  1.00  0.00    -0.342 N 
ATOM     11  C   UNL A   1      30.720  26.518  23.170  1.00  0.00     0.220 C 
ATOM     12  O   UNL A   1      29.690  27.155  22.951  1.00  0.00    -0.275 OA
ATOM     13  H   UNL A   1      29.638  25.418  24.229  1.00  0.00     0.164 HD
BRANCH  11  14
ATOM     14  C   UNL A   1      32.006  26.910  22.512  1.00  0.00     0.101 C 
BRANCH  14  15
ATOM     15  C   UNL A   1      32.337  28.291  22.963  1.00  0.00     0.026 C 
BRANCH  15  16
ATOM     16  C   UNL A   1      32.061  28.295  24.457  1.00  0.00     0.107 C 
ATOM     17  C   UNL A   1      38.312  29.751  29.074  1.00  0.00     0.048 C 
ATOM     18  C   UNL A   1      37.191  30.667  28.762  1.00  0.00    -0.005 A 
ATOM     19  C   UNL A   1      37.088  31.982  29.159  1.00  0.00     0.199 A 
ATOM     20  C   UNL A   1      35.994  30.366  28.020  1.00  0.00     0.024 A 
ATOM     21  O   UNL A   1      35.894  32.501  28.808  1.00  0.00    -0.464 OA
ATOM     22  C   UNL A   1      35.190  31.527  28.158  1.00  0.00     0.137 A 
ATOM     23  C   UNL A   1      35.596  29.201  27.270  1.00  0.00     0.020 A 
ATOM     24  C   UNL A   1      33.874  31.755  27.742  1.00  0.00     0.095 A 
ATOM     25  C   UNL A   1      34.317  29.236  26.753  1.00  0.00    -0.001 A 
ATOM     26  C   UNL A   1      33.392  30.613  27.166  1.00  0.00     0.138 A 
ATOM     27  C   UNL A   1      33.768  27.988  25.405  1.00  0.00     0.034 C 
ATOM     28  O   UNL A   1      31.900  30.908  26.178  1.00  0.00    -0.426 OA
ATOM     29  C   UNL A   1      33.957  26.480  25.624  1.00  0.00     0.014 C 
ATOM     30  C   UNL A   1      31.102  29.950  24.906  1.00  0.00     0.314 C 
ATOM     31  O   UNL A   1      30.122  30.405  24.309  1.00  0.00    -0.251 OA
ENDBRANCH  15  16
ENDBRANCH  14  15
ENDBRANCH  11  14
ENDBRANCH   9  10
BRANCH   9  32
ATOM     32  C   UNL A   1      32.272  22.409  24.471  1.00  0.00     0.074 C 
BRANCH  32  33
ATOM     33  C   UNL A   1      32.264  21.365  23.374  1.00  0.00    -0.020 A 
ATOM     34  C   UNL A   1      31.929  21.365  22.039  1.00  0.00     0.087 A 
ATOM     35  C   UNL A   1      32.645  19.996  23.667  1.00  0.00     0.003 A 
ATOM     36  N   UNL A   1      31.877  20.065  21.593  1.00  0.00    -0.361 N 
ATOM     37  C   UNL A   1      32.327  19.208  22.566  1.00  0.00     0.046 A 
ATOM     38  C   UNL A   1      33.203  19.364  24.801  1.00  0.00     0.010 A 
ATOM     39  H   UNL A   1      31.563  19.788  20.701  1.00  0.00     0.166 HD
ATOM     40  C   UNL A   1      32.473  17.816  22.564  1.00  0.00     0.026 A 
ATOM     41  C   UNL A   1      33.417  17.981  24.793  1.00  0.00     0.001 A 
ATOM     42  C   UNL A   1      33.040  17.217  23.693  1.00  0.00     0.002 A 
ENDBRANCH  32  33
ENDBRANCH   9  32
ENDBRANCH   7   9
ENDBRANCH   6   7
ENDBRANCH   5   6
ENDBRANCH   4   5
ENDBRANCH   3   4
ENDBRANCH   2   3
ENDBRANCH   1   2
BRANCH   1  43
ATOM     43  O   UNL A   1      36.974  20.500  25.045  1.00  0.00    -0.377 OA
BRANCH  43  44
ATOM     44  C   UNL A   1      38.309  20.983  25.094  1.00  0.00     0.188 C 
BRANCH  44  45
ATOM     45  C   UNL A   1      39.351  20.130  25.821  1.00  0.00     0.188 C 
BRANCH  45  46
ATOM     46  O   UNL A   1      40.253  20.829  26.670  1.00  0.00    -0.376 OA
BRANCH  46  47
ATOM     47  C   UNL A   1      41.538  21.156  26.132  1.00  0.00     0.202 C 
BRANCH  47  48
ATOM     48  C   UNL A   1      42.205  22.393  26.750  1.00  0.00     0.261 C 
BRANCH  48  49
ATOM     49  O   UNL A   1      42.416  23.378  25.725  1.00  0.00    -0.460 OA
BRANCH  49  50
ATOM     50  C   UNL A   1      43.488  23.199  24.917  1.00  0.00     0.338 C 
ATOM     51  O   UNL A   1      43.533  22.624  23.845  1.00  0.00    -0.246 OA
BRANCH  50  52
ATOM     52  C   UNL A   1      44.508  24.148  25.404  1.00  0.00     0.060 A 
ATOM     53  C   UNL A   1      44.408  25.517  25.137  1.00  0.00     0.016 A 
ATOM     54  C   UNL A   1      45.688  23.600  25.925  1.00  0.00     0.016 A 
ATOM     55  C   UNL A   1      45.518  26.328  25.343  1.00  0.00     0.010 A 
ATOM     56  C   UNL A   1      46.806  24.407  26.103  1.00  0.00     0.010 A 
ATOM     57  C   UNL A   1      46.722  25.770  25.804  1.00  0.00    -0.014 A 
BRANCH  57  58
ATOM     58  C   UNL A   1      47.805  26.689  26.152  1.00  0.00     0.031 A 
ATOM     59  C   UNL A   1      48.894  26.760  25.145  1.00  0.00     0.074 A 
ATOM     60  C   UNL A   1      47.805  27.571  27.171  1.00  0.00     0.049 A 
ATOM     61  N   UNL A   1      50.159  26.533  25.300  1.00  0.00    -0.248 NA
ATOM     62  C   UNL A   1      48.496  27.091  23.768  1.00  0.00     0.031 C 
ATOM     63  C   UNL A   1      46.674  27.931  28.017  1.00  0.00     0.029 A 
ATOM     64  N   UNL A   1      48.807  28.400  27.607  1.00  0.00    -0.354 N 
ATOM     65  C   UNL A   1      50.739  26.858  24.079  1.00  0.00     0.074 A 
ATOM     66  C   UNL A   1      49.669  27.082  23.141  1.00  0.00     0.031 C 
ATOM     67  C   UNL A   1      47.008  28.992  28.782  1.00  0.00     0.029 A 
ATOM     68  C   UNL A   1      48.396  29.349  28.531  1.00  0.00     0.049 A 
ATOM     69  H   UNL A   1      49.737  28.328  27.292  1.00  0.00     0.167 HD
ATOM     70  C   UNL A   1      52.058  27.150  23.951  1.00  0.00     0.037 A 
ATOM     71  C   UNL A   1      49.106  30.391  29.030  1.00  0.00     0.037 A 
ATOM     72  C   UNL A   1      52.851  26.675  25.044  1.00  0.00     0.049 A 
ATOM     73  C   UNL A   1      50.541  30.173  28.747  1.00  0.00     0.074 A 
ATOM     74  C   UNL A   1      53.155  25.433  25.566  1.00  0.00     0.029 A 
ATOM     75  N   UNL A   1      53.248  27.592  25.981  1.00  0.00    -0.354 N 
ATOM     76  N   UNL A   1      51.296  29.306  29.356  1.00  0.00    -0.248 NA
ATOM     77  C   UNL A   1      51.123  30.772  27.553  1.00  0.00     0.031 C 
ATOM     78  C   UNL A   1      53.381  25.645  26.958  1.00  0.00     0.029 A 
ATOM     79  C   UNL A   1      53.185  26.999  27.216  1.00  0.00     0.049 A 
ATOM     80  H   UNL A   1      53.530  28.517  25.798  1.00  0.00     0.167 HD
ATOM     81  C   UNL A   1      52.252  28.955  28.418  1.00  0.00     0.074 A 
ATOM     82  C   UNL A   1      52.199  29.997  27.408  1.00  0.00     0.031 C 
ATOM     83  C   UNL A   1      52.778  27.698  28.409  1.00  0.00     0.037 A 
BRANCH  70  84
ATOM     84  C   UNL A   1      52.546  28.174  22.968  1.00  0.00     0.064 A 
ATOM     85  C   UNL A   1      53.388  27.807  21.908  1.00  0.00     0.173 A 
ATOM     86  C   UNL A   1      52.389  29.561  23.189  1.00  0.00     0.173 A 
ATOM     87  F   UNL A   1      53.655  26.516  21.670  1.00  0.00    -0.203 F 
ATOM     88  C   UNL A   1      54.021  28.769  21.114  1.00  0.00     0.198 A 
ATOM     89  C   UNL A   1      52.975  30.515  22.363  1.00  0.00     0.198 A 
ATOM     90  F   UNL A   1      51.738  30.027  24.265  1.00  0.00    -0.203 F 
ATOM     91  F   UNL A   1      54.880  28.384  20.161  1.00  0.00    -0.200 F 
ATOM     92  C   UNL A   1      53.804  30.120  21.334  1.00  0.00     0.200 A 
ATOM     93  F   UNL A   1      52.778  31.818  22.613  1.00  0.00    -0.200 F 
ATOM     94  F   UNL A   1      54.429  31.040  20.587  1.00  0.00    -0.200 F 
ENDBRANCH  70  84
BRANCH  71  95
ATOM     95  C   UNL A   1      48.617  31.653  29.637  1.00  0.00     0.064 A 
ATOM     96  C   UNL A   1      49.030  32.066  30.915  1.00  0.00     0.173 A 
ATOM     97  C   UNL A   1      47.895  32.597  28.883  1.00  0.00     0.173 A 
ATOM     98  F   UNL A   1      49.769  31.252  31.685  1.00  0.00    -0.203 F 
ATOM     99  C   UNL A   1      48.742  33.344  31.404  1.00  0.00     0.198 A 
ATOM    100  C   UNL A   1      47.588  33.864  29.378  1.00  0.00     0.198 A 
ATOM    101  F   UNL A   1      47.548  32.342  27.613  1.00  0.00    -0.203 F 
ATOM    102  F   UNL A   1      49.206  33.722  32.604  1.00  0.00    -0.200 F 
ATOM    103  C   UNL A   1      48.021  34.242  30.635  1.00  0.00     0.200 A 
ATOM    104  F   UNL A   1      46.918  34.733  28.609  1.00  0.00    -0.200 F 
ATOM    105  F   UNL A   1      47.781  35.482  31.083  1.00  0.00    -0.200 F 
ENDBRANCH  71  95
BRANCH  83 106
ATOM    106  C   UNL A   1      52.669  26.936  29.694  1.00  0.00     0.064 A 
ATOM    107  C   UNL A   1      53.665  26.931  30.686  1.00  0.00     0.173 A 
ATOM    108  C   UNL A   1      51.524  26.161  29.914  1.00  0.00     0.173 A 
ATOM    109  F   UNL A   1      54.745  27.722  30.578  1.00  0.00    -0.203 F 
ATOM    110  C   UNL A   1      53.560  26.100  31.799  1.00  0.00     0.198 A 
ATOM    111  C   UNL A   1      51.406  25.362  31.046  1.00  0.00     0.198 A 
ATOM    112  F   UNL A   1      50.519  26.179  29.024  1.00  0.00    -0.203 F 
ATOM    113  F   UNL A   1      54.552  26.059  32.702  1.00  0.00    -0.200 F 
ATOM    114  C   UNL A   1      52.436  25.308  31.971  1.00  0.00     0.200 A 
ATOM    115  F   UNL A   1      50.296  24.634  31.233  1.00  0.00    -0.200 F 
ATOM    116  F   UNL A   1      52.337  24.499  33.036  1.00  0.00    -0.200 F 
ENDBRANCH  83 106
ENDBRANCH  57  58
ENDBRANCH  50  52
ENDBRANCH  49  50
ENDBRANCH  48  49
ENDBRANCH  47  48
ENDBRANCH  46  47
ENDBRANCH  45  46
ENDBRANCH  44  45
ENDBRANCH  43  44
ENDBRANCH   1  43
TORSDOF 26
ENDMDL
