MODEL 1
REMARK VINA RESULT:     -11.0      0.000      0.000
REMARK SMILES Cc1ccc(C(C)(C)C)c(OCC(=O)c2nc(C)c(C(=O)OCCOCCOCCOCCOC(=O)c3ccc(-c4c5nc(c(-c6c(F)c(F)c(F)c(F)c6F)c6ccc([nH]6)c(-c6c(F)c(F)c(F)c(F)c6F)c6nc(c(-c7c(F)c(F)c(F)c(F)c7F)c7ccc4[nH]7)C=C6)C=C5)cc3)s2)c1
REMARK SMILES IDX 26 1 25 2 24 3 23 4 22 5 20 6 21 7 19 8 15 9 16 10 100 11
REMARK SMILES IDX 17 12 18 13 13 14 14 15 12 16 11 17 10 18 1 19 2 20 3 21
REMARK SMILES IDX 101 22 4 23 5 24 6 25 7 26 8 27 9 28 27 29 28 30 29 31 30 32
REMARK SMILES IDX 31 33 32 34 33 35 34 36 35 37 36 38 37 39 38 40 99 41 39 42
REMARK SMILES IDX 98 43 40 44 41 45 42 46 92 47 43 48 97 49 91 50 93 51 44 52
REMARK SMILES IDX 96 53 90 54 89 55 45 57 77 58 57 59 76 60 58 61 61 62 75 63
REMARK SMILES IDX 94 64 59 65 60 66 74 68 95 69 62 70 46 71 47 72 55 73 48 74
REMARK SMILES IDX 49 75 53 76 56 77 50 78 51 79 54 80 52 81 78 82 79 83 87 84
REMARK SMILES IDX 80 85 81 86 85 87 88 88 82 89 83 90 86 91 84 92 63 93 64 94
REMARK SMILES IDX 72 95 65 96 66 97 70 98 73 99 67 100 68 101 71 102 69 103
REMARK H PARENT 93 56 61 67
REMARK Flexibility Score: inf
ROOT
ATOM      1  C   UNL A   1      31.843  32.847  26.885  1.00  0.00     0.188 C 
ENDROOT
BRANCH   1   2
ATOM      2  O   UNL A   1      32.003  31.490  26.517  1.00  0.00    -0.376 OA
BRANCH   2   3
ATOM      3  C   UNL A   1      32.863  30.641  27.242  1.00  0.00     0.202 C 
BRANCH   3   4
ATOM      4  C   UNL A   1      33.162  29.429  26.380  1.00  0.00     0.261 C 
BRANCH   4   5
ATOM      5  O   UNL A   1      31.918  29.031  25.801  1.00  0.00    -0.459 OA
BRANCH   5   6
ATOM      6  C   UNL A   1      31.432  27.885  26.314  1.00  0.00     0.350 C 
ATOM      7  O   UNL A   1      31.070  27.728  27.475  1.00  0.00    -0.245 OA
BRANCH   6   8
ATOM      8  C   UNL A   1      31.107  27.038  25.216  1.00  0.00     0.136 A 
ATOM      9  C   UNL A   1      30.988  25.021  23.897  1.00  0.00     0.164 A 
ATOM     10  N   UNL A   1      30.386  26.011  23.257  1.00  0.00    -0.237 NA
ATOM     11  S   UNL A   1      31.436  25.410  25.476  1.00  0.00    -0.103 S 
ATOM     12  C   UNL A   1      30.396  27.172  24.045  1.00  0.00     0.064 A 
ATOM     13  C   UNL A   1      29.675  28.377  23.567  1.00  0.00     0.068 C 
BRANCH   9  14
ATOM     14  C   UNL A   1      31.297  23.719  23.315  1.00  0.00     0.228 C 
ATOM     15  O   UNL A   1      30.435  22.844  23.159  1.00  0.00    -0.288 OA
BRANCH  14  16
ATOM     16  C   UNL A   1      32.772  23.347  22.936  1.00  0.00     0.313 C 
BRANCH  16  17
ATOM     17  O   UNL A   1      33.871  23.054  23.780  1.00  0.00    -0.485 OA
BRANCH  17  18
ATOM     18  C   UNL A   1      34.093  21.775  24.222  1.00  0.00     0.123 A 
ATOM     19  C   UNL A   1      32.352  18.378  24.105  1.00  0.00     0.044 C 
ATOM     20  C   UNL A   1      33.381  19.441  24.352  1.00  0.00    -0.047 A 
ATOM     21  C   UNL A   1      34.649  19.093  24.802  1.00  0.00     0.004 A 
ATOM     22  C   UNL A   1      33.088  20.791  24.135  1.00  0.00     0.050 A 
ATOM     23  C   UNL A   1      35.631  20.070  24.962  1.00  0.00     0.008 A 
ATOM     24  C   UNL A   1      35.409  21.428  24.631  1.00  0.00    -0.000 A 
BRANCH  24  25
ATOM     25  C   UNL A   1      36.638  22.382  24.690  1.00  0.00    -0.010 C 
ATOM     26  C   UNL A   1      37.869  21.557  25.118  1.00  0.00     0.016 C 
ATOM     27  C   UNL A   1      36.928  23.009  23.294  1.00  0.00     0.016 C 
ATOM     28  C   UNL A   1      36.544  23.581  25.660  1.00  0.00     0.016 C 
ENDBRANCH  24  25
ENDBRANCH  17  18
ENDBRANCH  16  17
ENDBRANCH  14  16
ENDBRANCH   9  14
ENDBRANCH   6   8
ENDBRANCH   5   6
ENDBRANCH   4   5
ENDBRANCH   3   4
ENDBRANCH   2   3
ENDBRANCH   1   2
BRANCH   1  29
ATOM     29  C   UNL A   1      32.816  33.683  27.740  1.00  0.00     0.188 C 
BRANCH  29  30
ATOM     30  O   UNL A   1      32.465  34.241  28.990  1.00  0.00    -0.377 OA
BRANCH  30  31
ATOM     31  C   UNL A   1      33.281  35.210  29.624  1.00  0.00     0.188 C 
BRANCH  31  32
ATOM     32  C   UNL A   1      34.165  34.807  30.795  1.00  0.00     0.188 C 
BRANCH  32  33
ATOM     33  O   UNL A   1      34.056  33.397  30.973  1.00  0.00    -0.376 OA
BRANCH  33  34
ATOM     34  C   UNL A   1      35.244  32.658  30.690  1.00  0.00     0.202 C 
BRANCH  34  35
ATOM     35  C   UNL A   1      36.216  33.373  29.739  1.00  0.00     0.261 C 
BRANCH  35  36
ATOM     36  O   UNL A   1      37.189  32.421  29.273  1.00  0.00    -0.460 OA
BRANCH  36  37
ATOM     37  C   UNL A   1      36.745  31.549  28.331  1.00  0.00     0.338 C 
ATOM     38  O   UNL A   1      35.771  31.710  27.615  1.00  0.00    -0.246 OA
BRANCH  37  39
ATOM     39  C   UNL A   1      37.454  30.250  28.497  1.00  0.00     0.060 A 
ATOM     40  C   UNL A   1      37.276  29.501  29.672  1.00  0.00     0.016 A 
ATOM     41  C   UNL A   1      38.480  29.915  27.617  1.00  0.00     0.016 A 
ATOM     42  C   UNL A   1      38.206  28.511  30.026  1.00  0.00     0.010 A 
ATOM     43  C   UNL A   1      39.426  28.982  28.001  1.00  0.00     0.010 A 
ATOM     44  C   UNL A   1      39.333  28.304  29.226  1.00  0.00    -0.014 A 
BRANCH  44  45
ATOM     45  C   UNL A   1      40.557  27.599  29.660  1.00  0.00     0.031 A 
ATOM     46  C   UNL A   1      40.895  26.239  29.126  1.00  0.00     0.074 A 
ATOM     47  C   UNL A   1      41.537  28.330  30.250  1.00  0.00     0.049 A 
ATOM     48  N   UNL A   1      41.994  25.606  29.374  1.00  0.00    -0.248 NA
ATOM     49  C   UNL A   1      40.013  25.457  28.263  1.00  0.00     0.031 C 
ATOM     50  C   UNL A   1      42.969  28.059  30.188  1.00  0.00     0.029 A 
ATOM     51  N   UNL A   1      41.495  29.522  30.957  1.00  0.00    -0.354 N 
ATOM     52  C   UNL A   1      42.128  24.572  28.476  1.00  0.00     0.074 A 
ATOM     53  C   UNL A   1      40.809  24.438  27.912  1.00  0.00     0.031 C 
ATOM     54  C   UNL A   1      43.669  29.008  30.821  1.00  0.00     0.029 A 
ATOM     55  C   UNL A   1      42.717  29.750  31.604  1.00  0.00     0.049 A 
ATOM     56  H   UNL A   1      40.718  30.125  30.998  1.00  0.00     0.167 HD
ATOM     57  C   UNL A   1      43.378  24.062  28.236  1.00  0.00     0.037 A 
ATOM     58  C   UNL A   1      42.810  29.777  32.969  1.00  0.00     0.037 A 
ATOM     59  C   UNL A   1      44.375  24.578  29.208  1.00  0.00     0.049 A 
ATOM     60  C   UNL A   1      43.542  28.549  33.480  1.00  0.00     0.074 A 
ATOM     61  C   UNL A   1      45.607  25.203  29.091  1.00  0.00     0.029 A 
ATOM     62  N   UNL A   1      44.064  24.632  30.576  1.00  0.00    -0.354 N 
ATOM     63  N   UNL A   1      43.537  27.403  32.841  1.00  0.00    -0.248 NA
ATOM     64  C   UNL A   1      44.486  28.554  34.597  1.00  0.00     0.031 C 
ATOM     65  C   UNL A   1      45.951  25.757  30.356  1.00  0.00     0.029 A 
ATOM     66  C   UNL A   1      44.988  25.380  31.280  1.00  0.00     0.049 A 
ATOM     67  H   UNL A   1      43.283  24.191  30.983  1.00  0.00     0.167 HD
ATOM     68  C   UNL A   1      44.534  26.612  33.328  1.00  0.00     0.074 A 
ATOM     69  C   UNL A   1      45.051  27.338  34.476  1.00  0.00     0.031 C 
ATOM     70  C   UNL A   1      44.965  25.460  32.735  1.00  0.00     0.037 A 
BRANCH  57  71
ATOM     71  C   UNL A   1      43.777  23.234  26.998  1.00  0.00     0.064 A 
ATOM     72  C   UNL A   1      43.299  21.911  26.821  1.00  0.00     0.173 A 
ATOM     73  C   UNL A   1      44.693  23.635  25.997  1.00  0.00     0.173 A 
ATOM     74  F   UNL A   1      42.410  21.372  27.665  1.00  0.00    -0.203 F 
ATOM     75  C   UNL A   1      43.712  21.078  25.765  1.00  0.00     0.198 A 
ATOM     76  C   UNL A   1      45.050  22.828  24.906  1.00  0.00     0.198 A 
ATOM     77  F   UNL A   1      45.337  24.802  26.045  1.00  0.00    -0.203 F 
ATOM     78  F   UNL A   1      43.264  19.815  25.695  1.00  0.00    -0.200 F 
ATOM     79  C   UNL A   1      44.573  21.543  24.797  1.00  0.00     0.200 A 
ATOM     80  F   UNL A   1      45.885  23.310  23.971  1.00  0.00    -0.200 F 
ATOM     81  F   UNL A   1      44.949  20.761  23.775  1.00  0.00    -0.200 F 
ENDBRANCH  57  71
BRANCH  58  82
ATOM     82  C   UNL A   1      41.723  30.601  33.563  1.00  0.00     0.064 A 
ATOM     83  C   UNL A   1      41.718  31.936  33.102  1.00  0.00     0.173 A 
ATOM     84  C   UNL A   1      40.487  30.023  33.888  1.00  0.00     0.173 A 
ATOM     85  F   UNL A   1      42.879  32.541  32.805  1.00  0.00    -0.203 F 
ATOM     86  C   UNL A   1      40.532  32.558  32.718  1.00  0.00     0.198 A 
ATOM     87  C   UNL A   1      39.298  30.667  33.530  1.00  0.00     0.198 A 
ATOM     88  F   UNL A   1      40.427  28.767  34.350  1.00  0.00    -0.203 F 
ATOM     89  F   UNL A   1      40.573  33.723  32.056  1.00  0.00    -0.200 F 
ATOM     90  C   UNL A   1      39.326  31.900  32.886  1.00  0.00     0.200 A 
ATOM     91  F   UNL A   1      38.125  30.030  33.667  1.00  0.00    -0.200 F 
ATOM     92  F   UNL A   1      38.206  32.410  32.358  1.00  0.00    -0.200 F 
ENDBRANCH  58  82
BRANCH  70  93
ATOM     93  C   UNL A   1      45.482  24.290  33.529  1.00  0.00     0.064 A 
ATOM     94  C   UNL A   1      44.684  23.164  33.794  1.00  0.00     0.173 A 
ATOM     95  C   UNL A   1      46.859  24.153  33.818  1.00  0.00     0.173 A 
ATOM     96  F   UNL A   1      43.380  23.142  33.477  1.00  0.00    -0.203 F 
ATOM     97  C   UNL A   1      45.218  21.994  34.329  1.00  0.00     0.198 A 
ATOM     98  C   UNL A   1      47.396  22.966  34.310  1.00  0.00     0.198 A 
ATOM     99  F   UNL A   1      47.733  25.143  33.588  1.00  0.00    -0.203 F 
ATOM    100  F   UNL A   1      44.413  20.952  34.571  1.00  0.00    -0.200 F 
ATOM    101  C   UNL A   1      46.574  21.890  34.572  1.00  0.00     0.200 A 
ATOM    102  F   UNL A   1      48.720  22.861  34.494  1.00  0.00    -0.200 F 
ATOM    103  F   UNL A   1      47.091  20.744  35.034  1.00  0.00    -0.200 F 
ENDBRANCH  70  93
ENDBRANCH  44  45
ENDBRANCH  37  39
ENDBRANCH  36  37
ENDBRANCH  35  36
ENDBRANCH  34  35
ENDBRANCH  33  34
ENDBRANCH  32  33
ENDBRANCH  31  32
ENDBRANCH  30  31
ENDBRANCH  29  30
ENDBRANCH   1  29
TORSDOF 25
ENDMDL
MODEL 2
REMARK VINA RESULT:     -10.2      1.049      2.397
REMARK SMILES Cc1ccc(C(C)(C)C)c(OCC(=O)c2nc(C)c(C(=O)OCCOCCOCCOCCOC(=O)c3ccc(-c4c5nc(c(-c6c(F)c(F)c(F)c(F)c6F)c6ccc([nH]6)c(-c6c(F)c(F)c(F)c(F)c6F)c6nc(c(-c7c(F)c(F)c(F)c(F)c7F)c7ccc4[nH]7)C=C6)C=C5)cc3)s2)c1
REMARK SMILES IDX 26 1 25 2 24 3 23 4 22 5 20 6 21 7 19 8 15 9 16 10 100 11
REMARK SMILES IDX 17 12 18 13 13 14 14 15 12 16 11 17 10 18 1 19 2 20 3 21
REMARK SMILES IDX 101 22 4 23 5 24 6 25 7 26 8 27 9 28 27 29 28 30 29 31 30 32
REMARK SMILES IDX 31 33 32 34 33 35 34 36 35 37 36 38 37 39 38 40 99 41 39 42
REMARK SMILES IDX 98 43 40 44 41 45 42 46 92 47 43 48 97 49 91 50 93 51 44 52
REMARK SMILES IDX 96 53 90 54 89 55 45 57 77 58 57 59 76 60 58 61 61 62 75 63
REMARK SMILES IDX 94 64 59 65 60 66 74 68 95 69 62 70 46 71 47 72 55 73 48 74
REMARK SMILES IDX 49 75 53 76 56 77 50 78 51 79 54 80 52 81 78 82 79 83 87 84
REMARK SMILES IDX 80 85 81 86 85 87 88 88 82 89 83 90 86 91 84 92 63 93 64 94
REMARK SMILES IDX 72 95 65 96 66 97 70 98 73 99 67 100 68 101 71 102 69 103
REMARK H PARENT 93 56 61 67
REMARK Flexibility Score: inf
ROOT
ATOM      1  C   UNL A   1      31.394  32.210  26.772  1.00  0.00     0.188 C 
ENDROOT
BRANCH   1   2
ATOM      2  O   UNL A   1      31.923  31.049  26.159  1.00  0.00    -0.376 OA
BRANCH   2   3
ATOM      3  C   UNL A   1      33.128  30.476  26.614  1.00  0.00     0.202 C 
BRANCH   3   4
ATOM      4  C   UNL A   1      32.933  28.974  26.691  1.00  0.00     0.261 C 
BRANCH   4   5
ATOM      5  O   UNL A   1      33.936  28.394  25.856  1.00  0.00    -0.459 OA
BRANCH   5   6
ATOM      6  C   UNL A   1      33.439  27.823  24.742  1.00  0.00     0.350 C 
ATOM      7  O   UNL A   1      33.959  27.867  23.632  1.00  0.00    -0.245 OA
BRANCH   6   8
ATOM      8  C   UNL A   1      32.428  26.909  25.154  1.00  0.00     0.136 A 
ATOM      9  C   UNL A   1      31.446  24.986  26.231  1.00  0.00     0.164 A 
ATOM     10  N   UNL A   1      30.504  25.684  25.615  1.00  0.00    -0.237 NA
ATOM     11  S   UNL A   1      32.947  25.753  26.259  1.00  0.00    -0.103 S 
ATOM     12  C   UNL A   1      31.058  26.837  25.039  1.00  0.00     0.064 A 
ATOM     13  C   UNL A   1      30.160  27.825  24.391  1.00  0.00     0.068 C 
BRANCH   9  14
ATOM     14  C   UNL A   1      31.257  23.656  26.803  1.00  0.00     0.228 C 
ATOM     15  O   UNL A   1      30.181  23.298  27.300  1.00  0.00    -0.288 OA
BRANCH  14  16
ATOM     16  C   UNL A   1      32.454  22.648  26.882  1.00  0.00     0.313 C 
BRANCH  16  17
ATOM     17  O   UNL A   1      33.097  21.931  25.842  1.00  0.00    -0.485 OA
BRANCH  17  18
ATOM     18  C   UNL A   1      34.201  22.449  25.214  1.00  0.00     0.123 A 
ATOM     19  C   UNL A   1      37.946  22.810  25.870  1.00  0.00     0.044 C 
ATOM     20  C   UNL A   1      36.611  22.851  25.187  1.00  0.00    -0.047 A 
ATOM     21  C   UNL A   1      36.527  23.181  23.840  1.00  0.00     0.004 A 
ATOM     22  C   UNL A   1      35.435  22.558  25.885  1.00  0.00     0.050 A 
ATOM     23  C   UNL A   1      35.297  23.148  23.183  1.00  0.00     0.008 A 
ATOM     24  C   UNL A   1      34.107  22.733  23.824  1.00  0.00    -0.000 A 
BRANCH  24  25
ATOM     25  C   UNL A   1      32.840  22.574  22.934  1.00  0.00    -0.010 C 
ATOM     26  C   UNL A   1      33.254  22.784  21.464  1.00  0.00     0.016 C 
ATOM     27  C   UNL A   1      32.233  21.146  23.074  1.00  0.00     0.016 C 
ATOM     28  C   UNL A   1      31.666  23.540  23.212  1.00  0.00     0.016 C 
ENDBRANCH  24  25
ENDBRANCH  17  18
ENDBRANCH  16  17
ENDBRANCH  14  16
ENDBRANCH   9  14
ENDBRANCH   6   8
ENDBRANCH   5   6
ENDBRANCH   4   5
ENDBRANCH   3   4
ENDBRANCH   2   3
ENDBRANCH   1   2
BRANCH   1  29
ATOM     29  C   UNL A   1      32.189  33.456  27.209  1.00  0.00     0.188 C 
BRANCH  29  30
ATOM     30  O   UNL A   1      32.492  33.748  28.557  1.00  0.00    -0.377 OA
BRANCH  30  31
ATOM     31  C   UNL A   1      33.426  34.754  28.905  1.00  0.00     0.188 C 
BRANCH  31  32
ATOM     32  C   UNL A   1      34.391  34.526  30.060  1.00  0.00     0.188 C 
BRANCH  32  33
ATOM     33  O   UNL A   1      34.290  33.164  30.464  1.00  0.00    -0.376 OA
BRANCH  33  34
ATOM     34  C   UNL A   1      35.469  32.385  30.265  1.00  0.00     0.202 C 
BRANCH  34  35
ATOM     35  C   UNL A   1      36.690  33.199  29.809  1.00  0.00     0.261 C 
BRANCH  35  36
ATOM     36  O   UNL A   1      37.493  32.380  28.942  1.00  0.00    -0.460 OA
BRANCH  36  37
ATOM     37  C   UNL A   1      36.821  31.408  28.273  1.00  0.00     0.338 C 
ATOM     38  O   UNL A   1      35.699  31.511  27.806  1.00  0.00    -0.246 OA
BRANCH  37  39
ATOM     39  C   UNL A   1      37.540  30.115  28.442  1.00  0.00     0.060 A 
ATOM     40  C   UNL A   1      37.383  29.376  29.626  1.00  0.00     0.016 A 
ATOM     41  C   UNL A   1      38.556  29.777  27.550  1.00  0.00     0.016 A 
ATOM     42  C   UNL A   1      38.324  28.395  29.976  1.00  0.00     0.010 A 
ATOM     43  C   UNL A   1      39.512  28.854  27.930  1.00  0.00     0.010 A 
ATOM     44  C   UNL A   1      39.441  28.186  29.163  1.00  0.00    -0.014 A 
BRANCH  44  45
ATOM     45  C   UNL A   1      40.675  27.494  29.587  1.00  0.00     0.031 A 
ATOM     46  C   UNL A   1      41.015  26.132  29.058  1.00  0.00     0.074 A 
ATOM     47  C   UNL A   1      41.657  28.236  30.159  1.00  0.00     0.049 A 
ATOM     48  N   UNL A   1      42.121  25.508  29.297  1.00  0.00    -0.248 NA
ATOM     49  C   UNL A   1      40.128  25.338  28.212  1.00  0.00     0.031 C 
ATOM     50  C   UNL A   1      43.090  27.974  30.081  1.00  0.00     0.029 A 
ATOM     51  N   UNL A   1      41.617  29.432  30.858  1.00  0.00    -0.354 N 
ATOM     52  C   UNL A   1      42.252  24.468  28.405  1.00  0.00     0.074 A 
ATOM     53  C   UNL A   1      40.926  24.321  27.859  1.00  0.00     0.031 C 
ATOM     54  C   UNL A   1      43.792  28.931  30.697  1.00  0.00     0.029 A 
ATOM     55  C   UNL A   1      42.844  29.673  31.487  1.00  0.00     0.049 A 
ATOM     56  H   UNL A   1      40.835  30.030  30.904  1.00  0.00     0.167 HD
ATOM     57  C   UNL A   1      43.502  23.965  28.153  1.00  0.00     0.037 A 
ATOM     58  C   UNL A   1      42.955  29.711  32.851  1.00  0.00     0.037 A 
ATOM     59  C   UNL A   1      44.507  24.495  29.108  1.00  0.00     0.049 A 
ATOM     60  C   UNL A   1      43.702  28.491  33.362  1.00  0.00     0.074 A 
ATOM     61  C   UNL A   1      45.733  25.127  28.971  1.00  0.00     0.029 A 
ATOM     62  N   UNL A   1      44.213  24.556  30.479  1.00  0.00    -0.354 N 
ATOM     63  N   UNL A   1      43.696  27.341  32.731  1.00  0.00    -0.248 NA
ATOM     64  C   UNL A   1      44.659  28.511  34.466  1.00  0.00     0.031 C 
ATOM     65  C   UNL A   1      46.090  25.693  30.228  1.00  0.00     0.029 A 
ATOM     66  C   UNL A   1      45.141  25.316  31.167  1.00  0.00     0.049 A 
ATOM     67  H   UNL A   1      43.440  24.113  30.900  1.00  0.00     0.167 HD
ATOM     68  C   UNL A   1      44.704  26.560  33.211  1.00  0.00     0.074 A 
ATOM     69  C   UNL A   1      45.231  27.298  34.347  1.00  0.00     0.031 C 
ATOM     70  C   UNL A   1      45.135  25.406  32.621  1.00  0.00     0.037 A 
BRANCH  57  71
ATOM     71  C   UNL A   1      43.891  23.130  26.916  1.00  0.00     0.064 A 
ATOM     72  C   UNL A   1      44.676  23.689  25.876  1.00  0.00     0.173 A 
ATOM     73  C   UNL A   1      43.455  21.813  26.639  1.00  0.00     0.173 A 
ATOM     74  F   UNL A   1      45.189  24.922  25.976  1.00  0.00    -0.203 F 
ATOM     75  C   UNL A   1      44.973  23.007  24.683  1.00  0.00     0.198 A 
ATOM     76  C   UNL A   1      43.810  21.108  25.479  1.00  0.00     0.198 A 
ATOM     77  F   UNL A   1      42.618  21.154  27.442  1.00  0.00    -0.203 F 
ATOM     78  F   UNL A   1      45.670  23.622  23.716  1.00  0.00    -0.200 F 
ATOM     79  C   UNL A   1      44.556  21.708  24.493  1.00  0.00     0.200 A 
ATOM     80  F   UNL A   1      43.397  19.839  25.323  1.00  0.00    -0.200 F 
ATOM     81  F   UNL A   1      44.858  21.044  23.367  1.00  0.00    -0.200 F 
ENDBRANCH  57  71
BRANCH  58  82
ATOM     82  C   UNL A   1      41.870  30.532  33.453  1.00  0.00     0.064 A 
ATOM     83  C   UNL A   1      41.914  31.889  33.064  1.00  0.00     0.173 A 
ATOM     84  C   UNL A   1      40.609  29.972  33.706  1.00  0.00     0.173 A 
ATOM     85  F   UNL A   1      43.100  32.477  32.837  1.00  0.00    -0.203 F 
ATOM     86  C   UNL A   1      40.758  32.562  32.675  1.00  0.00     0.198 A 
ATOM     87  C   UNL A   1      39.449  30.666  33.344  1.00  0.00     0.198 A 
ATOM     88  F   UNL A   1      40.502  28.695  34.098  1.00  0.00    -0.203 F 
ATOM     89  F   UNL A   1      40.851  33.759  32.077  1.00  0.00    -0.200 F 
ATOM     90  C   UNL A   1      39.531  31.929  32.769  1.00  0.00     0.200 A 
ATOM     91  F   UNL A   1      38.257  30.055  33.410  1.00  0.00    -0.200 F 
ATOM     92  F   UNL A   1      38.443  32.497  32.232  1.00  0.00    -0.200 F 
ENDBRANCH  58  82
BRANCH  70  93
ATOM     93  C   UNL A   1      45.671  24.246  33.417  1.00  0.00     0.064 A 
ATOM     94  C   UNL A   1      46.941  24.283  34.017  1.00  0.00     0.173 A 
ATOM     95  C   UNL A   1      44.829  23.183  33.820  1.00  0.00     0.173 A 
ATOM     96  F   UNL A   1      47.794  25.293  33.784  1.00  0.00    -0.203 F 
ATOM     97  C   UNL A   1      47.351  23.317  34.932  1.00  0.00     0.198 A 
ATOM     98  C   UNL A   1      45.226  22.246  34.769  1.00  0.00     0.198 A 
ATOM     99  F   UNL A   1      43.583  23.048  33.343  1.00  0.00    -0.203 F 
ATOM    100  F   UNL A   1      48.576  23.393  35.468  1.00  0.00    -0.200 F 
ATOM    101  C   UNL A   1      46.489  22.309  35.320  1.00  0.00     0.200 A 
ATOM    102  F   UNL A   1      44.363  21.303  35.174  1.00  0.00    -0.200 F 
ATOM    103  F   UNL A   1      46.867  21.415  36.242  1.00  0.00    -0.200 F 
ENDBRANCH  70  93
ENDBRANCH  44  45
ENDBRANCH  37  39
ENDBRANCH  36  37
ENDBRANCH  35  36
ENDBRANCH  34  35
ENDBRANCH  33  34
ENDBRANCH  32  33
ENDBRANCH  31  32
ENDBRANCH  30  31
ENDBRANCH  29  30
ENDBRANCH   1  29
TORSDOF 25
ENDMDL
MODEL 3
REMARK VINA RESULT:      -9.6      1.711      2.692
REMARK SMILES Cc1ccc(C(C)(C)C)c(OCC(=O)c2nc(C)c(C(=O)OCCOCCOCCOCCOC(=O)c3ccc(-c4c5nc(c(-c6c(F)c(F)c(F)c(F)c6F)c6ccc([nH]6)c(-c6c(F)c(F)c(F)c(F)c6F)c6nc(c(-c7c(F)c(F)c(F)c(F)c7F)c7ccc4[nH]7)C=C6)C=C5)cc3)s2)c1
REMARK SMILES IDX 26 1 25 2 24 3 23 4 22 5 20 6 21 7 19 8 15 9 16 10 100 11
REMARK SMILES IDX 17 12 18 13 13 14 14 15 12 16 11 17 10 18 1 19 2 20 3 21
REMARK SMILES IDX 101 22 4 23 5 24 6 25 7 26 8 27 9 28 27 29 28 30 29 31 30 32
REMARK SMILES IDX 31 33 32 34 33 35 34 36 35 37 36 38 37 39 38 40 99 41 39 42
REMARK SMILES IDX 98 43 40 44 41 45 42 46 92 47 43 48 97 49 91 50 93 51 44 52
REMARK SMILES IDX 96 53 90 54 89 55 45 57 77 58 57 59 76 60 58 61 61 62 75 63
REMARK SMILES IDX 94 64 59 65 60 66 74 68 95 69 62 70 46 71 47 72 55 73 48 74
REMARK SMILES IDX 49 75 53 76 56 77 50 78 51 79 54 80 52 81 78 82 79 83 87 84
REMARK SMILES IDX 80 85 81 86 85 87 88 88 82 89 83 90 86 91 84 92 63 93 64 94
REMARK SMILES IDX 72 95 65 96 66 97 70 98 73 99 67 100 68 101 71 102 69 103
REMARK H PARENT 93 56 61 67
REMARK Flexibility Score: inf
ROOT
ATOM      1  C   UNL A   1      31.403  31.895  26.680  1.00  0.00     0.188 C 
ENDROOT
BRANCH   1   2
ATOM      2  O   UNL A   1      32.069  30.811  26.059  1.00  0.00    -0.376 OA
BRANCH   2   3
ATOM      3  C   UNL A   1      32.120  29.545  26.676  1.00  0.00     0.202 C 
BRANCH   3   4
ATOM      4  C   UNL A   1      31.887  28.494  25.608  1.00  0.00     0.261 C 
BRANCH   4   5
ATOM      5  O   UNL A   1      33.164  28.213  25.033  1.00  0.00    -0.459 OA
BRANCH   5   6
ATOM      6  C   UNL A   1      33.235  28.502  23.719  1.00  0.00     0.350 C 
ATOM      7  O   UNL A   1      33.900  29.408  23.230  1.00  0.00    -0.245 OA
BRANCH   6   8
ATOM      8  C   UNL A   1      32.692  27.389  23.015  1.00  0.00     0.136 A 
ATOM      9  C   UNL A   1      32.582  25.175  22.063  1.00  0.00     0.164 A 
ATOM     10  N   UNL A   1      31.455  25.825  21.817  1.00  0.00    -0.237 NA
ATOM     11  S   UNL A   1      33.614  25.987  23.120  1.00  0.00    -0.103 S 
ATOM     12  C   UNL A   1      31.487  27.091  22.421  1.00  0.00     0.064 A 
ATOM     13  C   UNL A   1      30.278  27.949  22.367  1.00  0.00     0.068 C 
BRANCH   9  14
ATOM     14  C   UNL A   1      32.955  23.898  21.461  1.00  0.00     0.228 C 
ATOM     15  O   UNL A   1      33.280  23.799  20.271  1.00  0.00    -0.288 OA
BRANCH  14  16
ATOM     16  C   UNL A   1      32.877  22.574  22.295  1.00  0.00     0.313 C 
BRANCH  16  17
ATOM     17  O   UNL A   1      32.015  22.235  23.368  1.00  0.00    -0.485 OA
BRANCH  17  18
ATOM     18  C   UNL A   1      31.932  23.034  24.478  1.00  0.00     0.123 A 
ATOM     19  C   UNL A   1      29.487  25.532  26.017  1.00  0.00     0.044 C 
ATOM     20  C   UNL A   1      30.672  24.633  25.832  1.00  0.00    -0.047 A 
ATOM     21  C   UNL A   1      31.559  24.423  26.881  1.00  0.00     0.004 A 
ATOM     22  C   UNL A   1      30.908  23.993  24.611  1.00  0.00     0.050 A 
ATOM     23  C   UNL A   1      32.622  23.530  26.736  1.00  0.00     0.008 A 
ATOM     24  C   UNL A   1      32.817  22.769  25.560  1.00  0.00    -0.000 A 
BRANCH  24  25
ATOM     25  C   UNL A   1      33.933  21.685  25.594  1.00  0.00    -0.010 C 
ATOM     26  C   UNL A   1      35.116  22.184  24.739  1.00  0.00     0.016 C 
ATOM     27  C   UNL A   1      34.441  21.450  27.047  1.00  0.00     0.016 C 
ATOM     28  C   UNL A   1      33.559  20.282  25.065  1.00  0.00     0.016 C 
ENDBRANCH  24  25
ENDBRANCH  17  18
ENDBRANCH  16  17
ENDBRANCH  14  16
ENDBRANCH   9  14
ENDBRANCH   6   8
ENDBRANCH   5   6
ENDBRANCH   4   5
ENDBRANCH   3   4
ENDBRANCH   2   3
ENDBRANCH   1   2
BRANCH   1  29
ATOM     29  C   UNL A   1      31.999  33.286  26.975  1.00  0.00     0.188 C 
BRANCH  29  30
ATOM     30  O   UNL A   1      32.349  33.719  28.273  1.00  0.00    -0.377 OA
BRANCH  30  31
ATOM     31  C   UNL A   1      32.934  34.989  28.497  1.00  0.00     0.188 C 
BRANCH  31  32
ATOM     32  C   UNL A   1      34.156  35.112  29.396  1.00  0.00     0.188 C 
BRANCH  32  33
ATOM     33  O   UNL A   1      34.220  33.956  30.226  1.00  0.00    -0.376 OA
BRANCH  33  34
ATOM     34  C   UNL A   1      35.273  33.045  29.914  1.00  0.00     0.202 C 
BRANCH  34  35
ATOM     35  C   UNL A   1      36.242  33.551  28.833  1.00  0.00     0.261 C 
BRANCH  35  36
ATOM     36  O   UNL A   1      36.398  32.524  27.837  1.00  0.00    -0.460 OA
BRANCH  36  37
ATOM     37  C   UNL A   1      35.663  31.401  28.040  1.00  0.00     0.338 C 
ATOM     38  O   UNL A   1      34.459  31.362  28.228  1.00  0.00    -0.246 OA
BRANCH  37  39
ATOM     39  C   UNL A   1      36.582  30.254  28.279  1.00  0.00     0.060 A 
ATOM     40  C   UNL A   1      36.367  29.401  29.374  1.00  0.00     0.016 A 
ATOM     41  C   UNL A   1      37.787  30.188  27.583  1.00  0.00     0.016 A 
ATOM     42  C   UNL A   1      37.407  28.585  29.849  1.00  0.00     0.010 A 
ATOM     43  C   UNL A   1      38.825  29.430  28.092  1.00  0.00     0.010 A 
ATOM     44  C   UNL A   1      38.670  28.658  29.254  1.00  0.00    -0.014 A 
BRANCH  44  45
ATOM     45  C   UNL A   1      39.921  28.173  29.871  1.00  0.00     0.031 A 
ATOM     46  C   UNL A   1      40.672  27.014  29.285  1.00  0.00     0.074 A 
ATOM     47  C   UNL A   1      40.565  28.998  30.736  1.00  0.00     0.049 A 
ATOM     48  N   UNL A   1      41.822  26.600  29.701  1.00  0.00    -0.248 NA
ATOM     49  C   UNL A   1      40.184  26.204  28.171  1.00  0.00     0.031 C 
ATOM     50  C   UNL A   1      42.006  29.051  30.963  1.00  0.00     0.029 A 
ATOM     51  N   UNL A   1      40.105  30.031  31.538  1.00  0.00    -0.354 N 
ATOM     52  C   UNL A   1      42.370  25.769  28.752  1.00  0.00     0.074 A 
ATOM     53  C   UNL A   1      41.254  25.444  27.900  1.00  0.00     0.031 C 
ATOM     54  C   UNL A   1      42.323  30.019  31.830  1.00  0.00     0.029 A 
ATOM     55  C   UNL A   1      41.089  30.412  32.458  1.00  0.00     0.049 A 
ATOM     56  H   UNL A   1      39.212  30.440  31.469  1.00  0.00     0.167 HD
ATOM     57  C   UNL A   1      43.728  25.580  28.741  1.00  0.00     0.037 A 
ATOM     58  C   UNL A   1      40.912  30.249  33.805  1.00  0.00     0.037 A 
ATOM     59  C   UNL A   1      44.368  26.142  29.957  1.00  0.00     0.049 A 
ATOM     60  C   UNL A   1      41.807  29.142  34.333  1.00  0.00     0.074 A 
ATOM     61  C   UNL A   1      45.412  27.025  30.181  1.00  0.00     0.029 A 
ATOM     62  N   UNL A   1      43.798  25.918  31.221  1.00  0.00    -0.354 N 
ATOM     63  N   UNL A   1      42.199  28.133  33.592  1.00  0.00    -0.248 NA
ATOM     64  C   UNL A   1      42.491  29.178  35.625  1.00  0.00     0.031 C 
ATOM     65  C   UNL A   1      45.366  27.440  31.542  1.00  0.00     0.029 A 
ATOM     66  C   UNL A   1      44.363  26.729  32.186  1.00  0.00     0.049 A 
ATOM     67  H   UNL A   1      43.084  25.263  31.397  1.00  0.00     0.167 HD
ATOM     68  C   UNL A   1      43.245  27.508  34.201  1.00  0.00     0.074 A 
ATOM     69  C   UNL A   1      43.345  28.143  35.505  1.00  0.00     0.031 C 
ATOM     70  C   UNL A   1      44.045  26.579  33.600  1.00  0.00     0.037 A 
BRANCH  57  71
ATOM     71  C   UNL A   1      44.543  25.055  27.541  1.00  0.00     0.064 A 
ATOM     72  C   UNL A   1      45.142  25.950  26.619  1.00  0.00     0.173 A 
ATOM     73  C   UNL A   1      44.700  23.696  27.182  1.00  0.00     0.173 A 
ATOM     74  F   UNL A   1      45.107  27.275  26.811  1.00  0.00    -0.203 F 
ATOM     75  C   UNL A   1      45.808  25.525  25.456  1.00  0.00     0.198 A 
ATOM     76  C   UNL A   1      45.424  23.271  26.058  1.00  0.00     0.198 A 
ATOM     77  F   UNL A   1      44.118  22.705  27.861  1.00  0.00    -0.203 F 
ATOM     78  F   UNL A   1      46.297  26.431  24.596  1.00  0.00    -0.200 F 
ATOM     79  C   UNL A   1      45.965  24.184  25.184  1.00  0.00     0.200 A 
ATOM     80  F   UNL A   1      45.570  21.957  25.822  1.00  0.00    -0.200 F 
ATOM     81  F   UNL A   1      46.621  23.774  24.089  1.00  0.00    -0.200 F 
ENDBRANCH  57  71
BRANCH  58  82
ATOM     82  C   UNL A   1      39.566  30.722  34.228  1.00  0.00     0.064 A 
ATOM     83  C   UNL A   1      39.537  32.092  34.571  1.00  0.00     0.173 A 
ATOM     84  C   UNL A   1      38.407  30.171  33.662  1.00  0.00     0.173 A 
ATOM     85  F   UNL A   1      40.613  32.657  35.141  1.00  0.00    -0.203 F 
ATOM     86  C   UNL A   1      38.516  32.924  34.115  1.00  0.00     0.198 A 
ATOM     87  C   UNL A   1      37.370  31.009  33.236  1.00  0.00     0.198 A 
ATOM     88  F   UNL A   1      38.364  28.873  33.334  1.00  0.00    -0.203 F 
ATOM     89  F   UNL A   1      38.634  34.254  34.238  1.00  0.00    -0.200 F 
ATOM     90  C   UNL A   1      37.459  32.386  33.403  1.00  0.00     0.200 A 
ATOM     91  F   UNL A   1      36.351  30.502  32.525  1.00  0.00    -0.200 F 
ATOM     92  F   UNL A   1      36.572  33.196  32.809  1.00  0.00    -0.200 F 
ENDBRANCH  58  82
BRANCH  70  93
ATOM     93  C   UNL A   1      44.668  25.439  34.362  1.00  0.00     0.064 A 
ATOM     94  C   UNL A   1      44.093  24.157  34.376  1.00  0.00     0.173 A 
ATOM     95  C   UNL A   1      45.982  25.532  34.875  1.00  0.00     0.173 A 
ATOM     96  F   UNL A   1      42.888  23.925  33.834  1.00  0.00    -0.203 F 
ATOM     97  C   UNL A   1      44.772  23.053  34.887  1.00  0.00     0.198 A 
ATOM     98  C   UNL A   1      46.674  24.418  35.343  1.00  0.00     0.198 A 
ATOM     99  F   UNL A   1      46.653  26.693  34.896  1.00  0.00    -0.203 F 
ATOM    100  F   UNL A   1      44.176  21.853  34.885  1.00  0.00    -0.200 F 
ATOM    101  C   UNL A   1      46.066  23.180  35.355  1.00  0.00     0.200 A 
ATOM    102  F   UNL A   1      47.945  24.546  35.747  1.00  0.00    -0.200 F 
ATOM    103  F   UNL A   1      46.734  22.106  35.792  1.00  0.00    -0.200 F 
ENDBRANCH  70  93
ENDBRANCH  44  45
ENDBRANCH  37  39
ENDBRANCH  36  37
ENDBRANCH  35  36
ENDBRANCH  34  35
ENDBRANCH  33  34
ENDBRANCH  32  33
ENDBRANCH  31  32
ENDBRANCH  30  31
ENDBRANCH  29  30
ENDBRANCH   1  29
TORSDOF 25
ENDMDL
